CHEMBL221_lig586
                    3D
 Schrodinger Suite 2021-1.
 45 47  0  0  1  0            999 V2000
   19.8501   49.1322    6.2013 S   0  0  0  0  0  0
   20.4136   49.3712   13.2976 C   0  0  0  0  0  0
   21.5317   50.2987   12.9880 C   0  0  0  0  0  0
   19.6453   48.7394   12.2862 C   0  0  0  0  0  0
   20.1230   49.1012   14.6504 C   0  0  0  0  0  0
   22.6168   52.4691   13.2027 C   0  0  0  0  0  0
   23.7266   52.0069   12.4631 C   0  0  0  0  0  0
   21.5577   51.6058   13.4849 C   0  0  0  0  0  0
   19.9458   49.0338    7.9841 C   0  0  0  0  0  0
   18.5793   47.9218   12.6899 C   0  0  0  0  0  0
   20.6525   50.2730    5.8000 O   0  0  0  0  0  0
   20.1230   47.8186    5.6477 O   0  0  0  0  0  0
   23.6632   50.7051   11.9367 C   0  0  0  0  0  0
   19.8547   48.8836   10.8019 C   0  0  0  0  0  0
   19.0600   48.2730   15.0034 C   0  0  0  0  0  0
   22.5897   49.8730   12.1965 C   0  0  0  0  0  0
   24.8478   52.8287   12.1886 N   0  0  0  0  0  0
   18.2053   49.4730    5.8000 N   0  0  0  0  0  0
   18.2783   47.6939   14.0230 C   0  0  0  0  0  0
   19.7232   47.8135    8.6059 C   0  0  0  0  0  0
   20.1230   50.1814    8.7709 C   0  0  0  0  0  0
   20.0907   50.1094   10.1672 C   0  0  0  0  0  0
   19.7230   47.7495    9.9920 C   0  0  0  0  0  0
   20.8694   49.6552   15.6375 F   0  0  0  0  0  0
   22.4511   54.1122   13.7313 Cl  0  0  0  0  0  0
   18.7615   48.0410   16.2965 F   0  0  0  0  0  0
   25.5798   53.3946   13.3205 C   0  0  0  0  0  0
   25.6480   52.5226   11.0002 C   0  0  0  0  0  0
   20.7376   51.9717   14.0841 H   0  0  0  0  0  0
   17.9432   47.4730   11.9455 H   0  0  0  0  0  0
   24.4558   50.2743   11.3492 H   0  0  0  0  0  0
   22.5995   48.8679   11.8000 H   0  0  0  0  0  0
   18.0521   50.2428    5.1317 H   0  0  0  0  0  0
   17.5773   48.6729    5.6992 H   0  0  0  0  0  0
   17.4377   47.0730   14.2958 H   0  0  0  0  0  0
   19.5779   46.9173    8.0233 H   0  0  0  0  0  0
   20.2406   51.1389    8.2857 H   0  0  0  0  0  0
   20.1789   51.0196   10.7419 H   0  0  0  0  0  0
   19.6316   46.7831   10.4519 H   0  0  0  0  0  0
   24.9384   53.6911   14.1452 H   0  0  0  0  0  0
   26.1233   54.2869   13.0080 H   0  0  0  0  0  0
   26.2905   52.6730   13.7209 H   0  0  0  0  0  0
   25.0660   52.6730   10.0900 H   0  0  0  0  0  0
   26.5779   53.0773   10.9469 H   0  0  0  0  0  0
   25.9725   51.4947   11.0000 H   0  0  0  0  0  0
  1  9  1  0  0  0
  1 11  2  0  0  0
  1 12  2  0  0  0
  1 18  1  0  0  0
  2  4  1  0  0  0
  2  3  1  0  0  0
  2  5  2  0  0  0
  3  8  2  0  0  0
  3 16  1  0  0  0
  4 14  1  0  0  0
  4 10  2  0  0  0
  5 24  1  0  0  0
  5 15  1  0  0  0
  6  8  1  0  0  0
  6 25  1  0  0  0
  6  7  2  0  0  0
  7 13  1  0  0  0
  7 17  1  0  0  0
  8 29  1  0  0  0
  9 20  1  0  0  0
  9 21  2  0  0  0
 10 19  1  0  0  0
 10 30  1  0  0  0
 13 16  2  0  0  0
 13 31  1  0  0  0
 14 22  2  0  0  0
 14 23  1  0  0  0
 15 19  2  0  0  0
 15 26  1  0  0  0
 16 32  1  0  0  0
 17 27  1  0  0  0
 17 28  1  0  0  0
 18 33  1  0  0  0
 18 34  1  0  0  0
 19 35  1  0  0  0
 20 23  2  0  0  0
 20 36  1  0  0  0
 21 22  1  0  0  0
 21 37  1  0  0  0
 22 38  1  0  0  0
 23 39  1  0  0  0
 27 40  1  0  0  0
 27 41  1  0  0  0
 27 42  1  0  0  0
 28 43  1  0  0  0
 28 44  1  0  0  0
 28 45  1  0  0  0
M  END
> <s_m_entry_id>
5011

> <s_m_entry_name>
dock_pv.2

> <s_m_Source_Path>
/home/csk/Desktop/cluster/DUD-E-result/pgh1

> <s_m_Source_File>
dock_pv.maegz

> <i_m_Source_File_Index>
2

> <chembl_id>
CHEMBL363270

> <chembl_pref_name>
None

> <i_lp_mmshare_version>
53161

> <r_lp_tautomer_probability>
1

> <s_lp_Force_Field>
OPLS_2005

> <r_lp_Energy>
38.764838

> <b_lp_Chiralities_Consistent>
1

> <s_lp_Variant>
CHEMBL221_lig586-1

> <s_i_glide_gridfile>
glide-grid_2oyu

> <i_i_glide_lignum>
724

> <i_i_glide_rotatable_bonds>
4

> <r_i_docking_score>
-10.8237165689047

> <r_i_glide_ligand_efficiency>
-0.38656130603231

> <r_i_glide_ligand_efficiency_sa>
-1.17382779754775

> <r_i_glide_ligand_efficiency_ln>
-2.49843158223085

> <r_i_glide_gscore>
-10.8237165689047

> <r_i_glide_lipo>
-5.27495103050035

> <r_i_glide_hbond>
-0.381435967544097

> <r_i_glide_metal>
0

> <r_i_glide_rewards>
-2.98108715557944

> <r_i_glide_evdw>
-24.3802719116211

> <r_i_glide_ecoul>
-7.41863012313843

> <r_i_glide_erotb>
0.221606788349705

> <r_i_glide_esite>
-0.0760410895786668

> <r_i_glide_emodel>
-38.9361127465253

> <r_i_glide_energy>
-31.7989020347595

> <r_i_glide_einternal>
1.5387487411499

> <i_i_glide_confnum>
6

> <i_i_glide_posenum>
84

> <r_i_glide_eff_state_penalty>
0

> <s_user_duplicate_titles>
CHEMBL221_lig586,308689

> <i_f3d_flags>
0

> <s_m_subgroup_title>
dock_pv

> <s_m_subgroupid>
dock_pv

> <b_m_subgroup_collapsed>
1

$$$$
CHEMBL221_lig204
                    3D
 Schrodinger Suite 2021-1.
 43 46  0  0  1  0            999 V2000
   20.2575   49.4081   14.3002 C   0  0  0  0  0  0
   20.7699   49.7090   13.0423 C   0  0  0  0  0  0
   19.9517   49.0373   12.1601 N   0  0  0  0  0  0
   19.2253   48.4762   14.0793 C   0  0  0  0  0  0
   19.0541   48.2730   12.7968 N   0  0  0  0  0  0
   20.0039   48.9876    6.1909 S   0  0  0  0  0  0
   20.9230   50.1644   15.7541 S   0  0  0  0  0  0
   18.3413   47.7146   15.0501 C   0  0  0  0  0  0
   21.9249   50.6147   12.7787 C   0  0  0  0  0  0
   22.1705   51.6326   13.7153 C   0  0  0  0  0  0
   19.9445   49.0638   10.7489 C   0  0  0  0  0  0
   20.0267   49.0365    7.9672 C   0  0  0  0  0  0
   21.2855   51.7703   14.9521 C   0  0  0  0  0  0
   20.9230   49.9730    5.6352 O   0  0  0  0  0  0
   20.1230   47.5934    5.7998 O   0  0  0  0  0  0
   22.7846   50.4435   11.6919 C   0  0  0  0  0  0
   18.4047   49.4730    5.8000 N   0  0  0  0  0  0
   23.2471   52.4930   13.4918 C   0  0  0  0  0  0
   19.7230   47.8774   10.0471 C   0  0  0  0  0  0
   20.1230   50.2617   10.0510 C   0  0  0  0  0  0
   18.5210   48.1131   16.3037 F   0  0  0  0  0  0
   17.0490   47.8739   14.7637 F   0  0  0  0  0  0
   18.6062   46.4083   15.0000 F   0  0  0  0  0  0
   19.7543   47.8599    8.6627 C   0  0  0  0  0  0
   20.1230   50.2466    8.6592 C   0  0  0  0  0  0
   24.1230   52.3157   12.4135 C   0  0  0  0  0  0
   23.8742   51.2867   11.5110 C   0  0  0  0  0  0
   25.2545   53.0730   12.2000 O   0  0  0  0  0  0
   25.5205   54.1823   13.0528 C   0  0  0  0  0  0
   21.7230   52.4080   15.7104 H   0  0  0  0  0  0
   20.3642   52.2730   14.6880 H   0  0  0  0  0  0
   22.6193   49.6387   10.9929 H   0  0  0  0  0  0
   18.2708   50.4816    5.9280 H   0  0  0  0  0  0
   18.1408   49.2471    4.8376 H   0  0  0  0  0  0
   23.4138   53.2870   14.2000 H   0  0  0  0  0  0
   19.5762   46.9592   10.5833 H   0  0  0  0  0  0
   20.2357   51.2013   10.5735 H   0  0  0  0  0  0
   19.5964   46.9285    8.1409 H   0  0  0  0  0  0
   20.2243   51.1712    8.1091 H   0  0  0  0  0  0
   24.5402   51.1303   10.6749 H   0  0  0  0  0  0
   26.4146   54.7031   12.7111 H   0  0  0  0  0  0
   24.7019   54.9037   13.0437 H   0  0  0  0  0  0
   25.6995   53.8552   14.0771 H   0  0  0  0  0  0
  1  2  2  0  0  0
  1  4  1  0  0  0
  1  7  1  0  0  0
  2  3  1  0  0  0
  2  9  1  0  0  0
  3 11  1  0  0  0
  3  5  1  0  0  0
  4  5  2  0  0  0
  4  8  1  0  0  0
  6 12  1  0  0  0
  6 14  2  0  0  0
  6 15  2  0  0  0
  6 17  1  0  0  0
  7 13  1  0  0  0
  8 21  1  0  0  0
  8 22  1  0  0  0
  8 23  1  0  0  0
  9 16  2  0  0  0
  9 10  1  0  0  0
 10 13  1  0  0  0
 10 18  2  0  0  0
 11 19  1  0  0  0
 11 20  2  0  0  0
 12 25  2  0  0  0
 12 24  1  0  0  0
 13 30  1  0  0  0
 13 31  1  0  0  0
 16 27  1  0  0  0
 16 32  1  0  0  0
 17 33  1  0  0  0
 17 34  1  0  0  0
 18 26  1  0  0  0
 18 35  1  0  0  0
 19 24  2  0  0  0
 19 36  1  0  0  0
 20 25  1  0  0  0
 20 37  1  0  0  0
 24 38  1  0  0  0
 25 39  1  0  0  0
 26 28  1  0  0  0
 26 27  2  0  0  0
 27 40  1  0  0  0
 28 29  1  0  0  0
 29 41  1  0  0  0
 29 42  1  0  0  0
 29 43  1  0  0  0
M  END
> <s_m_entry_id>
5012

> <s_m_entry_name>
dock_pv.3

> <s_m_Source_Path>
/home/csk/Desktop/cluster/DUD-E-result/pgh1

> <s_m_Source_File>
dock_pv.maegz

> <i_m_Source_File_Index>
3

> <chembl_id>
CHEMBL319512

> <chembl_pref_name>
None

> <i_lp_mmshare_version>
53161

> <r_lp_tautomer_probability>
1

> <s_lp_Force_Field>
OPLS_2005

> <r_lp_Energy>
36.186073

> <b_lp_Chiralities_Consistent>
1

> <s_lp_Variant>
CHEMBL221_lig204-1

> <s_i_glide_gridfile>
glide-grid_2oyu

> <i_i_glide_lignum>
232

> <i_i_glide_rotatable_bonds>
4

> <r_i_docking_score>
-10.8068195550396

> <r_i_glide_ligand_efficiency>
-0.37264895017378

> <r_i_glide_ligand_efficiency_sa>
-1.144895638408

> <r_i_glide_ligand_efficiency_ln>
-2.47448764080474

> <r_i_glide_gscore>
-10.8068195550396

> <r_i_glide_lipo>
-5.12193992075077

> <r_i_glide_hbond>
-0.298203538427392

> <r_i_glide_metal>
0

> <r_i_glide_rewards>
-2.63447927583865

> <r_i_glide_evdw>
-32.2031631469727

> <r_i_glide_ecoul>
-7.79957103729248

> <r_i_glide_erotb>
0.102500860337561

> <r_i_glide_esite>
-0.0746038674178554

> <r_i_glide_emodel>
-58.457943594824

> <r_i_glide_energy>
-40.0027341842651

> <r_i_glide_einternal>
3.9727828502655

> <i_i_glide_confnum>
4

> <i_i_glide_posenum>
206

> <r_i_glide_eff_state_penalty>
0

> <s_user_duplicate_titles>
CHEMBL221_lig204

> <i_f3d_flags>
0

> <s_m_subgroup_title>
dock_pv

> <s_m_subgroupid>
dock_pv

> <b_m_subgroup_collapsed>
1

$$$$
CHEMBL221_lig270
                    3D
 Schrodinger Suite 2021-1.
 43 45  0  0  1  0            999 V2000
   20.8267   49.7959   13.1759 C   0  0  0  0  0  0
   19.9935   48.9110    6.2584 S   0  0  0  0  0  0
   20.5230   49.4024   14.8401 S   0  0  0  0  0  0
   19.9724   49.0847   12.3272 C   0  0  0  0  0  0
   19.1009   48.2622   13.0623 C   0  0  0  0  0  0
   19.2445   48.2924   14.4439 C   0  0  0  0  0  0
   20.0101   49.0280    8.0396 C   0  0  0  0  0  0
   19.9497   49.1267   10.8340 C   0  0  0  0  0  0
   21.9464   50.7337   12.8810 C   0  0  0  0  0  0
   20.9229   49.8730    5.6741 O   0  0  0  0  0  0
   20.1230   47.4936    5.9568 O   0  0  0  0  0  0
   18.3937   49.3704    5.8000 N   0  0  0  0  0  0
   20.1230   50.2532    8.7043 C   0  0  0  0  0  0
   19.7408   47.8729    8.7741 C   0  0  0  0  0  0
   19.7230   47.9299   10.1584 C   0  0  0  0  0  0
   20.1230   50.3009   10.0989 C   0  0  0  0  0  0
   18.4363   47.6050   15.5366 C   0  0  0  0  0  0
   22.8760   50.3937   11.8961 C   0  0  0  0  0  0
   22.0945   51.9277   13.5964 C   0  0  0  0  0  0
   24.1230   52.3877   12.3909 C   0  0  0  0  0  0
   23.1868   52.7538   13.3521 C   0  0  0  0  0  0
   23.9608   51.2257   11.6453 C   0  0  0  0  0  0
   25.2202   53.1485   12.2000 F   0  0  0  0  0  0
   17.4086   46.5983   14.9907 C   0  0  0  0  0  0
   17.7005   48.6608   16.3528 C   0  0  0  0  0  0
   18.3499   47.6515   12.5832 H   0  0  0  0  0  0
   18.2152   50.3794    5.7622 H   0  0  0  0  0  0
   17.6364   48.8446    6.2520 H   0  0  0  0  0  0
   20.2329   51.1632    8.1324 H   0  0  0  0  0  0
   19.5778   46.9249    8.2840 H   0  0  0  0  0  0
   19.5684   47.0289   10.7204 H   0  0  0  0  0  0
   20.2508   51.2487   10.6014 H   0  0  0  0  0  0
   19.1129   47.0661   16.1999 H   0  0  0  0  0  0
   22.7697   49.4730   11.3437 H   0  0  0  0  0  0
   21.3786   52.2077   14.3556 H   0  0  0  0  0  0
   23.3222   53.6637   13.9187 H   0  0  0  0  0  0
   24.6924   50.9617   10.8976 H   0  0  0  0  0  0
   17.8984   45.7067   14.6000 H   0  0  0  0  0  0
   16.6905   46.2851   15.7476 H   0  0  0  0  0  0
   16.8072   47.0503   14.2000 H   0  0  0  0  0  0
   18.3513   49.4905   16.6010 H   0  0  0  0  0  0
   16.9230   49.0730   15.7274 H   0  0  0  0  0  0
   17.2501   48.2602   17.2619 H   0  0  0  0  0  0
  1  3  1  0  0  0
  1  4  2  0  0  0
  1  9  1  0  0  0
  2  7  1  0  0  0
  2 10  2  0  0  0
  2 11  2  0  0  0
  2 12  1  0  0  0
  3  6  1  0  0  0
  4  5  1  0  0  0
  4  8  1  0  0  0
  5  6  2  0  0  0
  5 26  1  0  0  0
  6 17  1  0  0  0
  7 13  1  0  0  0
  7 14  2  0  0  0
  8 15  2  0  0  0
  8 16  1  0  0  0
  9 18  1  0  0  0
  9 19  2  0  0  0
 12 27  1  0  0  0
 12 28  1  0  0  0
 13 16  2  0  0  0
 13 29  1  0  0  0
 14 15  1  0  0  0
 14 30  1  0  0  0
 15 31  1  0  0  0
 16 32  1  0  0  0
 17 24  1  0  0  0
 17 25  1  0  0  0
 17 33  1  0  0  0
 18 22  2  0  0  0
 18 34  1  0  0  0
 19 21  1  0  0  0
 19 35  1  0  0  0
 20 21  2  0  0  0
 20 23  1  0  0  0
 20 22  1  0  0  0
 21 36  1  0  0  0
 22 37  1  0  0  0
 24 38  1  0  0  0
 24 39  1  0  0  0
 24 40  1  0  0  0
 25 41  1  0  0  0
 25 42  1  0  0  0
 25 43  1  0  0  0
M  END
> <s_m_entry_id>
5013

> <s_m_entry_name>
dock_pv.4

> <s_m_Source_Path>
/home/csk/Desktop/cluster/DUD-E-result/pgh1

> <s_m_Source_File>
dock_pv.maegz

> <i_m_Source_File_Index>
4

> <chembl_id>
CHEMBL417204

> <chembl_pref_name>
None

> <i_lp_mmshare_version>
53161

> <r_lp_tautomer_probability>
1

> <s_lp_Force_Field>
OPLS_2005

> <r_lp_Energy>
18.253989

> <b_lp_Chiralities_Consistent>
1

> <s_lp_Variant>
CHEMBL221_lig270-1

> <s_i_glide_gridfile>
glide-grid_2oyu

> <i_i_glide_lignum>
303

> <i_i_glide_rotatable_bonds>
4

> <r_i_docking_score>
-10.7918849956012

> <r_i_glide_ligand_efficiency>
-0.431675399824048

> <r_i_glide_ligand_efficiency_sa>
-1.26222652488133

> <r_i_glide_ligand_efficiency_ln>
-2.55800015065348

> <r_i_glide_gscore>
-10.7918849956012

> <r_i_glide_lipo>
-5.44232232005028

> <r_i_glide_hbond>
-0.516884668369166

> <r_i_glide_metal>
0

> <r_i_glide_rewards>
-2.57539796795301

> <r_i_glide_evdw>
-26.3331356048584

> <r_i_glide_ecoul>
-7.62816143035889

> <r_i_glide_erotb>
0.274455932154283

> <r_i_glide_esite>
-0.0708549765862581

> <r_i_glide_emodel>
-46.1030605335223

> <r_i_glide_energy>
-33.9612970352173

> <r_i_glide_einternal>
0.469883859157562

> <i_i_glide_confnum>
1

> <i_i_glide_posenum>
124

> <r_i_glide_eff_state_penalty>
0

> <s_user_duplicate_titles>
CHEMBL221_lig270,105105

> <i_f3d_flags>
0

> <s_m_subgroup_title>
dock_pv

> <s_m_subgroupid>
dock_pv

> <b_m_subgroup_collapsed>
1

$$$$
CHEMBL221_lig209
                    3D
 Schrodinger Suite 2021-1.
 42 45  0  0  1  0            999 V2000
   20.1230   49.0730   14.2874 C   0  0  0  0  0  0
   20.6554   49.4485   13.0583 C   0  0  0  0  0  0
   19.8939   48.7721   12.1265 N   0  0  0  0  0  0
   19.1027   48.1547   14.0097 C   0  0  0  0  0  0
   18.9902   47.9689   12.7146 N   0  0  0  0  0  0
   19.8386   49.1195    6.1596 S   0  0  0  0  0  0
   20.7505   49.7367   15.7958 S   0  0  0  0  0  0
   18.1990   47.3940   14.9645 C   0  0  0  0  0  0
   21.7749   50.4196   12.8730 C   0  0  0  0  0  0
   21.9364   51.3999   13.8685 C   0  0  0  0  0  0
   19.9222   48.8589   10.7134 C   0  0  0  0  0  0
   19.9395   48.9913    7.9260 C   0  0  0  0  0  0
   21.0680   51.4028   15.1269 C   0  0  0  0  0  0
   20.6379   50.2730    5.7943 O   0  0  0  0  0  0
   20.1230   47.8258    5.5679 O   0  0  0  0  0  0
   22.6796   50.3554   11.8059 C   0  0  0  0  0  0
   18.1876   49.4730    5.8000 N   0  0  0  0  0  0
   22.9509   52.3433   13.7103 C   0  0  0  0  0  0
   19.7230   47.7116    9.9391 C   0  0  0  0  0  0
   20.1230   50.0876   10.0797 C   0  0  0  0  0  0
   18.5230   46.1017   14.9981 F   0  0  0  0  0  0
   18.2819   47.8618   16.2083 F   0  0  0  0  0  0
   16.9230   47.4824   14.5997 F   0  0  0  0  0  0
   19.7230   47.7698    8.5519 C   0  0  0  0  0  0
   20.1230   50.1481    8.6915 C   0  0  0  0  0  0
   23.7228   51.2721   11.6991 C   0  0  0  0  0  0
   23.8627   52.2732   12.6589 C   0  0  0  0  0  0
   25.0266   53.2438   12.6141 C   0  0  0  0  0  0
   21.5877   51.9172   15.9249 H   0  0  0  0  0  0
   20.1308   51.9377   15.0000 H   0  0  0  0  0  0
   22.5862   49.5771   11.0640 H   0  0  0  0  0  0
   18.0221   50.2351    5.1255 H   0  0  0  0  0  0
   17.5603   48.6730    5.6941 H   0  0  0  0  0  0
   23.0478   53.1212   14.4481 H   0  0  0  0  0  0
   19.6384   46.7528   10.4171 H   0  0  0  0  0  0
   20.2382   51.0010   10.6459 H   0  0  0  0  0  0
   19.5659   46.8750    7.9706 H   0  0  0  0  0  0
   20.2236   51.1049    8.2003 H   0  0  0  0  0  0
   24.4261   51.1894   10.8819 H   0  0  0  0  0  0
   25.6708   53.0730   11.7520 H   0  0  0  0  0  0
   24.6677   54.2731   12.6000 H   0  0  0  0  0  0
   25.6328   53.1327   13.5139 H   0  0  0  0  0  0
  1  2  2  0  0  0
  1  4  1  0  0  0
  1  7  1  0  0  0
  2  3  1  0  0  0
  2  9  1  0  0  0
  3 11  1  0  0  0
  3  5  1  0  0  0
  4  5  2  0  0  0
  4  8  1  0  0  0
  6 12  1  0  0  0
  6 14  2  0  0  0
  6 15  2  0  0  0
  6 17  1  0  0  0
  7 13  1  0  0  0
  8 21  1  0  0  0
  8 22  1  0  0  0
  8 23  1  0  0  0
  9 16  2  0  0  0
  9 10  1  0  0  0
 10 13  1  0  0  0
 10 18  2  0  0  0
 11 19  1  0  0  0
 11 20  2  0  0  0
 12 25  2  0  0  0
 12 24  1  0  0  0
 13 29  1  0  0  0
 13 30  1  0  0  0
 16 26  1  0  0  0
 16 31  1  0  0  0
 17 32  1  0  0  0
 17 33  1  0  0  0
 18 27  1  0  0  0
 18 34  1  0  0  0
 19 24  2  0  0  0
 19 35  1  0  0  0
 20 25  1  0  0  0
 20 36  1  0  0  0
 24 37  1  0  0  0
 25 38  1  0  0  0
 26 27  2  0  0  0
 26 39  1  0  0  0
 27 28  1  0  0  0
 28 40  1  0  0  0
 28 41  1  0  0  0
 28 42  1  0  0  0
M  END
> <s_m_entry_id>
5014

> <s_m_entry_name>
dock_pv.5

> <s_m_Source_Path>
/home/csk/Desktop/cluster/DUD-E-result/pgh1

> <s_m_Source_File>
dock_pv.maegz

> <i_m_Source_File_Index>
5

> <chembl_id>
CHEMBL328906

> <chembl_pref_name>
None

> <i_lp_mmshare_version>
53161

> <r_lp_tautomer_probability>
1

> <s_lp_Force_Field>
OPLS_2005

> <r_lp_Energy>
32.834407

> <b_lp_Chiralities_Consistent>
1

> <s_lp_Variant>
CHEMBL221_lig209-1

> <s_i_glide_gridfile>
glide-grid_2oyu

> <i_i_glide_lignum>
237

> <i_i_glide_rotatable_bonds>
3

> <r_i_docking_score>
-10.7625841055187

> <r_i_glide_ligand_efficiency>
-0.384378003768525

> <r_i_glide_ligand_efficiency_sa>
-1.16719800597864

> <r_i_glide_ligand_efficiency_ln>
-2.48432041475425

> <r_i_glide_gscore>
-10.7625841055187

> <r_i_glide_lipo>
-5.04330613151858

> <r_i_glide_hbond>
-0.381151881490378

> <r_i_glide_metal>
0

> <r_i_glide_rewards>
-2.85196081729408

> <r_i_glide_evdw>
-26.8762683868408

> <r_i_glide_ecoul>
-7.78936195373535

> <r_i_glide_erotb>
0.1095939050519

> <r_i_glide_esite>
-0.0835414678652156

> <r_i_glide_emodel>
-48.6740538249491

> <r_i_glide_energy>
-34.6656303405762

> <r_i_glide_einternal>
0.658396363258362

> <i_i_glide_confnum>
3

> <i_i_glide_posenum>
224

> <r_i_glide_eff_state_penalty>
0

> <s_user_duplicate_titles>
CHEMBL221_lig209,155544

> <i_f3d_flags>
0

> <s_m_subgroup_title>
dock_pv

> <s_m_subgroupid>
dock_pv

> <b_m_subgroup_collapsed>
1

$$$$
CHEMBL221_lig370
                    3D
 Schrodinger Suite 2021-1.
 40 43  0  0  1  0            999 V2000
   20.0220   49.1991    6.0749 S   0  0  0  0  0  0
   20.6054   49.5829   13.0613 C   0  0  0  0  0  0
   19.7773   48.8880   12.1392 C   0  0  0  0  0  0
   21.7320   50.4772   12.6760 C   0  0  0  0  0  0
   20.4036   49.3864   14.4321 C   0  0  0  0  0  0
   18.7796   48.0384   12.6458 C   0  0  0  0  0  0
   20.0505   49.0988    7.8519 C   0  0  0  0  0  0
   19.4011   48.5458   14.8917 C   0  0  0  0  0  0
   18.5816   47.8744   14.0067 C   0  0  0  0  0  0
   23.0337   52.4775   12.9534 C   0  0  0  0  0  0
   21.9019   51.7394   13.2825 C   0  0  0  0  0  0
   20.9230   50.2507    5.6202 O   0  0  0  0  0  0
   20.1230   47.8730    5.4934 O   0  0  0  0  0  0
   19.8882   48.9953   10.6506 C   0  0  0  0  0  0
   23.9507   52.0221   12.0531 C   0  0  0  0  0  0
   23.4341   53.6953   13.4000 O   0  0  0  0  0  0
   24.9636   52.9152   11.9437 O   0  0  0  0  0  0
   18.4186   49.7109    5.8000 N   0  0  0  0  0  0
   24.7817   53.7813   13.0243 C   0  0  0  0  0  0
   22.6843   50.0363   11.7412 C   0  0  0  0  0  0
   19.7934   47.8852    8.4790 C   0  0  0  0  0  0
   20.1230   50.2694    8.6138 C   0  0  0  0  0  0
   23.7947   50.8146   11.4001 C   0  0  0  0  0  0
   20.0953   50.2167   10.0036 C   0  0  0  0  0  0
   19.7230   47.8484    9.8642 C   0  0  0  0  0  0
   19.2126   48.3826   16.2048 F   0  0  0  0  0  0
   17.5981   47.0730   14.4730 F   0  0  0  0  0  0
   21.0294   49.8858   15.1576 H   0  0  0  0  0  0
   18.1230   47.5011   11.9783 H   0  0  0  0  0  0
   21.1888   52.1141   14.0020 H   0  0  0  0  0  0
   18.2181   50.5526    6.3552 H   0  0  0  0  0  0
   18.2430   50.0099    4.8309 H   0  0  0  0  0  0
   25.0802   54.8048   12.8076 H   0  0  0  0  0  0
   25.4178   53.4482   13.8431 H   0  0  0  0  0  0
   22.5502   49.0730   11.2755 H   0  0  0  0  0  0
   19.6640   46.9843    7.9001 H   0  0  0  0  0  0
   20.2245   51.2241    8.1179 H   0  0  0  0  0  0
   24.5230   50.4792   10.6797 H   0  0  0  0  0  0
   20.1737   51.1345   10.5676 H   0  0  0  0  0  0
   19.5850   46.8945   10.3377 H   0  0  0  0  0  0
  1  7  1  0  0  0
  1 12  2  0  0  0
  1 13  2  0  0  0
  1 18  1  0  0  0
  2  3  1  0  0  0
  2  4  1  0  0  0
  2  5  2  0  0  0
  3 14  1  0  0  0
  3  6  2  0  0  0
  4 11  2  0  0  0
  4 20  1  0  0  0
  5  8  1  0  0  0
  5 28  1  0  0  0
  6  9  1  0  0  0
  6 29  1  0  0  0
  7 21  1  0  0  0
  7 22  2  0  0  0
  8  9  2  0  0  0
  8 26  1  0  0  0
  9 27  1  0  0  0
 10 11  1  0  0  0
 10 16  1  0  0  0
 10 15  2  0  0  0
 11 30  1  0  0  0
 14 24  2  0  0  0
 14 25  1  0  0  0
 15 23  1  0  0  0
 15 17  1  0  0  0
 16 19  1  0  0  0
 17 19  1  0  0  0
 18 31  1  0  0  0
 18 32  1  0  0  0
 19 33  1  0  0  0
 19 34  1  0  0  0
 20 23  2  0  0  0
 20 35  1  0  0  0
 21 25  2  0  0  0
 21 36  1  0  0  0
 22 24  1  0  0  0
 22 37  1  0  0  0
 23 38  1  0  0  0
 24 39  1  0  0  0
 25 40  1  0  0  0
M  END
> <s_m_entry_id>
5015

> <s_m_entry_name>
dock_pv.6

> <s_m_Source_Path>
/home/csk/Desktop/cluster/DUD-E-result/pgh1

> <s_m_Source_File>
dock_pv.maegz

> <i_m_Source_File_Index>
6

> <chembl_id>
CHEMBL300600

> <chembl_pref_name>
None

> <i_lp_mmshare_version>
53161

> <r_lp_tautomer_probability>
1

> <s_lp_Force_Field>
OPLS_2005

> <r_lp_Energy>
40.955882

> <b_lp_Chiralities_Consistent>
1

> <s_lp_Variant>
CHEMBL221_lig370-1

> <s_i_glide_gridfile>
glide-grid_2oyu

> <i_i_glide_lignum>
436

> <i_i_glide_rotatable_bonds>
3

> <r_i_docking_score>
-10.7262407430952

> <r_i_glide_ligand_efficiency>
-0.397268175670192

> <r_i_glide_ligand_efficiency_sa>
-1.19180452570125

> <r_i_glide_ligand_efficiency_ln>
-2.49689200909343

> <r_i_glide_gscore>
-10.7262407430952

> <r_i_glide_lipo>
-4.94016434121602

> <r_i_glide_hbond>
-0.557133131106876

> <r_i_glide_metal>
0

> <r_i_glide_rewards>
-2.91544789640107

> <r_i_glide_evdw>
-22.473949432373

> <r_i_glide_ecoul>
-9.06929969787598

> <r_i_glide_erotb>
0.257151456494559

> <r_i_glide_esite>
-0.0865544045657324

> <r_i_glide_emodel>
-36.4607006166258

> <r_i_glide_energy>
-31.543249130249

> <r_i_glide_einternal>
5.65321445465088

> <i_i_glide_confnum>
11

> <i_i_glide_posenum>
246

> <r_i_glide_eff_state_penalty>
0

> <s_user_duplicate_titles>
CHEMBL221_lig370

> <i_f3d_flags>
0

> <s_m_subgroup_title>
dock_pv

> <s_m_subgroupid>
dock_pv

> <b_m_subgroup_collapsed>
1

$$$$
CHEMBL221_lig212
                    3D
 Schrodinger Suite 2021-1.
 39 42  0  0  1  0            999 V2000
   20.8153   49.7302   12.9776 C   0  0  0  0  0  0
   20.2990   49.4060   14.2321 C   0  0  0  0  0  0
   20.0185   49.0205   12.0937 N   0  0  0  0  0  0
   19.2758   48.4696   14.0073 C   0  0  0  0  0  0
   19.1349   48.2393   12.7285 N   0  0  0  0  0  0
   19.8605   49.1355    6.1308 S   0  0  0  0  0  0
   21.9334   50.7020   12.7277 C   0  0  0  0  0  0
   20.9230   50.1472   15.7060 S   0  0  0  0  0  0
   18.3676   47.7385   14.9785 C   0  0  0  0  0  0
   19.9741   49.0493   10.6814 C   0  0  0  0  0  0
   19.9618   49.0704    7.8978 C   0  0  0  0  0  0
   22.1550   51.7002   13.6987 C   0  0  0  0  0  0
   20.6621   50.2712    5.7029 O   0  0  0  0  0  0
   20.1230   47.8123    5.5969 O   0  0  0  0  0  0
   22.7626   50.6463   11.6007 C   0  0  0  0  0  0
   21.2929   51.7701   14.9544 C   0  0  0  0  0  0
   18.2018   49.4730    5.8000 N   0  0  0  0  0  0
   19.7230   47.8730    9.9610 C   0  0  0  0  0  0
   20.1289   50.2561   10.0008 C   0  0  0  0  0  0
   18.6481   46.4349   15.0000 F   0  0  0  0  0  0
   18.4971   48.1986   16.2169 F   0  0  0  0  0  0
   17.0847   47.8730   14.6405 F   0  0  0  0  0  0
   19.7230   47.8739    8.5712 C   0  0  0  0  0  0
   20.1230   50.2601    8.6137 C   0  0  0  0  0  0
   23.1599   52.6473   13.4742 C   0  0  0  0  0  0
   23.7598   51.5957   11.4000 C   0  0  0  0  0  0
   23.9595   52.6005   12.3375 C   0  0  0  0  0  0
   24.5230   51.5513   10.2886 F   0  0  0  0  0  0
   22.6325   49.8730   10.8605 H   0  0  0  0  0  0
   21.7230   52.3842   15.7354 H   0  0  0  0  0  0
   20.3637   52.2730   14.7192 H   0  0  0  0  0  0
   18.0146   50.2336    5.1292 H   0  0  0  0  0  0
   17.5698   48.6729    5.7273 H   0  0  0  0  0  0
   19.5889   46.9446   10.4845 H   0  0  0  0  0  0
   20.2502   51.1896   10.5317 H   0  0  0  0  0  0
   19.5438   46.9609    8.0250 H   0  0  0  0  0  0
   20.2151   51.1973    8.0832 H   0  0  0  0  0  0
   23.3230   53.4319   14.1996 H   0  0  0  0  0  0
   24.7317   53.3399   12.1861 H   0  0  0  0  0  0
  1  2  2  0  0  0
  1  3  1  0  0  0
  1  7  1  0  0  0
  2  4  1  0  0  0
  2  8  1  0  0  0
  3  5  1  0  0  0
  3 10  1  0  0  0
  4  9  1  0  0  0
  4  5  2  0  0  0
  6 11  1  0  0  0
  6 13  2  0  0  0
  6 14  2  0  0  0
  6 17  1  0  0  0
  7 12  1  0  0  0
  7 15  2  0  0  0
  8 16  1  0  0  0
  9 20  1  0  0  0
  9 21  1  0  0  0
  9 22  1  0  0  0
 10 18  2  0  0  0
 10 19  1  0  0  0
 11 24  1  0  0  0
 11 23  2  0  0  0
 12 16  1  0  0  0
 12 25  2  0  0  0
 15 26  1  0  0  0
 15 29  1  0  0  0
 16 30  1  0  0  0
 16 31  1  0  0  0
 17 32  1  0  0  0
 17 33  1  0  0  0
 18 23  1  0  0  0
 18 34  1  0  0  0
 19 24  2  0  0  0
 19 35  1  0  0  0
 23 36  1  0  0  0
 24 37  1  0  0  0
 25 27  1  0  0  0
 25 38  1  0  0  0
 26 27  2  0  0  0
 26 28  1  0  0  0
 27 39  1  0  0  0
M  END
> <s_m_entry_id>
5016

> <s_m_entry_name>
dock_pv.7

> <s_m_Source_Path>
/home/csk/Desktop/cluster/DUD-E-result/pgh1

> <s_m_Source_File>
dock_pv.maegz

> <i_m_Source_File_Index>
7

> <chembl_id>
CHEMBL411894

> <chembl_pref_name>
None

> <i_lp_mmshare_version>
53161

> <r_lp_tautomer_probability>
1

> <s_lp_Force_Field>
OPLS_2005

> <r_lp_Energy>
31.76971

> <b_lp_Chiralities_Consistent>
1

> <s_lp_Variant>
CHEMBL221_lig212-1

> <s_i_glide_gridfile>
glide-grid_2oyu

> <i_i_glide_lignum>
240

> <i_i_glide_rotatable_bonds>
3

> <r_i_docking_score>
-10.683127438523

> <r_i_glide_ligand_efficiency>
-0.381540265661534

> <r_i_glide_ligand_efficiency_sa>
-1.15858096174745

> <r_i_glide_ligand_efficiency_ln>
-2.46597948306252

> <r_i_glide_gscore>
-10.683127438523

> <r_i_glide_lipo>
-4.79186289594242

> <r_i_glide_hbond>
-0.39525576314399

> <r_i_glide_metal>
0

> <r_i_glide_rewards>
-3.00140417800573

> <r_i_glide_evdw>
-27.7890644073486

> <r_i_glide_ecoul>
-7.57242441177368

> <r_i_glide_erotb>
0.107769264133711

> <r_i_glide_esite>
-0.0770569834310405

> <r_i_glide_emodel>
-51.8793798222474

> <r_i_glide_energy>
-35.3614888191223

> <r_i_glide_einternal>
0.564570128917694

> <i_i_glide_confnum>
3

> <i_i_glide_posenum>
59

> <r_i_glide_eff_state_penalty>
0

> <s_user_duplicate_titles>
CHEMBL221_lig212

> <i_f3d_flags>
0

> <s_m_subgroup_title>
dock_pv

> <s_m_subgroupid>
dock_pv

> <b_m_subgroup_collapsed>
1

$$$$
CHEMBL221_lig541
                    3D
 Schrodinger Suite 2021-1.
 40 42  0  0  1  0            999 V2000
   19.0855   48.3476   14.1004 C   0  0  0  0  0  0
   19.8451   49.0604   12.2393 N   0  0  0  0  0  0
   18.9230   48.2689   12.8056 N   0  0  0  0  0  0
   20.1231   49.2404   14.4242 C   0  0  0  0  0  0
   20.6092   49.7012   13.1947 C   0  0  0  0  0  0
   19.9948   48.9205    6.2456 S   0  0  0  0  0  0
   18.2052   47.4940   15.0008 C   0  0  0  0  0  0
   19.9167   49.0883   10.8241 C   0  0  0  0  0  0
   20.0219   49.0242    8.0295 C   0  0  0  0  0  0
   21.7229   50.6645   12.9383 C   0  0  0  0  0  0
   20.9229   49.8816    5.6647 O   0  0  0  0  0  0
   20.1230   47.5080    5.9225 O   0  0  0  0  0  0
   18.3975   49.4011    5.8000 N   0  0  0  0  0  0
   20.1230   50.2729   10.1100 C   0  0  0  0  0  0
   19.7230   47.8940   10.1277 C   0  0  0  0  0  0
   18.1926   47.9375   16.2561 F   0  0  0  0  0  0
   16.9376   47.4764   14.5865 F   0  0  0  0  0  0
   18.6425   46.2357   15.0148 F   0  0  0  0  0  0
   19.7626   47.8574    8.7453 C   0  0  0  0  0  0
   20.1230   50.2418    8.7131 C   0  0  0  0  0  0
   21.7584   51.8489   13.6790 C   0  0  0  0  0  0
   22.7442   50.3855   12.0245 C   0  0  0  0  0  0
   20.6734   49.5461   15.7999 C   0  0  0  0  0  0
   23.8620   52.4234   12.6621 C   0  0  0  0  0  0
   22.8259   52.7277   13.5387 C   0  0  0  0  0  0
   23.8112   51.2701   11.8795 C   0  0  0  0  0  0
   25.2393   53.4610   12.6000 Cl  0  0  0  0  0  0
   18.2151   50.4063    5.8877 H   0  0  0  0  0  0
   17.6468   48.8383    6.2163 H   0  0  0  0  0  0
   20.2307   51.2189   10.6213 H   0  0  0  0  0  0
   19.5641   46.9826   10.6729 H   0  0  0  0  0  0
   19.6132   46.9142    8.2416 H   0  0  0  0  0  0
   20.2289   51.1596    8.1530 H   0  0  0  0  0  0
   20.9735   52.0799   14.3851 H   0  0  0  0  0  0
   22.7277   49.4724   11.4481 H   0  0  0  0  0  0
   21.7226   49.8368   15.7748 H   0  0  0  0  0  0
   20.1230   50.3401   16.3019 H   0  0  0  0  0  0
   20.6293   48.6730   16.4473 H   0  0  0  0  0  0
   22.8708   53.6240   14.1419 H   0  0  0  0  0  0
   24.6150   51.0411   11.1941 H   0  0  0  0  0  0
  1  3  2  0  0  0
  1  4  1  0  0  0
  1  7  1  0  0  0
  2  3  1  0  0  0
  2  8  1  0  0  0
  2  5  1  0  0  0
  4  5  2  0  0  0
  4 23  1  0  0  0
  5 10  1  0  0  0
  6  9  1  0  0  0
  6 11  2  0  0  0
  6 12  2  0  0  0
  6 13  1  0  0  0
  7 16  1  0  0  0
  7 17  1  0  0  0
  7 18  1  0  0  0
  8 14  1  0  0  0
  8 15  2  0  0  0
  9 19  2  0  0  0
  9 20  1  0  0  0
 10 21  2  0  0  0
 10 22  1  0  0  0
 13 28  1  0  0  0
 13 29  1  0  0  0
 14 20  2  0  0  0
 14 30  1  0  0  0
 15 19  1  0  0  0
 15 31  1  0  0  0
 19 32  1  0  0  0
 20 33  1  0  0  0
 21 25  1  0  0  0
 21 34  1  0  0  0
 22 26  2  0  0  0
 22 35  1  0  0  0
 23 36  1  0  0  0
 23 37  1  0  0  0
 23 38  1  0  0  0
 24 26  1  0  0  0
 24 27  1  0  0  0
 24 25  2  0  0  0
 25 39  1  0  0  0
 26 40  1  0  0  0
M  END
> <s_m_entry_id>
5017

> <s_m_entry_name>
dock_pv.8

> <s_m_Source_Path>
/home/csk/Desktop/cluster/DUD-E-result/pgh1

> <s_m_Source_File>
dock_pv.maegz

> <i_m_Source_File_Index>
8

> <chembl_id>
CHEMBL29133

> <chembl_pref_name>
None

> <i_lp_mmshare_version>
53161

> <r_lp_tautomer_probability>
1

> <s_lp_Force_Field>
OPLS_2005

> <r_lp_Energy>
25.67966

> <b_lp_Chiralities_Consistent>
1

> <s_lp_Variant>
CHEMBL221_lig541-1

> <s_i_glide_gridfile>
glide-grid_2oyu

> <i_i_glide_lignum>
679

> <i_i_glide_rotatable_bonds>
4

> <r_i_docking_score>
-10.654131745638

> <r_i_glide_ligand_efficiency>
-0.394597472060668

> <r_i_glide_ligand_efficiency_sa>
-1.18379241488147

> <r_i_glide_ligand_efficiency_ln>
-2.48010622329514

> <r_i_glide_gscore>
-10.654131745638

> <r_i_glide_lipo>
-4.8231504540884

> <r_i_glide_hbond>
-0.545471342307848

> <r_i_glide_metal>
0

> <r_i_glide_rewards>
-2.77872048217229

> <r_i_glide_evdw>
-31.0902481079102

> <r_i_glide_ecoul>
-7.39646530151367

> <r_i_glide_erotb>
0.228452773820944

> <r_i_glide_esite>
-0.0712600402678779

> <r_i_glide_emodel>
-54.0317909904146

> <r_i_glide_energy>
-38.4867134094238

> <r_i_glide_einternal>
0.891621947288513

> <i_i_glide_confnum>
10

> <i_i_glide_posenum>
144

> <r_i_glide_eff_state_penalty>
0

> <s_user_duplicate_titles>
CHEMBL221_lig541,39118

> <i_f3d_flags>
0

> <s_m_subgroup_title>
dock_pv

> <s_m_subgroupid>
dock_pv

> <b_m_subgroup_collapsed>
1

$$$$
CHEMBL221_lig522
                    3D
 Schrodinger Suite 2021-1.
 37 39  0  0  1  0            999 V2000
   19.0766   48.2838   14.0225 C   0  0  0  0  0  0
   19.8505   48.9731   12.1528 N   0  0  0  0  0  0
   20.1261   49.1619   14.3203 C   0  0  0  0  0  0
   18.9258   48.1797   12.7240 N   0  0  0  0  0  0
   20.6136   49.6272   13.1008 C   0  0  0  0  0  0
   19.8566   49.1371    6.1714 S   0  0  0  0  0  0
   18.1925   47.4720   14.9549 C   0  0  0  0  0  0
   19.9143   49.0313   10.7385 C   0  0  0  0  0  0
   19.9574   49.0730    7.9449 C   0  0  0  0  0  0
   21.7296   50.5874   12.8404 C   0  0  0  0  0  0
   20.6584   50.2729    5.7471 O   0  0  0  0  0  0
   20.1229   47.8122    5.6425 O   0  0  0  0  0  0
   20.7195   49.5797   15.8794 Cl  0  0  0  0  0  0
   18.2047   49.4730    5.8002 N   0  0  0  0  0  0
   19.7229   47.8619    9.9969 C   0  0  0  0  0  0
   20.1231   50.2391   10.0703 C   0  0  0  0  0  0
   16.9231   47.4740   14.5535 F   0  0  0  0  0  0
   18.6018   46.2050   14.9998 F   0  0  0  0  0  0
   18.2068   47.9462   16.1999 F   0  0  0  0  0  0
   20.1230   50.2549    8.6784 C   0  0  0  0  0  0
   19.7233   47.8730    8.6084 C   0  0  0  0  0  0
   22.7589   50.2730   11.9482 C   0  0  0  0  0  0
   21.7706   51.7914   13.5482 C   0  0  0  0  0  0
   23.9073   52.2974   12.5620 C   0  0  0  0  0  0
   22.8559   52.6490   13.4011 C   0  0  0  0  0  0
   23.8458   51.1310   11.8014 C   0  0  0  0  0  0
   25.3218   53.2835   12.5305 Cl  0  0  0  0  0  0
   18.0295   50.2359    5.1290 H   0  0  0  0  0  0
   17.5749   48.6721    5.7161 H   0  0  0  0  0  0
   19.5857   46.9271   10.5074 H   0  0  0  0  0  0
   20.2395   51.1675   10.6108 H   0  0  0  0  0  0
   20.2273   51.1955    8.1567 H   0  0  0  0  0  0
   19.5547   46.9612    8.0566 H   0  0  0  0  0  0
   22.7359   49.3434   11.4000 H   0  0  0  0  0  0
   20.9798   52.0508   14.2376 H   0  0  0  0  0  0
   22.9086   53.5572   13.9856 H   0  0  0  0  0  0
   24.6593   50.8669   11.1415 H   0  0  0  0  0  0
  1  3  1  0  0  0
  1  4  2  0  0  0
  1  7  1  0  0  0
  2  4  1  0  0  0
  2  8  1  0  0  0
  2  5  1  0  0  0
  3  5  2  0  0  0
  3 13  1  0  0  0
  5 10  1  0  0  0
  6  9  1  0  0  0
  6 11  2  0  0  0
  6 12  2  0  0  0
  6 14  1  0  0  0
  7 17  1  0  0  0
  7 18  1  0  0  0
  7 19  1  0  0  0
  8 15  2  0  0  0
  8 16  1  0  0  0
  9 20  1  0  0  0
  9 21  2  0  0  0
 10 22  1  0  0  0
 10 23  2  0  0  0
 14 28  1  0  0  0
 14 29  1  0  0  0
 15 21  1  0  0  0
 15 30  1  0  0  0
 16 20  2  0  0  0
 16 31  1  0  0  0
 20 32  1  0  0  0
 21 33  1  0  0  0
 22 26  2  0  0  0
 22 34  1  0  0  0
 23 25  1  0  0  0
 23 35  1  0  0  0
 24 25  2  0  0  0
 24 27  1  0  0  0
 24 26  1  0  0  0
 25 36  1  0  0  0
 26 37  1  0  0  0
M  END
> <s_m_entry_id>
5018

> <s_m_entry_name>
dock_pv.9

> <s_m_Source_Path>
/home/csk/Desktop/cluster/DUD-E-result/pgh1

> <s_m_Source_File>
dock_pv.maegz

> <i_m_Source_File_Index>
9

> <chembl_id>
CHEMBL280636

> <chembl_pref_name>
None

> <i_lp_mmshare_version>
53161

> <r_lp_tautomer_probability>
1

> <s_lp_Force_Field>
OPLS_2005

> <r_lp_Energy>
26.227439

> <b_lp_Chiralities_Consistent>
1

> <s_lp_Variant>
CHEMBL221_lig522-1

> <s_i_glide_gridfile>
glide-grid_2oyu

> <i_i_glide_lignum>
660

> <i_i_glide_rotatable_bonds>
4

> <r_i_docking_score>
-10.6102786268143

> <r_i_glide_ligand_efficiency>
-0.392973282474604

> <r_i_glide_ligand_efficiency_sa>
-1.17891984612863

> <r_i_glide_ligand_efficiency_ln>
-2.46989794020814

> <r_i_glide_gscore>
-10.6102786268143

> <r_i_glide_lipo>
-4.89236499510161

> <r_i_glide_hbond>
-0.389123636925149

> <r_i_glide_metal>
0

> <r_i_glide_rewards>
-2.72107185016817

> <r_i_glide_evdw>
-29.9334564208984

> <r_i_glide_ecoul>
-8.29714012145996

> <r_i_glide_erotb>
0.209468351045527

> <r_i_glide_esite>
-0.0759426564009812

> <r_i_glide_emodel>
-54.4942228865827

> <r_i_glide_energy>
-38.2305965423584

> <r_i_glide_einternal>
1.08059871196747

> <i_i_glide_confnum>
5

> <i_i_glide_posenum>
252

> <r_i_glide_eff_state_penalty>
0

> <s_user_duplicate_titles>
CHEMBL221_lig522,39530

> <i_f3d_flags>
0

> <s_m_subgroup_title>
dock_pv

> <s_m_subgroupid>
dock_pv

> <b_m_subgroup_collapsed>
1

$$$$
CHEMBL221_lig176
                    3D
 Schrodinger Suite 2021-1.
 39 42  0  0  1  0            999 V2000
   20.7718   49.7966   13.0447 C   0  0  0  0  0  0
   20.2644   49.4714   14.3019 C   0  0  0  0  0  0
   19.9504   49.1301   12.1628 N   0  0  0  0  0  0
   19.2231   48.5550   14.0782 C   0  0  0  0  0  0
   19.0541   48.3597   12.7975 N   0  0  0  0  0  0
   21.9082   50.7283   12.7800 C   0  0  0  0  0  0
   19.9989   48.9138    6.1994 S   0  0  0  0  0  0
   20.9229   50.1917   15.7697 S   0  0  0  0  0  0
   18.3323   47.7989   15.0464 C   0  0  0  0  0  0
   22.1455   51.7259   13.7405 C   0  0  0  0  0  0
   22.7292   50.6423   11.6496 C   0  0  0  0  0  0
   19.9482   49.1411   10.7519 C   0  0  0  0  0  0
   20.0336   49.0273    7.9715 C   0  0  0  0  0  0
   23.7590   51.5551   11.4467 C   0  0  0  0  0  0
   23.9842   52.5556   12.3843 C   0  0  0  0  0  0
   23.1626   52.6501   13.4992 C   0  0  0  0  0  0
   21.2906   51.8077   15.0001 C   0  0  0  0  0  0
   20.9229   49.8736    5.6042 O   0  0  0  0  0  0
   20.1229   47.4988    5.8869 O   0  0  0  0  0  0
   18.3886   49.3876    5.8000 N   0  0  0  0  0  0
   19.7225   47.9451   10.0825 C   0  0  0  0  0  0
   20.1231   50.3156   10.0201 C   0  0  0  0  0  0
   17.0484   47.8752   14.6938 F   0  0  0  0  0  0
   18.6661   46.5085   15.0796 F   0  0  0  0  0  0
   18.4278   48.2729   16.2825 F   0  0  0  0  0  0
   19.7662   47.8738    8.7026 C   0  0  0  0  0  0
   20.1230   50.2551    8.6278 C   0  0  0  0  0  0
   24.5232   51.4784   10.3370 F   0  0  0  0  0  0
   25.0012   53.4285   12.2306 F   0  0  0  0  0  0
   22.5631   49.8728   10.9137 H   0  0  0  0  0  0
   23.3223   53.4558   14.1924 H   0  0  0  0  0  0
   21.7231   52.4413   15.7649 H   0  0  0  0  0  0
   20.3447   52.2724   14.7603 H   0  0  0  0  0  0
   18.2104   50.3969    5.7784 H   0  0  0  0  0  0
   17.6384   48.8514    6.2522 H   0  0  0  0  0  0
   19.5626   47.0731   10.6698 H   0  0  0  0  0  0
   20.2179   51.2659   10.5239 H   0  0  0  0  0  0
   19.6076   46.9275    8.2095 H   0  0  0  0  0  0
   20.1497   51.1535    8.0370 H   0  0  0  0  0  0
  1  2  2  0  0  0
  1  3  1  0  0  0
  1  6  1  0  0  0
  2  4  1  0  0  0
  2  8  1  0  0  0
  3  5  1  0  0  0
  3 12  1  0  0  0
  4  9  1  0  0  0
  4  5  2  0  0  0
  6 10  1  0  0  0
  6 11  2  0  0  0
  7 13  1  0  0  0
  7 18  2  0  0  0
  7 19  2  0  0  0
  7 20  1  0  0  0
  8 17  1  0  0  0
  9 23  1  0  0  0
  9 24  1  0  0  0
  9 25  1  0  0  0
 10 16  2  0  0  0
 10 17  1  0  0  0
 11 14  1  0  0  0
 11 30  1  0  0  0
 12 21  1  0  0  0
 12 22  2  0  0  0
 13 27  2  0  0  0
 13 26  1  0  0  0
 14 15  2  0  0  0
 14 28  1  0  0  0
 15 29  1  0  0  0
 15 16  1  0  0  0
 16 31  1  0  0  0
 17 32  1  0  0  0
 17 33  1  0  0  0
 20 34  1  0  0  0
 20 35  1  0  0  0
 21 26  2  0  0  0
 21 36  1  0  0  0
 22 27  1  0  0  0
 22 37  1  0  0  0
 26 38  1  0  0  0
 27 39  1  0  0  0
M  END
> <s_m_entry_id>
5019

> <s_m_entry_name>
dock_pv.10

> <s_m_Source_Path>
/home/csk/Desktop/cluster/DUD-E-result/pgh1

> <s_m_Source_File>
dock_pv.maegz

> <i_m_Source_File_Index>
10

> <chembl_id>
CHEMBL97059

> <chembl_pref_name>
None

> <i_lp_mmshare_version>
53161

> <r_lp_tautomer_probability>
1

> <s_lp_Force_Field>
OPLS_2005

> <r_lp_Energy>
30.821372

> <b_lp_Chiralities_Consistent>
1

> <s_lp_Variant>
CHEMBL221_lig176-1

> <s_i_glide_gridfile>
glide-grid_2oyu

> <i_i_glide_lignum>
202

> <i_i_glide_rotatable_bonds>
3

> <r_i_docking_score>
-10.5497837680206

> <r_i_glide_ligand_efficiency>
-0.363785647173125

> <r_i_glide_ligand_efficiency_sa>
-1.1176647634985

> <r_i_glide_ligand_efficiency_ln>
-2.41563296344257

> <r_i_glide_gscore>
-10.5497837680206

> <r_i_glide_lipo>
-4.78329801712241

> <r_i_glide_hbond>
-0.521997172461489

> <r_i_glide_metal>
0

> <r_i_glide_rewards>
-2.82279340266005

> <r_i_glide_evdw>
-26.131139755249

> <r_i_glide_ecoul>
-7.62387084960938

> <r_i_glide_erotb>
0.100036358888448

> <r_i_glide_esite>
-0.0715939194612692

> <r_i_glide_emodel>
-43.6256186376302

> <r_i_glide_energy>
-33.7550106048584

> <r_i_glide_einternal>
0.41978719830513

> <i_i_glide_confnum>
3

> <i_i_glide_posenum>
288

> <r_i_glide_eff_state_penalty>
0

> <s_user_duplicate_titles>
CHEMBL221_lig176

> <i_f3d_flags>
0

> <s_m_subgroup_title>
dock_pv

> <s_m_subgroupid>
dock_pv

> <b_m_subgroup_collapsed>
1

$$$$
CHEMBL221_lig581
                    3D
 Schrodinger Suite 2021-1.
 37 39  0  0  1  0            999 V2000
   20.0114   49.0261    6.2052 S   0  0  0  0  0  0
   20.5230   49.5415   13.2732 C   0  0  0  0  0  0
   19.7274   48.8834   12.2958 C   0  0  0  0  0  0
   20.2495   49.2936   14.6370 C   0  0  0  0  0  0
   20.0481   49.0674    7.9948 C   0  0  0  0  0  0
   18.7062   48.0227   12.7370 C   0  0  0  0  0  0
   20.9230   50.0167    5.6455 O   0  0  0  0  0  0
   20.1230   47.6353    5.8000 O   0  0  0  0  0  0
   21.6383   50.4826   12.9342 C   0  0  0  0  0  0
   19.8812   49.0131   10.8078 C   0  0  0  0  0  0
   19.2116   48.4483   15.0236 C   0  0  0  0  0  0
   18.4063   49.4730    5.8000 N   0  0  0  0  0  0
   18.4397   47.8109   14.0759 C   0  0  0  0  0  0
   19.7957   47.8730    8.6564 C   0  0  0  0  0  0
   20.1230   50.2550    8.7357 C   0  0  0  0  0  0
   20.0901   50.2255   10.1362 C   0  0  0  0  0  0
   19.7230   47.8609   10.0352 C   0  0  0  0  0  0
   21.7009   51.7480   13.5364 C   0  0  0  0  0  0
   22.6609   50.1080   12.0549 C   0  0  0  0  0  0
   20.9808   49.8852   15.6120 F   0  0  0  0  0  0
   23.7771   52.2122   12.4192 C   0  0  0  0  0  0
   18.9230   48.2540   16.3227 F   0  0  0  0  0  0
   22.7664   52.6071   13.2872 C   0  0  0  0  0  0
   23.7230   50.9708   11.7923 C   0  0  0  0  0  0
   24.8276   53.0332   12.2000 F   0  0  0  0  0  0
   18.0805   47.4999   12.0292 H   0  0  0  0  0  0
   18.2497   50.4790    5.9232 H   0  0  0  0  0  0
   18.1579   49.2387    4.8356 H   0  0  0  0  0  0
   17.6323   47.1599   14.3780 H   0  0  0  0  0  0
   19.6705   46.9483    8.1145 H   0  0  0  0  0  0
   20.2232   51.1957    8.2137 H   0  0  0  0  0  0
   20.1657   51.1510   10.6878 H   0  0  0  0  0  0
   19.5991   46.9105   10.5179 H   0  0  0  0  0  0
   20.9255   52.0652   14.2193 H   0  0  0  0  0  0
   22.6413   49.1346   11.5873 H   0  0  0  0  0  0
   22.8182   53.5701   13.7747 H   0  0  0  0  0  0
   24.5173   50.6734   11.1221 H   0  0  0  0  0  0
  1  5  1  0  0  0
  1  7  2  0  0  0
  1  8  2  0  0  0
  1 12  1  0  0  0
  2  3  1  0  0  0
  2  4  2  0  0  0
  2  9  1  0  0  0
  3 10  1  0  0  0
  3  6  2  0  0  0
  4 20  1  0  0  0
  4 11  1  0  0  0
  5 14  1  0  0  0
  5 15  2  0  0  0
  6 13  1  0  0  0
  6 26  1  0  0  0
  9 18  1  0  0  0
  9 19  2  0  0  0
 10 16  2  0  0  0
 10 17  1  0  0  0
 11 13  2  0  0  0
 11 22  1  0  0  0
 12 27  1  0  0  0
 12 28  1  0  0  0
 13 29  1  0  0  0
 14 17  2  0  0  0
 14 30  1  0  0  0
 15 16  1  0  0  0
 15 31  1  0  0  0
 16 32  1  0  0  0
 17 33  1  0  0  0
 18 23  2  0  0  0
 18 34  1  0  0  0
 19 24  1  0  0  0
 19 35  1  0  0  0
 21 24  2  0  0  0
 21 25  1  0  0  0
 21 23  1  0  0  0
 23 36  1  0  0  0
 24 37  1  0  0  0
M  END
> <s_m_entry_id>
5020

> <s_m_entry_name>
dock_pv.11

> <s_m_Source_Path>
/home/csk/Desktop/cluster/DUD-E-result/pgh1

> <s_m_Source_File>
dock_pv.maegz

> <i_m_Source_File_Index>
11

> <chembl_id>
CHEMBL185163

> <chembl_pref_name>
None

> <i_lp_mmshare_version>
53161

> <r_lp_tautomer_probability>
1

> <s_lp_Force_Field>
OPLS_2005

> <r_lp_Energy>
30.066092

> <b_lp_Chiralities_Consistent>
1

> <s_lp_Variant>
CHEMBL221_lig581-1

> <s_i_glide_gridfile>
glide-grid_2oyu

> <i_i_glide_lignum>
719

> <i_i_glide_rotatable_bonds>
3

> <r_i_docking_score>
-10.5260087345051

> <r_i_glide_ligand_efficiency>
-0.421040349380204

> <r_i_glide_ligand_efficiency_sa>
-1.23112944877011

> <r_i_glide_ligand_efficiency_ln>
-2.49497950910511

> <r_i_glide_gscore>
-10.5260087345051

> <r_i_glide_lipo>
-4.94269208258141

> <r_i_glide_hbond>
-0.295477253881388

> <r_i_glide_metal>
0

> <r_i_glide_rewards>
-3.24122507355234

> <r_i_glide_evdw>
-23.6008377075195

> <r_i_glide_ecoul>
-7.21124124526978

> <r_i_glide_erotb>
0.291039517654675

> <r_i_glide_esite>
-0.0759257699781849

> <r_i_glide_emodel>
-37.2770538529887

> <r_i_glide_energy>
-30.8120789527893

> <r_i_glide_einternal>
1.17273807525635

> <i_i_glide_confnum>
16

> <i_i_glide_posenum>
366

> <r_i_glide_eff_state_penalty>
0

> <s_user_duplicate_titles>
CHEMBL221_lig581

> <i_f3d_flags>
0

> <s_m_subgroup_title>
dock_pv

> <s_m_subgroupid>
dock_pv

> <b_m_subgroup_collapsed>
1

$$$$
CHEMBL221_lig583
                    3D
 Schrodinger Suite 2021-1.
 40 42  0  0  1  0            999 V2000
   20.0106   49.0245    6.2095 S   0  0  0  0  0  0
   20.5228   49.5366   13.2679 C   0  0  0  0  0  0
   21.6377   50.4691   12.9094 C   0  0  0  0  0  0
   19.7268   48.8710   12.2971 C   0  0  0  0  0  0
   20.2461   49.3090   14.6336 C   0  0  0  0  0  0
   20.0463   49.0609    7.9977 C   0  0  0  0  0  0
   21.6766   51.7696   13.4335 C   0  0  0  0  0  0
   18.7098   48.0097   12.7442 C   0  0  0  0  0  0
   20.9225   50.0169    5.6539 O   0  0  0  0  0  0
   20.1230   47.6349    5.7999 O   0  0  0  0  0  0
   22.7014   52.6594   13.1077 C   0  0  0  0  0  0
   19.8790   49.0002   10.8094 C   0  0  0  0  0  0
   19.2137   48.4591   15.0278 C   0  0  0  0  0  0
   18.4067   49.4731    5.8000 N   0  0  0  0  0  0
   23.7393   52.2306   12.2786 C   0  0  0  0  0  0
   22.6783   50.0695   12.0625 C   0  0  0  0  0  0
   18.4468   47.8071   14.0853 C   0  0  0  0  0  0
   19.7951   47.8651    8.6569 C   0  0  0  0  0  0
   20.1230   50.2471    8.7404 C   0  0  0  0  0  0
   23.7225   50.9415   11.7513 C   0  0  0  0  0  0
   20.0879   50.2142   10.1403 C   0  0  0  0  0  0
   19.7230   47.8489   10.0354 C   0  0  0  0  0  0
   20.9669   49.9275   15.5994 F   0  0  0  0  0  0
   18.9232   48.2726   16.3280 F   0  0  0  0  0  0
   24.7685   53.0559   11.9881 F   0  0  0  0  0  0
   22.6759   54.0738   13.6653 C   0  0  0  0  0  0
   20.8995   52.1028   14.1028 H   0  0  0  0  0  0
   18.0848   47.4820   12.0395 H   0  0  0  0  0  0
   18.2545   50.4815    5.9072 H   0  0  0  0  0  0
   18.1513   49.2191    4.8426 H   0  0  0  0  0  0
   22.6832   49.0703   11.6521 H   0  0  0  0  0  0
   17.6428   47.1545   14.3934 H   0  0  0  0  0  0
   19.6715   46.9416    8.1128 H   0  0  0  0  0  0
   20.2244   51.1887    8.2205 H   0  0  0  0  0  0
   24.5227   50.6216   11.1008 H   0  0  0  0  0  0
   20.1630   51.1389   10.6931 H   0  0  0  0  0  0
   19.6030   46.8972   10.5165 H   0  0  0  0  0  0
   22.1958   54.0988   14.6437 H   0  0  0  0  0  0
   22.1229   54.7389   13.0005 H   0  0  0  0  0  0
   23.6839   54.4695   13.8012 H   0  0  0  0  0  0
  1  6  1  0  0  0
  1  9  2  0  0  0
  1 10  2  0  0  0
  1 14  1  0  0  0
  2  4  1  0  0  0
  2  3  1  0  0  0
  2  5  2  0  0  0
  3  7  2  0  0  0
  3 16  1  0  0  0
  4 12  1  0  0  0
  4  8  2  0  0  0
  5 23  1  0  0  0
  5 13  1  0  0  0
  6 18  1  0  0  0
  6 19  2  0  0  0
  7 11  1  0  0  0
  7 27  1  0  0  0
  8 17  1  0  0  0
  8 28  1  0  0  0
 11 26  1  0  0  0
 11 15  2  0  0  0
 12 21  2  0  0  0
 12 22  1  0  0  0
 13 17  2  0  0  0
 13 24  1  0  0  0
 14 29  1  0  0  0
 14 30  1  0  0  0
 15 20  1  0  0  0
 15 25  1  0  0  0
 16 20  2  0  0  0
 16 31  1  0  0  0
 17 32  1  0  0  0
 18 22  2  0  0  0
 18 33  1  0  0  0
 19 21  1  0  0  0
 19 34  1  0  0  0
 20 35  1  0  0  0
 21 36  1  0  0  0
 22 37  1  0  0  0
 26 38  1  0  0  0
 26 39  1  0  0  0
 26 40  1  0  0  0
M  END
> <s_m_entry_id>
5021

> <s_m_entry_name>
dock_pv.12

> <s_m_Source_Path>
/home/csk/Desktop/cluster/DUD-E-result/pgh1

> <s_m_Source_File>
dock_pv.maegz

> <i_m_Source_File_Index>
12

> <chembl_id>
CHEMBL365301

> <chembl_pref_name>
None

> <i_lp_mmshare_version>
53161

> <r_lp_tautomer_probability>
1

> <s_lp_Force_Field>
OPLS_2005

> <r_lp_Energy>
29.948724

> <b_lp_Chiralities_Consistent>
1

> <s_lp_Variant>
CHEMBL221_lig583-1

> <s_i_glide_gridfile>
glide-grid_2oyu

> <i_i_glide_lignum>
721

> <i_i_glide_rotatable_bonds>
3

> <r_i_docking_score>
-10.5074937969825

> <r_i_glide_ligand_efficiency>
-0.404134376807019

> <r_i_glide_ligand_efficiency_sa>
-1.19724650109881

> <r_i_glide_ligand_efficiency_ln>
-2.46765044032205

> <r_i_glide_gscore>
-10.5074937969825

> <r_i_glide_lipo>
-4.97101633007037

> <r_i_glide_hbond>
-0.282138496986677

> <r_i_glide_metal>
0

> <r_i_glide_rewards>
-3.15042789015486

> <r_i_glide_evdw>
-24.8070449829102

> <r_i_glide_ecoul>
-7.0641188621521

> <r_i_glide_erotb>
0.271988518179558

> <r_i_glide_esite>
-0.075929519481823

> <r_i_glide_emodel>
-38.2416949816329

> <r_i_glide_energy>
-31.8711638450623

> <r_i_glide_einternal>
2.97825908660889

> <i_i_glide_confnum>
10

> <i_i_glide_posenum>
270

> <r_i_glide_eff_state_penalty>
0

> <s_user_duplicate_titles>
CHEMBL221_lig583

> <i_f3d_flags>
0

> <s_m_subgroup_title>
dock_pv

> <s_m_subgroupid>
dock_pv

> <b_m_subgroup_collapsed>
1

$$$$
CHEMBL221_lig241
                    3D
 Schrodinger Suite 2021-1.
 42 45  0  0  1  0            999 V2000
   19.9239   48.7137   11.5015 C   0  0  0  0  0  0
   20.1274   48.8758    5.4879 S   0  0  0  0  0  0
   20.5732   49.4839   12.4047 C   0  0  0  0  0  0
   18.9716   47.7693   12.1973 C   0  0  0  0  0  0
   20.1230   49.0793   13.7359 C   0  0  0  0  0  0
   19.1202   48.1265   13.6215 C   0  0  0  0  0  0
   19.9852   48.8444    7.2544 C   0  0  0  0  0  0
   19.9364   48.7942   10.0365 C   0  0  0  0  0  0
   21.6400   50.5010   12.2025 C   0  0  0  0  0  0
   20.9230   50.0360    5.0954 O   0  0  0  0  0  0
   20.5230   47.5627    5.0000 O   0  0  0  0  0  0
   18.4900   49.0730    5.0000 N   0  0  0  0  0  0
   20.1230   50.0240    7.9750 C   0  0  0  0  0  0
   19.7230   47.6553    7.9177 C   0  0  0  0  0  0
   20.1230   50.0037    9.3655 C   0  0  0  0  0  0
   19.7230   47.6277    9.2998 C   0  0  0  0  0  0
   22.6175   50.3096   11.2269 C   0  0  0  0  0  0
   21.7244   51.6328   13.0258 C   0  0  0  0  0  0
   23.8308   52.2250   12.0359 C   0  0  0  0  0  0
   22.8247   52.4812   12.9592 C   0  0  0  0  0  0
   23.7200   51.1589   11.1476 C   0  0  0  0  0  0
   24.9241   53.0160   12.0104 F   0  0  0  0  0  0
   20.5230   49.5100   14.9873 C   0  0  0  0  0  0
   18.4423   47.6473   14.7397 C   0  0  0  0  0  0
   19.8274   49.0730   16.0902 C   0  0  0  0  0  0
   18.7814   48.1535   15.9889 C   0  0  0  0  0  0
   19.2685   46.7316   12.0551 H   0  0  0  0  0  0
   17.9448   47.8730   11.8629 H   0  0  0  0  0  0
   18.2104   50.0573    4.8711 H   0  0  0  0  0  0
   18.2970   48.5699    4.1268 H   0  0  0  0  0  0
   20.2440   50.9659    7.4571 H   0  0  0  0  0  0
   19.5749   46.7447    7.3782 H   0  0  0  0  0  0
   20.2371   50.9326    9.9048 H   0  0  0  0  0  0
   19.5801   46.6802    9.7915 H   0  0  0  0  0  0
   22.5230   49.4730   10.5523 H   0  0  0  0  0  0
   20.9509   51.8514   13.7468 H   0  0  0  0  0  0
   22.9070   53.3255   13.6287 H   0  0  0  0  0  0
   24.4961   50.9843   10.4163 H   0  0  0  0  0  0
   21.3230   50.2167   15.1363 H   0  0  0  0  0  0
   17.6496   46.9190   14.6490 H   0  0  0  0  0  0
   20.1230   49.5281   17.0000 H   0  0  0  0  0  0
   18.2466   47.8323   16.8709 H   0  0  0  0  0  0
  1  3  2  0  0  0
  1  4  1  0  0  0
  1  8  1  0  0  0
  2  7  1  0  0  0
  2 10  2  0  0  0
  2 11  2  0  0  0
  2 12  1  0  0  0
  3  5  1  0  0  0
  3  9  1  0  0  0
  4  6  1  0  0  0
  4 27  1  0  0  0
  4 28  1  0  0  0
  5 23  1  0  0  0
  5  6  2  0  0  0
  6 24  1  0  0  0
  7 14  1  0  0  0
  7 13  2  0  0  0
  8 15  2  0  0  0
  8 16  1  0  0  0
  9 17  2  0  0  0
  9 18  1  0  0  0
 12 29  1  0  0  0
 12 30  1  0  0  0
 13 15  1  0  0  0
 13 31  1  0  0  0
 14 16  2  0  0  0
 14 32  1  0  0  0
 15 33  1  0  0  0
 16 34  1  0  0  0
 17 21  1  0  0  0
 17 35  1  0  0  0
 18 20  2  0  0  0
 18 36  1  0  0  0
 19 20  1  0  0  0
 19 22  1  0  0  0
 19 21  2  0  0  0
 20 37  1  0  0  0
 21 38  1  0  0  0
 23 25  2  0  0  0
 23 39  1  0  0  0
 24 26  2  0  0  0
 24 40  1  0  0  0
 25 26  1  0  0  0
 25 41  1  0  0  0
 26 42  1  0  0  0
M  END
> <s_m_entry_id>
5022

> <s_m_entry_name>
dock_pv.13

> <s_m_Source_Path>
/home/csk/Desktop/cluster/DUD-E-result/pgh1

> <s_m_Source_File>
dock_pv.maegz

> <i_m_Source_File_Index>
13

> <chembl_id>
CHEMBL80405

> <chembl_pref_name>
None

> <i_lp_mmshare_version>
53161

> <r_lp_tautomer_probability>
0.5

> <s_lp_Force_Field>
OPLS_2005

> <r_lp_Energy>
46.469105

> <b_lp_Chiralities_Consistent>
1

> <s_lp_Variant>
CHEMBL221_lig241-1

> <s_i_glide_gridfile>
glide-grid_2oyu

> <i_i_glide_lignum>
269

> <i_i_glide_rotatable_bonds>
3

> <r_i_docking_score>
-10.5072055464784

> <r_i_glide_ligand_efficiency>
-0.404123290249167

> <r_i_glide_ligand_efficiency_sa>
-1.1972136572148

> <r_i_glide_ligand_efficiency_ln>
-2.46758274563698

> <r_i_glide_gscore>
-10.5072055464784

> <r_i_glide_lipo>
-5.59987189844217

> <r_i_glide_hbond>
-0.585482691799468

> <r_i_glide_metal>
0

> <r_i_glide_rewards>
-2.71714996264044

> <r_i_glide_evdw>
-14.1166467666626

> <r_i_glide_ecoul>
-7.42786693572998

> <r_i_glide_erotb>
0.288107947908607

> <r_i_glide_esite>
-0.0727965628122558

> <r_i_glide_emodel>
-27.7774609993235

> <r_i_glide_energy>
-21.5445137023926

> <r_i_glide_einternal>
2.50229048728943

> <i_i_glide_confnum>
4

> <i_i_glide_posenum>
106

> <r_i_glide_eff_state_penalty>
0

> <s_user_duplicate_titles>
CHEMBL221_lig241,124871

> <i_f3d_flags>
0

> <s_m_subgroup_title>
dock_pv

> <s_m_subgroupid>
dock_pv

> <b_m_subgroup_collapsed>
1

$$$$
CHEMBL221_lig361
                    3D
 Schrodinger Suite 2021-1.
 42 45  0  0  1  0            999 V2000
   19.9962   48.9906    6.2353 S   0  0  0  0  0  0
   20.6339   49.6351   13.2162 C   0  0  0  0  0  0
   19.8732   48.9649   12.3110 C   0  0  0  0  0  0
   19.1415   48.2730   14.4553 C   0  0  0  0  0  0
   20.3316   49.2042   14.6459 C   0  0  0  0  0  0
   18.8445   48.0676   12.9871 C   0  0  0  0  0  0
   20.0212   49.0525    8.0232 C   0  0  0  0  0  0
   19.9076   49.0635   10.8298 C   0  0  0  0  0  0
   21.7630   50.5489   12.9324 C   0  0  0  0  0  0
   18.9227   47.1012   15.4000 C   0  0  0  0  0  0
   18.0022   48.2730   15.4673 C   0  0  0  0  0  0
   20.9230   49.9685    5.6806 O   0  0  0  0  0  0
   20.1230   47.5892    5.8687 O   0  0  0  0  0  0
   18.3988   49.4728    5.8000 N   0  0  0  0  0  0
   19.7659   47.8730    8.7189 C   0  0  0  0  0  0
   20.1230   50.2550    8.7322 C   0  0  0  0  0  0
   19.7230   47.8882   10.1030 C   0  0  0  0  0  0
   20.1229   50.2566   10.1296 C   0  0  0  0  0  0
   21.8906   51.7442   13.6490 C   0  0  0  0  0  0
   22.7141   50.2324   11.9562 C   0  0  0  0  0  0
   23.9045   52.2649   12.4358 C   0  0  0  0  0  0
   23.7811   51.0878   11.7058 C   0  0  0  0  0  0
   22.9590   52.6021   13.3999 C   0  0  0  0  0  0
   24.9637   53.0731   12.2188 F   0  0  0  0  0  0
   21.1757   48.6731   15.0766 H   0  0  0  0  0  0
   20.1230   50.0478   15.3006 H   0  0  0  0  0  0
   18.9725   47.0201   12.7152 H   0  0  0  0  0  0
   17.8227   48.3545   12.7389 H   0  0  0  0  0  0
   18.5390   46.1623   14.9988 H   0  0  0  0  0  0
   19.6384   46.9348   16.2000 H   0  0  0  0  0  0
   18.0615   48.9476   16.3219 H   0  0  0  0  0  0
   16.9792   48.1682   15.1027 H   0  0  0  0  0  0
   18.2088   50.4727    5.9252 H   0  0  0  0  0  0
   17.6524   48.8897    6.1942 H   0  0  0  0  0  0
   19.6260   46.9374    8.1991 H   0  0  0  0  0  0
   20.2350   51.1836    8.1917 H   0  0  0  0  0  0
   19.5892   46.9596   10.6217 H   0  0  0  0  0  0
   20.2412   51.1903   10.6600 H   0  0  0  0  0  0
   21.1646   52.0151   14.4020 H   0  0  0  0  0  0
   22.6353   49.3103   11.4000 H   0  0  0  0  0  0
   24.5228   50.8335   10.9622 H   0  0  0  0  0  0
   23.0630   53.5197   13.9609 H   0  0  0  0  0  0
  1  7  1  0  0  0
  1 12  2  0  0  0
  1 13  2  0  0  0
  1 14  1  0  0  0
  2  3  2  0  0  0
  2  5  1  0  0  0
  2  9  1  0  0  0
  3  8  1  0  0  0
  3  6  1  0  0  0
  4  6  1  0  0  0
  4 10  1  0  0  0
  4 11  1  0  0  0
  4  5  1  0  0  0
  5 25  1  0  0  0
  5 26  1  0  0  0
  6 27  1  0  0  0
  6 28  1  0  0  0
  7 15  2  0  0  0
  7 16  1  0  0  0
  8 18  1  0  0  0
  8 17  2  0  0  0
  9 19  2  0  0  0
  9 20  1  0  0  0
 10 11  1  0  0  0
 10 29  1  0  0  0
 10 30  1  0  0  0
 11 31  1  0  0  0
 11 32  1  0  0  0
 14 33  1  0  0  0
 14 34  1  0  0  0
 15 17  1  0  0  0
 15 35  1  0  0  0
 16 18  2  0  0  0
 16 36  1  0  0  0
 17 37  1  0  0  0
 18 38  1  0  0  0
 19 23  1  0  0  0
 19 39  1  0  0  0
 20 22  2  0  0  0
 20 40  1  0  0  0
 21 22  1  0  0  0
 21 24  1  0  0  0
 21 23  2  0  0  0
 22 41  1  0  0  0
 23 42  1  0  0  0
M  END
> <s_m_entry_id>
5023

> <s_m_entry_name>
dock_pv.14

> <s_m_Source_Path>
/home/csk/Desktop/cluster/DUD-E-result/pgh1

> <s_m_Source_File>
dock_pv.maegz

> <i_m_Source_File_Index>
14

> <chembl_id>
CHEMBL17184

> <chembl_pref_name>
None

> <i_lp_mmshare_version>
53161

> <r_lp_tautomer_probability>
1

> <s_lp_Force_Field>
OPLS_2005

> <r_lp_Energy>
43.740932

> <b_lp_Chiralities_Consistent>
1

> <s_lp_Variant>
CHEMBL221_lig361-1

> <s_i_glide_gridfile>
glide-grid_2oyu

> <i_i_glide_lignum>
427

> <i_i_glide_rotatable_bonds>
3

> <r_i_docking_score>
-10.4682590930224

> <r_i_glide_ligand_efficiency>
-0.436177462209268

> <r_i_glide_ligand_efficiency_sa>
-1.25815351356536

> <r_i_glide_ligand_efficiency_ln>
-2.50553475806956

> <r_i_glide_gscore>
-10.4682590930224

> <r_i_glide_lipo>
-5.01741848545302

> <r_i_glide_hbond>
-0.581644216210424

> <r_i_glide_metal>
0

> <r_i_glide_rewards>
-2.78844332735826

> <r_i_glide_evdw>
-26.1758308410645

> <r_i_glide_ecoul>
-6.80658626556396

> <r_i_glide_erotb>
0.321783609327088

> <r_i_glide_esite>
-0.0727571914399859

> <r_i_glide_emodel>
-44.9284052659509

> <r_i_glide_energy>
-32.9824171066284

> <r_i_glide_einternal>
0.539098381996155

> <i_i_glide_confnum>
1

> <i_i_glide_posenum>
57

> <r_i_glide_eff_state_penalty>
0

> <s_user_duplicate_titles>
CHEMBL221_lig361,18695

> <i_f3d_flags>
0

> <s_m_subgroup_title>
dock_pv

> <s_m_subgroupid>
dock_pv

> <b_m_subgroup_collapsed>
1

$$$$
CHEMBL221_lig208
                    3D
 Schrodinger Suite 2021-1.
 39 42  0  0  1  0            999 V2000
   20.3382   49.4730   14.2535 C   0  0  0  0  0  0
   19.3230   48.5195   14.0738 C   0  0  0  0  0  0
   20.8281   49.7503   12.9960 C   0  0  0  0  0  0
   20.0298   49.0337   12.1328 N   0  0  0  0  0  0
   19.1728   48.2462   12.8004 N   0  0  0  0  0  0
   19.9957   48.9840    6.1752 S   0  0  0  0  0  0
   18.4664   47.7944   15.0899 C   0  0  0  0  0  0
   21.9042   50.7451   12.7849 C   0  0  0  0  0  0
   20.9136   50.2487   15.4304 C   0  0  0  0  0  0
   21.3230   51.5743   15.0203 O   0  0  0  0  0  0
   19.9737   49.0631   10.7248 C   0  0  0  0  0  0
   20.0155   49.0371    7.9470 C   0  0  0  0  0  0
   22.0468   51.6602   13.8378 C   0  0  0  0  0  0
   20.9229   49.9667    5.6259 O   0  0  0  0  0  0
   20.1230   47.5857    5.8000 O   0  0  0  0  0  0
   18.3869   49.4730    5.8000 N   0  0  0  0  0  0
   19.7230   47.8796   10.0279 C   0  0  0  0  0  0
   20.1230   50.2635   10.0260 C   0  0  0  0  0  0
   17.2426   47.5372   14.6247 F   0  0  0  0  0  0
   19.0287   46.6327   15.4140 F   0  0  0  0  0  0
   18.3215   48.5095   16.2000 F   0  0  0  0  0  0
   19.7361   47.8627    8.6442 C   0  0  0  0  0  0
   20.1230   50.2477    8.6351 C   0  0  0  0  0  0
   22.7557   50.8296   11.6779 C   0  0  0  0  0  0
   22.9142   52.7376   13.7085 C   0  0  0  0  0  0
   23.6870   51.8664   11.5911 C   0  0  0  0  0  0
   23.7507   52.8332   12.5965 C   0  0  0  0  0  0
   20.1607   50.3613   16.2100 H   0  0  0  0  0  0
   21.7230   49.7114   15.9121 H   0  0  0  0  0  0
   18.1999   50.4715    5.9405 H   0  0  0  0  0  0
   17.6504   48.8826    6.2020 H   0  0  0  0  0  0
   19.5838   46.9601   10.5647 H   0  0  0  0  0  0
   20.2382   51.2037   10.5467 H   0  0  0  0  0  0
   19.5699   46.9310    8.1257 H   0  0  0  0  0  0
   20.2243   51.1716    8.0837 H   0  0  0  0  0  0
   22.6968   50.1017   10.8825 H   0  0  0  0  0  0
   22.9230   53.4941   14.4772 H   0  0  0  0  0  0
   24.3413   51.9324   10.7332 H   0  0  0  0  0  0
   24.4449   53.6571   12.5148 H   0  0  0  0  0  0
  1  2  1  0  0  0
  1  3  2  0  0  0
  1  9  1  0  0  0
  2  5  2  0  0  0
  2  7  1  0  0  0
  3  4  1  0  0  0
  3  8  1  0  0  0
  4 11  1  0  0  0
  4  5  1  0  0  0
  6 12  1  0  0  0
  6 14  2  0  0  0
  6 15  2  0  0  0
  6 16  1  0  0  0
  7 19  1  0  0  0
  7 20  1  0  0  0
  7 21  1  0  0  0
  8 24  2  0  0  0
  8 13  1  0  0  0
  9 10  1  0  0  0
  9 28  1  0  0  0
  9 29  1  0  0  0
 10 13  1  0  0  0
 11 17  1  0  0  0
 11 18  2  0  0  0
 12 23  2  0  0  0
 12 22  1  0  0  0
 13 25  2  0  0  0
 16 30  1  0  0  0
 16 31  1  0  0  0
 17 22  2  0  0  0
 17 32  1  0  0  0
 18 23  1  0  0  0
 18 33  1  0  0  0
 22 34  1  0  0  0
 23 35  1  0  0  0
 24 26  1  0  0  0
 24 36  1  0  0  0
 25 27  1  0  0  0
 25 37  1  0  0  0
 26 27  2  0  0  0
 26 38  1  0  0  0
 27 39  1  0  0  0
M  END
> <s_m_entry_id>
5024

> <s_m_entry_name>
dock_pv.15

> <s_m_Source_Path>
/home/csk/Desktop/cluster/DUD-E-result/pgh1

> <s_m_Source_File>
dock_pv.maegz

> <i_m_Source_File_Index>
15

> <chembl_id>
CHEMBL95021

> <chembl_pref_name>
None

> <i_lp_mmshare_version>
53161

> <r_lp_tautomer_probability>
1

> <s_lp_Force_Field>
OPLS_2005

> <r_lp_Energy>
35.154541

> <b_lp_Chiralities_Consistent>
1

> <s_lp_Variant>
CHEMBL221_lig208-1

> <s_i_glide_gridfile>
glide-grid_2oyu

> <i_i_glide_lignum>
236

> <i_i_glide_rotatable_bonds>
3

> <r_i_docking_score>
-10.4561112860966

> <r_i_glide_ligand_efficiency>
-0.387263380966541

> <r_i_glide_ligand_efficiency_sa>
-1.16179014162327

> <r_i_glide_ligand_efficiency_ln>
-2.43401032493632

> <r_i_glide_gscore>
-10.4561112860966

> <r_i_glide_lipo>
-4.38750876038942

> <r_i_glide_hbond>
-0.589625345558388

> <r_i_glide_metal>
0

> <r_i_glide_rewards>
-2.98704008244817

> <r_i_glide_evdw>
-28.1274185180664

> <r_i_glide_ecoul>
-7.58093595504761

> <r_i_glide_erotb>
0.125100475827707

> <r_i_glide_esite>
-0.0735262543678811

> <r_i_glide_emodel>
-51.1236775658069

> <r_i_glide_energy>
-35.708354473114

> <r_i_glide_einternal>
0.494344025850296

> <i_i_glide_confnum>
3

> <i_i_glide_posenum>
301

> <r_i_glide_eff_state_penalty>
0

> <s_user_duplicate_titles>
CHEMBL221_lig208

> <i_f3d_flags>
0

> <s_m_subgroup_title>
dock_pv

> <s_m_subgroupid>
dock_pv

> <b_m_subgroup_collapsed>
1

$$$$
CHEMBL221_lig306
                    3D
 Schrodinger Suite 2021-1.
 40 42  0  0  1  0            999 V2000
   19.1621   48.3043   14.1462 C   0  0  0  0  0  0
   20.1558   49.1577   14.3281 N   0  0  0  0  0  0
   19.8077   48.9591   12.1242 N   0  0  0  0  0  0
   20.5419   49.5585   13.1318 C   0  0  0  0  0  0
   19.9890   49.0208    6.1609 S   0  0  0  0  0  0
   18.9180   48.1612   12.7993 C   0  0  0  0  0  0
   18.5012   47.5966   15.3065 C   0  0  0  0  0  0
   20.0355   49.0670    7.9401 C   0  0  0  0  0  0
   19.9054   49.0468   10.7209 C   0  0  0  0  0  0
   21.6657   50.5255   12.9397 C   0  0  0  0  0  0
   20.9006   50.0177    5.6095 O   0  0  0  0  0  0
   20.1230   47.6264    5.7748 O   0  0  0  0  0  0
   18.3630   49.4729    5.8000 N   0  0  0  0  0  0
   20.1230   50.2662    8.6574 C   0  0  0  0  0  0
   19.7814   47.8739    8.6130 C   0  0  0  0  0  0
   18.1724   48.4455   16.2765 F   0  0  0  0  0  0
   17.3825   46.9768   14.9333 F   0  0  0  0  0  0
   19.3232   46.6738   15.8000 F   0  0  0  0  0  0
   19.7230   47.8728    9.9928 C   0  0  0  0  0  0
   20.1202   50.2562   10.0533 C   0  0  0  0  0  0
   21.7232   51.6803   13.7247 C   0  0  0  0  0  0
   22.6750   50.2728   12.0064 C   0  0  0  0  0  0
   22.7877   52.5646   13.5861 C   0  0  0  0  0  0
   23.7423   51.1553   11.8704 C   0  0  0  0  0  0
   23.8115   52.2885   12.6822 C   0  0  0  0  0  0
   25.0134   53.2121   12.6190 C   0  0  0  0  0  0
   18.1962   47.5552   12.2705 H   0  0  0  0  0  0
   18.1861   50.3110    5.2281 H   0  0  0  0  0  0
   17.6193   48.7720    5.8710 H   0  0  0  0  0  0
   20.2188   51.2001    8.1225 H   0  0  0  0  0  0
   19.6425   46.9468    8.0792 H   0  0  0  0  0  0
   19.5786   46.9386   10.5019 H   0  0  0  0  0  0
   20.2195   51.1844   10.5984 H   0  0  0  0  0  0
   20.9479   51.8913   14.4477 H   0  0  0  0  0  0
   22.6450   49.3800   11.4002 H   0  0  0  0  0  0
   22.8331   53.4515   14.2012 H   0  0  0  0  0  0
   24.5270   50.9367   11.1601 H   0  0  0  0  0  0
   24.6954   54.2559   12.6007 H   0  0  0  0  0  0
   25.6330   53.0743   13.5061 H   0  0  0  0  0  0
   25.6231   53.0323   11.7350 H   0  0  0  0  0  0
  1  2  1  0  0  0
  1  6  2  0  0  0
  1  7  1  0  0  0
  2  4  2  0  0  0
  3  6  1  0  0  0
  3  9  1  0  0  0
  3  4  1  0  0  0
  4 10  1  0  0  0
  5  8  1  0  0  0
  5 11  2  0  0  0
  5 12  2  0  0  0
  5 13  1  0  0  0
  6 27  1  0  0  0
  7 16  1  0  0  0
  7 17  1  0  0  0
  7 18  1  0  0  0
  8 14  1  0  0  0
  8 15  2  0  0  0
  9 19  2  0  0  0
  9 20  1  0  0  0
 10 21  1  0  0  0
 10 22  2  0  0  0
 13 28  1  0  0  0
 13 29  1  0  0  0
 14 20  2  0  0  0
 14 30  1  0  0  0
 15 19  1  0  0  0
 15 31  1  0  0  0
 19 32  1  0  0  0
 20 33  1  0  0  0
 21 23  2  0  0  0
 21 34  1  0  0  0
 22 24  1  0  0  0
 22 35  1  0  0  0
 23 25  1  0  0  0
 23 36  1  0  0  0
 24 25  2  0  0  0
 24 37  1  0  0  0
 25 26  1  0  0  0
 26 38  1  0  0  0
 26 39  1  0  0  0
 26 40  1  0  0  0
M  END
> <s_m_entry_id>
5025

> <s_m_entry_name>
dock_pv.16

> <s_m_Source_Path>
/home/csk/Desktop/cluster/DUD-E-result/pgh1

> <s_m_Source_File>
dock_pv.maegz

> <i_m_Source_File_Index>
16

> <chembl_id>
CHEMBL297108

> <chembl_pref_name>
None

> <i_lp_mmshare_version>
53161

> <r_lp_tautomer_probability>
1

> <s_lp_Force_Field>
OPLS_2005

> <r_lp_Energy>
27.49521

> <b_lp_Chiralities_Consistent>
1

> <s_lp_Variant>
CHEMBL221_lig306-1

> <s_i_glide_gridfile>
glide-grid_2oyu

> <i_i_glide_lignum>
339

> <i_i_glide_rotatable_bonds>
4

> <r_i_docking_score>
-10.4492726110228

> <r_i_glide_ligand_efficiency>
-0.401895100423954

> <r_i_glide_ligand_efficiency_sa>
-1.19061265362511

> <r_i_glide_ligand_efficiency_ln>
-2.45397738583871

> <r_i_glide_gscore>
-10.4492726110228

> <r_i_glide_lipo>
-4.28061045604221

> <r_i_glide_hbond>
-0.481677508186494

> <r_i_glide_metal>
0

> <r_i_glide_rewards>
-3.19716908240922

> <r_i_glide_evdw>
-27.3545570373535

> <r_i_glide_ecoul>
-8.69800472259521

> <r_i_glide_erotb>
0.266909520291938

> <r_i_glide_esite>
-0.0842965244198568

> <r_i_glide_emodel>
-42.6927301131341

> <r_i_glide_energy>
-36.0525617599487

> <r_i_glide_einternal>
1.74100804328918

> <i_i_glide_confnum>
4

> <i_i_glide_posenum>
42

> <r_i_glide_eff_state_penalty>
0

> <s_user_duplicate_titles>
CHEMBL221_lig306

> <i_f3d_flags>
0

> <s_m_subgroup_title>
dock_pv

> <s_m_subgroupid>
dock_pv

> <b_m_subgroup_collapsed>
1

$$$$
CHEMBL221_lig236
                    3D
 Schrodinger Suite 2021-1.
 40 43  0  0  1  0            999 V2000
   19.9157   48.9719   11.4881 C   0  0  0  0  0  0
   19.9429   48.7127    5.4704 S   0  0  0  0  0  0
   20.6573   49.6699   12.4456 C   0  0  0  0  0  0
   18.9497   48.1893   12.0510 O   0  0  0  0  0  0
   20.1684   49.1727   13.6905 C   0  0  0  0  0  0
   19.0882   48.3174   13.3874 C   0  0  0  0  0  0
   19.9299   48.7665    7.2452 C   0  0  0  0  0  0
   19.9393   48.9203   10.0177 C   0  0  0  0  0  0
   21.7663   50.6617   12.2948 C   0  0  0  0  0  0
   20.5671   49.9318    5.0000 O   0  0  0  0  0  0
   20.5230   47.4730    4.9996 O   0  0  0  0  0  0
   18.2733   48.6730    5.0000 N   0  0  0  0  0  0
   19.7230   47.6189    7.9975 C   0  0  0  0  0  0
   20.1230   49.9895    7.8815 C   0  0  0  0  0  0
   19.7230   47.6983    9.3808 C   0  0  0  0  0  0
   20.1230   50.0767    9.2695 C   0  0  0  0  0  0
   21.9363   51.6776   13.2435 C   0  0  0  0  0  0
   22.7041   50.5155   11.2739 C   0  0  0  0  0  0
   24.0084   52.3135   12.2035 C   0  0  0  0  0  0
   23.8257   51.3392   11.2261 C   0  0  0  0  0  0
   23.0563   52.5015   13.1993 C   0  0  0  0  0  0
   25.1252   53.0730   12.2000 F   0  0  0  0  0  0
   20.5230   49.3471   15.0280 C   0  0  0  0  0  0
   18.3068   47.6832   14.3572 C   0  0  0  0  0  0
   19.7900   48.6730   15.9895 C   0  0  0  0  0  0
   18.6882   47.8758   15.6818 C   0  0  0  0  0  0
   17.8750   49.6202    4.9772 H   0  0  0  0  0  0
   18.1862   48.2897    4.0497 H   0  0  0  0  0  0
   19.5597   46.6730    7.5231 H   0  0  0  0  0  0
   20.2352   50.8951    7.3009 H   0  0  0  0  0  0
   19.5831   46.8021    9.9612 H   0  0  0  0  0  0
   20.2550   51.0355    9.7504 H   0  0  0  0  0  0
   21.2110   51.8274   14.0290 H   0  0  0  0  0  0
   22.5743   49.7417   10.5337 H   0  0  0  0  0  0
   24.5630   51.2062   10.4484 H   0  0  0  0  0  0
   23.1990   53.2695   13.9455 H   0  0  0  0  0  0
   21.3586   49.9657   15.3133 H   0  0  0  0  0  0
   17.4595   47.0730   14.0896 H   0  0  0  0  0  0
   20.1230   48.7876   17.0000 H   0  0  0  0  0  0
   18.1361   47.3966   16.4780 H   0  0  0  0  0  0
  1  3  2  0  0  0
  1  4  1  0  0  0
  1  8  1  0  0  0
  2  7  1  0  0  0
  2 10  2  0  0  0
  2 11  2  0  0  0
  2 12  1  0  0  0
  3  5  1  0  0  0
  3  9  1  0  0  0
  4  6  1  0  0  0
  5 23  1  0  0  0
  5  6  2  0  0  0
  6 24  1  0  0  0
  7 14  1  0  0  0
  7 13  2  0  0  0
  8 15  2  0  0  0
  8 16  1  0  0  0
  9 17  2  0  0  0
  9 18  1  0  0  0
 12 27  1  0  0  0
 12 28  1  0  0  0
 13 15  1  0  0  0
 13 29  1  0  0  0
 14 16  2  0  0  0
 14 30  1  0  0  0
 15 31  1  0  0  0
 16 32  1  0  0  0
 17 21  1  0  0  0
 17 33  1  0  0  0
 18 20  2  0  0  0
 18 34  1  0  0  0
 19 20  1  0  0  0
 19 22  1  0  0  0
 19 21  2  0  0  0
 20 35  1  0  0  0
 21 36  1  0  0  0
 23 25  2  0  0  0
 23 37  1  0  0  0
 24 26  2  0  0  0
 24 38  1  0  0  0
 25 26  1  0  0  0
 25 39  1  0  0  0
 26 40  1  0  0  0
M  END
> <s_m_entry_id>
5026

> <s_m_entry_name>
dock_pv.17

> <s_m_Source_Path>
/home/csk/Desktop/cluster/DUD-E-result/pgh1

> <s_m_Source_File>
dock_pv.maegz

> <i_m_Source_File_Index>
17

> <chembl_id>
CHEMBL77714

> <chembl_pref_name>
None

> <i_lp_mmshare_version>
53161

> <r_lp_tautomer_probability>
1

> <s_lp_Force_Field>
OPLS_2005

> <r_lp_Energy>
23.654014

> <b_lp_Chiralities_Consistent>
1

> <s_lp_Variant>
CHEMBL221_lig236-1

> <s_i_glide_gridfile>
glide-grid_2oyu

> <i_i_glide_lignum>
264

> <i_i_glide_rotatable_bonds>
3

> <r_i_docking_score>
-10.4267998070819

> <r_i_glide_ligand_efficiency>
-0.401030761810843

> <r_i_glide_ligand_efficiency_sa>
-1.18805205388477

> <r_i_glide_ligand_efficiency_ln>
-2.44869972157247

> <r_i_glide_gscore>
-10.4267998070819

> <r_i_glide_lipo>
-5.44505602997363

> <r_i_glide_hbond>
-0.600629845518588

> <r_i_glide_metal>
0

> <r_i_glide_rewards>
-2.66296724707851

> <r_i_glide_evdw>
-17.142786026001

> <r_i_glide_ecoul>
-7.01366567611694

> <r_i_glide_erotb>
0.285351335881121

> <r_i_glide_esite>
-0.0943088676747239

> <r_i_glide_emodel>
-25.8994338720883

> <r_i_glide_energy>
-24.1564517021179

> <r_i_glide_einternal>
0.838400661945343

> <i_i_glide_confnum>
14

> <i_i_glide_posenum>
345

> <r_i_glide_eff_state_penalty>
0

> <s_user_duplicate_titles>
CHEMBL221_lig236,124330

> <i_f3d_flags>
0

> <s_m_subgroup_title>
dock_pv

> <s_m_subgroupid>
dock_pv

> <b_m_subgroup_collapsed>
1

$$$$
CHEMBL221_lig536
                    3D
 Schrodinger Suite 2021-1.
 37 39  0  0  1  0            999 V2000
   19.4354   48.6053   14.2951 C   0  0  0  0  0  0
   20.0326   49.2046   12.3361 N   0  0  0  0  0  0
   20.5230   49.4730   14.4621 C   0  0  0  0  0  0
   19.1564   48.4526   13.0235 N   0  0  0  0  0  0
   20.9067   49.8698   13.1840 C   0  0  0  0  0  0
   19.9921   48.9080    6.3269 S   0  0  0  0  0  0
   18.6151   47.8622   15.3339 C   0  0  0  0  0  0
   19.9665   49.1810   10.9179 C   0  0  0  0  0  0
   20.0087   49.0363    8.1178 C   0  0  0  0  0  0
   20.9230   49.8730    5.7473 O   0  0  0  0  0  0
   20.1230   47.4861    6.0444 O   0  0  0  0  0  0
   22.0222   50.7826   12.7942 C   0  0  0  0  0  0
   21.0732   49.8352   15.5989 F   0  0  0  0  0  0
   18.4061   49.3570    5.8000 N   0  0  0  0  0  0
   19.7230   47.9689   10.2635 C   0  0  0  0  0  0
   20.1233   50.3452   10.1605 C   0  0  0  0  0  0
   18.8945   48.2730   16.5682 F   0  0  0  0  0  0
   17.3075   48.0431   15.1437 F   0  0  0  0  0  0
   18.8591   46.5518   15.2830 F   0  0  0  0  0  0
   20.1230   50.2710    8.7665 C   0  0  0  0  0  0
   19.7375   47.8914    8.8753 C   0  0  0  0  0  0
   22.8794   50.4621   11.7395 C   0  0  0  0  0  0
   22.2311   51.9562   13.5250 C   0  0  0  0  0  0
   23.2814   52.8080   13.1941 C   0  0  0  0  0  0
   23.9227   51.3178   11.4000 C   0  0  0  0  0  0
   24.1230   52.4842   12.1330 C   0  0  0  0  0  0
   18.2267   50.3651    5.7439 H   0  0  0  0  0  0
   17.6355   48.8393    6.2386 H   0  0  0  0  0  0
   19.5537   47.0730   10.8365 H   0  0  0  0  0  0
   20.2553   51.3050   10.6397 H   0  0  0  0  0  0
   20.2321   51.1716    8.1794 H   0  0  0  0  0  0
   19.5670   46.9383    8.3975 H   0  0  0  0  0  0
   22.7347   49.5499   11.1813 H   0  0  0  0  0  0
   21.5834   52.2118   14.3515 H   0  0  0  0  0  0
   23.4441   53.7127   13.7631 H   0  0  0  0  0  0
   24.5773   51.0730   10.5765 H   0  0  0  0  0  0
   24.9415   53.1399   11.8779 H   0  0  0  0  0  0
  1  3  1  0  0  0
  1  4  2  0  0  0
  1  7  1  0  0  0
  2  4  1  0  0  0
  2  8  1  0  0  0
  2  5  1  0  0  0
  3  5  2  0  0  0
  3 13  1  0  0  0
  5 12  1  0  0  0
  6  9  1  0  0  0
  6 10  2  0  0  0
  6 11  2  0  0  0
  6 14  1  0  0  0
  7 17  1  0  0  0
  7 18  1  0  0  0
  7 19  1  0  0  0
  8 15  2  0  0  0
  8 16  1  0  0  0
  9 20  1  0  0  0
  9 21  2  0  0  0
 12 22  1  0  0  0
 12 23  2  0  0  0
 14 27  1  0  0  0
 14 28  1  0  0  0
 15 21  1  0  0  0
 15 29  1  0  0  0
 16 20  2  0  0  0
 16 30  1  0  0  0
 20 31  1  0  0  0
 21 32  1  0  0  0
 22 25  2  0  0  0
 22 33  1  0  0  0
 23 24  1  0  0  0
 23 34  1  0  0  0
 24 26  2  0  0  0
 24 35  1  0  0  0
 25 26  1  0  0  0
 25 36  1  0  0  0
 26 37  1  0  0  0
M  END
> <s_m_entry_id>
5027

> <s_m_entry_name>
dock_pv.18

> <s_m_Source_Path>
/home/csk/Desktop/cluster/DUD-E-result/pgh1

> <s_m_Source_File>
dock_pv.maegz

> <i_m_Source_File_Index>
18

> <chembl_id>
CHEMBL29766

> <chembl_pref_name>
None

> <i_lp_mmshare_version>
53161

> <r_lp_tautomer_probability>
1

> <s_lp_Force_Field>
OPLS_2005

> <r_lp_Energy>
27.883594

> <b_lp_Chiralities_Consistent>
1

> <s_lp_Variant>
CHEMBL221_lig536-1

> <s_i_glide_gridfile>
glide-grid_2oyu

> <i_i_glide_lignum>
674

> <i_i_glide_rotatable_bonds>
4

> <r_i_docking_score>
-10.4244413627375

> <r_i_glide_ligand_efficiency>
-0.400940052412981

> <r_i_glide_ligand_efficiency_sa>
-1.18778332765053

> <r_i_glide_ligand_efficiency_ln>
-2.44814584865687

> <r_i_glide_gscore>
-10.4244413627375

> <r_i_glide_lipo>
-4.43703732158256

> <r_i_glide_hbond>
-0.512672886025428

> <r_i_glide_metal>
0

> <r_i_glide_rewards>
-3.11296363441365

> <r_i_glide_evdw>
-27.7012100219727

> <r_i_glide_ecoul>
-7.79129505157471

> <r_i_glide_erotb>
0.262006376929676

> <r_i_glide_esite>
-0.0700191388106935

> <r_i_glide_emodel>
-53.1274490469304

> <r_i_glide_energy>
-35.4925050735474

> <r_i_glide_einternal>
0.288870513439178

> <i_i_glide_confnum>
9

> <i_i_glide_posenum>
318

> <r_i_glide_eff_state_penalty>
0

> <s_user_duplicate_titles>
CHEMBL221_lig536,39495

> <i_f3d_flags>
0

> <s_m_subgroup_title>
dock_pv

> <s_m_subgroupid>
dock_pv

> <b_m_subgroup_collapsed>
1

$$$$
CHEMBL221_lig266
                    3D
 Schrodinger Suite 2021-1.
 33 35  0  0  1  0            999 V2000
   20.8145   49.8049   13.3009 C   0  0  0  0  0  0
   19.9513   49.0760   12.4622 C   0  0  0  0  0  0
   20.5230   49.4730   14.9902 S   0  0  0  0  0  0
   19.7952   48.8541    6.6388 C   0  0  0  0  0  0
   19.9454   49.0788   10.9611 C   0  0  0  0  0  0
   21.9417   50.7183   12.9689 C   0  0  0  0  0  0
   19.2468   48.3833   14.5909 C   0  0  0  0  0  0
   19.0616   48.2896   13.2224 C   0  0  0  0  0  0
   19.9409   48.9321    8.1394 C   0  0  0  0  0  0
   20.1230   47.8730    5.9978 O   0  0  0  0  0  0
   20.1378   50.2322   10.2000 C   0  0  0  0  0  0
   19.7230   47.8730   10.3006 C   0  0  0  0  0  0
   20.1230   50.1585    8.8065 C   0  0  0  0  0  0
   19.7230   47.7883    8.9106 C   0  0  0  0  0  0
   22.0900   51.9449   13.6260 C   0  0  0  0  0  0
   22.8747   50.3245   12.0073 C   0  0  0  0  0  0
   19.2266   49.8730    6.0221 N   0  0  0  0  0  0
   24.1292   52.3334   12.4151 C   0  0  0  0  0  0
   23.1877   52.7527   13.3491 C   0  0  0  0  0  0
   23.9662   51.1368   11.7262 C   0  0  0  0  0  0
   25.2352   53.0749   12.2000 F   0  0  0  0  0  0
   18.6916   47.8828   15.3706 H   0  0  0  0  0  0
   18.3007   47.6621   12.7805 H   0  0  0  0  0  0
   20.2818   51.1882   10.6820 H   0  0  0  0  0  0
   19.5850   46.9815   10.8827 H   0  0  0  0  0  0
   20.2331   51.0730    8.2421 H   0  0  0  0  0  0
   19.5414   46.8327    8.4398 H   0  0  0  0  0  0
   21.3697   52.2645   14.3653 H   0  0  0  0  0  0
   22.7668   49.3801   11.4949 H   0  0  0  0  0  0
   19.0495   49.8227    5.0303 H   0  0  0  0  0  0
   18.8366   50.6436    6.5550 H   0  0  0  0  0  0
   23.3230   53.6885   13.8715 H   0  0  0  0  0  0
   24.7021   50.8288   11.0000 H   0  0  0  0  0  0
  1  2  2  0  0  0
  1  3  1  0  0  0
  1  6  1  0  0  0
  2  5  1  0  0  0
  2  8  1  0  0  0
  3  7  1  0  0  0
  4  9  1  0  0  0
  4 10  2  0  0  0
  4 17  1  0  0  0
  5 11  1  0  0  0
  5 12  2  0  0  0
  6 15  2  0  0  0
  6 16  1  0  0  0
  7  8  2  0  0  0
  7 22  1  0  0  0
  8 23  1  0  0  0
  9 14  2  0  0  0
  9 13  1  0  0  0
 11 13  2  0  0  0
 11 24  1  0  0  0
 12 14  1  0  0  0
 12 25  1  0  0  0
 13 26  1  0  0  0
 14 27  1  0  0  0
 15 19  1  0  0  0
 15 28  1  0  0  0
 16 20  2  0  0  0
 16 29  1  0  0  0
 17 30  1  0  0  0
 17 31  1  0  0  0
 18 20  1  0  0  0
 18 21  1  0  0  0
 18 19  2  0  0  0
 19 32  1  0  0  0
 20 33  1  0  0  0
M  END
> <s_m_entry_id>
5028

> <s_m_entry_name>
dock_pv.19

> <s_m_Source_Path>
/home/csk/Desktop/cluster/DUD-E-result/pgh1

> <s_m_Source_File>
dock_pv.maegz

> <i_m_Source_File_Index>
19

> <chembl_id>
CHEMBL66630

> <chembl_pref_name>
None

> <i_lp_mmshare_version>
53161

> <r_lp_tautomer_probability>
1

> <s_lp_Force_Field>
OPLS_2005

> <r_lp_Energy>
16.650094

> <b_lp_Chiralities_Consistent>
1

> <s_lp_Variant>
CHEMBL221_lig266-1

> <s_i_glide_gridfile>
glide-grid_2oyu

> <i_i_glide_lignum>
299

> <i_i_glide_rotatable_bonds>
3

> <r_i_docking_score>
-10.4231989436104

> <r_i_glide_ligand_efficiency>
-0.496342806838591

> <r_i_glide_ligand_efficiency_sa>
-1.36937216817016

> <r_i_glide_ligand_efficiency_ln>
-2.57711487675104

> <r_i_glide_gscore>
-10.4231989436104

> <r_i_glide_lipo>
-4.70022469507151

> <r_i_glide_hbond>
-0.476959304581964

> <r_i_glide_metal>
0

> <r_i_glide_rewards>
-3.14903859506795

> <r_i_glide_evdw>
-28.1858043670654

> <r_i_glide_ecoul>
-7.34941148757935

> <r_i_glide_erotb>
0.41472559260118

> <r_i_glide_esite>
0

> <r_i_glide_emodel>
-56.250855333613

> <r_i_glide_energy>
-35.5352158546448

> <r_i_glide_einternal>
1.03213310241699

> <i_i_glide_confnum>
3

> <i_i_glide_posenum>
282

> <r_i_glide_eff_state_penalty>
0

> <s_user_duplicate_titles>
CHEMBL221_lig266

> <i_f3d_flags>
0

> <s_m_subgroup_title>
dock_pv

> <s_m_subgroupid>
dock_pv

> <b_m_subgroup_collapsed>
1

$$$$
CHEMBL221_lig195
                    3D
 Schrodinger Suite 2021-1.
 43 46  0  0  1  0            999 V2000
   20.7568   49.7833   13.0504 C   0  0  0  0  0  0
   20.2544   49.4514   14.3065 C   0  0  0  0  0  0
   19.9418   49.1150   12.1644 N   0  0  0  0  0  0
   19.2096   48.5399   14.0787 C   0  0  0  0  0  0
   19.0453   48.3425   12.7966 N   0  0  0  0  0  0
   21.8838   50.7242   12.7917 C   0  0  0  0  0  0
   20.0062   48.9716    6.1915 S   0  0  0  0  0  0
   20.9230   50.1653   15.7745 S   0  0  0  0  0  0
   18.3116   47.7920   15.0463 C   0  0  0  0  0  0
   22.0994   51.7279   13.7490 C   0  0  0  0  0  0
   22.7169   50.6415   11.6713 C   0  0  0  0  0  0
   19.9458   49.1322   10.7526 C   0  0  0  0  0  0
   20.0419   49.0350    7.9693 C   0  0  0  0  0  0
   23.7496   51.5519   11.4837 C   0  0  0  0  0  0
   23.1104   52.6585   13.5105 C   0  0  0  0  0  0
   23.9790   52.5539   12.4199 C   0  0  0  0  0  0
   21.2492   51.7957   15.0179 C   0  0  0  0  0  0
   20.9230   49.9505    5.6222 O   0  0  0  0  0  0
   20.1230   47.5742    5.8104 O   0  0  0  0  0  0
   18.4101   49.4729    5.8000 N   0  0  0  0  0  0
   19.7230   47.9414   10.0730 C   0  0  0  0  0  0
   20.1230   50.3104   10.0293 C   0  0  0  0  0  0
   18.4033   48.2728   16.2804 F   0  0  0  0  0  0
   17.0295   47.8728   14.6876 F   0  0  0  0  0  0
   18.6403   46.5008   15.0870 F   0  0  0  0  0  0
   19.7740   47.8730    8.6913 C   0  0  0  0  0  0
   20.1230   50.2575    8.6376 C   0  0  0  0  0  0
   24.5230   51.4730   10.3796 F   0  0  0  0  0  0
   25.0708   53.3692   12.2184 O   0  0  0  0  0  0
   25.3912   54.3627   13.1834 C   0  0  0  0  0  0
   22.5694   49.8723   10.9323 H   0  0  0  0  0  0
   23.2174   53.4717   14.2000 H   0  0  0  0  0  0
   21.7230   52.4021   15.7819 H   0  0  0  0  0  0
   20.2993   52.2730   14.8182 H   0  0  0  0  0  0
   18.2866   50.4835    5.9224 H   0  0  0  0  0  0
   18.1407   49.2431    4.8402 H   0  0  0  0  0  0
   19.5550   47.0730   10.6598 H   0  0  0  0  0  0
   20.2100   51.2587   10.5385 H   0  0  0  0  0  0
   19.6150   46.9277    8.1998 H   0  0  0  0  0  0
   20.1301   51.1599    8.0530 H   0  0  0  0  0  0
   26.2631   54.9246   12.8489 H   0  0  0  0  0  0
   24.5744   55.0729   13.3139 H   0  0  0  0  0  0
   25.6359   53.9146   14.1463 H   0  0  0  0  0  0
  1  2  2  0  0  0
  1  3  1  0  0  0
  1  6  1  0  0  0
  2  4  1  0  0  0
  2  8  1  0  0  0
  3  5  1  0  0  0
  3 12  1  0  0  0
  4  9  1  0  0  0
  4  5  2  0  0  0
  6 10  1  0  0  0
  6 11  2  0  0  0
  7 13  1  0  0  0
  7 18  2  0  0  0
  7 19  2  0  0  0
  7 20  1  0  0  0
  8 17  1  0  0  0
  9 23  1  0  0  0
  9 24  1  0  0  0
  9 25  1  0  0  0
 10 15  2  0  0  0
 10 17  1  0  0  0
 11 14  1  0  0  0
 11 31  1  0  0  0
 12 21  1  0  0  0
 12 22  2  0  0  0
 13 27  2  0  0  0
 13 26  1  0  0  0
 14 16  2  0  0  0
 14 28  1  0  0  0
 15 16  1  0  0  0
 15 32  1  0  0  0
 16 29  1  0  0  0
 17 33  1  0  0  0
 17 34  1  0  0  0
 20 35  1  0  0  0
 20 36  1  0  0  0
 21 26  2  0  0  0
 21 37  1  0  0  0
 22 27  1  0  0  0
 22 38  1  0  0  0
 26 39  1  0  0  0
 27 40  1  0  0  0
 29 30  1  0  0  0
 30 41  1  0  0  0
 30 42  1  0  0  0
 30 43  1  0  0  0
M  END
> <s_m_entry_id>
5029

> <s_m_entry_name>
dock_pv.20

> <s_m_Source_Path>
/home/csk/Desktop/cluster/DUD-E-result/pgh1

> <s_m_Source_File>
dock_pv.maegz

> <i_m_Source_File_Index>
20

> <chembl_id>
CHEMBL328009

> <chembl_pref_name>
None

> <i_lp_mmshare_version>
53161

> <r_lp_tautomer_probability>
1

> <s_lp_Force_Field>
OPLS_2005

> <r_lp_Energy>
35.881413

> <b_lp_Chiralities_Consistent>
1

> <s_lp_Variant>
CHEMBL221_lig195-1

> <s_i_glide_gridfile>
glide-grid_2oyu

> <i_i_glide_lignum>
222

> <i_i_glide_rotatable_bonds>
4

> <r_i_docking_score>
-10.4106203774297

> <r_i_glide_ligand_efficiency>
-0.347020679247655

> <r_i_glide_ligand_efficiency_sa>
-1.07827393357403

> <r_i_glide_ligand_efficiency_ln>
-2.36540638254629

> <r_i_glide_gscore>
-10.4106203774297

> <r_i_glide_lipo>
-5.01174815200712

> <r_i_glide_hbond>
-0.291752815265716

> <r_i_glide_metal>
0

> <r_i_glide_rewards>
-2.60170510014591

> <r_i_glide_evdw>
-28.6188869476318

> <r_i_glide_ecoul>
-7.3047776222229

> <r_i_glide_erotb>
0.0953200424843573

> <r_i_glide_esite>
-0.0740733617802381

> <r_i_glide_emodel>
-46.8975166047576

> <r_i_glide_energy>
-35.9236645698547

> <r_i_glide_einternal>
0.347758263349533

> <i_i_glide_confnum>
3

> <i_i_glide_posenum>
227

> <r_i_glide_eff_state_penalty>
0

> <s_user_duplicate_titles>
CHEMBL221_lig195

> <i_f3d_flags>
0

> <s_m_subgroup_title>
dock_pv

> <s_m_subgroupid>
dock_pv

> <b_m_subgroup_collapsed>
1

$$$$
CHEMBL221_lig533
                    3D
 Schrodinger Suite 2021-1.
 42 45  0  0  1  0            999 V2000
   18.9230   48.1772   12.7689 N   0  0  0  0  0  0
   19.8366   48.9843   12.1960 N   0  0  0  0  0  0
   19.0813   48.2738   14.0673 C   0  0  0  0  0  0
   20.6112   49.6220   13.1437 C   0  0  0  0  0  0
   20.1230   49.1597   14.3568 C   0  0  0  0  0  0
   20.0082   49.0074    6.2011 S   0  0  0  0  0  0
   18.2063   47.4654   15.0052 C   0  0  0  0  0  0
   21.7315   50.5535   12.8662 C   0  0  0  0  0  0
   20.0393   49.0544    7.9873 C   0  0  0  0  0  0
   19.9054   49.0478   10.7815 C   0  0  0  0  0  0
   21.7477   51.8316   13.4394 C   0  0  0  0  0  0
   20.9230   49.9958    5.6431 O   0  0  0  0  0  0
   20.1230   47.6154    5.8002 O   0  0  0  0  0  0
   22.8411   52.6647   13.2118 C   0  0  0  0  0  0
   23.8858   52.2256   12.4214 C   0  0  0  0  0  0
   18.4065   49.4730    5.8000 N   0  0  0  0  0  0
   24.9024   53.1320   12.3022 O   0  0  0  0  0  0
   22.7859   50.1427   12.0385 C   0  0  0  0  0  0
   19.7782   47.8695    8.6697 C   0  0  0  0  0  0
   20.1230   50.2552    8.7030 C   0  0  0  0  0  0
   19.7230   47.8730   10.0527 C   0  0  0  0  0  0
   20.1178   50.2515   10.0998 C   0  0  0  0  0  0
   18.2988   47.9067   16.2579 F   0  0  0  0  0  0
   16.9230   47.5284   14.6540 F   0  0  0  0  0  0
   18.5674   46.1828   15.0000 F   0  0  0  0  0  0
   23.8698   50.9861   11.8000 C   0  0  0  0  0  0
   24.6145   54.1874   13.2198 C   0  0  0  0  0  0
   23.1205   54.0848   13.5689 C   0  0  0  0  0  0
   20.4840   49.4293   15.3390 H   0  0  0  0  0  0
   20.9230   52.1644   14.0521 H   0  0  0  0  0  0
   18.2602   50.4800    5.9269 H   0  0  0  0  0  0
   18.1528   49.2442    4.8357 H   0  0  0  0  0  0
   22.7708   49.1598   11.5916 H   0  0  0  0  0  0
   19.6362   46.9410    8.1384 H   0  0  0  0  0  0
   20.2264   51.1874    8.1671 H   0  0  0  0  0  0
   19.5724   46.9443   10.5690 H   0  0  0  0  0  0
   20.2210   51.1845   10.6350 H   0  0  0  0  0  0
   24.6840   50.6729   11.1656 H   0  0  0  0  0  0
   25.2053   54.0036   14.1186 H   0  0  0  0  0  0
   24.9229   55.1636   12.8492 H   0  0  0  0  0  0
   22.5192   54.7863   13.0000 H   0  0  0  0  0  0
   22.9230   54.3436   14.6000 H   0  0  0  0  0  0
  1  2  1  0  0  0
  1  3  2  0  0  0
  2  4  1  0  0  0
  2 10  1  0  0  0
  3  5  1  0  0  0
  3  7  1  0  0  0
  4  8  1  0  0  0
  4  5  2  0  0  0
  5 29  1  0  0  0
  6  9  1  0  0  0
  6 12  2  0  0  0
  6 13  2  0  0  0
  6 16  1  0  0  0
  7 23  1  0  0  0
  7 24  1  0  0  0
  7 25  1  0  0  0
  8 11  1  0  0  0
  8 18  2  0  0  0
  9 20  1  0  0  0
  9 19  2  0  0  0
 10 21  2  0  0  0
 10 22  1  0  0  0
 11 14  2  0  0  0
 11 30  1  0  0  0
 14 28  1  0  0  0
 14 15  1  0  0  0
 15 26  2  0  0  0
 15 17  1  0  0  0
 16 31  1  0  0  0
 16 32  1  0  0  0
 17 27  1  0  0  0
 18 26  1  0  0  0
 18 33  1  0  0  0
 19 21  1  0  0  0
 19 34  1  0  0  0
 20 22  2  0  0  0
 20 35  1  0  0  0
 21 36  1  0  0  0
 22 37  1  0  0  0
 26 38  1  0  0  0
 27 28  1  0  0  0
 27 39  1  0  0  0
 27 40  1  0  0  0
 28 41  1  0  0  0
 28 42  1  0  0  0
M  END
> <s_m_entry_id>
5030

> <s_m_entry_name>
dock_pv.21

> <s_m_Source_Path>
/home/csk/Desktop/cluster/DUD-E-result/pgh1

> <s_m_Source_File>
dock_pv.maegz

> <i_m_Source_File_Index>
21

> <chembl_id>
CHEMBL282839

> <chembl_pref_name>
None

> <i_lp_mmshare_version>
53161

> <r_lp_tautomer_probability>
1

> <s_lp_Force_Field>
OPLS_2005

> <r_lp_Energy>
36.281005

> <b_lp_Chiralities_Consistent>
1

> <s_lp_Variant>
CHEMBL221_lig533-1

> <s_i_glide_gridfile>
glide-grid_2oyu

> <i_i_glide_lignum>
671

> <i_i_glide_rotatable_bonds>
4

> <r_i_docking_score>
-10.4073401672753

> <r_i_glide_ligand_efficiency>
-0.371690720259834

> <r_i_glide_ligand_efficiency_sa>
-1.12867194083588

> <r_i_glide_ligand_efficiency_ln>
-2.40231968339243

> <r_i_glide_gscore>
-10.4073401672753

> <r_i_glide_lipo>
-4.64061990306764

> <r_i_glide_hbond>
-0.29788155526441

> <r_i_glide_metal>
0

> <r_i_glide_rewards>
-3.07451370717152

> <r_i_glide_evdw>
-28.7168560028076

> <r_i_glide_ecoul>
-7.45268726348877

> <r_i_glide_erotb>
0.234974813856651

> <r_i_glide_esite>
-0.0755539259647327

> <r_i_glide_emodel>
-45.4895254125861

> <r_i_glide_energy>
-36.1695432662964

> <r_i_glide_einternal>
0.790039420127869

> <i_i_glide_confnum>
12

> <i_i_glide_posenum>
282

> <r_i_glide_eff_state_penalty>
0

> <s_user_duplicate_titles>
CHEMBL221_lig533

> <i_f3d_flags>
0

> <s_m_subgroup_title>
dock_pv

> <s_m_subgroupid>
dock_pv

> <b_m_subgroup_collapsed>
1

$$$$
CHEMBL221_lig513
                    3D
 Schrodinger Suite 2021-1.
 37 39  0  0  1  0            999 V2000
   20.1769   49.1623   14.3268 N   0  0  0  0  0  0
   20.5559   49.5505   13.0912 N   0  0  0  0  0  0
   19.1859   48.3097   14.1642 C   0  0  0  0  0  0
   19.8038   48.9233   12.1156 C   0  0  0  0  0  0
   18.9230   48.1251   12.8163 C   0  0  0  0  0  0
   19.9392   49.0730    6.1004 S   0  0  0  0  0  0
   18.5222   47.6246   15.3324 C   0  0  0  0  0  0
   20.0060   49.0694    7.8685 C   0  0  0  0  0  0
   21.6405   50.4494   12.9369 C   0  0  0  0  0  0
   19.9173   49.0465   10.6427 C   0  0  0  0  0  0
   20.8028   50.1315    5.5920 O   0  0  0  0  0  0
   20.1230   47.7074    5.6447 O   0  0  0  0  0  0
   18.2921   49.4730    5.8000 N   0  0  0  0  0  0
   19.7542   47.8735    8.5355 C   0  0  0  0  0  0
   20.1230   50.2645    8.5855 C   0  0  0  0  0  0
   18.2428   48.4791   16.3110 F   0  0  0  0  0  0
   17.3740   47.0470   14.9792 F   0  0  0  0  0  0
   19.3229   46.6730   15.8000 F   0  0  0  0  0  0
   20.1230   50.2534    9.9770 C   0  0  0  0  0  0
   19.7230   47.8730    9.9177 C   0  0  0  0  0  0
   21.7227   51.6035   13.7264 C   0  0  0  0  0  0
   22.6350   50.1829   11.9883 C   0  0  0  0  0  0
   23.7607   52.2210   12.5956 C   0  0  0  0  0  0
   22.7822   52.4896   13.5492 C   0  0  0  0  0  0
   23.6913   51.0724   11.8121 C   0  0  0  0  0  0
   24.7980   53.0730   12.4412 F   0  0  0  0  0  0
   18.1689   47.4738   12.3960 H   0  0  0  0  0  0
   18.1228   50.2476    5.1417 H   0  0  0  0  0  0
   17.6231   48.7012    5.7430 H   0  0  0  0  0  0
   19.5966   46.9545    7.9929 H   0  0  0  0  0  0
   20.2197   51.2001    8.0534 H   0  0  0  0  0  0
   20.2275   51.1780   10.5260 H   0  0  0  0  0  0
   19.5667   46.9459   10.4358 H   0  0  0  0  0  0
   20.9666   51.8238   14.4672 H   0  0  0  0  0  0
   22.5932   49.2852   11.3897 H   0  0  0  0  0  0
   22.8545   53.3808   14.1564 H   0  0  0  0  0  0
   24.4617   50.8689   11.0817 H   0  0  0  0  0  0
  1  2  1  0  0  0
  1  3  2  0  0  0
  2  4  1  0  0  0
  2  9  1  0  0  0
  3  5  1  0  0  0
  3  7  1  0  0  0
  4 10  1  0  0  0
  4  5  2  0  0  0
  5 27  1  0  0  0
  6  8  1  0  0  0
  6 11  2  0  0  0
  6 12  2  0  0  0
  6 13  1  0  0  0
  7 16  1  0  0  0
  7 17  1  0  0  0
  7 18  1  0  0  0
  8 14  1  0  0  0
  8 15  2  0  0  0
  9 21  1  0  0  0
  9 22  2  0  0  0
 10 19  2  0  0  0
 10 20  1  0  0  0
 13 28  1  0  0  0
 13 29  1  0  0  0
 14 20  2  0  0  0
 14 30  1  0  0  0
 15 19  1  0  0  0
 15 31  1  0  0  0
 19 32  1  0  0  0
 20 33  1  0  0  0
 21 24  2  0  0  0
 21 34  1  0  0  0
 22 25  1  0  0  0
 22 35  1  0  0  0
 23 25  2  0  0  0
 23 26  1  0  0  0
 23 24  1  0  0  0
 24 36  1  0  0  0
 25 37  1  0  0  0
M  END
> <s_m_entry_id>
5031

> <s_m_entry_name>
dock_pv.22

> <s_m_Source_Path>
/home/csk/Desktop/cluster/DUD-E-result/pgh1

> <s_m_Source_File>
dock_pv.maegz

> <i_m_Source_File_Index>
22

> <chembl_id>
CHEMBL29257

> <chembl_pref_name>
None

> <i_lp_mmshare_version>
53161

> <r_lp_tautomer_probability>
1

> <s_lp_Force_Field>
OPLS_2005

> <r_lp_Energy>
24.304944

> <b_lp_Chiralities_Consistent>
1

> <s_lp_Variant>
CHEMBL221_lig513-1

> <s_i_glide_gridfile>
glide-grid_2oyu

> <i_i_glide_lignum>
651

> <i_i_glide_rotatable_bonds>
4

> <r_i_docking_score>
-10.3940739500932

> <r_i_glide_ligand_efficiency>
-0.399772075003584

> <r_i_glide_ligand_efficiency_sa>
-1.18432319917096

> <r_i_glide_ligand_efficiency_ln>
-2.44101416144097

> <r_i_glide_gscore>
-10.3940739500932

> <r_i_glide_lipo>
-4.29257746741194

> <r_i_glide_hbond>
-0.402034361823008

> <r_i_glide_metal>
0

> <r_i_glide_rewards>
-3.32841542588626

> <r_i_glide_evdw>
-25.2237167358398

> <r_i_glide_ecoul>
-8.56861591339111

> <r_i_glide_erotb>
0.262006376929676

> <r_i_glide_esite>
-0.0865748481010014

> <r_i_glide_emodel>
-45.9779719986713

> <r_i_glide_energy>
-33.792332649231

> <r_i_glide_einternal>
0.180356547236443

> <i_i_glide_confnum>
1

> <i_i_glide_posenum>
333

> <r_i_glide_eff_state_penalty>
0

> <s_user_duplicate_titles>
CHEMBL221_lig513,39593

> <i_f3d_flags>
0

> <s_m_subgroup_title>
dock_pv

> <s_m_subgroupid>
dock_pv

> <b_m_subgroup_collapsed>
1

$$$$
CHEMBL221_lig289
                    3D
 Schrodinger Suite 2021-1.
 37 39  0  0  1  0            999 V2000
   19.1451   48.3149   14.1667 C   0  0  0  0  0  0
   20.1395   49.1671   14.3508 N   0  0  0  0  0  0
   19.7955   48.9685   12.1470 N   0  0  0  0  0  0
   20.5304   49.5658   13.1552 C   0  0  0  0  0  0
   20.0024   49.0066    6.1841 S   0  0  0  0  0  0
   18.8998   48.1759   12.8200 C   0  0  0  0  0  0
   18.4920   47.5964   15.3240 C   0  0  0  0  0  0
   20.0392   49.0616    7.9634 C   0  0  0  0  0  0
   19.8993   49.0511   10.7440 C   0  0  0  0  0  0
   21.6592   50.5287   12.9634 C   0  0  0  0  0  0
   20.9221   49.9911    5.6258 O   0  0  0  0  0  0
   20.1230   47.6094    5.8023 O   0  0  0  0  0  0
   18.3898   49.4730    5.8000 N   0  0  0  0  0  0
   19.7840   47.8727    8.6405 C   0  0  0  0  0  0
   20.1230   50.2636    8.6770 C   0  0  0  0  0  0
   17.3740   46.9740   14.9539 F   0  0  0  0  0  0
   19.3220   46.6730   15.8000 F   0  0  0  0  0  0
   18.1661   48.4334   16.3052 F   0  0  0  0  0  0
   20.1150   50.2586   10.0729 C   0  0  0  0  0  0
   19.7230   47.8734   10.0200 C   0  0  0  0  0  0
   21.7217   51.6847   13.7471 C   0  0  0  0  0  0
   22.6673   50.2733   12.0285 C   0  0  0  0  0  0
   23.7960   52.2940   12.6887 C   0  0  0  0  0  0
   22.7814   52.5726   13.5981 C   0  0  0  0  0  0
   23.7334   51.1564   11.8865 C   0  0  0  0  0  0
   25.1592   53.3471   12.5993 Cl  0  0  0  0  0  0
   18.1784   47.5706   12.2894 H   0  0  0  0  0  0
   18.1896   50.4691    5.9385 H   0  0  0  0  0  0
   17.6583   48.8746    6.2002 H   0  0  0  0  0  0
   19.6506   46.9425    8.1101 H   0  0  0  0  0  0
   20.2240   51.1961    8.1404 H   0  0  0  0  0  0
   20.2108   51.1894   10.6140 H   0  0  0  0  0  0
   19.5802   46.9406   10.5319 H   0  0  0  0  0  0
   20.9488   51.8973   14.4720 H   0  0  0  0  0  0
   22.6366   49.3789   11.4243 H   0  0  0  0  0  0
   22.8334   53.4662   14.2013 H   0  0  0  0  0  0
   24.5205   50.9421   11.1778 H   0  0  0  0  0  0
  1  2  1  0  0  0
  1  6  2  0  0  0
  1  7  1  0  0  0
  2  4  2  0  0  0
  3  6  1  0  0  0
  3  9  1  0  0  0
  3  4  1  0  0  0
  4 10  1  0  0  0
  5  8  1  0  0  0
  5 11  2  0  0  0
  5 12  2  0  0  0
  5 13  1  0  0  0
  6 27  1  0  0  0
  7 16  1  0  0  0
  7 17  1  0  0  0
  7 18  1  0  0  0
  8 14  1  0  0  0
  8 15  2  0  0  0
  9 19  2  0  0  0
  9 20  1  0  0  0
 10 21  1  0  0  0
 10 22  2  0  0  0
 13 28  1  0  0  0
 13 29  1  0  0  0
 14 20  2  0  0  0
 14 30  1  0  0  0
 15 19  1  0  0  0
 15 31  1  0  0  0
 19 32  1  0  0  0
 20 33  1  0  0  0
 21 24  2  0  0  0
 21 34  1  0  0  0
 22 25  1  0  0  0
 22 35  1  0  0  0
 23 25  2  0  0  0
 23 26  1  0  0  0
 23 24  1  0  0  0
 24 36  1  0  0  0
 25 37  1  0  0  0
M  END
> <s_m_entry_id>
5032

> <s_m_entry_name>
dock_pv.23

> <s_m_Source_Path>
/home/csk/Desktop/cluster/DUD-E-result/pgh1

> <s_m_Source_File>
dock_pv.maegz

> <i_m_Source_File_Index>
23

> <chembl_id>
CHEMBL45192

> <chembl_pref_name>
None

> <i_lp_mmshare_version>
53161

> <r_lp_tautomer_probability>
1

> <s_lp_Force_Field>
OPLS_2005

> <r_lp_Energy>
27.115208

> <b_lp_Chiralities_Consistent>
1

> <s_lp_Variant>
CHEMBL221_lig289-1

> <s_i_glide_gridfile>
glide-grid_2oyu

> <i_i_glide_lignum>
322

> <i_i_glide_rotatable_bonds>
4

> <r_i_docking_score>
-10.3916252285414

> <r_i_glide_ligand_efficiency>
-0.399677893405437

> <r_i_glide_ligand_efficiency_sa>
-1.18404418655704

> <r_i_glide_ligand_efficiency_ln>
-2.44043908721943

> <r_i_glide_gscore>
-10.3916252285414

> <r_i_glide_lipo>
-4.25182582571671

> <r_i_glide_hbond>
-0.588708464912739

> <r_i_glide_metal>
0

> <r_i_glide_rewards>
-3.05453040580736

> <r_i_glide_evdw>
-28.3380641937256

> <r_i_glide_ecoul>
-8.25514984130859

> <r_i_glide_erotb>
0.243036962466942

> <r_i_glide_esite>
-0.0844218086889401

> <r_i_glide_emodel>
-42.6573070945021

> <r_i_glide_energy>
-36.5932140350342

> <r_i_glide_einternal>
2.26314997673035

> <i_i_glide_confnum>
1

> <i_i_glide_posenum>
397

> <r_i_glide_eff_state_penalty>
0

> <s_user_duplicate_titles>
CHEMBL221_lig289

> <i_f3d_flags>
0

> <s_m_subgroup_title>
dock_pv

> <s_m_subgroupid>
dock_pv

> <b_m_subgroup_collapsed>
1

$$$$
CHEMBL221_lig49
                    3D
 Schrodinger Suite 2021-1.
 40 42  0  0  1  0            999 V2000
   25.0942   53.2470   12.6002 C   0  0  0  0  0  0
   23.8821   52.3377   12.6671 C   0  0  0  0  0  0
   22.8662   52.6236   13.5777 C   0  0  0  0  0  0
   21.7963   51.7481   13.7241 C   0  0  0  0  0  0
   21.7306   50.5914   12.9452 C   0  0  0  0  0  0
   22.7275   50.3279   12.0018 C   0  0  0  0  0  0
   23.7973   51.2060   11.8534 C   0  0  0  0  0  0
   20.6151   49.6336   13.1831 C   0  0  0  0  0  0
   20.1230   49.1522   14.3901 C   0  0  0  0  0  0
   19.0804   48.2730   14.0936 C   0  0  0  0  0  0
   18.9230   48.1917   12.7952 N   0  0  0  0  0  0
   19.8428   48.9981   12.2283 N   0  0  0  0  0  0
   19.9080   49.0553   10.8131 C   0  0  0  0  0  0
   20.1157   50.2560   10.1247 C   0  0  0  0  0  0
   20.1230   50.2530    8.7276 C   0  0  0  0  0  0
   20.0297   49.0497    8.0172 C   0  0  0  0  0  0
   19.7715   47.8670    8.7080 C   0  0  0  0  0  0
   19.7230   47.8745   10.0917 C   0  0  0  0  0  0
   19.9981   48.9906    6.2292 S   0  0  0  0  0  0
   20.9230   49.9700    5.6739 O   0  0  0  0  0  0
   20.1230   47.5902    5.8588 O   0  0  0  0  0  0
   18.3988   49.4730    5.8000 N   0  0  0  0  0  0
   18.2070   47.4521   15.0234 C   0  0  0  0  0  0
   18.5669   46.1693   14.9999 F   0  0  0  0  0  0
   18.3027   47.8754   16.2822 F   0  0  0  0  0  0
   16.9230   47.5206   14.6763 F   0  0  0  0  0  0
   25.6904   53.0691   11.7063 H   0  0  0  0  0  0
   25.7235   53.0923   13.4769 H   0  0  0  0  0  0
   24.7893   54.2937   12.6000 H   0  0  0  0  0  0
   22.9230   53.5055   14.1999 H   0  0  0  0  0  0
   21.0298   51.9641   14.4548 H   0  0  0  0  0  0
   22.6872   49.4322   11.4000 H   0  0  0  0  0  0
   24.5756   50.9825   11.1377 H   0  0  0  0  0  0
   20.4813   49.4109   15.3762 H   0  0  0  0  0  0
   20.2205   51.1911   10.6563 H   0  0  0  0  0  0
   20.2296   51.1823    8.1872 H   0  0  0  0  0  0
   19.6305   46.9337    8.1844 H   0  0  0  0  0  0
   19.5778   46.9500   10.6184 H   0  0  0  0  0  0
   18.2079   50.4725    5.9274 H   0  0  0  0  0  0
   17.6532   48.8878    6.1927 H   0  0  0  0  0  0
  1  2  1  0  0  0
  1 27  1  0  0  0
  1 28  1  0  0  0
  1 29  1  0  0  0
  2  3  2  0  0  0
  2  7  1  0  0  0
  3  4  1  0  0  0
  3 30  1  0  0  0
  4  5  2  0  0  0
  4 31  1  0  0  0
  5  6  1  0  0  0
  5  8  1  0  0  0
  6  7  2  0  0  0
  6 32  1  0  0  0
  7 33  1  0  0  0
  8  9  2  0  0  0
  8 12  1  0  0  0
  9 10  1  0  0  0
  9 34  1  0  0  0
 10 11  2  0  0  0
 10 23  1  0  0  0
 11 12  1  0  0  0
 12 13  1  0  0  0
 13 14  2  0  0  0
 13 18  1  0  0  0
 14 15  1  0  0  0
 14 35  1  0  0  0
 15 16  2  0  0  0
 15 36  1  0  0  0
 16 17  1  0  0  0
 16 19  1  0  0  0
 17 18  2  0  0  0
 17 37  1  0  0  0
 18 38  1  0  0  0
 19 20  2  0  0  0
 19 21  2  0  0  0
 19 22  1  0  0  0
 22 39  1  0  0  0
 22 40  1  0  0  0
 23 24  1  0  0  0
 23 25  1  0  0  0
 23 26  1  0  0  0
M  END
> <s_m_entry_id>
5033

> <s_m_entry_name>
dock_pv.24

> <s_m_Source_Path>
/home/csk/Desktop/cluster/DUD-E-result/pgh1

> <s_m_Source_File>
dock_pv.maegz

> <i_m_Source_File_Index>
24

> <chembl_id>
CHEMBL118

> <chembl_pref_name>
CELECOXIB

> <i_lp_mmshare_version>
53161

> <r_lp_tautomer_probability>
1

> <s_lp_Force_Field>
OPLS_2005

> <r_lp_Energy>
24.269405

> <b_lp_Chiralities_Consistent>
1

> <s_lp_Variant>
CHEMBL221_lig49-1

> <s_i_glide_gridfile>
glide-grid_2oyu

> <i_i_glide_lignum>
63

> <i_i_glide_rotatable_bonds>
4

> <r_i_docking_score>
-10.3781861933264

> <r_i_glide_ligand_efficiency>
-0.399161007435632

> <r_i_glide_ligand_efficiency_sa>
-1.18251291390534

> <r_i_glide_ligand_efficiency_ln>
-2.43728297389628

> <r_i_glide_gscore>
-10.3781861933264

> <r_i_glide_lipo>
-4.5457633122673

> <r_i_glide_hbond>
-0.582818190302462

> <r_i_glide_metal>
0

> <r_i_glide_rewards>
-2.97093285383179

> <r_i_glide_evdw>
-28.5286083221436

> <r_i_glide_ecoul>
-6.96486663818359

> <r_i_glide_erotb>
0.266909520291938

> <r_i_glide_esite>
-0.0744209453821102

> <r_i_glide_emodel>
-49.2371366879171

> <r_i_glide_energy>
-35.4934749603271

> <r_i_glide_einternal>
0.268561840057373

> <i_i_glide_confnum>
5

> <i_i_glide_posenum>
142

> <r_i_glide_eff_state_penalty>
0

> <s_user_duplicate_titles>
CHEMBL221_lig49,18694

> <i_f3d_flags>
0

> <s_m_subgroup_title>
dock_pv

> <s_m_subgroupid>
dock_pv

> <b_m_subgroup_collapsed>
1

$$$$
CHEMBL221_lig380
                    3D
 Schrodinger Suite 2021-1.
 37 39  0  0  1  0            999 V2000
   20.0093   49.0102    6.1924 S   0  0  0  0  0  0
   19.7862   48.9551   12.2603 C   0  0  0  0  0  0
   20.6269   49.6327   13.1823 C   0  0  0  0  0  0
   18.7833   48.1070   12.7647 C   0  0  0  0  0  0
   20.4420   49.3970   14.5530 C   0  0  0  0  0  0
   20.0419   49.0589    7.9720 C   0  0  0  0  0  0
   19.4427   48.5454   15.0076 C   0  0  0  0  0  0
   18.6077   47.9001   14.1206 C   0  0  0  0  0  0
   20.9228   49.9964    5.6286 O   0  0  0  0  0  0
   20.1230   47.6161    5.8002 O   0  0  0  0  0  0
   19.8944   49.0471   10.7724 C   0  0  0  0  0  0
   21.7249   50.5731   12.8063 C   0  0  0  0  0  0
   18.4047   49.4729    5.8004 N   0  0  0  0  0  0
   20.1231   50.2573    8.6886 C   0  0  0  0  0  0
   19.7843   47.8730    8.6482 C   0  0  0  0  0  0
   20.0970   50.2484   10.0841 C   0  0  0  0  0  0
   19.7231   47.8766   10.0279 C   0  0  0  0  0  0
   22.6920   50.2200   11.8588 C   0  0  0  0  0  0
   21.8366   51.8091   13.4594 C   0  0  0  0  0  0
   17.6380   47.0746   14.5791 F   0  0  0  0  0  0
   19.2655   48.3398   16.3164 F   0  0  0  0  0  0
   23.8743   52.2760   12.2769 C   0  0  0  0  0  0
   22.9106   52.6542   13.2035 C   0  0  0  0  0  0
   23.7583   51.0722   11.5863 C   0  0  0  0  0  0
   24.9444   53.0727   12.0722 F   0  0  0  0  0  0
   18.1150   47.5856   12.0972 H   0  0  0  0  0  0
   21.0744   49.8799   15.2838 H   0  0  0  0  0  0
   18.2585   50.4800    5.9270 H   0  0  0  0  0  0
   18.1457   49.2439    4.8374 H   0  0  0  0  0  0
   20.2235   51.1919    8.1563 H   0  0  0  0  0  0
   19.6519   46.9430    8.1173 H   0  0  0  0  0  0
   20.1803   51.1825   10.6195 H   0  0  0  0  0  0
   19.5918   46.9387   10.5321 H   0  0  0  0  0  0
   22.6286   49.2657   11.3597 H   0  0  0  0  0  0
   21.1019   52.1098   14.1924 H   0  0  0  0  0  0
   23.0093   53.5898   13.7357 H   0  0  0  0  0  0
   24.5092   50.7876   10.8649 H   0  0  0  0  0  0
  1  6  1  0  0  0
  1  9  2  0  0  0
  1 10  2  0  0  0
  1 13  1  0  0  0
  2 11  1  0  0  0
  2  3  1  0  0  0
  2  4  2  0  0  0
  3  5  2  0  0  0
  3 12  1  0  0  0
  4  8  1  0  0  0
  4 26  1  0  0  0
  5  7  1  0  0  0
  5 27  1  0  0  0
  6 14  2  0  0  0
  6 15  1  0  0  0
  7  8  2  0  0  0
  7 21  1  0  0  0
  8 20  1  0  0  0
 11 17  1  0  0  0
 11 16  2  0  0  0
 12 18  2  0  0  0
 12 19  1  0  0  0
 13 28  1  0  0  0
 13 29  1  0  0  0
 14 16  1  0  0  0
 14 30  1  0  0  0
 15 17  2  0  0  0
 15 31  1  0  0  0
 16 32  1  0  0  0
 17 33  1  0  0  0
 18 24  1  0  0  0
 18 34  1  0  0  0
 19 23  2  0  0  0
 19 35  1  0  0  0
 22 23  1  0  0  0
 22 25  1  0  0  0
 22 24  2  0  0  0
 23 36  1  0  0  0
 24 37  1  0  0  0
M  END
> <s_m_entry_id>
5034

> <s_m_entry_name>
dock_pv.25

> <s_m_Source_Path>
/home/csk/Desktop/cluster/DUD-E-result/pgh1

> <s_m_Source_File>
dock_pv.maegz

> <i_m_Source_File_Index>
25

> <chembl_id>
CHEMBL296384

> <chembl_pref_name>
None

> <i_lp_mmshare_version>
53161

> <r_lp_tautomer_probability>
1

> <s_lp_Force_Field>
OPLS_2005

> <r_lp_Energy>
27.998437

> <b_lp_Chiralities_Consistent>
1

> <s_lp_Variant>
CHEMBL221_lig380-1

> <s_i_glide_gridfile>
glide-grid_2oyu

> <i_i_glide_lignum>
446

> <i_i_glide_rotatable_bonds>
3

> <r_i_docking_score>
-10.3443690305667

> <r_i_glide_ligand_efficiency>
-0.413774761222668

> <r_i_glide_ligand_efficiency_sa>
-1.20988474014172

> <r_i_glide_ligand_efficiency_ln>
-2.45192545596904

> <r_i_glide_gscore>
-10.3443690305667

> <r_i_glide_lipo>
-5.00692775127615

> <r_i_glide_hbond>
-0.298264735860321

> <r_i_glide_metal>
0

> <r_i_glide_rewards>
-3.09602368215482

> <r_i_glide_evdw>
-22.546895980835

> <r_i_glide_ecoul>
-6.87711334228516

> <r_i_glide_erotb>
0.291039517654675

> <r_i_glide_esite>
-0.0752805785455735

> <r_i_glide_emodel>
-37.7173955439097

> <r_i_glide_energy>
-29.4240093231201

> <r_i_glide_einternal>
1.29747223854065

> <i_i_glide_confnum>
10

> <i_i_glide_posenum>
396

> <r_i_glide_eff_state_penalty>
0

> <s_user_duplicate_titles>
CHEMBL221_lig380

> <i_f3d_flags>
0

> <s_m_subgroup_title>
dock_pv

> <s_m_subgroupid>
dock_pv

> <b_m_subgroup_collapsed>
1

$$$$
CHEMBL221_lig531
                    3D
 Schrodinger Suite 2021-1.
 45 47  0  0  1  0            999 V2000
   18.9230   48.1161   12.7438 N   0  0  0  0  0  0
   19.8485   48.9146   12.1779 N   0  0  0  0  0  0
   19.0748   48.2118   14.0441 C   0  0  0  0  0  0
   20.6280   49.5412   13.1348 C   0  0  0  0  0  0
   20.1230   49.0824   14.3417 C   0  0  0  0  0  0
   19.8556   49.1384    6.1872 S   0  0  0  0  0  0
   18.1944   47.4136   14.9840 C   0  0  0  0  0  0
   19.9552   49.0730    7.9635 C   0  0  0  0  0  0
   19.9080   48.9949   10.7612 C   0  0  0  0  0  0
   21.7728   50.4568   12.8808 C   0  0  0  0  0  0
   20.6585   50.2730    5.7643 O   0  0  0  0  0  0
   20.1230   47.8133    5.6590 O   0  0  0  0  0  0
   18.2067   49.4730    5.8000 N   0  0  0  0  0  0
   23.9904   52.1203   12.4181 C   0  0  0  0  0  0
   25.1368   52.9276   12.2000 N   0  0  0  0  0  0
   19.7230   47.8676    8.6158 C   0  0  0  0  0  0
   20.1230   50.2456    8.7117 C   0  0  0  0  0  0
   19.7230   47.8361   10.0037 C   0  0  0  0  0  0
   20.1230   50.2108   10.1051 C   0  0  0  0  0  0
   18.2740   47.8731   16.2317 F   0  0  0  0  0  0
   16.9170   47.4730   14.6190 F   0  0  0  0  0  0
   18.5563   46.1314   15.0000 F   0  0  0  0  0  0
   21.9555   51.6053   13.6500 C   0  0  0  0  0  0
   22.6929   50.1401   11.8866 C   0  0  0  0  0  0
   23.7782   50.9682   11.6489 C   0  0  0  0  0  0
   23.0537   52.4298   13.4159 C   0  0  0  0  0  0
   25.9920   52.6730   11.0254 C   0  0  0  0  0  0
   25.3835   54.1221   13.0090 C   0  0  0  0  0  0
   20.4805   49.3427   15.3276 H   0  0  0  0  0  0
   18.0420   50.2414    5.1327 H   0  0  0  0  0  0
   17.5756   48.6730    5.7176 H   0  0  0  0  0  0
   19.5586   46.9608    8.0544 H   0  0  0  0  0  0
   20.2321   51.1909    8.2000 H   0  0  0  0  0  0
   19.5983   46.8921   10.5006 H   0  0  0  0  0  0
   20.2424   51.1308   10.6591 H   0  0  0  0  0  0
   21.2528   51.8608   14.4300 H   0  0  0  0  0  0
   22.5692   49.2430   11.2993 H   0  0  0  0  0  0
   24.4648   50.6730   10.8713 H   0  0  0  0  0  0
   23.1680   53.3047   14.0371 H   0  0  0  0  0  0
   26.4213   51.6870   11.0000 H   0  0  0  0  0  0
   26.8353   53.3625   10.9408 H   0  0  0  0  0  0
   25.3943   52.7067   10.1138 H   0  0  0  0  0  0
   24.5363   54.8075   12.9667 H   0  0  0  0  0  0
   25.5194   53.8446   14.0541 H   0  0  0  0  0  0
   26.2669   54.6729   12.6835 H   0  0  0  0  0  0
  1  2  1  0  0  0
  1  3  2  0  0  0
  2  4  1  0  0  0
  2  9  1  0  0  0
  3  5  1  0  0  0
  3  7  1  0  0  0
  4 10  1  0  0  0
  4  5  2  0  0  0
  5 29  1  0  0  0
  6  8  1  0  0  0
  6 11  2  0  0  0
  6 12  2  0  0  0
  6 13  1  0  0  0
  7 20  1  0  0  0
  7 21  1  0  0  0
  7 22  1  0  0  0
  8 17  2  0  0  0
  8 16  1  0  0  0
  9 18  1  0  0  0
  9 19  2  0  0  0
 10 23  1  0  0  0
 10 24  2  0  0  0
 13 30  1  0  0  0
 13 31  1  0  0  0
 14 25  2  0  0  0
 14 15  1  0  0  0
 14 26  1  0  0  0
 15 27  1  0  0  0
 15 28  1  0  0  0
 16 18  2  0  0  0
 16 32  1  0  0  0
 17 19  1  0  0  0
 17 33  1  0  0  0
 18 34  1  0  0  0
 19 35  1  0  0  0
 23 26  2  0  0  0
 23 36  1  0  0  0
 24 25  1  0  0  0
 24 37  1  0  0  0
 25 38  1  0  0  0
 26 39  1  0  0  0
 27 40  1  0  0  0
 27 41  1  0  0  0
 27 42  1  0  0  0
 28 43  1  0  0  0
 28 44  1  0  0  0
 28 45  1  0  0  0
M  END
> <s_m_entry_id>
5035

> <s_m_entry_name>
dock_pv.26

> <s_m_Source_Path>
/home/csk/Desktop/cluster/DUD-E-result/pgh1

> <s_m_Source_File>
dock_pv.maegz

> <i_m_Source_File_Index>
26

> <chembl_id>
CHEMBL28881

> <chembl_pref_name>
None

> <i_lp_mmshare_version>
53161

> <r_lp_tautomer_probability>
1

> <s_lp_Force_Field>
OPLS_2005

> <r_lp_Energy>
26.611081

> <b_lp_Chiralities_Consistent>
1

> <s_lp_Variant>
CHEMBL221_lig531-1

> <s_i_glide_gridfile>
glide-grid_2oyu

> <i_i_glide_lignum>
669

> <i_i_glide_rotatable_bonds>
5

> <r_i_docking_score>
-10.3315436992131

> <r_i_glide_ligand_efficiency>
-0.368983703543326

> <r_i_glide_ligand_efficiency_sa>
-1.12045184373698

> <r_i_glide_ligand_efficiency_ln>
-2.38482363308266

> <r_i_glide_gscore>
-10.3315436992131

> <r_i_glide_lipo>
-4.6272511010361

> <r_i_glide_hbond>
-0.390022306578855

> <r_i_glide_metal>
0

> <r_i_glide_rewards>
-2.94285256100407

> <r_i_glide_evdw>
-24.8579921722412

> <r_i_glide_ecoul>
-8.54899883270264

> <r_i_glide_erotb>
0.233910971355288

> <r_i_glide_esite>
-0.0800792684319252

> <r_i_glide_emodel>
-45.4558932007349

> <r_i_glide_energy>
-33.4069910049438

> <r_i_glide_einternal>
0.281824707984924

> <i_i_glide_confnum>
5

> <i_i_glide_posenum>
177

> <r_i_glide_eff_state_penalty>
0

> <s_user_duplicate_titles>
CHEMBL221_lig531

> <i_f3d_flags>
0

> <s_m_subgroup_title>
dock_pv

> <s_m_subgroupid>
dock_pv

> <b_m_subgroup_collapsed>
1

$$$$
CHEMBL221_lig241
                    3D
 Schrodinger Suite 2021-1.
 42 45  0  0  1  0            999 V2000
   19.8791   48.8705   11.4483 C   0  0  0  0  0  0
   20.1298   48.8955    5.4662 S   0  0  0  0  0  0
   20.9766   49.3028   12.3935 C   0  0  2  0  0  0
   18.9508   48.1494   12.1051 C   0  0  0  0  0  0
   20.3061   49.0458   13.7160 C   0  0  0  0  0  0
   19.1487   48.2986   13.5226 C   0  0  0  0  0  0
   19.9929   48.8918    7.2284 C   0  0  0  0  0  0
   19.9490   48.8828    9.9969 C   0  0  0  0  0  0
   21.7798   50.6141   12.2211 C   0  0  0  0  0  0
   20.9229   50.0495    5.0485 O   0  0  0  0  0  0
   20.5228   47.5754    5.0000 O   0  0  0  0  0  0
   18.4846   49.0730    5.0000 N   0  0  0  0  0  0
   19.7230   47.7107    7.9033 C   0  0  0  0  0  0
   20.1230   50.0839    7.9303 C   0  0  0  0  0  0
   19.7230   47.7035    9.2847 C   0  0  0  0  0  0
   20.1230   50.0848    9.3202 C   0  0  0  0  0  0
   22.8248   50.6470   11.2910 C   0  0  0  0  0  0
   21.6654   51.6798   13.1274 C   0  0  0  0  0  0
   23.7426   52.6001   12.3447 C   0  0  0  0  0  0
   22.6492   52.6616   13.1998 C   0  0  0  0  0  0
   23.8111   51.6252   11.3575 C   0  0  0  0  0  0
   24.7595   53.4734   12.4935 F   0  0  0  0  0  0
   20.6587   49.4339   14.9976 C   0  0  0  0  0  0
   18.3600   47.8733   14.5867 C   0  0  0  0  0  0
   19.8446   49.0709   16.0501 C   0  0  0  0  0  0
   18.7125   48.2731   15.8693 C   0  0  0  0  0  0
   18.1233   47.6008   11.6832 H   0  0  0  0  0  0
   21.7388   48.5370   12.2556 H   0  0  0  0  0  0
   18.1876   50.0512    4.8591 H   0  0  0  0  0  0
   18.2972   48.5582    4.1322 H   0  0  0  0  0  0
   19.5678   46.7944    7.3729 H   0  0  0  0  0  0
   20.2415   51.0180    7.3980 H   0  0  0  0  0  0
   19.5614   46.7707    9.7996 H   0  0  0  0  0  0
   20.2357   51.0163    9.8563 H   0  0  0  0  0  0
   22.9214   49.8729   10.5509 H   0  0  0  0  0  0
   20.8647   51.7228   13.8458 H   0  0  0  0  0  0
   22.5947   53.4371   13.9505 H   0  0  0  0  0  0
   24.6512   51.5974   10.6782 H   0  0  0  0  0  0
   21.5415   50.0216   15.1956 H   0  0  0  0  0  0
   17.4618   47.2940   14.4292 H   0  0  0  0  0  0
   20.1231   49.4477   17.0000 H   0  0  0  0  0  0
   18.0977   47.9960   16.7133 H   0  0  0  0  0  0
  1  3  1  0  0  0
  1  4  2  0  0  0
  1  8  1  0  0  0
  2  7  1  0  0  0
  2 10  2  0  0  0
  2 11  2  0  0  0
  2 12  1  0  0  0
  3  5  1  0  0  0
  3  9  1  0  0  0
  3 28  1  0  0  0
  4 27  1  0  0  0
  4  6  1  0  0  0
  5 23  1  0  0  0
  5  6  2  0  0  0
  6 24  1  0  0  0
  7 14  1  0  0  0
  7 13  2  0  0  0
  8 15  2  0  0  0
  8 16  1  0  0  0
  9 17  2  0  0  0
  9 18  1  0  0  0
 12 29  1  0  0  0
 12 30  1  0  0  0
 13 15  1  0  0  0
 13 31  1  0  0  0
 14 16  2  0  0  0
 14 32  1  0  0  0
 15 33  1  0  0  0
 16 34  1  0  0  0
 17 21  1  0  0  0
 17 35  1  0  0  0
 18 20  2  0  0  0
 18 36  1  0  0  0
 19 20  1  0  0  0
 19 22  1  0  0  0
 19 21  2  0  0  0
 20 37  1  0  0  0
 21 38  1  0  0  0
 23 25  2  0  0  0
 23 39  1  0  0  0
 24 40  1  0  0  0
 24 26  2  0  0  0
 25 26  1  0  0  0
 25 41  1  0  0  0
 26 42  1  0  0  0
M  END
> <s_m_entry_id>
5036

> <s_m_entry_name>
dock_pv.27

> <s_m_Source_Path>
/home/csk/Desktop/cluster/DUD-E-result/pgh1

> <s_m_Source_File>
dock_pv.maegz

> <i_m_Source_File_Index>
27

> <chembl_id>
CHEMBL80405

> <chembl_pref_name>
None

> <i_lp_mmshare_version>
53161

> <r_lp_tautomer_probability>
0.5

> <s_lp_Force_Field>
OPLS_2005

> <r_lp_Energy>
46.753136

> <b_lp_Chiralities_Consistent>
1

> <s_lp_Variant>
CHEMBL221_lig241-2

> <s_i_glide_gridfile>
glide-grid_2oyu

> <i_i_glide_lignum>
270

> <i_i_glide_rotatable_bonds>
3

> <r_i_docking_score>
-10.3191698764695

> <r_i_glide_ligand_efficiency>
-0.396891149094982

> <r_i_glide_ligand_efficiency_sa>
-1.17578846750262

> <r_i_glide_ligand_efficiency_ln>
-2.42342318553076

> <r_i_glide_gscore>
-10.3191698764695

> <r_i_glide_lipo>
-5.5682279342604

> <r_i_glide_hbond>
-0.585752757599366

> <r_i_glide_metal>
0

> <r_i_glide_rewards>
-2.58843473820699

> <r_i_glide_evdw>
-13.6789598464966

> <r_i_glide_ecoul>
-7.38631963729858

> <r_i_glide_erotb>
0.288107947908607

> <r_i_glide_esite>
-0.0729664563917724

> <r_i_glide_emodel>
-67.8822358414846

> <r_i_glide_energy>
-21.0652794837952

> <r_i_glide_einternal>
7.41283082962036

> <i_i_glide_confnum>
1

> <i_i_glide_posenum>
152

> <r_i_glide_eff_state_penalty>
0

> <s_user_duplicate_titles>
CHEMBL221_lig241

> <i_f3d_flags>
0

> <s_m_subgroup_title>
dock_pv

> <s_m_subgroupid>
dock_pv

> <b_m_subgroup_collapsed>
1

$$$$
CHEMBL221_lig474
                    3D
 Schrodinger Suite 2021-1.
 43 45  0  0  1  0            999 V2000
   20.0585   49.0472   14.1601 C   0  0  0  0  0  0
   20.5861   49.5138   12.9594 C   0  0  0  0  0  0
   19.0895   47.8730   12.5144 N   0  0  0  0  0  0
   19.2263   48.0028   13.8204 N   0  0  0  0  0  0
   19.8824   48.7730   11.9856 C   0  0  0  0  0  0
   19.8764   49.1380    6.0134 S   0  0  0  0  0  0
   20.2693   49.4050   15.5985 C   0  0  0  0  0  0
   21.6734   50.5244   12.7479 C   0  0  0  0  0  0
   19.9678   49.0222    7.7573 C   0  0  0  0  0  0
   19.9294   48.8811   10.5127 C   0  0  0  0  0  0
   20.6873   50.2730    5.6024 O   0  0  0  0  0  0
   20.1230   47.8331    5.4326 O   0  0  0  0  0  0
   18.2043   49.4730    5.8000 N   0  0  0  0  0  0
   20.9230   50.5434   15.8043 F   0  0  0  0  0  0
   19.1066   49.4729   16.2000 F   0  0  0  0  0  0
   20.9230   48.4509   16.2000 F   0  0  0  0  0  0
   19.7230   47.8000    8.3635 C   0  0  0  0  0  0
   20.1230   50.1833    8.5152 C   0  0  0  0  0  0
   19.7230   47.7356    9.7407 C   0  0  0  0  0  0
   20.1230   50.1151    9.8980 C   0  0  0  0  0  0
   21.7001   51.7708   13.3846 C   0  0  0  0  0  0
   22.7192   50.1744   11.8912 C   0  0  0  0  0  0
   18.4623   47.0884   14.6716 C   0  0  0  0  0  0
   23.8206   52.2601   12.3563 C   0  0  0  0  0  0
   22.7787   52.6330   13.1997 C   0  0  0  0  0  0
   23.7835   51.0440   11.6844 C   0  0  0  0  0  0
   24.8868   53.0730   12.2000 F   0  0  0  0  0  0
   16.9979   47.5355   14.7810 C   0  0  0  0  0  0
   17.5625   48.7953    6.2277 H   0  0  0  0  0  0
   17.9493   50.4421    6.0160 H   0  0  0  0  0  0
   19.5566   46.9083    7.7832 H   0  0  0  0  0  0
   20.2239   51.1420    8.0265 H   0  0  0  0  0  0
   19.6026   46.7764   10.2108 H   0  0  0  0  0  0
   20.2379   51.0197   10.4772 H   0  0  0  0  0  0
   20.8957   52.0802   14.0321 H   0  0  0  0  0  0
   22.7147   49.2134   11.4000 H   0  0  0  0  0  0
   18.5230   46.0859   14.2441 H   0  0  0  0  0  0
   18.9255   47.0231   15.6555 H   0  0  0  0  0  0
   22.8139   53.5824   13.7141 H   0  0  0  0  0  0
   24.5912   50.7647   11.0253 H   0  0  0  0  0  0
   16.4320   46.8399   15.3999 H   0  0  0  0  0  0
   16.9230   48.5242   15.2338 H   0  0  0  0  0  0
   16.5179   47.5801   13.8025 H   0  0  0  0  0  0
  1  2  2  0  0  0
  1  4  1  0  0  0
  1  7  1  0  0  0
  2  5  1  0  0  0
  2  8  1  0  0  0
  3  4  1  0  0  0
  3  5  2  0  0  0
  4 23  1  0  0  0
  5 10  1  0  0  0
  6  9  1  0  0  0
  6 11  2  0  0  0
  6 12  2  0  0  0
  6 13  1  0  0  0
  7 14  1  0  0  0
  7 15  1  0  0  0
  7 16  1  0  0  0
  8 21  2  0  0  0
  8 22  1  0  0  0
  9 18  1  0  0  0
  9 17  2  0  0  0
 10 19  2  0  0  0
 10 20  1  0  0  0
 13 29  1  0  0  0
 13 30  1  0  0  0
 17 19  1  0  0  0
 17 31  1  0  0  0
 18 20  2  0  0  0
 18 32  1  0  0  0
 19 33  1  0  0  0
 20 34  1  0  0  0
 21 25  1  0  0  0
 21 35  1  0  0  0
 22 26  2  0  0  0
 22 36  1  0  0  0
 23 28  1  0  0  0
 23 37  1  0  0  0
 23 38  1  0  0  0
 24 26  1  0  0  0
 24 27  1  0  0  0
 24 25  2  0  0  0
 25 39  1  0  0  0
 26 40  1  0  0  0
 28 41  1  0  0  0
 28 42  1  0  0  0
 28 43  1  0  0  0
M  END
> <s_m_entry_id>
5037

> <s_m_entry_name>
dock_pv.28

> <s_m_Source_Path>
/home/csk/Desktop/cluster/DUD-E-result/pgh1

> <s_m_Source_File>
dock_pv.maegz

> <i_m_Source_File_Index>
28

> <chembl_id>
CHEMBL302266

> <chembl_pref_name>
None

> <i_lp_mmshare_version>
53161

> <r_lp_tautomer_probability>
1

> <s_lp_Force_Field>
OPLS_2005

> <r_lp_Energy>
26.017874

> <b_lp_Chiralities_Consistent>
1

> <s_lp_Variant>
CHEMBL221_lig474-1

> <s_i_glide_gridfile>
glide-grid_2oyu

> <i_i_glide_lignum>
589

> <i_i_glide_rotatable_bonds>
5

> <r_i_docking_score>
-10.3155547721489

> <r_i_glide_ligand_efficiency>
-0.368412670433888

> <r_i_glide_ligand_efficiency_sa>
-1.11871785089621

> <r_i_glide_ligand_efficiency_ln>
-2.38113291926093

> <r_i_glide_gscore>
-10.3155547721489

> <r_i_glide_lipo>
-4.86494237854233

> <r_i_glide_hbond>
-0.590852577154284

> <r_i_glide_metal>
0

> <r_i_glide_rewards>
-3.15150736087176

> <r_i_glide_evdw>
-16.8527030944824

> <r_i_glide_ecoul>
-6.75978183746338

> <r_i_glide_erotb>
0.230881059212794

> <r_i_glide_esite>
-0.0825310844496395

> <r_i_glide_emodel>
-28.4508633489618

> <r_i_glide_energy>
-23.6124849319458

> <r_i_glide_einternal>
0.322030305862427

> <i_i_glide_confnum>
15

> <i_i_glide_posenum>
126

> <r_i_glide_eff_state_penalty>
0

> <s_user_duplicate_titles>
CHEMBL221_lig474

> <i_f3d_flags>
0

> <s_m_subgroup_title>
dock_pv

> <s_m_subgroupid>
dock_pv

> <b_m_subgroup_collapsed>
1

$$$$
CHEMBL221_lig307
                    3D
 Schrodinger Suite 2021-1.
 40 42  0  0  1  0            999 V2000
   19.0508   48.2553   14.1068 C   0  0  0  0  0  0
   20.0722   49.0729   14.2954 N   0  0  0  0  0  0
   20.4961   49.4105   13.0985 C   0  0  0  0  0  0
   19.7770   48.8079   12.0853 N   0  0  0  0  0  0
   19.8515   49.1311    6.1376 S   0  0  0  0  0  0
   18.8482   48.0588   12.7556 C   0  0  0  0  0  0
   18.3294   47.6291   15.2740 C   0  0  0  0  0  0
   21.6357   50.3270   12.8888 C   0  0  0  0  0  0
   19.9501   49.0302    7.9039 C   0  0  0  0  0  0
   19.8974   48.9064   10.6838 C   0  0  0  0  0  0
   21.6333   51.6032   13.4536 C   0  0  0  0  0  0
   22.6815   52.4817   13.2033 C   0  0  0  0  0  0
   20.6546   50.2730    5.7398 O   0  0  0  0  0  0
   20.1230   47.8236    5.5704 O   0  0  0  0  0  0
   18.1949   49.4730    5.8000 N   0  0  0  0  0  0
   22.7080   49.9187   12.0978 C   0  0  0  0  0  0
   23.7755   52.0532   12.4399 C   0  0  0  0  0  0
   17.1774   47.0730   14.9013 F   0  0  0  0  0  0
   19.0876   46.6730   15.8000 F   0  0  0  0  0  0
   20.1230   50.1911    8.6677 C   0  0  0  0  0  0
   19.7230   47.8111    8.5300 C   0  0  0  0  0  0
   18.0526   48.5247   16.2190 F   0  0  0  0  0  0
   20.1230   50.1337   10.0579 C   0  0  0  0  0  0
   19.7230   47.7549    9.9150 C   0  0  0  0  0  0
   23.7739   50.7791   11.8734 C   0  0  0  0  0  0
   22.5664   54.1012   13.8000 Cl  0  0  0  0  0  0
   24.9508   52.9654   12.1982 C   0  0  0  0  0  0
   18.1211   47.4730   12.2159 H   0  0  0  0  0  0
   20.8035   51.9334   14.0592 H   0  0  0  0  0  0
   18.0145   50.2342    5.1281 H   0  0  0  0  0  0
   17.5652   48.6727    5.7128 H   0  0  0  0  0  0
   22.7199   48.9296   11.6653 H   0  0  0  0  0  0
   20.2289   51.1457    8.1730 H   0  0  0  0  0  0
   19.5650   46.9156    7.9501 H   0  0  0  0  0  0
   20.2349   51.0449   10.6283 H   0  0  0  0  0  0
   19.6139   46.7994   10.3944 H   0  0  0  0  0  0
   24.6034   50.4474   11.2688 H   0  0  0  0  0  0
   25.4684   53.2048   13.1278 H   0  0  0  0  0  0
   25.6588   52.5755   11.4652 H   0  0  0  0  0  0
   24.5230   53.8730   11.8000 H   0  0  0  0  0  0
  1  2  1  0  0  0
  1  6  2  0  0  0
  1  7  1  0  0  0
  2  3  2  0  0  0
  3  8  1  0  0  0
  3  4  1  0  0  0
  4  6  1  0  0  0
  4 10  1  0  0  0
  5  9  1  0  0  0
  5 13  2  0  0  0
  5 14  2  0  0  0
  5 15  1  0  0  0
  6 28  1  0  0  0
  7 18  1  0  0  0
  7 19  1  0  0  0
  7 22  1  0  0  0
  8 11  2  0  0  0
  8 16  1  0  0  0
  9 21  1  0  0  0
  9 20  2  0  0  0
 10 23  2  0  0  0
 10 24  1  0  0  0
 11 12  1  0  0  0
 11 29  1  0  0  0
 12 26  1  0  0  0
 12 17  2  0  0  0
 15 30  1  0  0  0
 15 31  1  0  0  0
 16 25  2  0  0  0
 16 32  1  0  0  0
 17 25  1  0  0  0
 17 27  1  0  0  0
 20 23  1  0  0  0
 20 33  1  0  0  0
 21 24  2  0  0  0
 21 34  1  0  0  0
 23 35  1  0  0  0
 24 36  1  0  0  0
 25 37  1  0  0  0
 27 38  1  0  0  0
 27 39  1  0  0  0
 27 40  1  0  0  0
M  END
> <s_m_entry_id>
5038

> <s_m_entry_name>
dock_pv.29

> <s_m_Source_Path>
/home/csk/Desktop/cluster/DUD-E-result/pgh1

> <s_m_Source_File>
dock_pv.maegz

> <i_m_Source_File_Index>
29

> <chembl_id>
CHEMBL298476

> <chembl_pref_name>
None

> <i_lp_mmshare_version>
53161

> <r_lp_tautomer_probability>
1

> <s_lp_Force_Field>
OPLS_2005

> <r_lp_Energy>
26.709105

> <b_lp_Chiralities_Consistent>
1

> <s_lp_Variant>
CHEMBL221_lig307-1

> <s_i_glide_gridfile>
glide-grid_2oyu

> <i_i_glide_lignum>
340

> <i_i_glide_rotatable_bonds>
4

> <r_i_docking_score>
-10.3114997821724

> <r_i_glide_ligand_efficiency>
-0.381907399339718

> <r_i_glide_ligand_efficiency_sa>
-1.14572219676045

> <r_i_glide_ligand_efficiency_ln>
-2.40034715092973

> <r_i_glide_gscore>
-10.3114997821724

> <r_i_glide_lipo>
-4.42636084121646

> <r_i_glide_hbond>
-0.388990080852769

> <r_i_glide_metal>
0

> <r_i_glide_rewards>
-3.27290117188309

> <r_i_glide_evdw>
-25.3321208953857

> <r_i_glide_ecoul>
-7.37435245513916

> <r_i_glide_erotb>
0.228452773820944

> <r_i_glide_esite>
-0.0789415490008407

> <r_i_glide_emodel>
-35.131387822907

> <r_i_glide_energy>
-32.7064733505249

> <r_i_glide_einternal>
2.06119585037231

> <i_i_glide_confnum>
4

> <i_i_glide_posenum>
225

> <r_i_glide_eff_state_penalty>
0

> <s_user_duplicate_titles>
CHEMBL221_lig307,65192

> <i_f3d_flags>
0

> <s_m_subgroup_title>
dock_pv

> <s_m_subgroupid>
dock_pv

> <b_m_subgroup_collapsed>
1

$$$$
CHEMBL221_lig302
                    3D
 Schrodinger Suite 2021-1.
 41 43  0  0  1  0            999 V2000
   19.1671   48.3232   14.1227 C   0  0  0  0  0  0
   20.1547   49.1890   14.2910 N   0  0  0  0  0  0
   20.5386   49.5597   13.0860 C   0  0  0  0  0  0
   19.8034   48.9462   12.0903 N   0  0  0  0  0  0
   19.9386   49.0730    6.1326 S   0  0  0  0  0  0
   18.9224   48.1518   12.7774 C   0  0  0  0  0  0
   18.5069   47.6323   15.2939 C   0  0  0  0  0  0
   21.6806   50.4865   12.8459 C   0  0  0  0  0  0
   20.0061   49.0720    7.9067 C   0  0  0  0  0  0
   19.9040   49.0307   10.6871 C   0  0  0  0  0  0
   21.7342   51.7595   13.4242 C   0  0  0  0  0  0
   22.8260   52.6134   13.1853 C   0  0  0  0  0  0
   20.8039   50.1299    5.6244 O   0  0  0  0  0  0
   20.1230   47.7050    5.6830 O   0  0  0  0  0  0
   18.2956   49.4730    5.8000 N   0  0  0  0  0  0
   23.8853   52.1417   12.4014 C   0  0  0  0  0  0
   22.7236   50.0657   12.0211 C   0  0  0  0  0  0
   17.3841   47.0142   14.9297 F   0  0  0  0  0  0
   19.3230   46.7097   15.8000 F   0  0  0  0  0  0
   20.1230   50.2621    8.6342 C   0  0  0  0  0  0
   19.7582   47.8730    8.5689 C   0  0  0  0  0  0
   18.1843   48.4970   16.2513 F   0  0  0  0  0  0
   20.1230   50.2430   10.0280 C   0  0  0  0  0  0
   19.7230   47.8616    9.9512 C   0  0  0  0  0  0
   23.8195   50.8891   11.8000 C   0  0  0  0  0  0
   25.3228   53.0730   12.2000 Cl  0  0  0  0  0  0
   22.9231   53.9046   13.6675 O   0  0  0  0  0  0
   21.8493   54.4630   14.4126 C   0  0  0  0  0  0
   18.2048   47.5325   12.2578 H   0  0  0  0  0  0
   20.9180   52.0785   14.0515 H   0  0  0  0  0  0
   18.1230   50.2528    5.1490 H   0  0  0  0  0  0
   17.6282   48.6997    5.7435 H   0  0  0  0  0  0
   22.6965   49.0852   11.5689 H   0  0  0  0  0  0
   20.2226   51.2003    8.1071 H   0  0  0  0  0  0
   19.6088   46.9554    8.0214 H   0  0  0  0  0  0
   20.2276   51.1682   10.5767 H   0  0  0  0  0  0
   19.5817   46.9241   10.4555 H   0  0  0  0  0  0
   24.6347   50.5455   11.1831 H   0  0  0  0  0  0
   22.1230   55.4676   14.7349 H   0  0  0  0  0  0
   20.9504   54.5436   13.7999 H   0  0  0  0  0  0
   21.6330   53.8818   15.3099 H   0  0  0  0  0  0
  1  2  1  0  0  0
  1  6  2  0  0  0
  1  7  1  0  0  0
  2  3  2  0  0  0
  3  8  1  0  0  0
  3  4  1  0  0  0
  4  6  1  0  0  0
  4 10  1  0  0  0
  5  9  1  0  0  0
  5 13  2  0  0  0
  5 14  2  0  0  0
  5 15  1  0  0  0
  6 29  1  0  0  0
  7 18  1  0  0  0
  7 19  1  0  0  0
  7 22  1  0  0  0
  8 11  2  0  0  0
  8 17  1  0  0  0
  9 21  1  0  0  0
  9 20  2  0  0  0
 10 23  2  0  0  0
 10 24  1  0  0  0
 11 12  1  0  0  0
 11 30  1  0  0  0
 12 27  1  0  0  0
 12 16  2  0  0  0
 15 31  1  0  0  0
 15 32  1  0  0  0
 16 25  1  0  0  0
 16 26  1  0  0  0
 17 25  2  0  0  0
 17 33  1  0  0  0
 20 23  1  0  0  0
 20 34  1  0  0  0
 21 24  2  0  0  0
 21 35  1  0  0  0
 23 36  1  0  0  0
 24 37  1  0  0  0
 25 38  1  0  0  0
 27 28  1  0  0  0
 28 39  1  0  0  0
 28 40  1  0  0  0
 28 41  1  0  0  0
M  END
> <s_m_entry_id>
5039

> <s_m_entry_name>
dock_pv.30

> <s_m_Source_Path>
/home/csk/Desktop/cluster/DUD-E-result/pgh1

> <s_m_Source_File>
dock_pv.maegz

> <i_m_Source_File_Index>
30

> <chembl_id>
CHEMBL289561

> <chembl_pref_name>
None

> <i_lp_mmshare_version>
53161

> <r_lp_tautomer_probability>
1

> <s_lp_Force_Field>
OPLS_2005

> <r_lp_Energy>
31.220555

> <b_lp_Chiralities_Consistent>
1

> <s_lp_Variant>
CHEMBL221_lig302-1

> <s_i_glide_gridfile>
glide-grid_2oyu

> <i_i_glide_lignum>
335

> <i_i_glide_rotatable_bonds>
5

> <r_i_docking_score>
-10.3106153436486

> <r_i_glide_ligand_efficiency>
-0.368236262273163

> <r_i_glide_ligand_efficiency_sa>
-1.1181821718214

> <r_i_glide_ligand_efficiency_ln>
-2.37999275413514

> <r_i_glide_gscore>
-10.3106153436486

> <r_i_glide_lipo>
-4.38828126540233

> <r_i_glide_hbond>
-0.401007530527356

> <r_i_glide_metal>
0

> <r_i_glide_rewards>
-3.01930092903549

> <r_i_glide_evdw>
-28.6545352935791

> <r_i_glide_ecoul>
-7.98291826248169

> <r_i_glide_erotb>
0.213370084289831

> <r_i_glide_esite>
-0.0852311989220053

> <r_i_glide_emodel>
-41.7861073289392

> <r_i_glide_energy>
-36.6374535560608

> <r_i_glide_einternal>
1.30689060688019

> <i_i_glide_confnum>
1

> <i_i_glide_posenum>
82

> <r_i_glide_eff_state_penalty>
0

> <s_user_duplicate_titles>
CHEMBL221_lig302

> <i_f3d_flags>
0

> <s_m_subgroup_title>
dock_pv

> <s_m_subgroupid>
dock_pv

> <b_m_subgroup_collapsed>
1

$$$$
CHEMBL221_lig582
                    3D
 Schrodinger Suite 2021-1.
 37 39  0  0  1  0            999 V2000
   20.0089   49.0187    6.2186 S   0  0  0  0  0  0
   20.4887   49.4730   13.2855 C   0  0  0  0  0  0
   21.6302   50.3573   12.9186 C   0  0  0  0  0  0
   19.6915   48.8219   12.3098 C   0  0  0  0  0  0
   20.2015   49.2601   14.6489 C   0  0  0  0  0  0
   20.0418   49.0399    8.0106 C   0  0  0  0  0  0
   21.7030   51.6811   13.3752 C   0  0  0  0  0  0
   22.7669   52.5076   13.0118 C   0  0  0  0  0  0
   18.6553   47.9822   12.7508 C   0  0  0  0  0  0
   20.9229   50.0149    5.6741 O   0  0  0  0  0  0
   20.1230   47.6321    5.8000 O   0  0  0  0  0  0
   19.8600   48.9566   10.8236 C   0  0  0  0  0  0
   19.1557   48.4265   15.0400 C   0  0  0  0  0  0
   18.4084   49.4730    5.8000 N   0  0  0  0  0  0
   23.7897   52.0034   12.2072 C   0  0  0  0  0  0
   22.6626   49.8730   12.1115 C   0  0  0  0  0  0
   18.3819   47.7859   14.0929 C   0  0  0  0  0  0
   19.7936   47.8386    8.6618 C   0  0  0  0  0  0
   20.1230   50.2187    8.7644 C   0  0  0  0  0  0
   23.7315   50.6889   11.7575 C   0  0  0  0  0  0
   20.0725   50.1756   10.1640 C   0  0  0  0  0  0
   19.7230   47.8096   10.0416 C   0  0  0  0  0  0
   20.9293   49.8730   15.6125 F   0  0  0  0  0  0
   22.7924   54.1499   13.5461 Cl  0  0  0  0  0  0
   18.8652   48.2457   16.3411 F   0  0  0  0  0  0
   24.8480   52.7700   11.8672 F   0  0  0  0  0  0
   20.9230   52.0805   14.0060 H   0  0  0  0  0  0
   18.0257   47.4730   12.0375 H   0  0  0  0  0  0
   18.2535   50.4788    5.9264 H   0  0  0  0  0  0
   18.1671   49.2425    4.8329 H   0  0  0  0  0  0
   22.6417   48.8504   11.7647 H   0  0  0  0  0  0
   17.5653   47.1478   14.3979 H   0  0  0  0  0  0
   19.6762   46.9185    8.1106 H   0  0  0  0  0  0
   20.2281   51.1644    8.2536 H   0  0  0  0  0  0
   24.5230   50.3007   11.1361 H   0  0  0  0  0  0
   20.1402   51.0968   10.7236 H   0  0  0  0  0  0
   19.6158   46.8537   10.5182 H   0  0  0  0  0  0
  1  6  1  0  0  0
  1 10  2  0  0  0
  1 11  2  0  0  0
  1 14  1  0  0  0
  2  4  1  0  0  0
  2  3  1  0  0  0
  2  5  2  0  0  0
  3  7  2  0  0  0
  3 16  1  0  0  0
  4 12  1  0  0  0
  4  9  2  0  0  0
  5 23  1  0  0  0
  5 13  1  0  0  0
  6 18  1  0  0  0
  6 19  2  0  0  0
  7  8  1  0  0  0
  7 27  1  0  0  0
  8 24  1  0  0  0
  8 15  2  0  0  0
  9 17  1  0  0  0
  9 28  1  0  0  0
 12 21  2  0  0  0
 12 22  1  0  0  0
 13 17  2  0  0  0
 13 25  1  0  0  0
 14 29  1  0  0  0
 14 30  1  0  0  0
 15 20  1  0  0  0
 15 26  1  0  0  0
 16 20  2  0  0  0
 16 31  1  0  0  0
 17 32  1  0  0  0
 18 22  2  0  0  0
 18 33  1  0  0  0
 19 21  1  0  0  0
 19 34  1  0  0  0
 20 35  1  0  0  0
 21 36  1  0  0  0
 22 37  1  0  0  0
M  END
> <s_m_entry_id>
5040

> <s_m_entry_name>
dock_pv.31

> <s_m_Source_Path>
/home/csk/Desktop/cluster/DUD-E-result/pgh1

> <s_m_Source_File>
dock_pv.maegz

> <i_m_Source_File_Index>
31

> <chembl_id>
CHEMBL362779

> <chembl_pref_name>
None

> <i_lp_mmshare_version>
53161

> <r_lp_tautomer_probability>
1

> <s_lp_Force_Field>
OPLS_2005

> <r_lp_Energy>
30.026226

> <b_lp_Chiralities_Consistent>
1

> <s_lp_Variant>
CHEMBL221_lig582-1

> <s_i_glide_gridfile>
glide-grid_2oyu

> <i_i_glide_lignum>
720

> <i_i_glide_rotatable_bonds>
3

> <r_i_docking_score>
-10.2987759980502

> <r_i_glide_ligand_efficiency>
-0.396106769155778

> <r_i_glide_ligand_efficiency_sa>
-1.17346474501912

> <r_i_glide_ligand_efficiency_ln>
-2.41863375010176

> <r_i_glide_gscore>
-10.2987759980502

> <r_i_glide_lipo>
-4.98953340048068

> <r_i_glide_hbond>
-0.297427717886516

> <r_i_glide_metal>
0

> <r_i_glide_rewards>
-3.04447211389503

> <r_i_glide_evdw>
-23.8274040222168

> <r_i_glide_ecoul>
-6.31657791137695

> <r_i_glide_erotb>
0.247444433076217

> <r_i_glide_esite>
-0.0759303110468478

> <r_i_glide_emodel>
-37.601108635733

> <r_i_glide_energy>
-30.1439819335938

> <r_i_glide_einternal>
1.05205869674683

> <i_i_glide_confnum>
10

> <i_i_glide_posenum>
37

> <r_i_glide_eff_state_penalty>
0

> <s_user_duplicate_titles>
CHEMBL221_lig582

> <i_f3d_flags>
0

> <s_m_subgroup_title>
dock_pv

> <s_m_subgroupid>
dock_pv

> <b_m_subgroup_collapsed>
1

$$$$
CHEMBL221_lig264
                    3D
 Schrodinger Suite 2021-1.
 44 46  0  0  1  0            999 V2000
   20.7379   49.7345   13.0988 C   0  0  0  0  0  0
   19.9461   48.8858    6.1600 S   0  0  0  0  0  0
   20.3526   49.2125   14.7208 S   0  0  0  0  0  0
   19.8951   49.1145   12.1764 C   0  0  0  0  0  0
   18.9635   48.3026   14.1856 C   0  0  0  0  0  0
   18.9229   48.3480   12.8115 C   0  0  0  0  0  0
   19.9993   49.0247    7.9221 C   0  0  0  0  0  0
   18.0602   47.4646   15.0670 C   0  0  0  0  0  0
   19.9371   49.1571   10.6947 C   0  0  0  0  0  0
   21.8979   50.6431   12.8703 C   0  0  0  0  0  0
   20.8206   49.8730    5.5366 O   0  0  0  0  0  0
   20.1230   47.4731    5.8666 O   0  0  0  0  0  0
   18.3082   49.2842    5.7975 N   0  0  0  0  0  0
   20.1230   50.2587    8.5666 C   0  0  0  0  0  0
   19.7390   47.8730    8.6605 C   0  0  0  0  0  0
   19.7230   47.9474   10.0376 C   0  0  0  0  0  0
   20.1230   50.3244    9.9582 C   0  0  0  0  0  0
   22.0812   51.7958   13.6411 C   0  0  0  0  0  0
   22.8029   50.3404   11.8501 C   0  0  0  0  0  0
   24.0820   52.2996   12.3979 C   0  0  0  0  0  0
   16.7623   47.4856   14.5345 O   0  0  0  0  0  0
   23.1729   52.6259   13.4000 C   0  0  0  0  0  0
   23.8907   51.1708   11.6092 C   0  0  0  0  0  0
   25.1700   53.0730   12.2000 F   0  0  0  0  0  0
   18.5230   46.0040   15.0000 C   0  0  0  0  0  0
   17.9360   47.9935   16.4966 C   0  0  0  0  0  0
   18.1652   47.8031   12.2656 H   0  0  0  0  0  0
   17.5933   48.7549    6.3128 H   0  0  0  0  0  0
   18.1081   50.2882    5.7408 H   0  0  0  0  0  0
   20.2257   51.1621    7.9823 H   0  0  0  0  0  0
   19.5712   46.9194    8.1836 H   0  0  0  0  0  0
   19.5593   47.0529   10.6076 H   0  0  0  0  0  0
   20.2442   51.2750   10.4571 H   0  0  0  0  0  0
   21.3818   52.0508   14.4242 H   0  0  0  0  0  0
   22.6637   49.4589   11.2443 H   0  0  0  0  0  0
   16.4569   48.3955   14.5049 H   0  0  0  0  0  0
   23.3230   53.5128   13.9982 H   0  0  0  0  0  0
   24.5911   50.9353   10.8230 H   0  0  0  0  0  0
   19.4511   45.8730   15.5537 H   0  0  0  0  0  0
   17.7809   45.3147   15.4000 H   0  0  0  0  0  0
   18.7109   45.6849   13.9745 H   0  0  0  0  0  0
   18.8887   47.8730   17.0000 H   0  0  0  0  0  0
   17.6808   49.0542   16.5148 H   0  0  0  0  0  0
   17.1780   47.4730   17.0808 H   0  0  0  0  0  0
  1  3  1  0  0  0
  1  4  2  0  0  0
  1 10  1  0  0  0
  2  7  1  0  0  0
  2 11  2  0  0  0
  2 12  2  0  0  0
  2 13  1  0  0  0
  3  5  1  0  0  0
  4  6  1  0  0  0
  4  9  1  0  0  0
  5  8  1  0  0  0
  5  6  2  0  0  0
  6 27  1  0  0  0
  7 14  2  0  0  0
  7 15  1  0  0  0
  8 21  1  0  0  0
  8 25  1  0  0  0
  8 26  1  0  0  0
  9 16  1  0  0  0
  9 17  2  0  0  0
 10 18  1  0  0  0
 10 19  2  0  0  0
 13 28  1  0  0  0
 13 29  1  0  0  0
 14 17  1  0  0  0
 14 30  1  0  0  0
 15 16  2  0  0  0
 15 31  1  0  0  0
 16 32  1  0  0  0
 17 33  1  0  0  0
 18 22  2  0  0  0
 18 34  1  0  0  0
 19 23  1  0  0  0
 19 35  1  0  0  0
 20 23  2  0  0  0
 20 24  1  0  0  0
 20 22  1  0  0  0
 21 36  1  0  0  0
 22 37  1  0  0  0
 23 38  1  0  0  0
 25 39  1  0  0  0
 25 40  1  0  0  0
 25 41  1  0  0  0
 26 42  1  0  0  0
 26 43  1  0  0  0
 26 44  1  0  0  0
M  END
> <s_m_entry_id>
5041

> <s_m_entry_name>
dock_pv.32

> <s_m_Source_Path>
/home/csk/Desktop/cluster/DUD-E-result/pgh1

> <s_m_Source_File>
dock_pv.maegz

> <i_m_Source_File_Index>
32

> <chembl_id>
CHEMBL308682

> <chembl_pref_name>
None

> <i_lp_mmshare_version>
53161

> <r_lp_tautomer_probability>
1

> <s_lp_Force_Field>
OPLS_2005

> <r_lp_Energy>
13.785873

> <b_lp_Chiralities_Consistent>
1

> <s_lp_Variant>
CHEMBL221_lig264-1

> <s_i_glide_gridfile>
glide-grid_2oyu

> <i_i_glide_lignum>
297

> <i_i_glide_rotatable_bonds>
5

> <r_i_docking_score>
-10.292248053483

> <r_i_glide_ligand_efficiency>
-0.395855694364733

> <r_i_glide_ligand_efficiency_sa>
-1.17272093693858

> <r_i_glide_ligand_efficiency_ln>
-2.41710068374009

> <r_i_glide_gscore>
-10.292248053483

> <r_i_glide_lipo>
-5.22486924530445

> <r_i_glide_hbond>
-0.506008504987986

> <r_i_glide_metal>
0

> <r_i_glide_rewards>
-2.40378224135791

> <r_i_glide_evdw>
-24.965030670166

> <r_i_glide_ecoul>
-8.14151859283447

> <r_i_glide_erotb>
0.382004847940614

> <r_i_glide_esite>
-0.0701135873398473

> <r_i_glide_emodel>
-40.1316498996308

> <r_i_glide_energy>
-33.1065492630005

> <r_i_glide_einternal>
2.54485082626343

> <i_i_glide_confnum>
13

> <i_i_glide_posenum>
375

> <r_i_glide_eff_state_penalty>
0

> <s_user_duplicate_titles>
CHEMBL221_lig264

> <i_f3d_flags>
0

> <s_m_subgroup_title>
dock_pv

> <s_m_subgroupid>
dock_pv

> <b_m_subgroup_collapsed>
1

$$$$
CHEMBL221_lig291
                    3D
 Schrodinger Suite 2021-1.
 40 42  0  0  1  0            999 V2000
   20.7686   49.6255   13.0220 C   0  0  0  0  0  0
   19.3648   48.4414   14.1039 C   0  0  0  0  0  0
   20.4196   49.2357   14.2356 N   0  0  0  0  0  0
   19.9348   49.0535   12.0666 N   0  0  0  0  0  0
   20.0021   49.0080    6.1315 S   0  0  0  0  0  0
   19.0351   48.3141   12.7828 C   0  0  0  0  0  0
   18.6897   47.7784   15.2748 C   0  0  0  0  0  0
   21.9487   50.5406   12.7493 C   0  0  0  0  0  0
   20.0330   49.0518    7.8986 C   0  0  0  0  0  0
   19.9433   49.0972   10.6641 C   0  0  0  0  0  0
   20.9080   50.0055    5.5728 O   0  0  0  0  0  0
   20.1230   47.6191    5.7258 O   0  0  0  0  0  0
   18.3869   49.4730    5.8000 N   0  0  0  0  0  0
   22.3174   51.6393   13.5609 C   0  0  0  0  0  0
   19.7645   47.8733    8.5920 C   0  0  0  0  0  0
   18.3732   48.6730   16.2001 F   0  0  0  0  0  0
   17.5595   47.1700   14.9128 F   0  0  0  0  0  0
   19.4827   46.8497   15.8000 F   0  0  0  0  0  0
   20.1230   50.2679    8.5813 C   0  0  0  0  0  0
   20.1230   50.2924    9.9711 C   0  0  0  0  0  0
   19.7230   47.9039    9.9730 C   0  0  0  0  0  0
   22.7383   50.2730   11.6227 C   0  0  0  0  0  0
   21.5773   51.9952   14.8363 C   0  0  0  0  0  0
   23.3886   52.4608   13.1921 C   0  0  0  0  0  0
   23.8046   51.0921   11.2629 C   0  0  0  0  0  0
   24.1230   52.1963   12.0423 C   0  0  0  0  0  0
   18.2488   47.7548   12.2952 H   0  0  0  0  0  0
   18.2424   50.4762    5.9567 H   0  0  0  0  0  0
   18.1108   49.2766    4.8345 H   0  0  0  0  0  0
   19.6101   46.9407    8.0717 H   0  0  0  0  0  0
   20.2209   51.1900    8.0260 H   0  0  0  0  0  0
   20.2371   51.2307   10.4956 H   0  0  0  0  0  0
   19.5724   46.9877   10.5125 H   0  0  0  0  0  0
   22.5230   49.4189   10.9999 H   0  0  0  0  0  0
   21.8608   52.9713   15.2301 H   0  0  0  0  0  0
   20.5230   52.0518   14.6227 H   0  0  0  0  0  0
   21.7230   51.2363   15.6047 H   0  0  0  0  0  0
   23.6606   53.3121   13.8000 H   0  0  0  0  0  0
   24.3869   50.8699   10.3800 H   0  0  0  0  0  0
   24.9504   52.8340   11.7680 H   0  0  0  0  0  0
  1  3  2  0  0  0
  1  4  1  0  0  0
  1  8  1  0  0  0
  2  3  1  0  0  0
  2  7  1  0  0  0
  2  6  2  0  0  0
  4  6  1  0  0  0
  4 10  1  0  0  0
  5  9  1  0  0  0
  5 11  2  0  0  0
  5 12  2  0  0  0
  5 13  1  0  0  0
  6 27  1  0  0  0
  7 16  1  0  0  0
  7 17  1  0  0  0
  7 18  1  0  0  0
  8 14  2  0  0  0
  8 22  1  0  0  0
  9 15  1  0  0  0
  9 19  2  0  0  0
 10 20  2  0  0  0
 10 21  1  0  0  0
 13 28  1  0  0  0
 13 29  1  0  0  0
 14 23  1  0  0  0
 14 24  1  0  0  0
 15 21  2  0  0  0
 15 30  1  0  0  0
 19 20  1  0  0  0
 19 31  1  0  0  0
 20 32  1  0  0  0
 21 33  1  0  0  0
 22 25  2  0  0  0
 22 34  1  0  0  0
 23 35  1  0  0  0
 23 36  1  0  0  0
 23 37  1  0  0  0
 24 26  2  0  0  0
 24 38  1  0  0  0
 25 26  1  0  0  0
 25 39  1  0  0  0
 26 40  1  0  0  0
M  END
> <s_m_entry_id>
5042

> <s_m_entry_name>
dock_pv.33

> <s_m_Source_Path>
/home/csk/Desktop/cluster/DUD-E-result/pgh1

> <s_m_Source_File>
dock_pv.maegz

> <i_m_Source_File_Index>
33

> <chembl_id>
CHEMBL294967

> <chembl_pref_name>
None

> <i_lp_mmshare_version>
53161

> <r_lp_tautomer_probability>
1

> <s_lp_Force_Field>
OPLS_2005

> <r_lp_Energy>
29.27101

> <b_lp_Chiralities_Consistent>
1

> <s_lp_Variant>
CHEMBL221_lig291-1

> <s_i_glide_gridfile>
glide-grid_2oyu

> <i_i_glide_lignum>
324

> <i_i_glide_rotatable_bonds>
4

> <r_i_docking_score>
-10.2790931169174

> <r_i_glide_ligand_efficiency>
-0.395349735266054

> <r_i_glide_ligand_efficiency_sa>
-1.1712220350996

> <r_i_glide_ligand_efficiency_ln>
-2.41401129005252

> <r_i_glide_gscore>
-10.2790931169174

> <r_i_glide_lipo>
-4.37278771057634

> <r_i_glide_hbond>
-0.327508885948589

> <r_i_glide_metal>
0

> <r_i_glide_rewards>
-3.32186498286453

> <r_i_glide_evdw>
-26.549446105957

> <r_i_glide_ecoul>
-7.36910629272461

> <r_i_glide_erotb>
0.266909520291938

> <r_i_glide_esite>
-0.0910028086133507

> <r_i_glide_emodel>
-42.3295548638004

> <r_i_glide_energy>
-33.9185523986816

> <r_i_glide_einternal>
3.47643351554871

> <i_i_glide_confnum>
10

> <i_i_glide_posenum>
255

> <r_i_glide_eff_state_penalty>
0

> <s_user_duplicate_titles>
CHEMBL221_lig291

> <i_f3d_flags>
0

> <s_m_subgroup_title>
dock_pv

> <s_m_subgroupid>
dock_pv

> <b_m_subgroup_collapsed>
1

$$$$
CHEMBL221_lig355
                    3D
 Schrodinger Suite 2021-1.
 42 45  0  0  1  0            999 V2000
   19.9976   49.0017    6.2013 S   0  0  0  0  0  0
   20.5908   49.6352   13.1852 C   0  0  0  0  0  0
   19.8531   48.9458   12.2783 C   0  0  0  0  0  0
   19.1284   48.2548   14.4262 C   0  0  0  0  0  0
   21.6934   50.5688   12.8961 C   0  0  0  0  0  0
   20.3112   49.1975   14.6142 C   0  0  0  0  0  0
   18.8492   48.0225   12.9552 C   0  0  0  0  0  0
   20.0297   49.0569    7.9901 C   0  0  0  0  0  0
   21.7244   51.8302   13.5011 C   0  0  0  0  0  0
   19.9010   49.0492   10.7971 C   0  0  0  0  0  0
   17.9751   48.2730   15.4226 C   0  0  0  0  0  0
   18.8999   47.1032   15.3931 C   0  0  0  0  0  0
   22.7744   52.7110   13.2433 C   0  0  0  0  0  0
   20.9227   49.9862    5.6520 O   0  0  0  0  0  0
   20.1230   47.6030    5.8257 O   0  0  0  0  0  0
   18.3865   49.4730    5.8000 N   0  0  0  0  0  0
   23.8176   52.3240   12.4018 C   0  0  0  0  0  0
   22.7240   50.2092   12.0214 C   0  0  0  0  0  0
   20.1230   50.2548    8.7071 C   0  0  0  0  0  0
   19.7735   47.8731    8.6775 C   0  0  0  0  0  0
   20.1225   50.2465   10.1045 C   0  0  0  0  0  0
   19.7229   47.8786   10.0612 C   0  0  0  0  0  0
   23.7812   51.0804   11.7757 C   0  0  0  0  0  0
   22.7694   53.9426   13.8000 F   0  0  0  0  0  0
   24.8708   53.1448   12.1998 F   0  0  0  0  0  0
   21.1686   48.6730   15.0240 H   0  0  0  0  0  0
   20.1228   50.0368   15.2802 H   0  0  0  0  0  0
   19.0193   46.9782   12.6948 H   0  0  0  0  0  0
   17.8210   48.2728   12.6918 H   0  0  0  0  0  0
   20.9326   52.1407   14.1668 H   0  0  0  0  0  0
   18.0204   48.9665   16.2629 H   0  0  0  0  0  0
   16.9575   48.1574   15.0462 H   0  0  0  0  0  0
   18.5245   46.1549   15.0063 H   0  0  0  0  0  0
   19.6129   46.9567   16.1984 H   0  0  0  0  0  0
   18.2367   50.3215    5.2357 H   0  0  0  0  0  0
   17.6489   48.7647    5.7907 H   0  0  0  0  0  0
   22.7140   49.2413   11.5422 H   0  0  0  0  0  0
   20.2278   51.1873    8.1718 H   0  0  0  0  0  0
   19.6347   46.9415    8.1510 H   0  0  0  0  0  0
   20.2332   51.1785   10.6389 H   0  0  0  0  0  0
   19.5864   46.9443   10.5681 H   0  0  0  0  0  0
   24.5761   50.7860   11.1073 H   0  0  0  0  0  0
  1  8  1  0  0  0
  1 14  2  0  0  0
  1 15  2  0  0  0
  1 16  1  0  0  0
  2  3  2  0  0  0
  2  5  1  0  0  0
  2  6  1  0  0  0
  3 10  1  0  0  0
  3  7  1  0  0  0
  4  7  1  0  0  0
  4 11  1  0  0  0
  4 12  1  0  0  0
  4  6  1  0  0  0
  5  9  1  0  0  0
  5 18  2  0  0  0
  6 26  1  0  0  0
  6 27  1  0  0  0
  7 28  1  0  0  0
  7 29  1  0  0  0
  8 19  1  0  0  0
  8 20  2  0  0  0
  9 13  2  0  0  0
  9 30  1  0  0  0
 10 22  2  0  0  0
 10 21  1  0  0  0
 11 12  1  0  0  0
 11 31  1  0  0  0
 11 32  1  0  0  0
 12 33  1  0  0  0
 12 34  1  0  0  0
 13 24  1  0  0  0
 13 17  1  0  0  0
 16 35  1  0  0  0
 16 36  1  0  0  0
 17 23  2  0  0  0
 17 25  1  0  0  0
 18 23  1  0  0  0
 18 37  1  0  0  0
 19 21  2  0  0  0
 19 38  1  0  0  0
 20 22  1  0  0  0
 20 39  1  0  0  0
 21 40  1  0  0  0
 22 41  1  0  0  0
 23 42  1  0  0  0
M  END
> <s_m_entry_id>
5043

> <s_m_entry_name>
dock_pv.34

> <s_m_Source_Path>
/home/csk/Desktop/cluster/DUD-E-result/pgh1

> <s_m_Source_File>
dock_pv.maegz

> <i_m_Source_File_Index>
34

> <chembl_id>
CHEMBL314225

> <chembl_pref_name>
None

> <i_lp_mmshare_version>
53161

> <r_lp_tautomer_probability>
1

> <s_lp_Force_Field>
OPLS_2005

> <r_lp_Energy>
44.155246

> <b_lp_Chiralities_Consistent>
1

> <s_lp_Variant>
CHEMBL221_lig355-1

> <s_i_glide_gridfile>
glide-grid_2oyu

> <i_i_glide_lignum>
421

> <i_i_glide_rotatable_bonds>
3

> <r_i_docking_score>
-10.2698221181669

> <r_i_glide_ligand_efficiency>
-0.410792884726676

> <r_i_glide_ligand_efficiency_sa>
-1.20116568038363

> <r_i_glide_ligand_efficiency_ln>
-2.43425560373959

> <r_i_glide_gscore>
-10.2698221181669

> <r_i_glide_lipo>
-5.06828324693695

> <r_i_glide_hbond>
-0.434655357760326

> <r_i_glide_metal>
0

> <r_i_glide_rewards>
-2.70066183849727

> <r_i_glide_evdw>
-26.4064540863037

> <r_i_glide_ecoul>
-6.41512155532837

> <r_i_glide_erotb>
0.29384359468712

> <r_i_glide_esite>
-0.0774743320450264

> <r_i_glide_emodel>
-44.5792908187725

> <r_i_glide_energy>
-32.8215756416321

> <r_i_glide_einternal>
0.776405215263367

> <i_i_glide_confnum>
12

> <i_i_glide_posenum>
37

> <r_i_glide_eff_state_penalty>
0

> <s_user_duplicate_titles>
CHEMBL221_lig355,144524

> <i_f3d_flags>
0

> <s_m_subgroup_title>
dock_pv

> <s_m_subgroupid>
dock_pv

> <b_m_subgroup_collapsed>
1

$$$$
CHEMBL221_lig232
                    3D
 Schrodinger Suite 2021-1.
 44 47  0  0  1  0            999 V2000
   19.9072   48.9630   11.4963 C   0  0  0  0  0  0
   20.6334   49.6601   12.4644 C   0  0  0  0  0  0
   20.1308   48.8848    5.4749 S   0  0  0  0  0  0
   18.9479   48.1642   12.0519 O   0  0  0  0  0  0
   21.7103   50.6818   12.3437 C   0  0  0  0  0  0
   20.1577   49.1444   13.6998 C   0  0  0  0  0  0
   19.0766   48.2939   13.3926 C   0  0  0  0  0  0
   19.9922   48.8964    7.2465 C   0  0  0  0  0  0
   22.6346   50.6184   11.3065 C   0  0  0  0  0  0
   19.9384   48.9490   10.0228 C   0  0  0  0  0  0
   23.7014   51.5071   11.2630 C   0  0  0  0  0  0
   20.9229   50.0377    5.0535 O   0  0  0  0  0  0
   20.5230   47.5654    5.0000 O   0  0  0  0  0  0
   18.4889   49.0730    4.9991 N   0  0  0  0  0  0
   21.8656   51.6675   13.3273 C   0  0  0  0  0  0
   23.9125   52.4336   12.2861 C   0  0  0  0  0  0
   20.1230   50.1014    7.9276 C   0  0  0  0  0  0
   19.7230   47.7295    7.9500 C   0  0  0  0  0  0
   20.1230   50.1330    9.3176 C   0  0  0  0  0  0
   19.7214   47.7529    9.3376 C   0  0  0  0  0  0
   22.9627   52.5243   13.3131 C   0  0  0  0  0  0
   24.5230   51.4730   10.2000 F   0  0  0  0  0  0
   25.0595   53.1962   12.2177 O   0  0  0  0  0  0
   20.5229   49.3159   15.0331 C   0  0  0  0  0  0
   18.2868   47.6757   14.3670 C   0  0  0  0  0  0
   25.3129   54.1689   13.2242 C   0  0  0  0  0  0
   19.7728   48.6730   15.9966 C   0  0  0  0  0  0
   18.6625   47.8843   15.6925 C   0  0  0  0  0  0
   22.5387   49.8750   10.5301 H   0  0  0  0  0  0
   18.1965   50.0529    4.8625 H   0  0  0  0  0  0
   18.3054   48.5653    4.1264 H   0  0  0  0  0  0
   21.1454   51.7711   14.1243 H   0  0  0  0  0  0
   20.2459   51.0248    7.3778 H   0  0  0  0  0  0
   19.5684   46.8069    7.4275 H   0  0  0  0  0  0
   20.2423   51.0730    9.8351 H   0  0  0  0  0  0
   19.5596   46.8375    9.8816 H   0  0  0  0  0  0
   23.0626   53.2443   14.1116 H   0  0  0  0  0  0
   21.3684   49.9209   15.3170 H   0  0  0  0  0  0
   17.4333   47.0730   14.1033 H   0  0  0  0  0  0
   26.2438   54.6889   13.0000 H   0  0  0  0  0  0
   25.4239   53.6983   14.2000 H   0  0  0  0  0  0
   24.5211   54.9178   13.2726 H   0  0  0  0  0  0
   20.1200   48.7911   17.0000 H   0  0  0  0  0  0
   18.1025   47.4205   16.4922 H   0  0  0  0  0  0
  1  2  2  0  0  0
  1  4  1  0  0  0
  1 10  1  0  0  0
  2  5  1  0  0  0
  2  6  1  0  0  0
  3  8  1  0  0  0
  3 12  2  0  0  0
  3 13  2  0  0  0
  3 14  1  0  0  0
  4  7  1  0  0  0
  5  9  2  0  0  0
  5 15  1  0  0  0
  6 24  1  0  0  0
  6  7  2  0  0  0
  7 25  1  0  0  0
  8 18  1  0  0  0
  8 17  2  0  0  0
  9 11  1  0  0  0
  9 29  1  0  0  0
 10 19  2  0  0  0
 10 20  1  0  0  0
 11 22  1  0  0  0
 11 16  2  0  0  0
 14 30  1  0  0  0
 14 31  1  0  0  0
 15 21  2  0  0  0
 15 32  1  0  0  0
 16 21  1  0  0  0
 16 23  1  0  0  0
 17 19  1  0  0  0
 17 33  1  0  0  0
 18 20  2  0  0  0
 18 34  1  0  0  0
 19 35  1  0  0  0
 20 36  1  0  0  0
 21 37  1  0  0  0
 23 26  1  0  0  0
 24 27  2  0  0  0
 24 38  1  0  0  0
 25 28  2  0  0  0
 25 39  1  0  0  0
 26 40  1  0  0  0
 26 41  1  0  0  0
 26 42  1  0  0  0
 27 28  1  0  0  0
 27 43  1  0  0  0
 28 44  1  0  0  0
M  END
> <s_m_entry_id>
5044

> <s_m_entry_name>
dock_pv.35

> <s_m_Source_Path>
/home/csk/Desktop/cluster/DUD-E-result/pgh1

> <s_m_Source_File>
dock_pv.maegz

> <i_m_Source_File_Index>
35

> <chembl_id>
CHEMBL76692

> <chembl_pref_name>
None

> <i_lp_mmshare_version>
53161

> <r_lp_tautomer_probability>
1

> <s_lp_Force_Field>
OPLS_2005

> <r_lp_Energy>
29.071777

> <b_lp_Chiralities_Consistent>
1

> <s_lp_Variant>
CHEMBL221_lig232-1

> <s_i_glide_gridfile>
glide-grid_2oyu

> <i_i_glide_lignum>
260

> <i_i_glide_rotatable_bonds>
4

> <r_i_docking_score>
-10.2547743560044

> <r_i_glide_ligand_efficiency>
-0.36624194128587

> <r_i_glide_ligand_efficiency_sa>
-1.11212623871173

> <r_i_glide_ligand_efficiency_ln>
-2.36710301462422

> <r_i_glide_gscore>
-10.2547743560044

> <r_i_glide_lipo>
-5.73159456300865

> <r_i_glide_hbond>
-0.588934011390938

> <r_i_glide_metal>
0

> <r_i_glide_rewards>
-2.05655383562638

> <r_i_glide_evdw>
-20.4638977050781

> <r_i_glide_ecoul>
-6.86397647857666

> <r_i_glide_erotb>
0.2478690184332

> <r_i_glide_esite>
-0.0727696073711803

> <r_i_glide_emodel>
-27.2726970423831

> <r_i_glide_energy>
-27.3278741836548

> <r_i_glide_einternal>
0.845078885555267

> <i_i_glide_confnum>
10

> <i_i_glide_posenum>
48

> <r_i_glide_eff_state_penalty>
0

> <s_user_duplicate_titles>
CHEMBL221_lig232

> <i_f3d_flags>
0

> <s_m_subgroup_title>
dock_pv

> <s_m_subgroupid>
dock_pv

> <b_m_subgroup_collapsed>
1

$$$$
CHEMBL221_lig368
                    3D
 Schrodinger Suite 2021-1.
 42 45  0  0  1  0            999 V2000
   19.8469   49.1284    6.1779 S   0  0  0  0  0  0
   20.5213   49.4849   13.1656 C   0  0  0  0  0  0
   19.8128   48.7957   12.2332 C   0  0  0  0  0  0
   18.9765   48.1387   14.3487 C   0  0  0  0  0  0
   21.6350   50.4229   12.9074 C   0  0  0  0  0  0
   20.1524   49.0661   14.5811 C   0  0  0  0  0  0
   18.7807   47.8743   12.8716 C   0  0  0  0  0  0
   19.9435   49.0301    7.9515 C   0  0  0  0  0  0
   21.6240   51.7028   13.4739 C   0  0  0  0  0  0
   19.8938   48.9168   10.7551 C   0  0  0  0  0  0
   17.7579   48.2384   15.2601 C   0  0  0  0  0  0
   18.6536   47.0488   15.3535 C   0  0  0  0  0  0
   22.6420   52.6150   13.1962 C   0  0  0  0  0  0
   20.6490   50.2714    5.7812 O   0  0  0  0  0  0
   20.1225   47.8177    5.6190 O   0  0  0  0  0  0
   18.1981   49.4730    5.8002 N   0  0  0  0  0  0
   23.7198   52.2299   12.3992 C   0  0  0  0  0  0
   22.6998   50.0661   12.0716 C   0  0  0  0  0  0
   20.1230   50.1900    8.7145 C   0  0  0  0  0  0
   19.7255   47.8164    8.5889 C   0  0  0  0  0  0
   20.1229   50.1340   10.1066 C   0  0  0  0  0  0
   19.7218   47.7711    9.9765 C   0  0  0  0  0  0
   23.7388   50.9617   11.8220 C   0  0  0  0  0  0
   22.5325   54.2287   13.8013 Cl  0  0  0  0  0  0
   24.7552   53.0732   12.1931 F   0  0  0  0  0  0
   20.9576   48.5220   15.0539 H   0  0  0  0  0  0
   19.9180   49.8850   15.2484 H   0  0  0  0  0  0
   18.9757   46.8281   12.6355 H   0  0  0  0  0  0
   17.7635   48.1113   12.5607 H   0  0  0  0  0  0
   20.8079   52.0126   14.1081 H   0  0  0  0  0  0
   17.7618   48.9700   16.0692 H   0  0  0  0  0  0
   16.7653   48.1224   14.8227 H   0  0  0  0  0  0
   18.2868   46.0877   14.9908 H   0  0  0  0  0  0
   19.3162   46.9346   16.2077 H   0  0  0  0  0  0
   18.0312   50.2362    5.1277 H   0  0  0  0  0  0
   17.5682   48.6735    5.7055 H   0  0  0  0  0  0
   22.7304   49.0832   11.6243 H   0  0  0  0  0  0
   20.2336   51.1426    8.2166 H   0  0  0  0  0  0
   19.5724   46.9144    8.0170 H   0  0  0  0  0  0
   20.2428   51.0488   10.6687 H   0  0  0  0  0  0
   19.6232   46.8145   10.4529 H   0  0  0  0  0  0
   24.5689   50.6729   11.1926 H   0  0  0  0  0  0
  1  8  1  0  0  0
  1 14  2  0  0  0
  1 15  2  0  0  0
  1 16  1  0  0  0
  2  3  2  0  0  0
  2  5  1  0  0  0
  2  6  1  0  0  0
  3 10  1  0  0  0
  3  7  1  0  0  0
  4  7  1  0  0  0
  4 11  1  0  0  0
  4 12  1  0  0  0
  4  6  1  0  0  0
  5  9  1  0  0  0
  5 18  2  0  0  0
  6 26  1  0  0  0
  6 27  1  0  0  0
  7 28  1  0  0  0
  7 29  1  0  0  0
  8 19  1  0  0  0
  8 20  2  0  0  0
  9 13  2  0  0  0
  9 30  1  0  0  0
 10 22  2  0  0  0
 10 21  1  0  0  0
 11 12  1  0  0  0
 11 31  1  0  0  0
 11 32  1  0  0  0
 12 33  1  0  0  0
 12 34  1  0  0  0
 13 24  1  0  0  0
 13 17  1  0  0  0
 16 35  1  0  0  0
 16 36  1  0  0  0
 17 23  2  0  0  0
 17 25  1  0  0  0
 18 23  1  0  0  0
 18 37  1  0  0  0
 19 21  2  0  0  0
 19 38  1  0  0  0
 20 22  1  0  0  0
 20 39  1  0  0  0
 21 40  1  0  0  0
 22 41  1  0  0  0
 23 42  1  0  0  0
M  END
> <s_m_entry_id>
5045

> <s_m_entry_name>
dock_pv.36

> <s_m_Source_Path>
/home/csk/Desktop/cluster/DUD-E-result/pgh1

> <s_m_Source_File>
dock_pv.maegz

> <i_m_Source_File_Index>
36

> <chembl_id>
CHEMBL312822

> <chembl_pref_name>
None

> <i_lp_mmshare_version>
53161

> <r_lp_tautomer_probability>
1

> <s_lp_Force_Field>
OPLS_2005

> <r_lp_Energy>
43.915308

> <b_lp_Chiralities_Consistent>
1

> <s_lp_Variant>
CHEMBL221_lig368-1

> <s_i_glide_gridfile>
glide-grid_2oyu

> <i_i_glide_lignum>
434

> <i_i_glide_rotatable_bonds>
3

> <r_i_docking_score>
-10.2517755311926

> <r_i_glide_ligand_efficiency>
-0.410071021247704

> <r_i_glide_ligand_efficiency_sa>
-1.19905493876882

> <r_i_glide_ligand_efficiency_ln>
-2.42997802181411

> <r_i_glide_gscore>
-10.2517755311926

> <r_i_glide_lipo>
-5.14071499723181

> <r_i_glide_hbond>
-0.385469154530445

> <r_i_glide_metal>
0

> <r_i_glide_rewards>
-2.63192131552926

> <r_i_glide_evdw>
-26.2999286651611

> <r_i_glide_ecoul>
-6.49034643173218

> <r_i_glide_erotb>
0.271370518009535

> <r_i_glide_esite>
-0.0764921838927438

> <r_i_glide_emodel>
-43.7188665402713

> <r_i_glide_energy>
-32.7902750968933

> <r_i_glide_einternal>
0.869911015033722

> <i_i_glide_confnum>
12

> <i_i_glide_posenum>
231

> <r_i_glide_eff_state_penalty>
0

> <s_user_duplicate_titles>
CHEMBL221_lig368,144608

> <i_f3d_flags>
0

> <s_m_subgroup_title>
dock_pv

> <s_m_subgroupid>
dock_pv

> <b_m_subgroup_collapsed>
1

$$$$
CHEMBL221_lig514
                    3D
 Schrodinger Suite 2021-1.
 34 36  0  0  1  0            999 V2000
   20.9229   49.8728   13.0693 C   0  0  0  0  0  0
   20.0378   49.2160   12.2277 N   0  0  0  0  0  0
   19.1510   48.4731   12.9102 N   0  0  0  0  0  0
   19.4289   48.6107   14.1808 C   0  0  0  0  0  0
   20.5230   49.4730   14.3402 C   0  0  0  0  0  0
   19.9956   48.9097    6.2534 S   0  0  0  0  0  0
   22.0327   50.7481   12.6852 C   0  0  0  0  0  0
   18.6107   47.8625   15.2193 C   0  0  0  0  0  0
   22.4364   52.1319   13.6623 S   0  0  0  0  0  0
   23.7753   52.5305   12.6359 C   0  0  0  0  0  0
   22.9072   50.6498   11.6040 C   0  0  0  0  0  0
   20.0173   49.0355    8.0322 C   0  0  0  0  0  0
   19.9714   49.1844   10.8162 C   0  0  0  0  0  0
   23.8849   51.6482   11.5742 C   0  0  0  0  0  0
   20.9228   49.8730    5.6649 O   0  0  0  0  0  0
   20.1230   47.4905    5.9600 O   0  0  0  0  0  0
   18.3940   49.3698    5.8000 N   0  0  0  0  0  0
   19.7421   47.8891    8.7836 C   0  0  0  0  0  0
   20.1230   50.2729    8.6731 C   0  0  0  0  0  0
   19.7230   47.9690   10.1684 C   0  0  0  0  0  0
   20.1232   50.3495   10.0637 C   0  0  0  0  0  0
   17.5009   47.3245   14.7088 F   0  0  0  0  0  0
   19.3230   46.8728   15.7536 F   0  0  0  0  0  0
   18.2318   48.6730   16.2000 F   0  0  0  0  0  0
   24.7842   53.8730   13.0001 Cl  0  0  0  0  0  0
   20.9739   49.7671   15.2771 H   0  0  0  0  0  0
   22.8432   49.8730   10.8588 H   0  0  0  0  0  0
   24.6500   51.7156   10.8136 H   0  0  0  0  0  0
   18.2151   50.3786    5.7584 H   0  0  0  0  0  0
   17.6369   48.8445    6.2532 H   0  0  0  0  0  0
   19.5723   46.9359    8.3054 H   0  0  0  0  0  0
   20.2254   51.1729    8.0837 H   0  0  0  0  0  0
   19.5540   47.0730   10.7429 H   0  0  0  0  0  0
   20.2478   51.3093   10.5453 H   0  0  0  0  0  0
  1  2  1  0  0  0
  1  5  2  0  0  0
  1  7  1  0  0  0
  2  3  1  0  0  0
  2 13  1  0  0  0
  3  4  2  0  0  0
  4  5  1  0  0  0
  4  8  1  0  0  0
  5 26  1  0  0  0
  6 12  1  0  0  0
  6 15  2  0  0  0
  6 16  2  0  0  0
  6 17  1  0  0  0
  7  9  1  0  0  0
  7 11  2  0  0  0
  8 22  1  0  0  0
  8 23  1  0  0  0
  8 24  1  0  0  0
  9 10  1  0  0  0
 10 25  1  0  0  0
 10 14  2  0  0  0
 11 14  1  0  0  0
 11 27  1  0  0  0
 12 19  1  0  0  0
 12 18  2  0  0  0
 13 20  2  0  0  0
 13 21  1  0  0  0
 14 28  1  0  0  0
 17 29  1  0  0  0
 17 30  1  0  0  0
 18 20  1  0  0  0
 18 31  1  0  0  0
 19 21  2  0  0  0
 19 32  1  0  0  0
 20 33  1  0  0  0
 21 34  1  0  0  0
M  END
> <s_m_entry_id>
5046

> <s_m_entry_name>
dock_pv.37

> <s_m_Source_Path>
/home/csk/Desktop/cluster/DUD-E-result/pgh1

> <s_m_Source_File>
dock_pv.maegz

> <i_m_Source_File_Index>
37

> <chembl_id>
CHEMBL283177

> <chembl_pref_name>
None

> <i_lp_mmshare_version>
53161

> <r_lp_tautomer_probability>
1

> <s_lp_Force_Field>
OPLS_2005

> <r_lp_Energy>
18.420219

> <b_lp_Chiralities_Consistent>
1

> <s_lp_Variant>
CHEMBL221_lig514-1

> <s_i_glide_gridfile>
glide-grid_2oyu

> <i_i_glide_lignum>
652

> <i_i_glide_rotatable_bonds>
4

> <r_i_docking_score>
-10.2333156822233

> <r_i_glide_ligand_efficiency>
-0.409332627288934

> <r_i_glide_ligand_efficiency_sa>
-1.1968958617379

> <r_i_glide_ligand_efficiency_ln>
-2.42560248441136

> <r_i_glide_gscore>
-10.2333156822233

> <r_i_glide_lipo>
-4.37949959735858

> <r_i_glide_hbond>
-0.516848895559768

> <r_i_glide_metal>
0

> <r_i_glide_rewards>
-2.94803663144206

> <r_i_glide_evdw>
-30.1806697845459

> <r_i_glide_ecoul>
-6.91626167297363

> <r_i_glide_erotb>
0.236601572164186

> <r_i_glide_esite>
-0.0790593898537761

> <r_i_glide_emodel>
-55.281504412256

> <r_i_glide_energy>
-37.0969314575195

> <r_i_glide_einternal>
0.452532440423965

> <i_i_glide_confnum>
8

> <i_i_glide_posenum>
374

> <r_i_glide_eff_state_penalty>
0

> <s_user_duplicate_titles>
CHEMBL221_lig514

> <i_f3d_flags>
0

> <s_m_subgroup_title>
dock_pv

> <s_m_subgroupid>
dock_pv

> <b_m_subgroup_collapsed>
1

$$$$
CHEMBL221_lig386
                    3D
 Schrodinger Suite 2021-1.
 45 47  0  0  1  0            999 V2000
   20.0057   48.9961    6.2716 S   0  0  0  0  0  0
   20.4051   49.4518   13.3550 C   0  0  0  0  0  0
   19.5987   48.8167   12.3811 C   0  0  0  0  0  0
   21.5362   50.3436   13.0109 C   0  0  0  0  0  0
   20.1453   49.2315   14.7164 C   0  0  0  0  0  0
   18.5395   48.0075   12.8356 C   0  0  0  0  0  0
   22.6572   52.4932   13.2114 C   0  0  0  0  0  0
   23.7512   52.0092   12.4650 C   0  0  0  0  0  0
   20.0388   49.0124    8.0739 C   0  0  0  0  0  0
   19.0832   48.4358   15.1272 C   0  0  0  0  0  0
   18.2709   47.8294   14.1884 C   0  0  0  0  0  0
   21.5896   51.6491   13.5066 C   0  0  0  0  0  0
   20.9230   49.9905    5.7349 O   0  0  0  0  0  0
   20.1230   47.6087    5.8544 O   0  0  0  0  0  0
   23.6596   50.7095   11.9324 C   0  0  0  0  0  0
   19.8025   48.9430   10.8941 C   0  0  0  0  0  0
   24.8834   52.8155   12.1934 N   0  0  0  0  0  0
   18.4222   49.4730    5.8001 N   0  0  0  0  0  0
   22.5729   49.8920   12.2000 C   0  0  0  0  0  0
   20.1230   50.1917    8.8273 C   0  0  0  0  0  0
   19.8034   47.8115    8.7356 C   0  0  0  0  0  0
   20.0232   50.1577   10.2255 C   0  0  0  0  0  0
   19.7230   47.7879   10.1195 C   0  0  0  0  0  0
   22.5218   54.1410   13.7353 Cl  0  0  0  0  0  0
   17.2267   47.0734   14.5998 F   0  0  0  0  0  0
   18.8168   48.2686   16.4359 F   0  0  0  0  0  0
   25.6226   53.3760   13.3237 C   0  0  0  0  0  0
   25.6725   52.5107   11.0000 C   0  0  0  0  0  0
   20.7606   49.7012   15.4704 H   0  0  0  0  0  0
   17.8929   47.5141   12.1274 H   0  0  0  0  0  0
   20.7805   52.0307   14.1112 H   0  0  0  0  0  0
   24.4428   50.2734   11.3353 H   0  0  0  0  0  0
   18.2778   50.4815    5.9157 H   0  0  0  0  0  0
   18.2040   49.2361    4.8291 H   0  0  0  0  0  0
   22.5568   48.8882   11.8000 H   0  0  0  0  0  0
   20.2355   51.1353    8.3153 H   0  0  0  0  0  0
   19.7060   46.8866    8.1880 H   0  0  0  0  0  0
   20.0684   51.0838   10.7794 H   0  0  0  0  0  0
   19.6343   46.8383   10.6143 H   0  0  0  0  0  0
   24.9925   53.6280   14.1720 H   0  0  0  0  0  0
   26.1236   54.2962   13.0211 H   0  0  0  0  0  0
   26.3705   52.6730   13.6873 H   0  0  0  0  0  0
   25.0762   52.6548   10.0980 H   0  0  0  0  0  0
   26.5902   53.0867   10.9335 H   0  0  0  0  0  0
   25.9991   51.4818   11.0000 H   0  0  0  0  0  0
  1  9  1  0  0  0
  1 13  2  0  0  0
  1 14  2  0  0  0
  1 18  1  0  0  0
  2  3  1  0  0  0
  2  4  1  0  0  0
  2  5  2  0  0  0
  3 16  1  0  0  0
  3  6  2  0  0  0
  4 12  2  0  0  0
  4 19  1  0  0  0
  5 10  1  0  0  0
  5 29  1  0  0  0
  6 11  1  0  0  0
  6 30  1  0  0  0
  7 12  1  0  0  0
  7 24  1  0  0  0
  7  8  2  0  0  0
  8 15  1  0  0  0
  8 17  1  0  0  0
  9 20  2  0  0  0
  9 21  1  0  0  0
 10 11  2  0  0  0
 10 26  1  0  0  0
 11 25  1  0  0  0
 12 31  1  0  0  0
 15 19  2  0  0  0
 15 32  1  0  0  0
 16 23  1  0  0  0
 16 22  2  0  0  0
 17 27  1  0  0  0
 17 28  1  0  0  0
 18 33  1  0  0  0
 18 34  1  0  0  0
 19 35  1  0  0  0
 20 22  1  0  0  0
 20 36  1  0  0  0
 21 23  2  0  0  0
 21 37  1  0  0  0
 22 38  1  0  0  0
 23 39  1  0  0  0
 27 40  1  0  0  0
 27 41  1  0  0  0
 27 42  1  0  0  0
 28 43  1  0  0  0
 28 44  1  0  0  0
 28 45  1  0  0  0
M  END
> <s_m_entry_id>
5047

> <s_m_entry_name>
dock_pv.38

> <s_m_Source_Path>
/home/csk/Desktop/cluster/DUD-E-result/pgh1

> <s_m_Source_File>
dock_pv.maegz

> <i_m_Source_File_Index>
38

> <chembl_id>
CHEMBL52872

> <chembl_pref_name>
None

> <i_lp_mmshare_version>
53161

> <r_lp_tautomer_probability>
1

> <s_lp_Force_Field>
OPLS_2005

> <r_lp_Energy>
35.490929

> <b_lp_Chiralities_Consistent>
1

> <s_lp_Variant>
CHEMBL221_lig386-1

> <s_i_glide_gridfile>
glide-grid_2oyu

> <i_i_glide_lignum>
453

> <i_i_glide_rotatable_bonds>
4

> <r_i_docking_score>
-10.2228594351625

> <r_i_glide_ligand_efficiency>
-0.365102122684377

> <r_i_glide_ligand_efficiency_sa>
-1.10866507812034

> <r_i_glide_ligand_efficiency_ln>
-2.35973611383113

> <r_i_glide_gscore>
-10.2228594351625

> <r_i_glide_lipo>
-5.2973266405921

> <r_i_glide_hbond>
-0.285746048974975

> <r_i_glide_metal>
0

> <r_i_glide_rewards>
-2.72080323001087

> <r_i_glide_evdw>
-23.3612251281738

> <r_i_glide_ecoul>
-5.98541212081909

> <r_i_glide_erotb>
0.221606788349705

> <r_i_glide_esite>
-0.0747172294027471

> <r_i_glide_emodel>
-30.7432128607405

> <r_i_glide_energy>
-29.3466372489929

> <r_i_glide_einternal>
2.15909719467163

> <i_i_glide_confnum>
10

> <i_i_glide_posenum>
31

> <r_i_glide_eff_state_penalty>
0

> <s_user_duplicate_titles>
CHEMBL221_lig386,82586

> <i_f3d_flags>
0

> <s_m_subgroup_title>
dock_pv

> <s_m_subgroupid>
dock_pv

> <b_m_subgroup_collapsed>
1

$$$$
CHEMBL221_lig299
                    3D
 Schrodinger Suite 2021-1.
 40 42  0  0  1  0            999 V2000
   19.2214   48.3171   14.0895 C   0  0  0  0  0  0
   20.2220   49.1705   14.2481 N   0  0  0  0  0  0
   20.6023   49.5364   13.0405 C   0  0  0  0  0  0
   19.8606   48.9090   12.0537 N   0  0  0  0  0  0
   19.8638   49.1410    6.1095 S   0  0  0  0  0  0
   18.9755   48.1261   12.7485 C   0  0  0  0  0  0
   18.5359   47.6686   15.2674 C   0  0  0  0  0  0
   21.7071   50.5170   12.7986 C   0  0  0  0  0  0
   19.9628   49.0730    7.8727 C   0  0  0  0  0  0
   19.9247   48.9981   10.6503 C   0  0  0  0  0  0
   20.6691   50.2730    5.6816 O   0  0  0  0  0  0
   20.1230   47.8200    5.5691 O   0  0  0  0  0  0
   18.2011   49.4730    5.8000 N   0  0  0  0  0  0
   21.7107   51.7583   13.4454 C   0  0  0  0  0  0
   19.7230   47.8675    8.5183 C   0  0  0  0  0  0
   18.2309   48.5653   16.2001 F   0  0  0  0  0  0
   17.3996   47.0730   14.9068 F   0  0  0  0  0  0
   19.3230   46.7374   15.8000 F   0  0  0  0  0  0
   20.1230   50.2499    8.6137 C   0  0  0  0  0  0
   20.1230   50.2180   10.0039 C   0  0  0  0  0  0
   19.7230   47.8367    9.9029 C   0  0  0  0  0  0
   22.6917   52.7112   13.1559 C   0  0  0  0  0  0
   22.7356   50.2199   11.8994 C   0  0  0  0  0  0
   23.7360   51.1524   11.6310 C   0  0  0  0  0  0
   23.7142   52.3978   12.2569 C   0  0  0  0  0  0
   22.6342   54.0851   13.8000 C   0  0  0  0  0  0
   18.2470   47.5132   12.2368 H   0  0  0  0  0  0
   18.0048   50.2329    5.1310 H   0  0  0  0  0  0
   17.5710   48.6713    5.7316 H   0  0  0  0  0  0
   20.9230   52.0012   14.1431 H   0  0  0  0  0  0
   19.5551   46.9636    7.9540 H   0  0  0  0  0  0
   20.2246   51.1957    8.1007 H   0  0  0  0  0  0
   20.2390   51.1374   10.5600 H   0  0  0  0  0  0
   19.5969   46.8916   10.3984 H   0  0  0  0  0  0
   22.7533   49.2631   11.4000 H   0  0  0  0  0  0
   24.5230   50.9128   10.9303 H   0  0  0  0  0  0
   24.4838   53.1217   12.0313 H   0  0  0  0  0  0
   23.6361   54.4752   13.9831 H   0  0  0  0  0  0
   22.1230   54.0518   14.7634 H   0  0  0  0  0  0
   22.1117   54.7886   13.1520 H   0  0  0  0  0  0
  1  2  1  0  0  0
  1  6  2  0  0  0
  1  7  1  0  0  0
  2  3  2  0  0  0
  3  8  1  0  0  0
  3  4  1  0  0  0
  4  6  1  0  0  0
  4 10  1  0  0  0
  5  9  1  0  0  0
  5 11  2  0  0  0
  5 12  2  0  0  0
  5 13  1  0  0  0
  6 27  1  0  0  0
  7 16  1  0  0  0
  7 17  1  0  0  0
  7 18  1  0  0  0
  8 14  1  0  0  0
  8 23  2  0  0  0
  9 15  1  0  0  0
  9 19  2  0  0  0
 10 20  2  0  0  0
 10 21  1  0  0  0
 13 28  1  0  0  0
 13 29  1  0  0  0
 14 22  2  0  0  0
 14 30  1  0  0  0
 15 21  2  0  0  0
 15 31  1  0  0  0
 19 20  1  0  0  0
 19 32  1  0  0  0
 20 33  1  0  0  0
 21 34  1  0  0  0
 22 26  1  0  0  0
 22 25  1  0  0  0
 23 24  1  0  0  0
 23 35  1  0  0  0
 24 25  2  0  0  0
 24 36  1  0  0  0
 25 37  1  0  0  0
 26 38  1  0  0  0
 26 39  1  0  0  0
 26 40  1  0  0  0
M  END
> <s_m_entry_id>
5048

> <s_m_entry_name>
dock_pv.39

> <s_m_Source_Path>
/home/csk/Desktop/cluster/DUD-E-result/pgh1

> <s_m_Source_File>
dock_pv.maegz

> <i_m_Source_File_Index>
39

> <chembl_id>
CHEMBL42398

> <chembl_pref_name>
None

> <i_lp_mmshare_version>
53161

> <r_lp_tautomer_probability>
1

> <s_lp_Force_Field>
OPLS_2005

> <r_lp_Energy>
27.918136

> <b_lp_Chiralities_Consistent>
1

> <s_lp_Variant>
CHEMBL221_lig299-1

> <s_i_glide_gridfile>
glide-grid_2oyu

> <i_i_glide_lignum>
332

> <i_i_glide_rotatable_bonds>
4

> <r_i_docking_score>
-10.1995224115296

> <r_i_glide_ligand_efficiency>
-0.39228932352037

> <r_i_glide_ligand_efficiency_sa>
-1.16215557734514

> <r_i_glide_ligand_efficiency_ln>
-2.39532437098498

> <r_i_glide_gscore>
-10.1995224115296

> <r_i_glide_lipo>
-4.07544745910383

> <r_i_glide_hbond>
-0.39666809509776

> <r_i_glide_metal>
0

> <r_i_glide_rewards>
-3.35255993786224

> <r_i_glide_evdw>
-25.4945316314697

> <r_i_glide_ecoul>
-8.53124713897705

> <r_i_glide_erotb>
0.266909520291938

> <r_i_glide_esite>
-0.0873427873376743

> <r_i_glide_emodel>
-44.279574694958

> <r_i_glide_energy>
-34.0257787704468

> <r_i_glide_einternal>
2.01557397842407

> <i_i_glide_confnum>
16

> <i_i_glide_posenum>
349

> <r_i_glide_eff_state_penalty>
0

> <s_user_duplicate_titles>
CHEMBL221_lig299

> <i_f3d_flags>
0

> <s_m_subgroup_title>
dock_pv

> <s_m_subgroupid>
dock_pv

> <b_m_subgroup_collapsed>
1

$$$$
CHEMBL221_lig589
                    3D
 Schrodinger Suite 2021-1.
 43 46  0  0  1  0            999 V2000
   19.8986   49.0730   14.4972 N   0  0  0  0  0  0
   20.9563   49.8730   14.3644 N   0  0  0  0  0  0
   21.1141   50.0805   13.0723 C   0  0  0  0  0  0
   20.1678   49.3695   12.2981 C   0  0  0  0  0  0
   19.3176   48.7746   13.2629 C   0  0  0  0  0  0
   19.4742   48.7229   15.7092 N   0  0  0  0  0  0
   19.9968   48.9060    6.2670 S   0  0  0  0  0  0
   18.1230   48.0405   13.3107 C   0  0  0  0  0  0
   18.2822   48.0897   15.7191 C   0  0  0  0  0  0
   20.0035   49.0241    8.0465 C   0  0  0  0  0  0
   20.0247   49.2581   10.8230 C   0  0  0  0  0  0
   17.5861   47.7232   14.5580 C   0  0  0  0  0  0
   22.2489   50.9607   12.6538 C   0  0  0  0  0  0
   20.9230   49.8730    5.6884 O   0  0  0  0  0  0
   20.1230   47.4924    5.9488 O   0  0  0  0  0  0
   18.4183   49.4073    5.8000 N   0  0  0  0  0  0
   19.7232   47.9028    8.8375 C   0  0  0  0  0  0
   20.1230   50.2740    8.6490 C   0  0  0  0  0  0
   19.7230   48.0289   10.2271 C   0  0  0  0  0  0
   20.1580   50.3933   10.0313 C   0  0  0  0  0  0
   22.6180   52.0495   13.4567 C   0  0  0  0  0  0
   22.9909   50.6730   11.5066 C   0  0  0  0  0  0
   24.5230   52.4422   12.0523 C   0  0  0  0  0  0
   17.8600   47.8730   17.0000 O   0  0  0  0  0  0
   23.7559   52.7880   13.1565 C   0  0  0  0  0  0
   24.1230   51.4188   11.2014 C   0  0  0  0  0  0
   25.6940   53.0730   11.8351 F   0  0  0  0  0  0
   16.5230   47.5116   17.2552 C   0  0  0  0  0  0
   17.5959   47.7896   12.4034 H   0  0  0  0  0  0
   16.6380   47.2109   14.5917 H   0  0  0  0  0  0
   18.3014   50.4226    5.8809 H   0  0  0  0  0  0
   18.1825   49.1448    4.8400 H   0  0  0  0  0  0
   19.5378   46.9411    8.3830 H   0  0  0  0  0  0
   20.2242   51.1572    8.0345 H   0  0  0  0  0  0
   19.5624   47.1529   10.8384 H   0  0  0  0  0  0
   20.3128   51.3631   10.4819 H   0  0  0  0  0  0
   22.0521   52.3020   14.3422 H   0  0  0  0  0  0
   22.7211   49.8456   10.8707 H   0  0  0  0  0  0
   24.0660   53.5981   13.8000 H   0  0  0  0  0  0
   24.7189   51.1718   10.3358 H   0  0  0  0  0  0
   16.5046   47.0730   18.2454 H   0  0  0  0  0  0
   16.1230   46.7580   16.5791 H   0  0  0  0  0  0
   15.8808   48.3922   17.2659 H   0  0  0  0  0  0
  1  2  1  0  0  0
  1  5  1  0  0  0
  1  6  1  0  0  0
  2  3  2  0  0  0
  3 13  1  0  0  0
  3  4  1  0  0  0
  4  5  2  0  0  0
  4 11  1  0  0  0
  5  8  1  0  0  0
  6  9  2  0  0  0
  7 10  1  0  0  0
  7 14  2  0  0  0
  7 15  2  0  0  0
  7 16  1  0  0  0
  8 12  2  0  0  0
  8 29  1  0  0  0
  9 12  1  0  0  0
  9 24  1  0  0  0
 10 18  2  0  0  0
 10 17  1  0  0  0
 11 19  1  0  0  0
 11 20  2  0  0  0
 12 30  1  0  0  0
 13 21  2  0  0  0
 13 22  1  0  0  0
 16 31  1  0  0  0
 16 32  1  0  0  0
 17 19  2  0  0  0
 17 33  1  0  0  0
 18 20  1  0  0  0
 18 34  1  0  0  0
 19 35  1  0  0  0
 20 36  1  0  0  0
 21 25  1  0  0  0
 21 37  1  0  0  0
 22 26  2  0  0  0
 22 38  1  0  0  0
 23 26  1  0  0  0
 23 27  1  0  0  0
 23 25  2  0  0  0
 24 28  1  0  0  0
 25 39  1  0  0  0
 26 40  1  0  0  0
 28 41  1  0  0  0
 28 42  1  0  0  0
 28 43  1  0  0  0
M  END
> <s_m_entry_id>
5049

> <s_m_entry_name>
dock_pv.40

> <s_m_Source_Path>
/home/csk/Desktop/cluster/DUD-E-result/pgh1

> <s_m_Source_File>
dock_pv.maegz

> <i_m_Source_File_Index>
40

> <chembl_id>
CHEMBL365267

> <chembl_pref_name>
None

> <i_lp_mmshare_version>
53161

> <r_lp_tautomer_probability>
1

> <s_lp_Force_Field>
OPLS_2005

> <r_lp_Energy>
35.346858

> <b_lp_Chiralities_Consistent>
1

> <s_lp_Variant>
CHEMBL221_lig589-1

> <s_i_glide_gridfile>
glide-grid_2oyu

> <i_i_glide_lignum>
727

> <i_i_glide_rotatable_bonds>
4

> <r_i_docking_score>
-10.1818118550331

> <r_i_glide_ligand_efficiency>
-0.363636137679753

> <r_i_glide_ligand_efficiency_sa>
-1.10421348422731

> <r_i_glide_ligand_efficiency_ln>
-2.35026112712793

> <r_i_glide_gscore>
-10.1818118550331

> <r_i_glide_lipo>
-5.31156715790045

> <r_i_glide_hbond>
-0.236368873680595

> <r_i_glide_metal>
0

> <r_i_glide_rewards>
-2.38115262853723

> <r_i_glide_evdw>
-27.6726512908936

> <r_i_glide_ecoul>
-6.96433877944946

> <r_i_glide_erotb>
0.246760456872444

> <r_i_glide_esite>
-0.0712002703251459

> <r_i_glide_emodel>
-38.3516618133547

> <r_i_glide_energy>
-34.636990070343

> <r_i_glide_einternal>
5.279221534729

> <i_i_glide_confnum>
1

> <i_i_glide_posenum>
27

> <r_i_glide_eff_state_penalty>
0

> <s_user_duplicate_titles>
CHEMBL221_lig589

> <i_f3d_flags>
0

> <s_m_subgroup_title>
dock_pv

> <s_m_subgroupid>
dock_pv

> <b_m_subgroup_collapsed>
1

$$$$
CHEMBL221_lig241
                    3D
 Schrodinger Suite 2021-1.
 42 45  0  0  1  0            999 V2000
   19.9400   48.9332   11.3810 C   0  0  0  0  0  0
   20.1234   48.9091    5.4073 S   0  0  0  0  0  0
   20.3785   50.0497   12.3193 C   0  0  1  0  0  0
   19.3565   47.9380   12.0636 C   0  0  0  0  0  0
   20.1740   49.3826   13.6492 C   0  0  0  0  0  0
   19.4733   48.1951   13.4658 C   0  0  0  0  0  0
   19.9851   48.9390    7.1549 C   0  0  0  0  0  0
   19.9648   48.9439    9.9209 C   0  0  0  0  0  0
   21.7213   50.7650   12.1594 C   0  0  0  0  0  0
   20.9177   50.0637    5.0007 O   0  0  0  0  0  0
   20.5226   47.5772    4.9797 O   0  0  0  0  0  0
   18.4808   49.0730    4.9340 N   0  0  0  0  0  0
   19.7187   47.7656    7.8304 C   0  0  0  0  0  0
   20.1228   50.1348    7.8443 C   0  0  0  0  0  0
   19.7232   47.7657    9.2068 C   0  0  0  0  0  0
   20.1232   50.1415    9.2315 C   0  0  0  0  0  0
   21.9857   51.8954   12.9470 C   0  0  0  0  0  0
   22.6613   50.3529   11.2186 C   0  0  0  0  0  0
   24.1241   52.1449   11.8922 C   0  0  0  0  0  0
   23.8413   51.0687   11.0613 C   0  0  0  0  0  0
   23.1962   52.5704   12.8347 C   0  0  0  0  0  0
   25.3205   52.7610   11.7977 F   0  0  0  0  0  0
   20.5152   49.7881   14.9356 C   0  0  0  0  0  0
   19.0126   47.4397   14.5286 C   0  0  0  0  0  0
   20.0192   49.0627   16.0059 C   0  0  0  0  0  0
   19.2702   47.9020   15.8031 C   0  0  0  0  0  0
   18.8661   47.0676   11.6733 H   0  0  0  0  0  0
   19.6445   50.8445   12.1907 H   0  0  0  0  0  0
   18.1841   50.0510    4.7873 H   0  0  0  0  0  0
   18.2884   48.5480    4.0733 H   0  0  0  0  0  0
   19.5568   46.8551    7.2949 H   0  0  0  0  0  0
   20.2470   51.0648    7.3067 H   0  0  0  0  0  0
   19.5713   46.8261    9.7045 H   0  0  0  0  0  0
   20.2495   51.0720    9.7589 H   0  0  0  0  0  0
   21.2534   52.2599   13.6519 H   0  0  0  0  0  0
   22.4863   49.4881   10.5961 H   0  0  0  0  0  0
   24.5427   50.7581   10.3073 H   0  0  0  0  0  0
   23.4123   53.4192   13.4668 H   0  0  0  0  0  0
   21.0655   50.6933   15.1360 H   0  0  0  0  0  0
   18.4546   46.5273   14.3802 H   0  0  0  0  0  0
   20.1806   49.4289   16.9991 H   0  0  0  0  0  0
   18.9061   47.3484   16.6527 H   0  0  0  0  0  0
  1  3  1  0  0  0
  1  4  2  0  0  0
  1  8  1  0  0  0
  2  7  1  0  0  0
  2 10  2  0  0  0
  2 11  2  0  0  0
  2 12  1  0  0  0
  3  5  1  0  0  0
  3  9  1  0  0  0
  3 28  1  0  0  0
  4 27  1  0  0  0
  4  6  1  0  0  0
  5 23  1  0  0  0
  5  6  2  0  0  0
  6 24  1  0  0  0
  7 14  1  0  0  0
  7 13  2  0  0  0
  8 15  2  0  0  0
  8 16  1  0  0  0
  9 17  2  0  0  0
  9 18  1  0  0  0
 12 29  1  0  0  0
 12 30  1  0  0  0
 13 15  1  0  0  0
 13 31  1  0  0  0
 14 16  2  0  0  0
 14 32  1  0  0  0
 15 33  1  0  0  0
 16 34  1  0  0  0
 17 21  1  0  0  0
 17 35  1  0  0  0
 18 20  2  0  0  0
 18 36  1  0  0  0
 19 20  1  0  0  0
 19 22  1  0  0  0
 19 21  2  0  0  0
 20 37  1  0  0  0
 21 38  1  0  0  0
 23 25  2  0  0  0
 23 39  1  0  0  0
 24 40  1  0  0  0
 24 26  2  0  0  0
 25 26  1  0  0  0
 25 41  1  0  0  0
 26 42  1  0  0  0
M  END
> <s_m_entry_id>
5050

> <s_m_entry_name>
dock_pv.41

> <s_m_Source_Path>
/home/csk/Desktop/cluster/DUD-E-result/pgh1

> <s_m_Source_File>
dock_pv.maegz

> <i_m_Source_File_Index>
41

> <chembl_id>
CHEMBL80405

> <chembl_pref_name>
None

> <i_lp_mmshare_version>
53161

> <r_lp_tautomer_probability>
0.5

> <s_lp_Force_Field>
OPLS_2005

> <r_lp_Energy>
45.408953

> <b_lp_Chiralities_Consistent>
1

> <s_lp_Variant>
CHEMBL221_lig241-3

> <s_i_glide_gridfile>
glide-grid_2oyu

> <i_i_glide_lignum>
271

> <i_i_glide_rotatable_bonds>
3

> <r_i_docking_score>
-10.1803554951649

> <r_i_glide_ligand_efficiency>
-0.39155213442942

> <r_i_glide_ligand_efficiency_sa>
-1.1599716575639

> <r_i_glide_ligand_efficiency_ln>
-2.39082308356851

> <r_i_glide_gscore>
-10.1803554951649

> <r_i_glide_lipo>
-5.37900999428119

> <r_i_glide_hbond>
-0.603352987440786

> <r_i_glide_metal>
0

> <r_i_glide_rewards>
-2.57898650670449

> <r_i_glide_evdw>
-10.76708984375

> <r_i_glide_ecoul>
-8.66865634918213

> <r_i_glide_erotb>
0.288107947908607

> <r_i_glide_esite>
-0.0684610100822472

> <r_i_glide_emodel>
-30.0943537062705

> <r_i_glide_energy>
-19.4357461929321

> <r_i_glide_einternal>
4.85212516784668

> <i_i_glide_confnum>
3

> <i_i_glide_posenum>
209

> <r_i_glide_eff_state_penalty>
0

> <s_user_duplicate_titles>
CHEMBL221_lig241

> <i_f3d_flags>
0

> <s_m_subgroup_title>
dock_pv

> <s_m_subgroupid>
dock_pv

> <b_m_subgroup_collapsed>
1

$$$$
CHEMBL221_lig304
                    3D
 Schrodinger Suite 2021-1.
 37 39  0  0  1  0            999 V2000
   19.1628   48.3193   14.1650 C   0  0  0  0  0  0
   20.1640   49.1658   14.3450 N   0  0  0  0  0  0
   19.8051   48.9693   12.1429 N   0  0  0  0  0  0
   20.5509   49.5609   13.1469 C   0  0  0  0  0  0
   20.0024   49.0071    6.1813 S   0  0  0  0  0  0
   18.9093   48.1818   12.8199 C   0  0  0  0  0  0
   18.5032   47.6049   15.3211 C   0  0  0  0  0  0
   20.0386   49.0617    7.9598 C   0  0  0  0  0  0
   19.9016   49.0510   10.7396 C   0  0  0  0  0  0
   21.6867   50.5127   12.9405 C   0  0  0  0  0  0
   20.9226   49.9916    5.6231 O   0  0  0  0  0  0
   20.1230   47.6099    5.8000 O   0  0  0  0  0  0
   18.3890   49.4730    5.8000 N   0  0  0  0  0  0
   19.7823   47.8730    8.6370 C   0  0  0  0  0  0
   20.1230   50.2637    8.6727 C   0  0  0  0  0  0
   17.3806   46.9930   14.9458 F   0  0  0  0  0  0
   19.3230   46.6730   15.8000 F   0  0  0  0  0  0
   18.1811   48.4449   16.3006 F   0  0  0  0  0  0
   20.1156   50.2587   10.0683 C   0  0  0  0  0  0
   19.7230   47.8730   10.0166 C   0  0  0  0  0  0
   21.7758   51.6744   13.7142 C   0  0  0  0  0  0
   22.6737   50.2384   11.9886 C   0  0  0  0  0  0
   23.8134   52.2730   12.5754 C   0  0  0  0  0  0
   22.8371   52.5565   13.5262 C   0  0  0  0  0  0
   23.7324   51.1204   11.8000 C   0  0  0  0  0  0
   24.8612   53.1105   12.4182 F   0  0  0  0  0  0
   18.1813   47.5814   12.2928 H   0  0  0  0  0  0
   18.1898   50.4704    5.9320 H   0  0  0  0  0  0
   17.6583   48.8772    6.2045 H   0  0  0  0  0  0
   19.6474   46.9430    8.1066 H   0  0  0  0  0  0
   20.2243   51.1960    8.1358 H   0  0  0  0  0  0
   20.2130   51.1892   10.6095 H   0  0  0  0  0  0
   19.5807   46.9406   10.5294 H   0  0  0  0  0  0
   21.0245   51.8960   14.4588 H   0  0  0  0  0  0
   22.6252   49.3347   11.4000 H   0  0  0  0  0  0
   22.9164   53.4505   14.1283 H   0  0  0  0  0  0
   24.4997   50.9051   11.0696 H   0  0  0  0  0  0
  1  2  1  0  0  0
  1  6  2  0  0  0
  1  7  1  0  0  0
  2  4  2  0  0  0
  3  6  1  0  0  0
  3  9  1  0  0  0
  3  4  1  0  0  0
  4 10  1  0  0  0
  5  8  1  0  0  0
  5 11  2  0  0  0
  5 12  2  0  0  0
  5 13  1  0  0  0
  6 27  1  0  0  0
  7 16  1  0  0  0
  7 17  1  0  0  0
  7 18  1  0  0  0
  8 14  1  0  0  0
  8 15  2  0  0  0
  9 19  2  0  0  0
  9 20  1  0  0  0
 10 21  1  0  0  0
 10 22  2  0  0  0
 13 28  1  0  0  0
 13 29  1  0  0  0
 14 20  2  0  0  0
 14 30  1  0  0  0
 15 19  1  0  0  0
 15 31  1  0  0  0
 19 32  1  0  0  0
 20 33  1  0  0  0
 21 24  2  0  0  0
 21 34  1  0  0  0
 22 25  1  0  0  0
 22 35  1  0  0  0
 23 25  2  0  0  0
 23 26  1  0  0  0
 23 24  1  0  0  0
 24 36  1  0  0  0
 25 37  1  0  0  0
M  END
> <s_m_entry_id>
5051

> <s_m_entry_name>
dock_pv.42

> <s_m_Source_Path>
/home/csk/Desktop/cluster/DUD-E-result/pgh1

> <s_m_Source_File>
dock_pv.maegz

> <i_m_Source_File_Index>
42

> <chembl_id>
CHEMBL46623

> <chembl_pref_name>
None

> <i_lp_mmshare_version>
53161

> <r_lp_tautomer_probability>
1

> <s_lp_Force_Field>
OPLS_2005

> <r_lp_Energy>
26.678541

> <b_lp_Chiralities_Consistent>
1

> <s_lp_Variant>
CHEMBL221_lig304-1

> <s_i_glide_gridfile>
glide-grid_2oyu

> <i_i_glide_lignum>
337

> <i_i_glide_rotatable_bonds>
4

> <r_i_docking_score>
-10.1786672167132

> <r_i_glide_ligand_efficiency>
-0.391487200642817

> <r_i_glide_ligand_efficiency_sa>
-1.1597792914766

> <r_i_glide_ligand_efficiency_ln>
-2.39042659691383

> <r_i_glide_gscore>
-10.1786672167132

> <r_i_glide_lipo>
-3.97135514976472

> <r_i_glide_hbond>
-0.585669962912118

> <r_i_glide_metal>
0

> <r_i_glide_rewards>
-3.22274083794863

> <r_i_glide_evdw>
-26.8819217681885

> <r_i_glide_ecoul>
-8.21549034118652

> <r_i_glide_erotb>
0.262006376929676

> <r_i_glide_esite>
-0.0844880034300525

> <r_i_glide_emodel>
-43.2523784350664

> <r_i_glide_energy>
-35.097412109375

> <r_i_glide_einternal>
1.58407735824585

> <i_i_glide_confnum>
1

> <i_i_glide_posenum>
300

> <r_i_glide_eff_state_penalty>
0

> <s_user_duplicate_titles>
CHEMBL221_lig304

> <i_f3d_flags>
0

> <s_m_subgroup_title>
dock_pv

> <s_m_subgroupid>
dock_pv

> <b_m_subgroup_collapsed>
1

$$$$
CHEMBL221_lig357
                    3D
 Schrodinger Suite 2021-1.
 46 49  0  0  1  0            999 V2000
   19.8634   49.1287    6.1939 S   0  0  0  0  0  0
   19.8091   48.8006   12.2490 C   0  0  0  0  0  0
   20.5218   49.4730   13.1947 C   0  0  0  0  0  0
   18.9443   48.1281   14.3507 C   0  0  0  0  0  0
   18.7513   47.8934   12.8687 C   0  0  0  0  0  0
   20.1266   49.0436   14.6036 C   0  0  0  0  0  0
   19.9470   49.0265    7.9669 C   0  0  0  0  0  0
   19.8945   48.9205   10.7707 C   0  0  0  0  0  0
   21.6594   50.4040   12.9795 C   0  0  0  0  0  0
   17.7219   48.2263   15.2559 C   0  0  0  0  0  0
   18.6024   47.0220   15.3363 C   0  0  0  0  0  0
   20.6627   50.2730    5.7945 O   0  0  0  0  0  0
   20.1230   47.8225    5.6188 O   0  0  0  0  0  0
   18.2302   49.4730    5.8000 N   0  0  0  0  0  0
   20.1230   50.1884    8.7287 C   0  0  0  0  0  0
   19.7230   47.8143    8.6047 C   0  0  0  0  0  0
   20.1230   50.1363   10.1207 C   0  0  0  0  0  0
   19.7230   47.7730    9.9929 C   0  0  0  0  0  0
   21.7628   51.5633   13.7549 C   0  0  0  0  0  0
   22.6301   50.1609   12.0020 C   0  0  0  0  0  0
   23.7864   52.2040   12.5824 C   0  0  0  0  0  0
   23.6774   51.0562   11.8000 C   0  0  0  0  0  0
   22.8159   52.4544   13.5625 C   0  0  0  0  0  0
   24.8747   53.0177   12.3330 O   0  0  0  0  0  0
   25.1195   54.1383   13.1767 C   0  0  0  0  0  0
   18.9230   46.8464   12.6187 H   0  0  0  0  0  0
   17.7403   48.1577   12.5605 H   0  0  0  0  0  0
   20.9230   48.4893   15.0880 H   0  0  0  0  0  0
   19.8706   49.8730   15.2558 H   0  0  0  0  0  0
   17.7294   48.9440   16.0770 H   0  0  0  0  0  0
   16.7307   48.1302   14.8103 H   0  0  0  0  0  0
   18.2263   46.0720   14.9546 H   0  0  0  0  0  0
   19.2496   46.8867   16.2000 H   0  0  0  0  0  0
   17.9722   50.4009    6.1513 H   0  0  0  0  0  0
   18.1048   49.5471    4.7858 H   0  0  0  0  0  0
   20.2400   51.1396    8.2306 H   0  0  0  0  0  0
   19.5685   46.9125    8.0331 H   0  0  0  0  0  0
   20.2437   51.0504   10.6839 H   0  0  0  0  0  0
   19.6262   46.8172   10.4711 H   0  0  0  0  0  0
   21.0246   51.7860   14.5115 H   0  0  0  0  0  0
   22.5783   49.2665   11.3999 H   0  0  0  0  0  0
   24.4222   50.8502   11.0442 H   0  0  0  0  0  0
   22.8670   53.3322   14.1890 H   0  0  0  0  0  0
   26.0000   54.6729   12.8202 H   0  0  0  0  0  0
   25.3230   53.8220   14.2000 H   0  0  0  0  0  0
   24.2870   54.8430   13.1764 H   0  0  0  0  0  0
  1  7  1  0  0  0
  1 12  2  0  0  0
  1 13  2  0  0  0
  1 14  1  0  0  0
  2  8  1  0  0  0
  2  3  2  0  0  0
  2  5  1  0  0  0
  3  6  1  0  0  0
  3  9  1  0  0  0
  4  5  1  0  0  0
  4 10  1  0  0  0
  4 11  1  0  0  0
  4  6  1  0  0  0
  5 26  1  0  0  0
  5 27  1  0  0  0
  6 28  1  0  0  0
  6 29  1  0  0  0
  7 15  1  0  0  0
  7 16  2  0  0  0
  8 18  2  0  0  0
  8 17  1  0  0  0
  9 19  2  0  0  0
  9 20  1  0  0  0
 10 11  1  0  0  0
 10 30  1  0  0  0
 10 31  1  0  0  0
 11 32  1  0  0  0
 11 33  1  0  0  0
 14 34  1  0  0  0
 14 35  1  0  0  0
 15 17  2  0  0  0
 15 36  1  0  0  0
 16 18  1  0  0  0
 16 37  1  0  0  0
 17 38  1  0  0  0
 18 39  1  0  0  0
 19 23  1  0  0  0
 19 40  1  0  0  0
 20 22  2  0  0  0
 20 41  1  0  0  0
 21 22  1  0  0  0
 21 24  1  0  0  0
 21 23  2  0  0  0
 22 42  1  0  0  0
 23 43  1  0  0  0
 24 25  1  0  0  0
 25 44  1  0  0  0
 25 45  1  0  0  0
 25 46  1  0  0  0
M  END
> <s_m_entry_id>
5052

> <s_m_entry_name>
dock_pv.43

> <s_m_Source_Path>
/home/csk/Desktop/cluster/DUD-E-result/pgh1

> <s_m_Source_File>
dock_pv.maegz

> <i_m_Source_File_Index>
43

> <chembl_id>
CHEMBL432945

> <chembl_pref_name>
None

> <i_lp_mmshare_version>
53161

> <r_lp_tautomer_probability>
1

> <s_lp_Force_Field>
OPLS_2005

> <r_lp_Energy>
47.365465

> <b_lp_Chiralities_Consistent>
1

> <s_lp_Variant>
CHEMBL221_lig357-1

> <s_i_glide_gridfile>
glide-grid_2oyu

> <i_i_glide_lignum>
423

> <i_i_glide_rotatable_bonds>
4

> <r_i_docking_score>
-10.1574348038908

> <r_i_glide_ligand_efficiency>
-0.406297392155632

> <r_i_glide_ligand_efficiency_sa>
-1.188020780378

> <r_i_glide_ligand_efficiency_ln>
-2.40761644228012

> <r_i_glide_gscore>
-10.1574348038908

> <r_i_glide_lipo>
-5.39275375047344

> <r_i_glide_hbond>
-0.453503814555827

> <r_i_glide_metal>
0

> <r_i_glide_rewards>
-2.14126001112365

> <r_i_glide_evdw>
-27.0199661254883

> <r_i_glide_ecoul>
-6.9561824798584

> <r_i_glide_erotb>
0.302672725474879

> <r_i_glide_esite>
-0.0781642749595833

> <r_i_glide_emodel>
-44.1685842014425

> <r_i_glide_energy>
-33.9761486053467

> <r_i_glide_einternal>
1.92807769775391

> <i_i_glide_confnum>
5

> <i_i_glide_posenum>
28

> <r_i_glide_eff_state_penalty>
0

> <s_user_duplicate_titles>
CHEMBL221_lig357,144009

> <i_f3d_flags>
0

> <s_m_subgroup_title>
dock_pv

> <s_m_subgroupid>
dock_pv

> <b_m_subgroup_collapsed>
1

$$$$
CHEMBL221_lig297
                    3D
 Schrodinger Suite 2021-1.
 41 43  0  0  1  0            999 V2000
   18.8088   48.2382   14.1111 C   0  0  0  0  0  0
   19.8379   49.0383   14.3190 N   0  0  0  0  0  0
   20.3004   49.3369   13.1304 C   0  0  0  0  0  0
   19.6144   48.7282   12.1029 N   0  0  0  0  0  0
   19.8673   49.1182    6.1622 S   0  0  0  0  0  0
   18.6328   48.0322   12.7545 C   0  0  0  0  0  0
   18.0736   47.6269   15.2744 C   0  0  0  0  0  0
   21.4615   50.2062   12.9162 C   0  0  0  0  0  0
   19.9490   48.9634    7.9287 C   0  0  0  0  0  0
   19.8098   48.8150   10.7061 C   0  0  0  0  0  0
   21.4903   51.5287   13.3582 C   0  0  0  0  0  0
   22.5571   52.3502   13.0096 C   0  0  0  0  0  0
   20.6658   50.2730    5.7947 O   0  0  0  0  0  0
   20.1230   47.8302    5.5472 O   0  0  0  0  0  0
   18.2303   49.4730    5.8000 N   0  0  0  0  0  0
   23.6367   51.7869   12.3095 C   0  0  0  0  0  0
   22.5230   49.6826   12.1854 C   0  0  0  0  0  0
   18.8324   46.6730   15.8000 F   0  0  0  0  0  0
   17.7994   48.5241   16.2211 F   0  0  0  0  0  0
   19.7238   47.7347    8.5379 C   0  0  0  0  0  0
   20.1230   50.1127    8.7092 C   0  0  0  0  0  0
   16.9230   47.0730   14.8976 F   0  0  0  0  0  0
   19.7018   47.6641    9.9245 C   0  0  0  0  0  0
   20.0706   50.0445   10.0963 C   0  0  0  0  0  0
   23.6246   50.4626   11.9168 C   0  0  0  0  0  0
   25.0270   52.6730   11.8000 S   0  0  0  0  0  0
   22.4424   54.0333   13.4000 Cl  0  0  0  0  0  0
   25.7230   53.4796   13.2726 C   0  0  0  0  0  0
   17.8989   47.4730   12.2000 H   0  0  0  0  0  0
   20.6623   51.9444   13.9115 H   0  0  0  0  0  0
   18.0228   50.4545    6.0121 H   0  0  0  0  0  0
   18.0105   49.3309    4.8106 H   0  0  0  0  0  0
   22.5073   48.6644   11.8254 H   0  0  0  0  0  0
   19.5875   46.8448    7.9441 H   0  0  0  0  0  0
   20.2452   51.0731    8.2307 H   0  0  0  0  0  0
   19.6091   46.7027   10.3941 H   0  0  0  0  0  0
   20.1545   50.9550   10.6723 H   0  0  0  0  0  0
   24.4732   50.0429   11.4000 H   0  0  0  0  0  0
   26.2870   54.3648   12.9793 H   0  0  0  0  0  0
   24.9635   53.8002   13.9770 H   0  0  0  0  0  0
   26.3923   52.8028   13.8000 H   0  0  0  0  0  0
  1  2  1  0  0  0
  1  6  2  0  0  0
  1  7  1  0  0  0
  2  3  2  0  0  0
  3  8  1  0  0  0
  3  4  1  0  0  0
  4  6  1  0  0  0
  4 10  1  0  0  0
  5  9  1  0  0  0
  5 13  2  0  0  0
  5 14  2  0  0  0
  5 15  1  0  0  0
  6 29  1  0  0  0
  7 18  1  0  0  0
  7 19  1  0  0  0
  7 22  1  0  0  0
  8 11  2  0  0  0
  8 17  1  0  0  0
  9 21  1  0  0  0
  9 20  2  0  0  0
 10 23  2  0  0  0
 10 24  1  0  0  0
 11 12  1  0  0  0
 11 30  1  0  0  0
 12 27  1  0  0  0
 12 16  2  0  0  0
 15 31  1  0  0  0
 15 32  1  0  0  0
 16 25  1  0  0  0
 16 26  1  0  0  0
 17 25  2  0  0  0
 17 33  1  0  0  0
 20 23  1  0  0  0
 20 34  1  0  0  0
 21 24  2  0  0  0
 21 35  1  0  0  0
 23 36  1  0  0  0
 24 37  1  0  0  0
 25 38  1  0  0  0
 26 28  1  0  0  0
 28 39  1  0  0  0
 28 40  1  0  0  0
 28 41  1  0  0  0
M  END
> <s_m_entry_id>
5053

> <s_m_entry_name>
dock_pv.44

> <s_m_Source_Path>
/home/csk/Desktop/cluster/DUD-E-result/pgh1

> <s_m_Source_File>
dock_pv.maegz

> <i_m_Source_File_Index>
44

> <chembl_id>
CHEMBL42674

> <chembl_pref_name>
None

> <i_lp_mmshare_version>
53161

> <r_lp_tautomer_probability>
1

> <s_lp_Force_Field>
OPLS_2005

> <r_lp_Energy>
26.784425

> <b_lp_Chiralities_Consistent>
1

> <s_lp_Variant>
CHEMBL221_lig297-1

> <s_i_glide_gridfile>
glide-grid_2oyu

> <i_i_glide_lignum>
330

> <i_i_glide_rotatable_bonds>
5

> <r_i_docking_score>
-10.1428175894965

> <r_i_glide_ligand_efficiency>
-0.362243485339161

> <r_i_glide_ligand_efficiency_sa>
-1.09998457149291

> <r_i_glide_ligand_efficiency_ln>
-2.3412601057207

> <r_i_glide_gscore>
-10.1428175894965

> <r_i_glide_lipo>
-4.82274666059686

> <r_i_glide_hbond>
-0.355066185380212

> <r_i_glide_metal>
0

> <r_i_glide_rewards>
-3.05448140342304

> <r_i_glide_evdw>
-22.2819938659668

> <r_i_glide_ecoul>
-6.10440158843994

> <r_i_glide_erotb>
0.19968343512099

> <r_i_glide_esite>
-0.0804468436530421

> <r_i_glide_emodel>
-28.2065410202605

> <r_i_glide_energy>
-28.3863954544067

> <r_i_glide_einternal>
4.03708457946777

> <i_i_glide_confnum>
4

> <i_i_glide_posenum>
307

> <r_i_glide_eff_state_penalty>
0

> <s_user_duplicate_titles>
CHEMBL221_lig297

> <i_f3d_flags>
0

> <s_m_subgroup_title>
dock_pv

> <s_m_subgroupid>
dock_pv

> <b_m_subgroup_collapsed>
1

$$$$
CHEMBL221_lig520
                    3D
 Schrodinger Suite 2021-1.
 40 43  0  0  1  0            999 V2000
   18.9251   48.2730   12.8177 N   0  0  0  0  0  0
   19.8452   49.0504   12.2126 N   0  0  0  0  0  0
   19.1214   48.3905   14.1087 C   0  0  0  0  0  0
   20.6516   49.6961   13.1307 C   0  0  0  0  0  0
   20.1784   49.2680   14.3613 C   0  0  0  0  0  0
   20.0065   48.9900    6.2172 S   0  0  0  0  0  0
   21.7888   50.5975   12.8126 C   0  0  0  0  0  0
   20.0376   49.0459    8.0044 C   0  0  0  0  0  0
   19.8992   49.0798   10.7971 C   0  0  0  0  0  0
   18.2826   47.5926   15.0807 C   0  0  0  0  0  0
   23.0276   52.6126   13.1407 C   0  0  0  0  0  0
   21.9100   51.8445   13.4475 C   0  0  0  0  0  0
   20.9230   49.9731    5.6553 O   0  0  0  0  0  0
   20.1230   47.5946    5.8280 O   0  0  0  0  0  0
   23.9811   52.1835   12.2634 C   0  0  0  0  0  0
   23.3665   53.8497   13.5798 O   0  0  0  0  0  0
   24.9850   53.0902   12.2000 O   0  0  0  0  0  0
   18.4120   49.4730    5.8000 N   0  0  0  0  0  0
   24.7170   53.9975   13.2328 C   0  0  0  0  0  0
   22.7599   50.1803   11.8829 C   0  0  0  0  0  0
   20.1230   50.2557    8.7019 C   0  0  0  0  0  0
   19.7780   47.8687    8.7050 C   0  0  0  0  0  0
   20.1065   50.2730   10.0967 C   0  0  0  0  0  0
   19.7230   47.8898   10.0905 C   0  0  0  0  0  0
   23.8630   50.9842   11.5838 C   0  0  0  0  0  0
   18.8855   46.4483   15.4000 F   0  0  0  0  0  0
   18.0314   48.2709   16.2000 F   0  0  0  0  0  0
   20.5653   49.5434   15.3319 H   0  0  0  0  0  0
   17.3102   47.3218   14.6660 H   0  0  0  0  0  0
   21.1661   52.1897   14.1505 H   0  0  0  0  0  0
   18.2754   50.4817    5.9241 H   0  0  0  0  0  0
   18.1641   49.2451    4.8339 H   0  0  0  0  0  0
   24.9302   55.0258   12.9374 H   0  0  0  0  0  0
   25.3393   53.7599   14.0963 H   0  0  0  0  0  0
   22.6616   49.2198   11.4000 H   0  0  0  0  0  0
   20.2265   51.1806    8.1533 H   0  0  0  0  0  0
   19.6368   46.9333    8.1854 H   0  0  0  0  0  0
   20.2055   51.2148   10.6172 H   0  0  0  0  0  0
   19.5687   46.9749   10.6307 H   0  0  0  0  0  0
   24.6030   50.6729   10.8668 H   0  0  0  0  0  0
  1  2  1  0  0  0
  1  3  2  0  0  0
  2  4  1  0  0  0
  2  9  1  0  0  0
  3  5  1  0  0  0
  3 10  1  0  0  0
  4  7  1  0  0  0
  4  5  2  0  0  0
  5 28  1  0  0  0
  6  8  1  0  0  0
  6 13  2  0  0  0
  6 14  2  0  0  0
  6 18  1  0  0  0
  7 12  1  0  0  0
  7 20  2  0  0  0
  8 22  1  0  0  0
  8 21  2  0  0  0
  9 23  2  0  0  0
  9 24  1  0  0  0
 10 26  1  0  0  0
 10 27  1  0  0  0
 10 29  1  0  0  0
 11 12  2  0  0  0
 11 16  1  0  0  0
 11 15  1  0  0  0
 12 30  1  0  0  0
 15 25  2  0  0  0
 15 17  1  0  0  0
 16 19  1  0  0  0
 17 19  1  0  0  0
 18 31  1  0  0  0
 18 32  1  0  0  0
 19 33  1  0  0  0
 19 34  1  0  0  0
 20 25  1  0  0  0
 20 35  1  0  0  0
 21 23  1  0  0  0
 21 36  1  0  0  0
 22 24  2  0  0  0
 22 37  1  0  0  0
 23 38  1  0  0  0
 24 39  1  0  0  0
 25 40  1  0  0  0
M  END
> <s_m_entry_id>
5054

> <s_m_entry_name>
dock_pv.45

> <s_m_Source_Path>
/home/csk/Desktop/cluster/DUD-E-result/pgh1

> <s_m_Source_File>
dock_pv.maegz

> <i_m_Source_File_Index>
45

> <chembl_id>
CHEMBL281694

> <chembl_pref_name>
None

> <i_lp_mmshare_version>
53161

> <r_lp_tautomer_probability>
1

> <s_lp_Force_Field>
OPLS_2005

> <r_lp_Energy>
34.626403

> <b_lp_Chiralities_Consistent>
1

> <s_lp_Variant>
CHEMBL221_lig520-1

> <s_i_glide_gridfile>
glide-grid_2oyu

> <i_i_glide_lignum>
658

> <i_i_glide_rotatable_bonds>
4

> <r_i_docking_score>
-10.1341745681955

> <r_i_glide_ligand_efficiency>
-0.375339798822054

> <r_i_glide_ligand_efficiency_sa>
-1.1260193952291

> <r_i_glide_ligand_efficiency_ln>
-2.35906876455053

> <r_i_glide_gscore>
-10.1341745681955

> <r_i_glide_lipo>
-4.31811516414186

> <r_i_glide_hbond>
-0.294142422071849

> <r_i_glide_metal>
0

> <r_i_glide_rewards>
-3.3241920307375

> <r_i_glide_evdw>
-29.4741134643555

> <r_i_glide_ecoul>
-6.0140643119812

> <r_i_glide_erotb>
0.252482211466841

> <r_i_glide_esite>
-0.074391842696141

> <r_i_glide_emodel>
-51.7710527846068

> <r_i_glide_energy>
-35.4881777763367

> <r_i_glide_einternal>
1.22819113731384

> <i_i_glide_confnum>
1

> <i_i_glide_posenum>
276

> <r_i_glide_eff_state_penalty>
0

> <s_user_duplicate_titles>
CHEMBL221_lig520

> <i_f3d_flags>
0

> <s_m_subgroup_title>
dock_pv

> <s_m_subgroupid>
dock_pv

> <b_m_subgroup_collapsed>
1

$$$$
CHEMBL221_lig529
                    3D
 Schrodinger Suite 2021-1.
 41 43  0  0  1  0            999 V2000
   19.0702   48.4271   13.0000 N   0  0  0  0  0  0
   19.9601   49.1875   12.3308 N   0  0  0  0  0  0
   19.3230   48.5768   14.2791 C   0  0  0  0  0  0
   20.8069   49.8530   13.2009 C   0  0  0  0  0  0
   20.3932   49.4520   14.4604 C   0  0  0  0  0  0
   19.9923   48.9070    6.3210 S   0  0  0  0  0  0
   20.0136   49.0341    8.1121 C   0  0  0  0  0  0
   19.9439   49.1709   10.9122 C   0  0  0  0  0  0
   18.5388   47.8120   15.3231 C   0  0  0  0  0  0
   21.9348   50.7543   12.8624 C   0  0  0  0  0  0
   20.9202   49.8730    5.7391 O   0  0  0  0  0  0
   20.1230   47.4856    6.0354 O   0  0  0  0  0  0
   18.4045   49.3550    5.8000 N   0  0  0  0  0  0
   20.1230   50.2671    8.7659 C   0  0  0  0  0  0
   19.7475   47.8854    8.8647 C   0  0  0  0  0  0
   20.1230   50.3360   10.1609 C   0  0  0  0  0  0
   19.7230   47.9611   10.2518 C   0  0  0  0  0  0
   22.1045   51.9133   13.6191 C   0  0  0  0  0  0
   22.8531   50.4267   11.8654 C   0  0  0  0  0  0
   17.2900   47.5374   14.9438 F   0  0  0  0  0  0
   19.1518   46.6730   15.6374 F   0  0  0  0  0  0
   24.1536   52.3815   12.4269 C   0  0  0  0  0  0
   23.9524   51.2473   11.6444 C   0  0  0  0  0  0
   23.2066   52.7278   13.4000 C   0  0  0  0  0  0
   25.3211   53.0772   12.2021 O   0  0  0  0  0  0
   25.5994   54.2272   13.0000 C   0  0  0  0  0  0
   20.8292   49.7483   15.4036 H   0  0  0  0  0  0
   18.4519   48.3795   16.2495 H   0  0  0  0  0  0
   18.2332   50.3647    5.7506 H   0  0  0  0  0  0
   17.6304   48.8410    6.2371 H   0  0  0  0  0  0
   20.2326   51.1698    8.1827 H   0  0  0  0  0  0
   19.5820   46.9324    8.3849 H   0  0  0  0  0  0
   20.2474   51.2939   10.6456 H   0  0  0  0  0  0
   19.5417   47.0729   10.8281 H   0  0  0  0  0  0
   21.3978   52.1757   14.3934 H   0  0  0  0  0  0
   22.7321   49.5239   11.2863 H   0  0  0  0  0  0
   24.6763   50.9873   10.8872 H   0  0  0  0  0  0
   23.3229   53.6051   14.0177 H   0  0  0  0  0  0
   26.5230   54.6964   12.6654 H   0  0  0  0  0  0
   25.7230   53.9551   14.0479 H   0  0  0  0  0  0
   24.8145   54.9808   12.9276 H   0  0  0  0  0  0
  1  2  1  0  0  0
  1  3  2  0  0  0
  2  4  1  0  0  0
  2  8  1  0  0  0
  3  5  1  0  0  0
  3  9  1  0  0  0
  4 10  1  0  0  0
  4  5  2  0  0  0
  5 27  1  0  0  0
  6  7  1  0  0  0
  6 11  2  0  0  0
  6 12  2  0  0  0
  6 13  1  0  0  0
  7 15  2  0  0  0
  7 14  1  0  0  0
  8 16  1  0  0  0
  8 17  2  0  0  0
  9 20  1  0  0  0
  9 21  1  0  0  0
  9 28  1  0  0  0
 10 18  1  0  0  0
 10 19  2  0  0  0
 13 29  1  0  0  0
 13 30  1  0  0  0
 14 16  2  0  0  0
 14 31  1  0  0  0
 15 17  1  0  0  0
 15 32  1  0  0  0
 16 33  1  0  0  0
 17 34  1  0  0  0
 18 24  2  0  0  0
 18 35  1  0  0  0
 19 23  1  0  0  0
 19 36  1  0  0  0
 22 23  2  0  0  0
 22 25  1  0  0  0
 22 24  1  0  0  0
 23 37  1  0  0  0
 24 38  1  0  0  0
 25 26  1  0  0  0
 26 39  1  0  0  0
 26 40  1  0  0  0
 26 41  1  0  0  0
M  END
> <s_m_entry_id>
5055

> <s_m_entry_name>
dock_pv.46

> <s_m_Source_Path>
/home/csk/Desktop/cluster/DUD-E-result/pgh1

> <s_m_Source_File>
dock_pv.maegz

> <i_m_Source_File_Index>
46

> <chembl_id>
CHEMBL282085

> <chembl_pref_name>
None

> <i_lp_mmshare_version>
53161

> <r_lp_tautomer_probability>
1

> <s_lp_Force_Field>
OPLS_2005

> <r_lp_Energy>
25.552449

> <b_lp_Chiralities_Consistent>
1

> <s_lp_Variant>
CHEMBL221_lig529-1

> <s_i_glide_gridfile>
glide-grid_2oyu

> <i_i_glide_lignum>
667

> <i_i_glide_rotatable_bonds>
5

> <r_i_docking_score>
-10.1326723209749

> <r_i_glide_ligand_efficiency>
-0.389718166191341

> <r_i_glide_ligand_efficiency_sa>
-1.15453853387491

> <r_i_glide_ligand_efficiency_ln>
-2.37962484657123

> <r_i_glide_gscore>
-10.1326723209749

> <r_i_glide_lipo>
-4.57850237180007

> <r_i_glide_hbond>
-0.510461245970184

> <r_i_glide_metal>
0

> <r_i_glide_rewards>
-2.55508935586069

> <r_i_glide_evdw>
-30.1676731109619

> <r_i_glide_ecoul>
-7.8301420211792

> <r_i_glide_erotb>
0.269424706237111

> <r_i_glide_esite>
-0.0751390948560729

> <r_i_glide_emodel>
-54.8001646366026

> <r_i_glide_energy>
-37.9978151321411

> <r_i_glide_einternal>
1.32608902454376

> <i_i_glide_confnum>
12

> <i_i_glide_posenum>
78

> <r_i_glide_eff_state_penalty>
0

> <s_user_duplicate_titles>
CHEMBL221_lig529,39465

> <i_f3d_flags>
0

> <s_m_subgroup_title>
dock_pv

> <s_m_subgroupid>
dock_pv

> <b_m_subgroup_collapsed>
1

$$$$
CHEMBL221_lig276
                    3D
 Schrodinger Suite 2021-1.
 40 42  0  0  1  0            999 V2000
   20.7750   49.7176   13.1417 C   0  0  0  0  0  0
   20.0044   48.9890    6.1975 S   0  0  0  0  0  0
   20.4096   49.3095   14.7984 S   0  0  0  0  0  0
   19.9205   49.0444   12.2518 C   0  0  0  0  0  0
   19.0293   48.3646   14.3084 C   0  0  0  0  0  0
   18.9672   48.2730   12.9342 C   0  0  0  0  0  0
   18.0850   47.7919   15.2553 C   0  0  0  0  0  0
   20.0272   49.0453    7.9766 C   0  0  0  0  0  0
   19.9406   49.0936   10.7634 C   0  0  0  0  0  0
   21.9196   50.6413   12.8793 C   0  0  0  0  0  0
   20.9230   49.9726    5.6382 O   0  0  0  0  0  0
   20.1230   47.5943    5.8072 O   0  0  0  0  0  0
   18.4064   49.4730    5.8000 N   0  0  0  0  0  0
   17.3893   46.8071   15.0000 O   0  0  0  0  0  0
   19.7594   47.8730    8.6818 C   0  0  0  0  0  0
   20.1230   50.2590    8.6634 C   0  0  0  0  0  0
   20.1230   50.2811   10.0559 C   0  0  0  0  0  0
   19.7230   47.9060   10.0670 C   0  0  0  0  0  0
   22.8228   50.3383   11.8580 C   0  0  0  0  0  0
   22.1003   51.8027   13.6403 C   0  0  0  0  0  0
   18.0094   48.5369   16.3689 O   0  0  0  0  0  0
   24.1006   52.3019   12.3987 C   0  0  0  0  0  0
   23.9081   51.1713   11.6122 C   0  0  0  0  0  0
   23.1920   52.6319   13.4000 C   0  0  0  0  0  0
   25.1899   53.0730   12.2000 F   0  0  0  0  0  0
   17.0860   48.2398   17.4000 C   0  0  0  0  0  0
   18.1979   47.7051   12.4288 H   0  0  0  0  0  0
   18.2718   50.4815    5.9280 H   0  0  0  0  0  0
   18.1477   49.2482    4.8361 H   0  0  0  0  0  0
   19.6036   46.9370    8.1675 H   0  0  0  0  0  0
   20.2258   51.1809    8.1094 H   0  0  0  0  0  0
   20.2384   51.2199   10.5782 H   0  0  0  0  0  0
   19.5685   46.9966   10.6152 H   0  0  0  0  0  0
   22.6872   49.4520   11.2590 H   0  0  0  0  0  0
   21.4039   52.0627   14.4244 H   0  0  0  0  0  0
   24.6093   50.9345   10.8271 H   0  0  0  0  0  0
   23.3406   53.5207   13.9957 H   0  0  0  0  0  0
   16.9230   49.1414   17.9898 H   0  0  0  0  0  0
   16.1230   47.9121   17.0115 H   0  0  0  0  0  0
   17.4824   47.4730   18.0630 H   0  0  0  0  0  0
  1  3  1  0  0  0
  1  4  2  0  0  0
  1 10  1  0  0  0
  2  8  1  0  0  0
  2 11  2  0  0  0
  2 12  2  0  0  0
  2 13  1  0  0  0
  3  5  1  0  0  0
  4  6  1  0  0  0
  4  9  1  0  0  0
  5  7  1  0  0  0
  5  6  2  0  0  0
  6 27  1  0  0  0
  7 14  2  0  0  0
  7 21  1  0  0  0
  8 15  1  0  0  0
  8 16  2  0  0  0
  9 17  2  0  0  0
  9 18  1  0  0  0
 10 19  2  0  0  0
 10 20  1  0  0  0
 13 28  1  0  0  0
 13 29  1  0  0  0
 15 18  2  0  0  0
 15 30  1  0  0  0
 16 17  1  0  0  0
 16 31  1  0  0  0
 17 32  1  0  0  0
 18 33  1  0  0  0
 19 23  1  0  0  0
 19 34  1  0  0  0
 20 24  2  0  0  0
 20 35  1  0  0  0
 21 26  1  0  0  0
 22 24  1  0  0  0
 22 25  1  0  0  0
 22 23  2  0  0  0
 23 36  1  0  0  0
 24 37  1  0  0  0
 26 38  1  0  0  0
 26 39  1  0  0  0
 26 40  1  0  0  0
M  END
> <s_m_entry_id>
5056

> <s_m_entry_name>
dock_pv.47

> <s_m_Source_Path>
/home/csk/Desktop/cluster/DUD-E-result/pgh1

> <s_m_Source_File>
dock_pv.maegz

> <i_m_Source_File_Index>
47

> <chembl_id>
CHEMBL303870

> <chembl_pref_name>
None

> <i_lp_mmshare_version>
53161

> <r_lp_tautomer_probability>
1

> <s_lp_Force_Field>
OPLS_2005

> <r_lp_Energy>
23.862618

> <b_lp_Chiralities_Consistent>
1

> <s_lp_Variant>
CHEMBL221_lig276-1

> <s_i_glide_gridfile>
glide-grid_2oyu

> <i_i_glide_lignum>
309

> <i_i_glide_rotatable_bonds>
5

> <r_i_docking_score>
-10.1326387006343

> <r_i_glide_ligand_efficiency>
-0.389716873101319

> <r_i_glide_ligand_efficiency_sa>
-1.15453470310081

> <r_i_glide_ligand_efficiency_ln>
-2.37961695094457

> <r_i_glide_gscore>
-10.1326387006343

> <r_i_glide_lipo>
-4.86549191550296

> <r_i_glide_hbond>
-0.298141464730523

> <r_i_glide_metal>
0

> <r_i_glide_rewards>
-2.73217294463455

> <r_i_glide_evdw>
-29.0718326568604

> <r_i_glide_ecoul>
-7.27177810668945

> <r_i_glide_erotb>
0.38208034527293

> <r_i_glide_esite>
-0.074554372192756

> <r_i_glide_emodel>
-51.8137700877374

> <r_i_glide_energy>
-36.3436107635498

> <r_i_glide_einternal>
4.35559606552124

> <i_i_glide_confnum>
9

> <i_i_glide_posenum>
189

> <r_i_glide_eff_state_penalty>
0

> <s_user_duplicate_titles>
CHEMBL221_lig276

> <i_f3d_flags>
0

> <s_m_subgroup_title>
dock_pv

> <s_m_subgroupid>
dock_pv

> <b_m_subgroup_collapsed>
1

$$$$
CHEMBL221_lig516
                    3D
 Schrodinger Suite 2021-1.
 44 46  0  0  1  0            999 V2000
   18.8288   48.1568   12.9575 N   0  0  0  0  0  0
   19.7288   48.9810   12.3926 N   0  0  0  0  0  0
   19.0392   48.1958   14.2517 C   0  0  0  0  0  0
   20.5234   49.5867   13.3393 C   0  0  0  0  0  0
   20.0857   49.0729   14.5485 C   0  0  0  0  0  0
   20.0052   48.9817    6.4153 S   0  0  0  0  0  0
   18.2172   47.3241   15.1736 C   0  0  0  0  0  0
   21.6311   50.5198   13.0477 C   0  0  0  0  0  0
   20.1145   49.0697    8.2067 C   0  0  0  0  0  0
   19.8177   49.0575   10.9834 C   0  0  0  0  0  0
   21.6478   51.7943   13.6141 C   0  0  0  0  0  0
   21.3230   49.0730    5.8000 O   0  0  0  0  0  0
   19.1119   47.8730    6.1496 O   0  0  0  0  0  0
   22.7147   52.6618   13.3793 C   0  0  0  0  0  0
   19.1213   50.2730    5.8000 N   0  0  0  0  0  0
   23.8154   52.1935   12.6396 C   0  0  0  0  0  0
   22.6706   50.1137   12.2123 C   0  0  0  0  0  0
   19.8772   47.8731    8.8843 C   0  0  0  0  0  0
   20.1230   50.2730    8.9173 C   0  0  0  0  0  0
   19.7230   47.8731   10.2589 C   0  0  0  0  0  0
   20.0202   50.2696   10.3102 C   0  0  0  0  0  0
   18.4303   47.6326   16.4504 F   0  0  0  0  0  0
   16.9167   47.4679   14.9416 F   0  0  0  0  0  0
   18.5231   46.0381   15.0000 F   0  0  0  0  0  0
   23.7626   50.9448   12.0177 C   0  0  0  0  0  0
   25.3230   53.1008   12.5749 S   0  0  0  0  0  0
   22.6248   54.0800   13.9349 C   0  0  0  0  0  0
   26.1669   52.6730   10.9999 C   0  0  0  0  0  0
   20.4840   49.2975   15.5277 H   0  0  0  0  0  0
   20.8227   52.1189   14.2309 H   0  0  0  0  0  0
   18.3108   49.9651    5.2531 H   0  0  0  0  0  0
   18.7581   50.9024    6.5331 H   0  0  0  0  0  0
   22.6640   49.1301   11.7654 H   0  0  0  0  0  0
   19.8050   46.9382    8.3481 H   0  0  0  0  0  0
   20.2174   51.2034    8.3790 H   0  0  0  0  0  0
   19.5950   46.9391   10.7745 H   0  0  0  0  0  0
   20.0625   51.2045   10.8505 H   0  0  0  0  0  0
   24.5913   50.5778   11.4313 H   0  0  0  0  0  0
   22.0589   54.0971   14.8670 H   0  0  0  0  0  0
   22.1265   54.7356   13.2211 H   0  0  0  0  0  0
   23.5968   54.5100   14.1728 H   0  0  0  0  0  0
   26.9230   53.4252   10.7520 H   0  0  0  0  0  0
   26.7323   51.7623   11.0000 H   0  0  0  0  0  0
   25.4390   52.6441   10.1915 H   0  0  0  0  0  0
  1  2  1  0  0  0
  1  3  2  0  0  0
  2  4  1  0  0  0
  2 10  1  0  0  0
  3  5  1  0  0  0
  3  7  1  0  0  0
  4  8  1  0  0  0
  4  5  2  0  0  0
  5 29  1  0  0  0
  6  9  1  0  0  0
  6 12  2  0  0  0
  6 13  2  0  0  0
  6 15  1  0  0  0
  7 22  1  0  0  0
  7 23  1  0  0  0
  7 24  1  0  0  0
  8 11  2  0  0  0
  8 17  1  0  0  0
  9 19  2  0  0  0
  9 18  1  0  0  0
 10 20  1  0  0  0
 10 21  2  0  0  0
 11 14  1  0  0  0
 11 30  1  0  0  0
 14 27  1  0  0  0
 14 16  2  0  0  0
 15 31  1  0  0  0
 15 32  1  0  0  0
 16 25  1  0  0  0
 16 26  1  0  0  0
 17 25  2  0  0  0
 17 33  1  0  0  0
 18 20  2  0  0  0
 18 34  1  0  0  0
 19 21  1  0  0  0
 19 35  1  0  0  0
 20 36  1  0  0  0
 21 37  1  0  0  0
 25 38  1  0  0  0
 26 28  1  0  0  0
 27 39  1  0  0  0
 27 40  1  0  0  0
 27 41  1  0  0  0
 28 42  1  0  0  0
 28 43  1  0  0  0
 28 44  1  0  0  0
M  END
> <s_m_entry_id>
5057

> <s_m_entry_name>
dock_pv.48

> <s_m_Source_Path>
/home/csk/Desktop/cluster/DUD-E-result/pgh1

> <s_m_Source_File>
dock_pv.maegz

> <i_m_Source_File_Index>
48

> <chembl_id>
CHEMBL28913

> <chembl_pref_name>
None

> <i_lp_mmshare_version>
53161

> <r_lp_tautomer_probability>
1

> <s_lp_Force_Field>
OPLS_2005

> <r_lp_Energy>
23.273741

> <b_lp_Chiralities_Consistent>
1

> <s_lp_Variant>
CHEMBL221_lig516-1

> <s_i_glide_gridfile>
glide-grid_2oyu

> <i_i_glide_lignum>
654

> <i_i_glide_rotatable_bonds>
5

> <r_i_docking_score>
-10.0980457294844

> <r_i_glide_ligand_efficiency>
-0.36064449033873

> <r_i_glide_ligand_efficiency_sa>
-1.09512908091391

> <r_i_glide_ligand_efficiency_ln>
-2.33092544587098

> <r_i_glide_gscore>
-10.0980457294844

> <r_i_glide_lipo>
-4.62599552096476

> <r_i_glide_hbond>
-0.420798585442915

> <r_i_glide_metal>
0

> <r_i_glide_rewards>
-2.26582796312208

> <r_i_glide_evdw>
-22.1621189117432

> <r_i_glide_ecoul>
-12.0620975494385

> <r_i_glide_erotb>
0.217320399018639

> <r_i_glide_esite>
-0.0853234809703795

> <r_i_glide_emodel>
-38.3069749861567

> <r_i_glide_energy>
-34.2242164611816

> <r_i_glide_einternal>
1.68155312538147

> <i_i_glide_confnum>
4

> <i_i_glide_posenum>
91

> <r_i_glide_eff_state_penalty>
0

> <s_user_duplicate_titles>
CHEMBL221_lig516

> <i_f3d_flags>
0

> <s_m_subgroup_title>
dock_pv

> <s_m_subgroupid>
dock_pv

> <b_m_subgroup_collapsed>
1

$$$$
CHEMBL221_lig443
                    3D
 Schrodinger Suite 2021-1.
 45 48  0  0  1  0            999 V2000
   20.0036   49.0159    6.1766 S   0  0  0  0  0  0
   20.5850   49.6479   13.1385 C   0  0  0  0  0  0
   19.8723   48.9508   12.2228 C   0  0  0  0  0  0
   20.0313   49.0575    7.9532 C   0  0  0  0  0  0
   19.0571   48.2485   14.3786 C   0  0  0  0  0  0
   18.9217   47.9739   12.8823 C   0  0  0  0  0  0
   20.2634   49.1906   14.5496 C   0  0  0  0  0  0
   19.9161   49.0439   10.7468 C   0  0  0  0  0  0
   21.7127   50.5714   12.8846 C   0  0  0  0  0  0
   20.9152   50.0095    5.6212 O   0  0  0  0  0  0
   20.1230   47.6261    5.7714 O   0  0  0  0  0  0
   18.3951   49.4730    5.8000 N   0  0  0  0  0  0
   20.1230   50.2558    8.6671 C   0  0  0  0  0  0
   19.7683   47.8729    8.6307 C   0  0  0  0  0  0
   20.1230   50.2454   10.0613 C   0  0  0  0  0  0
   19.7228   47.8735   10.0122 C   0  0  0  0  0  0
   21.8280   51.7606   13.6129 C   0  0  0  0  0  0
   22.6866   50.2552   11.9318 C   0  0  0  0  0  0
   23.8786   52.2730   12.4579 C   0  0  0  0  0  0
   23.7650   51.1041   11.7143 C   0  0  0  0  0  0
   22.9103   52.6112   13.3994 C   0  0  0  0  0  0
   24.9499   53.0735   12.2757 F   0  0  0  0  0  0
   19.0105   46.9968   15.2690 C   0  0  0  0  0  0
   17.7365   48.6622   15.0610 C   0  0  0  0  0  0
   17.4972   47.2037   15.4069 C   0  0  0  0  0  0
   19.2106   46.9465   12.6608 H   0  0  0  0  0  0
   17.8966   48.0906   12.5294 H   0  0  0  0  0  0
   21.1180   48.6729   14.9702 H   0  0  0  0  0  0
   20.0968   50.0196   15.2325 H   0  0  0  0  0  0
   18.2451   50.4781    5.9378 H   0  0  0  0  0  0
   18.1336   49.2541    4.8354 H   0  0  0  0  0  0
   20.2282   51.1893    8.1336 H   0  0  0  0  0  0
   19.6222   46.9463    8.0975 H   0  0  0  0  0  0
   20.2332   51.1757   10.5993 H   0  0  0  0  0  0
   19.5824   46.9366   10.5129 H   0  0  0  0  0  0
   21.0854   52.0287   14.3505 H   0  0  0  0  0  0
   22.6172   49.3343   11.3727 H   0  0  0  0  0  0
   24.5229   50.8491   10.9878 H   0  0  0  0  0  0
   23.0071   53.5228   13.9713 H   0  0  0  0  0  0
   19.3225   46.0613   14.8060 H   0  0  0  0  0  0
   19.5528   47.1198   16.1997 H   0  0  0  0  0  0
   17.8551   49.2915   15.9453 H   0  0  0  0  0  0
   16.9656   49.0730   14.4132 H   0  0  0  0  0  0
   16.9013   46.6673   14.6660 H   0  0  0  0  0  0
   17.0703   47.0730   16.3989 H   0  0  0  0  0  0
  1  4  1  0  0  0
  1 10  2  0  0  0
  1 11  2  0  0  0
  1 12  1  0  0  0
  2  3  2  0  0  0
  2  7  1  0  0  0
  2  9  1  0  0  0
  3  8  1  0  0  0
  3  6  1  0  0  0
  4 13  2  0  0  0
  4 14  1  0  0  0
  5  6  1  0  0  0
  5 23  1  0  0  0
  5 24  1  0  0  0
  5  7  1  0  0  0
  6 26  1  0  0  0
  6 27  1  0  0  0
  7 28  1  0  0  0
  7 29  1  0  0  0
  8 16  1  0  0  0
  8 15  2  0  0  0
  9 17  1  0  0  0
  9 18  2  0  0  0
 12 30  1  0  0  0
 12 31  1  0  0  0
 13 15  1  0  0  0
 13 32  1  0  0  0
 14 16  2  0  0  0
 14 33  1  0  0  0
 15 34  1  0  0  0
 16 35  1  0  0  0
 17 21  2  0  0  0
 17 36  1  0  0  0
 18 20  1  0  0  0
 18 37  1  0  0  0
 19 20  2  0  0  0
 19 22  1  0  0  0
 19 21  1  0  0  0
 20 38  1  0  0  0
 21 39  1  0  0  0
 23 25  1  0  0  0
 23 40  1  0  0  0
 23 41  1  0  0  0
 24 25  1  0  0  0
 24 42  1  0  0  0
 24 43  1  0  0  0
 25 44  1  0  0  0
 25 45  1  0  0  0
M  END
> <s_m_entry_id>
5058

> <s_m_entry_name>
dock_pv.49

> <s_m_Source_Path>
/home/csk/Desktop/cluster/DUD-E-result/pgh1

> <s_m_Source_File>
dock_pv.maegz

> <i_m_Source_File_Index>
49

> <chembl_id>
CHEMBL171335

> <chembl_pref_name>
None

> <i_lp_mmshare_version>
53161

> <r_lp_tautomer_probability>
1

> <s_lp_Force_Field>
OPLS_2005

> <r_lp_Energy>
43.422828

> <b_lp_Chiralities_Consistent>
1

> <s_lp_Variant>
CHEMBL221_lig443-1

> <s_i_glide_gridfile>
glide-grid_2oyu

> <i_i_glide_lignum>
522

> <i_i_glide_rotatable_bonds>
3

> <r_i_docking_score>
-10.0926130717208

> <r_i_glide_ligand_efficiency>
-0.403704522868832

> <r_i_glide_ligand_efficiency_sa>
-1.18043918459866

> <r_i_glide_ligand_efficiency_ln>
-2.39225174920527

> <r_i_glide_gscore>
-10.0926130717208

> <r_i_glide_lipo>
-5.11724110543851

> <r_i_glide_hbond>
-0.308971317288756

> <r_i_glide_metal>
0

> <r_i_glide_rewards>
-2.7343988678097

> <r_i_glide_evdw>
-24.0847759246826

> <r_i_glide_ecoul>
-6.34461832046509

> <r_i_glide_erotb>
0.299676674136952

> <r_i_glide_esite>
-0.0757469110168803

> <r_i_glide_emodel>
-39.8158353210686

> <r_i_glide_energy>
-30.4293942451477

> <r_i_glide_einternal>
0.793369114398956

> <i_i_glide_confnum>
17

> <i_i_glide_posenum>
135

> <r_i_glide_eff_state_penalty>
0

> <s_user_duplicate_titles>
CHEMBL221_lig443,284470

> <i_f3d_flags>
0

> <s_m_subgroup_title>
dock_pv

> <s_m_subgroupid>
dock_pv

> <b_m_subgroup_collapsed>
1

$$$$
CHEMBL221_lig337
                    3D
 Schrodinger Suite 2021-1.
 41 44  0  0  1  0            999 V2000
   19.9903   48.9047    6.3213 S   0  0  0  0  0  0
   20.7337   49.8217   13.2352 C   0  0  0  0  0  0
   19.9189   49.1177   12.4132 C   0  0  0  0  0  0
   21.8743   50.6698   12.8341 C   0  0  0  0  0  0
   19.9991   49.0201    8.1121 C   0  0  0  0  0  0
   23.1902   52.6604   13.0390 C   0  0  0  0  0  0
   22.0770   51.9261   13.4338 C   0  0  0  0  0  0
   19.9041   49.1409   10.9251 C   0  0  0  0  0  0
   20.9229   49.8730    5.7528 O   0  0  0  0  0  0
   20.1230   47.4867    6.0217 O   0  0  0  0  0  0
   24.0650   52.1968   12.1023 C   0  0  0  0  0  0
   23.5956   53.8930   13.4334 O   0  0  0  0  0  0
   25.0869   53.0730   11.9614 O   0  0  0  0  0  0
   18.4075   49.3665    5.8010 N   0  0  0  0  0  0
   24.9234   53.9916   13.0006 C   0  0  0  0  0  0
   22.7653   50.2283   11.8349 C   0  0  0  0  0  0
   19.7234   47.8730    8.8595 C   0  0  0  0  0  0
   20.1230   50.2451    8.7750 C   0  0  0  0  0  0
   23.8591   51.0019   11.4389 C   0  0  0  0  0  0
   19.6905   47.9436   10.2475 C   0  0  0  0  0  0
   20.1222   50.3002   10.1707 C   0  0  0  0  0  0
   20.4828   49.4883   14.6951 C   0  0  0  0  0  0
   18.9299   48.2728   13.2060 C   0  0  0  0  0  0
   19.2586   48.5801   14.6637 C   0  0  0  0  0  0
   21.3964   52.3077   14.1805 H   0  0  0  0  0  0
   18.2196   50.3728    5.8600 H   0  0  0  0  0  0
   17.6457   48.8134    6.2101 H   0  0  0  0  0  0
   25.1565   55.0084   12.6809 H   0  0  0  0  0  0
   25.5961   53.7358   13.8199 H   0  0  0  0  0  0
   22.6082   49.2687   11.3663 H   0  0  0  0  0  0
   19.5564   46.9229    8.3746 H   0  0  0  0  0  0
   20.2500   51.1505    8.1993 H   0  0  0  0  0  0
   24.5230   50.6714   10.6585 H   0  0  0  0  0  0
   19.5052   47.0538   10.8142 H   0  0  0  0  0  0
   20.2599   51.2535   10.6597 H   0  0  0  0  0  0
   21.3230   48.9599   15.1273 H   0  0  0  0  0  0
   20.3178   50.3757   15.3037 H   0  0  0  0  0  0
   17.8944   48.5299   12.9788 H   0  0  0  0  0  0
   19.0693   47.2105   13.0036 H   0  0  0  0  0  0
   19.4316   47.6649   15.2324 H   0  0  0  0  0  0
   18.4104   49.0729   15.1416 H   0  0  0  0  0  0
  1  5  1  0  0  0
  1  9  2  0  0  0
  1 10  2  0  0  0
  1 14  1  0  0  0
  2  3  2  0  0  0
  2  4  1  0  0  0
  2 22  1  0  0  0
  3  8  1  0  0  0
  3 23  1  0  0  0
  4  7  2  0  0  0
  4 16  1  0  0  0
  5 17  1  0  0  0
  5 18  2  0  0  0
  6  7  1  0  0  0
  6 12  1  0  0  0
  6 11  2  0  0  0
  7 25  1  0  0  0
  8 21  2  0  0  0
  8 20  1  0  0  0
 11 19  1  0  0  0
 11 13  1  0  0  0
 12 15  1  0  0  0
 13 15  1  0  0  0
 14 26  1  0  0  0
 14 27  1  0  0  0
 15 28  1  0  0  0
 15 29  1  0  0  0
 16 19  2  0  0  0
 16 30  1  0  0  0
 17 20  2  0  0  0
 17 31  1  0  0  0
 18 21  1  0  0  0
 18 32  1  0  0  0
 19 33  1  0  0  0
 20 34  1  0  0  0
 21 35  1  0  0  0
 22 24  1  0  0  0
 22 36  1  0  0  0
 22 37  1  0  0  0
 23 24  1  0  0  0
 23 38  1  0  0  0
 23 39  1  0  0  0
 24 40  1  0  0  0
 24 41  1  0  0  0
M  END
> <s_m_entry_id>
5059

> <s_m_entry_name>
dock_pv.50

> <s_m_Source_Path>
/home/csk/Desktop/cluster/DUD-E-result/pgh1

> <s_m_Source_File>
dock_pv.maegz

> <i_m_Source_File_Index>
50

> <chembl_id>
CHEMBL424063

> <chembl_pref_name>
None

> <i_lp_mmshare_version>
53161

> <r_lp_tautomer_probability>
1

> <s_lp_Force_Field>
OPLS_2005

> <r_lp_Energy>
47.288885

> <b_lp_Chiralities_Consistent>
1

> <s_lp_Variant>
CHEMBL221_lig337-1

> <s_i_glide_gridfile>
glide-grid_2oyu

> <i_i_glide_lignum>
402

> <i_i_glide_rotatable_bonds>
3

> <r_i_docking_score>
-10.0901891057422

> <r_i_glide_ligand_efficiency>
-0.420424546072591

> <r_i_glide_ligand_efficiency_sa>
-1.21271424055507

> <r_i_glide_ligand_efficiency_ln>
-2.41504526161213

> <r_i_glide_gscore>
-10.0901891057422

> <r_i_glide_lipo>
-4.74093834023055

> <r_i_glide_hbond>
-0.52620502516143

> <r_i_glide_metal>
0

> <r_i_glide_rewards>
-2.83745680370263

> <r_i_glide_evdw>
-26.3573188781738

> <r_i_glide_ecoul>
-6.1284646987915

> <r_i_glide_erotb>
0.32181394412006

> <r_i_glide_esite>
-0.0702672320402305

> <r_i_glide_emodel>
-43.1134268871686

> <r_i_glide_energy>
-32.4857835769653

> <r_i_glide_einternal>
2.17633199691772

> <i_i_glide_confnum>
2

> <i_i_glide_posenum>
210

> <r_i_glide_eff_state_penalty>
0

> <s_user_duplicate_titles>
CHEMBL221_lig337

> <i_f3d_flags>
0

> <s_m_subgroup_title>
dock_pv

> <s_m_subgroupid>
dock_pv

> <b_m_subgroup_collapsed>
1

$$$$
CHEMBL221_lig511
                    3D
 Schrodinger Suite 2021-1.
 41 43  0  0  1  0            999 V2000
   18.9230   48.1874   12.7803 N   0  0  0  0  0  0
   19.8446   48.9905   12.2131 N   0  0  0  0  0  0
   19.0789   48.2730   14.0790 C   0  0  0  0  0  0
   20.6198   49.6238   13.1679 C   0  0  0  0  0  0
   20.1230   49.1509   14.3755 C   0  0  0  0  0  0
   20.0067   49.0035    6.2136 S   0  0  0  0  0  0
   18.2049   47.4548   15.0101 C   0  0  0  0  0  0
   20.0358   49.0517    8.0016 C   0  0  0  0  0  0
   19.9085   49.0506   10.7972 C   0  0  0  0  0  0
   21.7453   50.5671   12.9226 C   0  0  0  0  0  0
   20.9230   49.9906    5.6568 O   0  0  0  0  0  0
   20.1230   47.6107    5.8157 O   0  0  0  0  0  0
   18.4086   49.4730    5.8000 N   0  0  0  0  0  0
   20.1230   50.2537    8.7151 C   0  0  0  0  0  0
   19.7748   47.8679    8.6866 C   0  0  0  0  0  0
   20.1155   50.2532   10.1121 C   0  0  0  0  0  0
   19.7230   47.8730   10.0704 C   0  0  0  0  0  0
   16.9230   47.5115   14.6539 F   0  0  0  0  0  0
   18.5738   46.1744   15.0000 F   0  0  0  0  0  0
   18.2896   47.8905   16.2654 F   0  0  0  0  0  0
   22.7286   50.2730   11.9774 C   0  0  0  0  0  0
   21.8356   51.7371   13.6774 C   0  0  0  0  0  0
   23.9062   52.3032   12.5532 C   0  0  0  0  0  0
   22.9063   52.6057   13.4889 C   0  0  0  0  0  0
   23.7957   51.1432   11.7889 C   0  0  0  0  0  0
   25.0309   53.0730   12.3388 O   0  0  0  0  0  0
   25.2373   54.2405   13.1296 C   0  0  0  0  0  0
   20.4813   49.4101   15.3614 H   0  0  0  0  0  0
   18.2639   50.4805    5.9250 H   0  0  0  0  0  0
   18.1612   49.2436    4.8342 H   0  0  0  0  0  0
   20.2271   51.1847    8.1773 H   0  0  0  0  0  0
   19.6320   46.9385    8.1569 H   0  0  0  0  0  0
   20.2186   51.1870   10.6461 H   0  0  0  0  0  0
   19.5751   46.9453   10.5891 H   0  0  0  0  0  0
   22.6749   49.3625   11.4000 H   0  0  0  0  0  0
   21.0816   51.9746   14.4142 H   0  0  0  0  0  0
   22.9537   53.4970   14.0964 H   0  0  0  0  0  0
   24.5576   50.9050   11.0611 H   0  0  0  0  0  0
   26.1661   54.7233   12.8272 H   0  0  0  0  0  0
   25.3230   53.9957   14.1886 H   0  0  0  0  0  0
   24.4356   54.9679   13.0000 H   0  0  0  0  0  0
  1  2  1  0  0  0
  1  3  2  0  0  0
  2  4  1  0  0  0
  2  9  1  0  0  0
  3  5  1  0  0  0
  3  7  1  0  0  0
  4 10  1  0  0  0
  4  5  2  0  0  0
  5 28  1  0  0  0
  6  8  1  0  0  0
  6 11  2  0  0  0
  6 12  2  0  0  0
  6 13  1  0  0  0
  7 18  1  0  0  0
  7 19  1  0  0  0
  7 20  1  0  0  0
  8 15  2  0  0  0
  8 14  1  0  0  0
  9 16  1  0  0  0
  9 17  2  0  0  0
 10 21  2  0  0  0
 10 22  1  0  0  0
 13 29  1  0  0  0
 13 30  1  0  0  0
 14 16  2  0  0  0
 14 31  1  0  0  0
 15 17  1  0  0  0
 15 32  1  0  0  0
 16 33  1  0  0  0
 17 34  1  0  0  0
 21 25  1  0  0  0
 21 35  1  0  0  0
 22 24  2  0  0  0
 22 36  1  0  0  0
 23 24  1  0  0  0
 23 26  1  0  0  0
 23 25  2  0  0  0
 24 37  1  0  0  0
 25 38  1  0  0  0
 26 27  1  0  0  0
 27 39  1  0  0  0
 27 40  1  0  0  0
 27 41  1  0  0  0
M  END
> <s_m_entry_id>
5060

> <s_m_entry_name>
dock_pv.51

> <s_m_Source_Path>
/home/csk/Desktop/cluster/DUD-E-result/pgh1

> <s_m_Source_File>
dock_pv.maegz

> <i_m_Source_File_Index>
51

> <chembl_id>
CHEMBL29839

> <chembl_pref_name>
None

> <i_lp_mmshare_version>
53161

> <r_lp_tautomer_probability>
1

> <s_lp_Force_Field>
OPLS_2005

> <r_lp_Energy>
27.659554

> <b_lp_Chiralities_Consistent>
1

> <s_lp_Variant>
CHEMBL221_lig511-1

> <s_i_glide_gridfile>
glide-grid_2oyu

> <i_i_glide_lignum>
649

> <i_i_glide_rotatable_bonds>
5

> <r_i_docking_score>
-10.0791296048593

> <r_i_glide_ligand_efficiency>
-0.37330109647627

> <r_i_glide_ligand_efficiency_sa>
-1.11990328819847

> <r_i_glide_ligand_efficiency_ln>
-2.34625520457301

> <r_i_glide_gscore>
-10.0791296048593

> <r_i_glide_lipo>
-4.54059354958418

> <r_i_glide_hbond>
-0.295871284699452

> <r_i_glide_metal>
0

> <r_i_glide_rewards>
-2.77904951413069

> <r_i_glide_evdw>
-31.2674865722656

> <r_i_glide_ecoul>
-7.1461296081543

> <r_i_glide_erotb>
0.247922741999276

> <r_i_glide_esite>
-0.0762442286078115

> <r_i_glide_emodel>
-54.7857462859636

> <r_i_glide_energy>
-38.4136161804199

> <r_i_glide_einternal>
3.96371483802795

> <i_i_glide_confnum>
6

> <i_i_glide_posenum>
117

> <r_i_glide_eff_state_penalty>
0

> <s_user_duplicate_titles>
CHEMBL221_lig511

> <i_f3d_flags>
0

> <s_m_subgroup_title>
dock_pv

> <s_m_subgroupid>
dock_pv

> <b_m_subgroup_collapsed>
1

$$$$
CHEMBL221_lig348
                    3D
 Schrodinger Suite 2021-1.
 34 36  0  0  1  0            999 V2000
   19.9908   48.9084    6.3227 S   0  0  0  0  0  0
   20.7986   49.7575   13.3202 C   0  0  0  0  0  0
   19.9302   49.0743   12.4271 C   0  0  0  0  0  0
   19.2571   48.2730   14.8423 S   0  0  0  0  0  0
   20.0062   49.0265    8.1158 C   0  0  0  0  0  0
   20.5230   49.4315   14.6506 C   0  0  0  0  0  0
   19.0286   48.2690   13.1325 C   0  0  0  0  0  0
   19.9359   49.1271   10.9257 C   0  0  0  0  0  0
   21.9171   50.6773   12.9672 C   0  0  0  0  0  0
   20.9230   49.8730    5.7494 O   0  0  0  0  0  0
   20.1230   47.4900    6.0242 O   0  0  0  0  0  0
   18.4081   49.3695    5.8000 N   0  0  0  0  0  0
   19.7422   47.8730    8.8568 C   0  0  0  0  0  0
   20.1230   50.2498    8.7867 C   0  0  0  0  0  0
   19.7230   47.9306   10.2443 C   0  0  0  0  0  0
   20.1230   50.2977   10.1846 C   0  0  0  0  0  0
   22.8281   50.3212   11.9693 C   0  0  0  0  0  0
   22.0889   51.8730   13.6731 C   0  0  0  0  0  0
   24.0964   52.3142   12.4223 C   0  0  0  0  0  0
   23.1792   52.6924   13.3984 C   0  0  0  0  0  0
   23.9128   51.1449   11.6916 C   0  0  0  0  0  0
   25.1897   53.0730   12.2000 F   0  0  0  0  0  0
   21.0365   49.7964   15.5278 H   0  0  0  0  0  0
   18.2495   47.6479   12.7141 H   0  0  0  0  0  0
   18.2197   50.3757    5.8577 H   0  0  0  0  0  0
   17.6457   48.8164    6.2079 H   0  0  0  0  0  0
   19.5818   46.9240    8.3674 H   0  0  0  0  0  0
   20.2378   51.1583    8.2134 H   0  0  0  0  0  0
   19.5646   47.0299   10.8060 H   0  0  0  0  0  0
   20.2499   51.2462   10.6859 H   0  0  0  0  0  0
   22.7096   49.3970   11.4235 H   0  0  0  0  0  0
   21.3901   52.1630   14.4445 H   0  0  0  0  0  0
   23.3239   53.6083   13.9526 H   0  0  0  0  0  0
   24.6258   50.8664   10.9315 H   0  0  0  0  0  0
  1  5  1  0  0  0
  1 10  2  0  0  0
  1 11  2  0  0  0
  1 12  1  0  0  0
  2  3  1  0  0  0
  2  6  2  0  0  0
  2  9  1  0  0  0
  3  8  1  0  0  0
  3  7  2  0  0  0
  4  7  1  0  0  0
  4  6  1  0  0  0
  5 13  1  0  0  0
  5 14  2  0  0  0
  6 23  1  0  0  0
  7 24  1  0  0  0
  8 16  2  0  0  0
  8 15  1  0  0  0
  9 17  2  0  0  0
  9 18  1  0  0  0
 12 25  1  0  0  0
 12 26  1  0  0  0
 13 15  2  0  0  0
 13 27  1  0  0  0
 14 16  1  0  0  0
 14 28  1  0  0  0
 15 29  1  0  0  0
 16 30  1  0  0  0
 17 21  1  0  0  0
 17 31  1  0  0  0
 18 20  2  0  0  0
 18 32  1  0  0  0
 19 20  1  0  0  0
 19 22  1  0  0  0
 19 21  2  0  0  0
 20 33  1  0  0  0
 21 34  1  0  0  0
M  END
> <s_m_entry_id>
5061

> <s_m_entry_name>
dock_pv.52

> <s_m_Source_Path>
/home/csk/Desktop/cluster/DUD-E-result/pgh1

> <s_m_Source_File>
dock_pv.maegz

> <i_m_Source_File_Index>
52

> <chembl_id>
CHEMBL316823

> <chembl_pref_name>
None

> <i_lp_mmshare_version>
53161

> <r_lp_tautomer_probability>
1

> <s_lp_Force_Field>
OPLS_2005

> <r_lp_Energy>
22.546138

> <b_lp_Chiralities_Consistent>
1

> <s_lp_Variant>
CHEMBL221_lig348-1

> <s_i_glide_gridfile>
glide-grid_2oyu

> <i_i_glide_lignum>
414

> <i_i_glide_rotatable_bonds>
3

> <r_i_docking_score>
-10.0513942854984

> <r_i_glide_ligand_efficiency>
-0.456881558431745

> <r_i_glide_ligand_efficiency_sa>
-1.28020009485783

> <r_i_glide_ligand_efficiency_ln>
-2.45692739689056

> <r_i_glide_gscore>
-10.0513942854984

> <r_i_glide_lipo>
-4.67984891459246

> <r_i_glide_hbond>
-0.526589485683355

> <r_i_glide_metal>
0

> <r_i_glide_rewards>
-2.75812908136915

> <r_i_glide_evdw>
-25.2733364105225

> <r_i_glide_ecoul>
-7.28009128570557

> <r_i_glide_erotb>
0.339106477417702

> <r_i_glide_esite>
-0.0702527678891752

> <r_i_glide_emodel>
-43.4887787257554

> <r_i_glide_energy>
-32.553427696228

> <r_i_glide_einternal>
1.05027186870575

> <i_i_glide_confnum>
1

> <i_i_glide_posenum>
274

> <r_i_glide_eff_state_penalty>
0

> <s_user_duplicate_titles>
CHEMBL221_lig348

> <i_f3d_flags>
0

> <s_m_subgroup_title>
dock_pv

> <s_m_subgroupid>
dock_pv

> <b_m_subgroup_collapsed>
1

$$$$
CHEMBL221_lig532
                    3D
 Schrodinger Suite 2021-1.
 34 36  0  0  1  0            999 V2000
   20.9230   49.8689   13.0516 C   0  0  0  0  0  0
   20.0303   49.2195   12.2135 N   0  0  0  0  0  0
   19.1398   48.4828   12.8975 N   0  0  0  0  0  0
   19.4242   48.6166   14.1673 C   0  0  0  0  0  0
   20.5230   49.4730   14.3236 C   0  0  0  0  0  0
   19.9957   48.9093    6.2439 S   0  0  0  0  0  0
   22.0478   50.7254   12.6595 C   0  0  0  0  0  0
   18.6115   47.8673   15.2086 C   0  0  0  0  0  0
   22.5166   52.0746   13.6553 S   0  0  0  0  0  0
   23.8471   52.4512   12.6095 C   0  0  0  0  0  0
   22.8944   50.6278   11.5554 C   0  0  0  0  0  0
   20.0183   49.0342    8.0212 C   0  0  0  0  0  0
   19.9674   49.1852   10.8028 C   0  0  0  0  0  0
   23.9033   51.5936   11.5250 C   0  0  0  0  0  0
   20.9220   49.8730    5.6546 O   0  0  0  0  0  0
   20.1230   47.4905    5.9488 O   0  0  0  0  0  0
   18.3921   49.3706    5.8000 N   0  0  0  0  0  0
   19.7441   47.8876    8.7724 C   0  0  0  0  0  0
   20.1230   50.2724    8.6602 C   0  0  0  0  0  0
   19.7230   47.9683   10.1570 C   0  0  0  0  0  0
   20.1230   50.3497   10.0502 C   0  0  0  0  0  0
   17.4917   47.3424   14.7063 F   0  0  0  0  0  0
   19.3229   46.8679   15.7264 F   0  0  0  0  0  0
   18.2509   48.6730   16.2000 F   0  0  0  0  0  0
   25.0307   53.8815   13.0259 Br  0  0  0  0  0  0
   20.9807   49.7610   15.2591 H   0  0  0  0  0  0
   22.7906   49.8730   10.7928 H   0  0  0  0  0  0
   24.6540   51.6537   10.7497 H   0  0  0  0  0  0
   18.2132   50.3795    5.7601 H   0  0  0  0  0  0
   17.6367   48.8443    6.2550 H   0  0  0  0  0  0
   19.5758   46.9341    8.2944 H   0  0  0  0  0  0
   20.2249   51.1721    8.0702 H   0  0  0  0  0  0
   19.5539   47.0730   10.7325 H   0  0  0  0  0  0
   20.2464   51.3099   10.5312 H   0  0  0  0  0  0
  1  2  1  0  0  0
  1  5  2  0  0  0
  1  7  1  0  0  0
  2  3  1  0  0  0
  2 13  1  0  0  0
  3  4  2  0  0  0
  4  5  1  0  0  0
  4  8  1  0  0  0
  5 26  1  0  0  0
  6 12  1  0  0  0
  6 15  2  0  0  0
  6 16  2  0  0  0
  6 17  1  0  0  0
  7  9  1  0  0  0
  7 11  2  0  0  0
  8 22  1  0  0  0
  8 23  1  0  0  0
  8 24  1  0  0  0
  9 10  1  0  0  0
 10 25  1  0  0  0
 10 14  2  0  0  0
 11 14  1  0  0  0
 11 27  1  0  0  0
 12 19  1  0  0  0
 12 18  2  0  0  0
 13 20  2  0  0  0
 13 21  1  0  0  0
 14 28  1  0  0  0
 17 29  1  0  0  0
 17 30  1  0  0  0
 18 20  1  0  0  0
 18 31  1  0  0  0
 19 21  2  0  0  0
 19 32  1  0  0  0
 20 33  1  0  0  0
 21 34  1  0  0  0
M  END
> <s_m_entry_id>
5062

> <s_m_entry_name>
dock_pv.53

> <s_m_Source_Path>
/home/csk/Desktop/cluster/DUD-E-result/pgh1

> <s_m_Source_File>
dock_pv.maegz

> <i_m_Source_File_Index>
53

> <chembl_id>
CHEMBL29472

> <chembl_pref_name>
None

> <i_lp_mmshare_version>
53161

> <r_lp_tautomer_probability>
1

> <s_lp_Force_Field>
OPLS_2005

> <r_lp_Energy>
19.673883

> <b_lp_Chiralities_Consistent>
1

> <s_lp_Variant>
CHEMBL221_lig532-1

> <s_i_glide_gridfile>
glide-grid_2oyu

> <i_i_glide_lignum>
670

> <i_i_glide_rotatable_bonds>
4

> <r_i_docking_score>
-10.0507834629838

> <r_i_glide_ligand_efficiency>
-0.402031338519351

> <r_i_glide_ligand_efficiency_sa>
-1.17554676388673

> <r_i_glide_ligand_efficiency_ln>
-2.38233687840238

> <r_i_glide_gscore>
-10.0507834629838

> <r_i_glide_lipo>
-4.3912514882895

> <r_i_glide_hbond>
-0.517261913541222

> <r_i_glide_metal>
0

> <r_i_glide_rewards>
-2.64939436033216

> <r_i_glide_evdw>
-31.2001609802246

> <r_i_glide_ecoul>
-6.99541664123535

> <r_i_glide_erotb>
0.196175358707129

> <r_i_glide_esite>
-0.0797305143314924

> <r_i_glide_emodel>
-56.4844004709464

> <r_i_glide_energy>
-38.19557762146

> <r_i_glide_einternal>
0.490882188081741

> <i_i_glide_confnum>
6

> <i_i_glide_posenum>
170

> <r_i_glide_eff_state_penalty>
0

> <s_user_duplicate_titles>
CHEMBL221_lig532

> <i_f3d_flags>
0

> <s_m_subgroup_title>
dock_pv

> <s_m_subgroupid>
dock_pv

> <b_m_subgroup_collapsed>
1

$$$$
CHEMBL221_lig334
                    3D
 Schrodinger Suite 2021-1.
 46 48  0  0  1  0            999 V2000
   20.0365   48.9243    6.4608 S   0  0  0  0  0  0
   20.4646   49.6784   13.4425 C   0  0  0  0  0  0
   19.6967   49.0197   12.5479 C   0  0  0  0  0  0
   21.6118   50.5256   13.1182 C   0  0  0  0  0  0
   22.7636   52.6497   13.2905 C   0  0  0  0  0  0
   23.8224   52.1506   12.5009 C   0  0  0  0  0  0
   20.1185   49.0468    8.2654 C   0  0  0  0  0  0
   21.7003   51.8181   13.6324 C   0  0  0  0  0  0
   19.8033   49.0918   11.0668 C   0  0  0  0  0  0
   20.9230   49.8730    5.8017 O   0  0  0  0  0  0
   20.1230   47.5034    6.1490 O   0  0  0  0  0  0
   23.6878   50.8610   11.9572 C   0  0  0  0  0  0
   24.9638   52.9266   12.1957 N   0  0  0  0  0  0
   18.4534   49.4313    6.0255 N   0  0  0  0  0  0
   22.5986   50.0644   12.2534 C   0  0  0  0  0  0
   19.8699   47.8728    8.9791 C   0  0  0  0  0  0
   20.1230   50.2625    8.9585 C   0  0  0  0  0  0
   19.7229   47.9014   10.3572 C   0  0  0  0  0  0
   20.0169   50.2817   10.3541 C   0  0  0  0  0  0
   22.6545   54.3040   13.7996 Cl  0  0  0  0  0  0
   20.1583   49.2651   14.8671 C   0  0  0  0  0  0
   18.6778   48.1333   13.2505 C   0  0  0  0  0  0
   18.8623   48.4706   14.7306 C   0  0  0  0  0  0
   25.7226   53.4739   13.3177 C   0  0  0  0  0  0
   25.7426   52.5659   11.0009 C   0  0  0  0  0  0
   20.9120   52.2050   14.2611 H   0  0  0  0  0  0
   24.4304   50.4170   11.3162 H   0  0  0  0  0  0
   18.3013   50.4419    6.1155 H   0  0  0  0  0  0
   17.6817   48.8836    6.4263 H   0  0  0  0  0  0
   22.5418   49.0727   11.8268 H   0  0  0  0  0  0
   19.7866   46.9224    8.4739 H   0  0  0  0  0  0
   20.2184   51.1820    8.4022 H   0  0  0  0  0  0
   19.5798   46.9801   10.8880 H   0  0  0  0  0  0
   20.0583   51.2273   10.8743 H   0  0  0  0  0  0
   20.9380   48.5983   15.2202 H   0  0  0  0  0  0
   20.1230   50.0875   15.5816 H   0  0  0  0  0  0
   17.6513   48.2964   12.9199 H   0  0  0  0  0  0
   18.9181   47.0838   13.0768 H   0  0  0  0  0  0
   18.8640   47.5769   15.3565 H   0  0  0  0  0  0
   18.0207   49.0729   15.0750 H   0  0  0  0  0  0
   25.1117   53.7405   14.1754 H   0  0  0  0  0  0
   26.2364   54.3846   13.0080 H   0  0  0  0  0  0
   26.4625   52.7584   13.6727 H   0  0  0  0  0  0
   25.1395   52.6729   10.0991 H   0  0  0  0  0  0
   26.6812   53.0998   10.9025 H   0  0  0  0  0  0
   26.0493   51.5311   11.0000 H   0  0  0  0  0  0
  1  7  1  0  0  0
  1 10  2  0  0  0
  1 11  2  0  0  0
  1 14  1  0  0  0
  2  3  2  0  0  0
  2  4  1  0  0  0
  2 21  1  0  0  0
  3  9  1  0  0  0
  3 22  1  0  0  0
  4  8  2  0  0  0
  4 15  1  0  0  0
  5  8  1  0  0  0
  5 20  1  0  0  0
  5  6  2  0  0  0
  6 12  1  0  0  0
  6 13  1  0  0  0
  7 16  1  0  0  0
  7 17  2  0  0  0
  8 26  1  0  0  0
  9 19  2  0  0  0
  9 18  1  0  0  0
 12 15  2  0  0  0
 12 27  1  0  0  0
 13 24  1  0  0  0
 13 25  1  0  0  0
 14 28  1  0  0  0
 14 29  1  0  0  0
 15 30  1  0  0  0
 16 18  2  0  0  0
 16 31  1  0  0  0
 17 19  1  0  0  0
 17 32  1  0  0  0
 18 33  1  0  0  0
 19 34  1  0  0  0
 21 23  1  0  0  0
 21 35  1  0  0  0
 21 36  1  0  0  0
 22 23  1  0  0  0
 22 37  1  0  0  0
 22 38  1  0  0  0
 23 39  1  0  0  0
 23 40  1  0  0  0
 24 41  1  0  0  0
 24 42  1  0  0  0
 24 43  1  0  0  0
 25 44  1  0  0  0
 25 45  1  0  0  0
 25 46  1  0  0  0
M  END
> <s_m_entry_id>
5063

> <s_m_entry_name>
dock_pv.54

> <s_m_Source_Path>
/home/csk/Desktop/cluster/DUD-E-result/pgh1

> <s_m_Source_File>
dock_pv.maegz

> <i_m_Source_File_Index>
54

> <chembl_id>
CHEMBL111356

> <chembl_pref_name>
None

> <i_lp_mmshare_version>
53161

> <r_lp_tautomer_probability>
1

> <s_lp_Force_Field>
OPLS_2005

> <r_lp_Energy>
43.87594

> <b_lp_Chiralities_Consistent>
1

> <s_lp_Variant>
CHEMBL221_lig334-1

> <s_i_glide_gridfile>
glide-grid_2oyu

> <i_i_glide_lignum>
399

> <i_i_glide_rotatable_bonds>
4

> <r_i_docking_score>
-10.0376332807099

> <r_i_glide_ligand_efficiency>
-0.401505331228394

> <r_i_glide_ligand_efficiency_sa>
-1.17400870923919

> <r_i_glide_ligand_efficiency_ln>
-2.3792198911243

> <r_i_glide_gscore>
-10.0376332807099

> <r_i_glide_lipo>
-4.99703711132685

> <r_i_glide_hbond>
-0.587947530853635

> <r_i_glide_metal>
0

> <r_i_glide_rewards>
-2.39875214603737

> <r_i_glide_evdw>
-25.6664981842041

> <r_i_glide_ecoul>
-6.48602533340454

> <r_i_glide_erotb>
0.272609308398564

> <r_i_glide_esite>
-0.0702770916696864

> <r_i_glide_emodel>
-35.2775791020108

> <r_i_glide_energy>
-32.1525235176086

> <r_i_glide_einternal>
2.95622515678406

> <i_i_glide_confnum>
11

> <i_i_glide_posenum>
336

> <r_i_glide_eff_state_penalty>
0

> <s_user_duplicate_titles>
CHEMBL221_lig334

> <i_f3d_flags>
0

> <s_m_subgroup_title>
dock_pv

> <s_m_subgroupid>
dock_pv

> <b_m_subgroup_collapsed>
1

$$$$
CHEMBL221_lig364
                    3D
 Schrodinger Suite 2021-1.
 45 48  0  0  1  0            999 V2000
   19.7679   49.0732    6.3596 S   0  0  0  0  0  0
   19.8100   48.6784   12.4008 C   0  0  0  0  0  0
   20.4994   49.3730   13.3455 C   0  0  0  0  0  0
   18.9806   47.9779   14.4993 C   0  0  0  0  0  0
   24.9480   53.0368   12.7319 C   0  0  0  0  0  0
   20.0926   48.9771   14.7577 C   0  0  0  0  0  0
   18.7362   47.8017   13.0187 C   0  0  0  0  0  0
   19.8809   48.8959    8.1258 C   0  0  0  0  0  0
   21.6145   50.3214   13.1443 C   0  0  0  0  0  0
   19.8900   48.7855   10.9245 C   0  0  0  0  0  0
   18.8217   46.7670   15.3963 C   0  0  0  0  0  0
   17.8239   47.8737   15.4805 C   0  0  0  0  0  0
   20.5235   50.2734    6.1240 O   0  0  0  0  0  0
   20.1224   47.8260    5.7031 O   0  0  0  0  0  0
   23.7627   52.0867   12.8619 C   0  0  0  0  0  0
   18.1670   49.4723    5.8556 N   0  0  0  0  0  0
   20.1230   50.0509    8.8926 C   0  0  0  0  0  0
   19.7064   47.6737    8.7564 C   0  0  0  0  0  0
   22.6113   50.0695   12.1983 C   0  0  0  0  0  0
   21.6869   51.4790   13.9250 C   0  0  0  0  0  0
   20.1226   49.9986   10.2778 C   0  0  0  0  0  0
   19.7230   47.6343   10.1472 C   0  0  0  0  0  0
   23.6787   50.9450   12.0550 C   0  0  0  0  0  0
   22.7515   52.3586   13.7818 C   0  0  0  0  0  0
   25.7232   53.0720   13.8001 F   0  0  0  0  0  0
   24.5228   54.2719   12.6004 F   0  0  0  0  0  0
   25.7008   52.6841   11.6882 F   0  0  0  0  0  0
   20.9235   48.5374   15.3085 H   0  0  0  0  0  0
   19.7269   49.8298   15.3280 H   0  0  0  0  0  0
   18.8388   46.7570   12.7231 H   0  0  0  0  0  0
   17.7390   48.1425   12.7423 H   0  0  0  0  0  0
   18.5087   45.8172   14.9598 H   0  0  0  0  0  0
   19.5382   46.6217   16.1998 H   0  0  0  0  0  0
   17.8160   48.5169   16.3598 H   0  0  0  0  0  0
   16.8201   47.7199   15.0850 H   0  0  0  0  0  0
   17.8996   50.3720    6.2700 H   0  0  0  0  0  0
   18.1070   49.6337    4.8454 H   0  0  0  0  0  0
   20.2417   51.0184    8.4220 H   0  0  0  0  0  0
   19.5640   46.7689    8.1839 H   0  0  0  0  0  0
   22.5726   49.1775   11.5902 H   0  0  0  0  0  0
   20.9209   51.7052   14.6510 H   0  0  0  0  0  0
   20.2548   50.9104   10.8405 H   0  0  0  0  0  0
   19.7000   46.6768   10.6377 H   0  0  0  0  0  0
   24.4448   50.7159   11.3279 H   0  0  0  0  0  0
   22.7911   53.2485   14.3928 H   0  0  0  0  0  0
  1  8  1  0  0  0
  1 13  2  0  0  0
  1 14  2  0  0  0
  1 16  1  0  0  0
  2 10  1  0  0  0
  2  3  2  0  0  0
  2  7  1  0  0  0
  3  6  1  0  0  0
  3  9  1  0  0  0
  4  7  1  0  0  0
  4 11  1  0  0  0
  4 12  1  0  0  0
  4  6  1  0  0  0
  5 15  1  0  0  0
  5 25  1  0  0  0
  5 26  1  0  0  0
  5 27  1  0  0  0
  6 28  1  0  0  0
  6 29  1  0  0  0
  7 30  1  0  0  0
  7 31  1  0  0  0
  8 17  2  0  0  0
  8 18  1  0  0  0
  9 19  2  0  0  0
  9 20  1  0  0  0
 10 22  1  0  0  0
 10 21  2  0  0  0
 11 12  1  0  0  0
 11 32  1  0  0  0
 11 33  1  0  0  0
 12 34  1  0  0  0
 12 35  1  0  0  0
 15 24  1  0  0  0
 15 23  2  0  0  0
 16 36  1  0  0  0
 16 37  1  0  0  0
 17 21  1  0  0  0
 17 38  1  0  0  0
 18 22  2  0  0  0
 18 39  1  0  0  0
 19 23  1  0  0  0
 19 40  1  0  0  0
 20 24  2  0  0  0
 20 41  1  0  0  0
 21 42  1  0  0  0
 22 43  1  0  0  0
 23 44  1  0  0  0
 24 45  1  0  0  0
M  END
> <s_m_entry_id>
5064

> <s_m_entry_name>
dock_pv.55

> <s_m_Source_Path>
/home/csk/Desktop/cluster/DUD-E-result/pgh1

> <s_m_Source_File>
dock_pv.maegz

> <i_m_Source_File_Index>
55

> <chembl_id>
CHEMBL330314

> <chembl_pref_name>
None

> <i_lp_mmshare_version>
53161

> <r_lp_tautomer_probability>
1

> <s_lp_Force_Field>
OPLS_2005

> <r_lp_Energy>
45.840487

> <b_lp_Chiralities_Consistent>
1

> <s_lp_Variant>
CHEMBL221_lig364-1

> <s_i_glide_gridfile>
glide-grid_2oyu

> <i_i_glide_lignum>
430

> <i_i_glide_rotatable_bonds>
4

> <r_i_docking_score>
-10.030116254844

> <r_i_glide_ligand_efficiency>
-0.371485787216446

> <r_i_glide_ligand_efficiency_sa>
-1.11445736042498

> <r_i_glide_ligand_efficiency_ln>
-2.33484570473769

> <r_i_glide_gscore>
-10.030116254844

> <r_i_glide_lipo>
-5.27851577247073

> <r_i_glide_hbond>
-0.478922816842721

> <r_i_glide_metal>
0

> <r_i_glide_rewards>
-2.47826506108513

> <r_i_glide_evdw>
-19.9556369781494

> <r_i_glide_ecoul>
-6.50802135467529

> <r_i_glide_erotb>
0.252415312211897

> <r_i_glide_esite>
-0.0728428645485821

> <r_i_glide_emodel>
-41.3409347366612

> <r_i_glide_energy>
-26.4636583328247

> <r_i_glide_einternal>
0.33160799741745

> <i_i_glide_confnum>
10

> <i_i_glide_posenum>
351

> <r_i_glide_eff_state_penalty>
0

> <s_user_duplicate_titles>
CHEMBL221_lig364,145040

> <i_f3d_flags>
0

> <s_m_subgroup_title>
dock_pv

> <s_m_subgroupid>
dock_pv

> <b_m_subgroup_collapsed>
1

$$$$
CHEMBL221_lig351
                    3D
 Schrodinger Suite 2021-1.
 46 49  0  0  1  0            999 V2000
   20.0032   49.0065    6.2226 S   0  0  0  0  0  0
   20.4867   49.5470   13.2513 C   0  0  0  0  0  0
   19.7591   48.9081   12.2962 C   0  0  0  0  0  0
   18.9152   48.1848   14.3899 C   0  0  0  0  0  0
   21.6198   50.4771   13.0419 C   0  0  0  0  0  0
   20.1182   49.0713   14.6523 C   0  0  0  0  0  0
   18.7083   47.9853   12.9049 C   0  0  0  0  0  0
   20.0402   49.0628    8.0127 C   0  0  0  0  0  0
   22.5335   50.3016   11.9978 C   0  0  0  0  0  0
   19.8531   49.0396   10.8184 C   0  0  0  0  0  0
   18.5700   47.0569   15.3494 C   0  0  0  0  0  0
   17.7039   48.2733   15.3103 C   0  0  0  0  0  0
   23.5415   51.2321   11.7678 C   0  0  0  0  0  0
   20.9230   49.9884    5.6624 O   0  0  0  0  0  0
   20.1230   47.6075    5.8456 O   0  0  0  0  0  0
   18.3988   49.4730    5.8000 N   0  0  0  0  0  0
   23.7106   52.3296   12.6123 C   0  0  0  0  0  0
   21.7648   51.5961   13.8695 C   0  0  0  0  0  0
   20.1230   50.2583    8.7384 C   0  0  0  0  0  0
   19.7947   47.8730    8.6905 C   0  0  0  0  0  0
   20.0709   50.2450   10.1374 C   0  0  0  0  0  0
   19.7230   47.8730   10.0711 C   0  0  0  0  0  0
   22.7997   52.5077   13.6633 C   0  0  0  0  0  0
   24.3447   51.0739   10.6974 F   0  0  0  0  0  0
   24.7752   53.1686   12.3474 O   0  0  0  0  0  0
   25.0340   54.2731   13.2071 C   0  0  0  0  0  0
   20.9230   48.4853   15.0855 H   0  0  0  0  0  0
   19.8952   49.8730   15.3496 H   0  0  0  0  0  0
   18.8856   46.9436   12.6385 H   0  0  0  0  0  0
   17.6959   48.2508   12.6000 H   0  0  0  0  0  0
   22.4571   49.4525   11.3355 H   0  0  0  0  0  0
   18.1775   46.1222   14.9470 H   0  0  0  0  0  0
   19.2268   46.8900   16.2000 H   0  0  0  0  0  0
   17.7288   48.9691   16.1498 H   0  0  0  0  0  0
   16.7073   48.2013   14.8722 H   0  0  0  0  0  0
   18.2009   50.4712    5.9265 H   0  0  0  0  0  0
   17.6609   48.8831    6.2000 H   0  0  0  0  0  0
   21.0681   51.7774   14.6750 H   0  0  0  0  0  0
   20.2322   51.1925    8.2065 H   0  0  0  0  0  0
   19.6790   46.9398    8.1610 H   0  0  0  0  0  0
   20.1525   51.1746   10.6817 H   0  0  0  0  0  0
   19.6037   46.9301   10.5673 H   0  0  0  0  0  0
   22.8757   53.3568   14.3233 H   0  0  0  0  0  0
   25.8662   54.8523   12.8068 H   0  0  0  0  0  0
   25.3230   53.9330   14.2000 H   0  0  0  0  0  0
   24.1780   54.9440   13.2908 H   0  0  0  0  0  0
  1  8  1  0  0  0
  1 14  2  0  0  0
  1 15  2  0  0  0
  1 16  1  0  0  0
  2  3  2  0  0  0
  2  5  1  0  0  0
  2  6  1  0  0  0
  3 10  1  0  0  0
  3  7  1  0  0  0
  4  7  1  0  0  0
  4 11  1  0  0  0
  4 12  1  0  0  0
  4  6  1  0  0  0
  5  9  1  0  0  0
  5 18  2  0  0  0
  6 27  1  0  0  0
  6 28  1  0  0  0
  7 29  1  0  0  0
  7 30  1  0  0  0
  8 19  1  0  0  0
  8 20  2  0  0  0
  9 13  2  0  0  0
  9 31  1  0  0  0
 10 22  2  0  0  0
 10 21  1  0  0  0
 11 12  1  0  0  0
 11 32  1  0  0  0
 11 33  1  0  0  0
 12 34  1  0  0  0
 12 35  1  0  0  0
 13 24  1  0  0  0
 13 17  1  0  0  0
 16 36  1  0  0  0
 16 37  1  0  0  0
 17 23  2  0  0  0
 17 25  1  0  0  0
 18 23  1  0  0  0
 18 38  1  0  0  0
 19 21  2  0  0  0
 19 39  1  0  0  0
 20 22  1  0  0  0
 20 40  1  0  0  0
 21 41  1  0  0  0
 22 42  1  0  0  0
 23 43  1  0  0  0
 25 26  1  0  0  0
 26 44  1  0  0  0
 26 45  1  0  0  0
 26 46  1  0  0  0
M  END
> <s_m_entry_id>
5065

> <s_m_entry_name>
dock_pv.56

> <s_m_Source_Path>
/home/csk/Desktop/cluster/DUD-E-result/pgh1

> <s_m_Source_File>
dock_pv.maegz

> <i_m_Source_File_Index>
56

> <chembl_id>
CHEMBL88532

> <chembl_pref_name>
None

> <i_lp_mmshare_version>
53161

> <r_lp_tautomer_probability>
1

> <s_lp_Force_Field>
OPLS_2005

> <r_lp_Energy>
47.609222

> <b_lp_Chiralities_Consistent>
1

> <s_lp_Variant>
CHEMBL221_lig351-1

> <s_i_glide_gridfile>
glide-grid_2oyu

> <i_i_glide_lignum>
417

> <i_i_glide_rotatable_bonds>
4

> <r_i_docking_score>
-10.0270069675285

> <r_i_glide_ligand_efficiency>
-0.385654114135713

> <r_i_glide_ligand_efficiency_sa>
-1.14249879565139

> <r_i_glide_ligand_efficiency_ln>
-2.35480968503067

> <r_i_glide_gscore>
-10.0270069675285

> <r_i_glide_lipo>
-5.27655590143685

> <r_i_glide_hbond>
-0.582576342019068

> <r_i_glide_metal>
0

> <r_i_glide_rewards>
-1.99124007864933

> <r_i_glide_evdw>
-27.5463542938232

> <r_i_glide_ecoul>
-6.67456436157227

> <r_i_glide_erotb>
0.27714428220539

> <r_i_glide_esite>
-0.0752765587016771

> <r_i_glide_emodel>
-42.5477476566594

> <r_i_glide_energy>
-34.2209186553955

> <r_i_glide_einternal>
1.52272748947144

> <i_i_glide_confnum>
4

> <i_i_glide_posenum>
310

> <r_i_glide_eff_state_penalty>
0

> <s_user_duplicate_titles>
CHEMBL221_lig351,144573

> <i_f3d_flags>
0

> <s_m_subgroup_title>
dock_pv

> <s_m_subgroupid>
dock_pv

> <b_m_subgroup_collapsed>
1

$$$$
CHEMBL221_lig538
                    3D
 Schrodinger Suite 2021-1.
 39 41  0  0  1  0            999 V2000
   18.9212   48.1848   12.8002 N   0  0  0  0  0  0
   19.8372   48.9920   12.2317 N   0  0  0  0  0  0
   19.0791   48.2708   14.0985 C   0  0  0  0  0  0
   20.6132   49.6222   13.1859 C   0  0  0  0  0  0
   20.1230   49.1479   14.3945 C   0  0  0  0  0  0
   19.9985   48.9924    6.2312 S   0  0  0  0  0  0
   18.2069   47.4522   15.0290 C   0  0  0  0  0  0
   20.0309   49.0517    8.0199 C   0  0  0  0  0  0
   19.9018   49.0527   10.8163 C   0  0  0  0  0  0
   21.7347   50.5646   12.9393 C   0  0  0  0  0  0
   20.9230   49.9718    5.6752 O   0  0  0  0  0  0
   20.1230   47.5919    5.8609 O   0  0  0  0  0  0
   18.3993   49.4730    5.8000 N   0  0  0  0  0  0
   20.1230   50.2540    8.7324 C   0  0  0  0  0  0
   19.7729   47.8681    8.7092 C   0  0  0  0  0  0
   20.1083   50.2550   10.1298 C   0  0  0  0  0  0
   19.7230   47.8730   10.0928 C   0  0  0  0  0  0
   18.3079   47.8730   16.2882 F   0  0  0  0  0  0
   16.9230   47.5262   14.6854 F   0  0  0  0  0  0
   18.5621   46.1681   15.0000 F   0  0  0  0  0  0
   22.7121   50.2730   11.9854 C   0  0  0  0  0  0
   21.8294   51.7253   13.7090 C   0  0  0  0  0  0
   23.8958   52.2683   12.6042 C   0  0  0  0  0  0
   25.0203   53.0750   12.5001 N   0  0  0  0  0  0
   23.7895   51.1317   11.8076 C   0  0  0  0  0  0
   22.9099   52.5825   13.5349 C   0  0  0  0  0  0
   20.4843   49.4060   15.3797 H   0  0  0  0  0  0
   18.2076   50.4727    5.9248 H   0  0  0  0  0  0
   17.6537   48.8882    6.1933 H   0  0  0  0  0  0
   20.2300   51.1842    8.1936 H   0  0  0  0  0  0
   19.6342   46.9352    8.1844 H   0  0  0  0  0  0
   20.2100   51.1894   10.6632 H   0  0  0  0  0  0
   19.5809   46.9469   10.6176 H   0  0  0  0  0  0
   22.6506   49.3682   11.4000 H   0  0  0  0  0  0
   21.0784   51.9582   14.4504 H   0  0  0  0  0  0
   25.6875   52.8883   11.7660 H   0  0  0  0  0  0
   25.0367   53.9528   13.0000 H   0  0  0  0  0  0
   24.5515   50.8894   11.0814 H   0  0  0  0  0  0
   22.9911   53.4674   14.1499 H   0  0  0  0  0  0
  1  2  1  0  0  0
  1  3  2  0  0  0
  2  4  1  0  0  0
  2  9  1  0  0  0
  3  5  1  0  0  0
  3  7  1  0  0  0
  4 10  1  0  0  0
  4  5  2  0  0  0
  5 27  1  0  0  0
  6  8  1  0  0  0
  6 11  2  0  0  0
  6 12  2  0  0  0
  6 13  1  0  0  0
  7 18  1  0  0  0
  7 19  1  0  0  0
  7 20  1  0  0  0
  8 15  2  0  0  0
  8 14  1  0  0  0
  9 16  1  0  0  0
  9 17  2  0  0  0
 10 21  2  0  0  0
 10 22  1  0  0  0
 13 28  1  0  0  0
 13 29  1  0  0  0
 14 16  2  0  0  0
 14 30  1  0  0  0
 15 17  1  0  0  0
 15 31  1  0  0  0
 16 32  1  0  0  0
 17 33  1  0  0  0
 21 25  1  0  0  0
 21 34  1  0  0  0
 22 26  2  0  0  0
 22 35  1  0  0  0
 23 26  1  0  0  0
 23 24  1  0  0  0
 23 25  2  0  0  0
 24 36  1  0  0  0
 24 37  1  0  0  0
 25 38  1  0  0  0
 26 39  1  0  0  0
M  END
> <s_m_entry_id>
5066

> <s_m_entry_name>
dock_pv.57

> <s_m_Source_Path>
/home/csk/Desktop/cluster/DUD-E-result/pgh1

> <s_m_Source_File>
dock_pv.maegz

> <i_m_Source_File_Index>
57

> <chembl_id>
CHEMBL282084

> <chembl_pref_name>
None

> <i_lp_mmshare_version>
53161

> <r_lp_tautomer_probability>
1

> <s_lp_Force_Field>
OPLS_2005

> <r_lp_Energy>
23.970325

> <b_lp_Chiralities_Consistent>
1

> <s_lp_Variant>
CHEMBL221_lig538-1

> <s_i_glide_gridfile>
glide-grid_2oyu

> <i_i_glide_lignum>
676

> <i_i_glide_rotatable_bonds>
4

> <r_i_docking_score>
-10.0252799994928

> <r_i_glide_ligand_efficiency>
-0.385587692288185

> <r_i_glide_ligand_efficiency_sa>
-1.14230202118944

> <r_i_glide_ligand_efficiency_ln>
-2.35440411225412

> <r_i_glide_gscore>
-10.0252799994928

> <r_i_glide_lipo>
-4.23694733112026

> <r_i_glide_hbond>
-0.581576990412052

> <r_i_glide_metal>
0

> <r_i_glide_rewards>
-2.86665491850256

> <r_i_glide_evdw>
-29.034351348877

> <r_i_glide_ecoul>
-7.19811296463013

> <r_i_glide_erotb>
0.265674479345444

> <r_i_glide_esite>
-0.0743407266650233

> <r_i_glide_emodel>
-50.9287219843379

> <r_i_glide_energy>
-36.2324643135071

> <r_i_glide_einternal>
0.692253112792969

> <i_i_glide_confnum>
4

> <i_i_glide_posenum>
165

> <r_i_glide_eff_state_penalty>
0

> <s_user_duplicate_titles>
CHEMBL221_lig538

> <i_f3d_flags>
0

> <s_m_subgroup_title>
dock_pv

> <s_m_subgroupid>
dock_pv

> <b_m_subgroup_collapsed>
1

$$$$
CHEMBL221_lig519
                    3D
 Schrodinger Suite 2021-1.
 45 47  0  0  1  0            999 V2000
   18.9121   48.1124   12.7470 N   0  0  0  0  0  0
   19.8334   48.9107   12.1777 N   0  0  0  0  0  0
   19.0695   48.2076   14.0461 C   0  0  0  0  0  0
   20.6326   49.5216   13.1317 C   0  0  0  0  0  0
   20.1230   49.0730   14.3408 C   0  0  0  0  0  0
   19.8601   49.1383    6.1862 S   0  0  0  0  0  0
   18.1882   47.4122   14.9866 C   0  0  0  0  0  0
   21.7839   50.4312   12.8753 C   0  0  0  0  0  0
   23.5824   51.1483   11.4290 C   0  0  0  0  0  0
   23.9703   52.1486   12.3401 C   0  0  0  0  0  0
   19.9594   49.0714    7.9629 C   0  0  0  0  0  0
   19.8759   48.9944   10.7598 C   0  0  0  0  0  0
   22.5727   50.2576   11.7426 C   0  0  0  0  0  0
   20.6632   50.2730    5.7631 O   0  0  0  0  0  0
   20.1230   47.8129    5.6567 O   0  0  0  0  0  0
   23.1783   52.3077   13.4895 C   0  0  0  0  0  0
   25.1134   52.9636   12.1271 N   0  0  0  0  0  0
   18.2111   49.4730    5.8000 N   0  0  0  0  0  0
   22.0917   51.4730   13.7506 C   0  0  0  0  0  0
   20.1230   50.2447    8.7111 C   0  0  0  0  0  0
   19.7230   47.8655    8.6140 C   0  0  0  0  0  0
   20.0698   50.2146   10.1033 C   0  0  0  0  0  0
   19.7230   47.8315   10.0020 C   0  0  0  0  0  0
   18.5477   46.1292   15.0000 F   0  0  0  0  0  0
   18.2701   47.8730   16.2338 F   0  0  0  0  0  0
   16.9106   47.4730   14.6227 F   0  0  0  0  0  0
   24.1230   51.0306   10.2000 F   0  0  0  0  0  0
   25.4146   54.0971   13.0000 C   0  0  0  0  0  0
   26.0361   52.6730   11.0154 C   0  0  0  0  0  0
   20.4833   49.3301   15.3266 H   0  0  0  0  0  0
   22.3823   49.4568   11.0464 H   0  0  0  0  0  0
   23.3923   53.0882   14.2000 H   0  0  0  0  0  0
   18.0461   50.2427    5.1343 H   0  0  0  0  0  0
   17.5803   48.6730    5.7156 H   0  0  0  0  0  0
   21.4977   51.6371   14.6380 H   0  0  0  0  0  0
   20.2351   51.1901    8.2000 H   0  0  0  0  0  0
   19.5693   46.9577    8.0511 H   0  0  0  0  0  0
   20.1623   51.1379   10.6573 H   0  0  0  0  0  0
   19.6182   46.8837   10.4976 H   0  0  0  0  0  0
   25.7230   53.7400   13.9821 H   0  0  0  0  0  0
   24.5371   54.7307   13.1357 H   0  0  0  0  0  0
   26.2117   54.7245   12.6000 H   0  0  0  0  0  0
   26.3700   51.6501   11.0000 H   0  0  0  0  0  0
   25.5314   52.8097   10.0593 H   0  0  0  0  0  0
   26.9230   53.3066   11.0000 H   0  0  0  0  0  0
  1  2  1  0  0  0
  1  3  2  0  0  0
  2  4  1  0  0  0
  2 12  1  0  0  0
  3  5  1  0  0  0
  3  7  1  0  0  0
  4  8  1  0  0  0
  4  5  2  0  0  0
  5 30  1  0  0  0
  6 11  1  0  0  0
  6 14  2  0  0  0
  6 15  2  0  0  0
  6 18  1  0  0  0
  7 24  1  0  0  0
  7 25  1  0  0  0
  7 26  1  0  0  0
  8 13  2  0  0  0
  8 19  1  0  0  0
  9 13  1  0  0  0
  9 27  1  0  0  0
  9 10  2  0  0  0
 10 16  1  0  0  0
 10 17  1  0  0  0
 11 21  2  0  0  0
 11 20  1  0  0  0
 12 22  1  0  0  0
 12 23  2  0  0  0
 13 31  1  0  0  0
 16 19  2  0  0  0
 16 32  1  0  0  0
 17 28  1  0  0  0
 17 29  1  0  0  0
 18 33  1  0  0  0
 18 34  1  0  0  0
 19 35  1  0  0  0
 20 22  2  0  0  0
 20 36  1  0  0  0
 21 23  1  0  0  0
 21 37  1  0  0  0
 22 38  1  0  0  0
 23 39  1  0  0  0
 28 40  1  0  0  0
 28 41  1  0  0  0
 28 42  1  0  0  0
 29 43  1  0  0  0
 29 44  1  0  0  0
 29 45  1  0  0  0
M  END
> <s_m_entry_id>
5067

> <s_m_entry_name>
dock_pv.58

> <s_m_Source_Path>
/home/csk/Desktop/cluster/DUD-E-result/pgh1

> <s_m_Source_File>
dock_pv.maegz

> <i_m_Source_File_Index>
58

> <chembl_id>
CHEMBL29899

> <chembl_pref_name>
None

> <i_lp_mmshare_version>
53161

> <r_lp_tautomer_probability>
1

> <s_lp_Force_Field>
OPLS_2005

> <r_lp_Energy>
28.612497

> <b_lp_Chiralities_Consistent>
1

> <s_lp_Variant>
CHEMBL221_lig519-1

> <s_i_glide_gridfile>
glide-grid_2oyu

> <i_i_glide_lignum>
657

> <i_i_glide_rotatable_bonds>
5

> <r_i_docking_score>
-10.0248617468936

> <r_i_glide_ligand_efficiency>
-0.345684887823917

> <r_i_glide_ligand_efficiency_sa>
-1.06205349605466

> <r_i_glide_ligand_efficiency_ln>
-2.29543913147845

> <r_i_glide_gscore>
-10.0248617468936

> <r_i_glide_lipo>
-4.60431371461683

> <r_i_glide_hbond>
-0.388487292692059

> <r_i_glide_metal>
0

> <r_i_glide_rewards>
-2.8500799302174

> <r_i_glide_evdw>
-23.4990463256836

> <r_i_glide_ecoul>
-7.55721044540405

> <r_i_glide_erotb>
0.216458628468589

> <r_i_glide_esite>
-0.089905554741102

> <r_i_glide_emodel>
-42.0076020362992

> <r_i_glide_energy>
-31.0562567710876

> <r_i_glide_einternal>
1.27452170848846

> <i_i_glide_confnum>
2

> <i_i_glide_posenum>
101

> <r_i_glide_eff_state_penalty>
0

> <s_user_duplicate_titles>
CHEMBL221_lig519

> <i_f3d_flags>
0

> <s_m_subgroup_title>
dock_pv

> <s_m_subgroupid>
dock_pv

> <b_m_subgroup_collapsed>
1

$$$$
CHEMBL221_lig88
                    3D
 Schrodinger Suite 2021-1.
 38 40  0  0  1  0            999 V2000
   19.9963   48.9824    6.2362 S   0  0  0  0  0  0
   19.8690   49.0255   12.2283 N   0  0  0  0  0  0
   20.6598   49.6691   13.1590 C   0  0  0  0  0  0
   19.1903   48.3830   14.2800 N   0  0  0  0  0  0
   19.0035   48.2730   12.9920 C   0  0  0  0  0  0
   20.1914   49.2327   14.3980 C   0  0  0  0  0  0
   21.7791   50.5958   12.8497 C   0  0  0  0  0  0
   20.0251   49.0479    8.0239 C   0  0  0  0  0  0
   21.7928   51.8783   13.4000 C   0  0  0  0  0  0
   19.9171   49.0730   10.8164 C   0  0  0  0  0  0
   22.8660   52.7516   13.1556 C   0  0  0  0  0  0
   20.9230   49.9586    5.6793 O   0  0  0  0  0  0
   20.1230   47.5799    5.8738 O   0  0  0  0  0  0
   18.4003   49.4721    5.8000 N   0  0  0  0  0  0
   23.9372   52.2969   12.3788 C   0  0  0  0  0  0
   22.8337   50.1818   12.0366 C   0  0  0  0  0  0
   20.1230   50.2561    8.7235 C   0  0  0  0  0  0
   19.7648   47.8705    8.7253 C   0  0  0  0  0  0
   20.1230   50.2688   10.1194 C   0  0  0  0  0  0
   19.7230   47.8874   10.1112 C   0  0  0  0  0  0
   23.9091   51.0311   11.8000 C   0  0  0  0  0  0
   20.7938   49.6904   15.9397 Cl  0  0  0  0  0  0
   25.0280   53.0730   12.2000 F   0  0  0  0  0  0
   22.9340   54.0457   13.6342 O   0  0  0  0  0  0
   21.8619   54.5547   14.4183 C   0  0  0  0  0  0
   18.2498   47.6636   12.5146 H   0  0  0  0  0  0
   20.9570   52.1824   14.0119 H   0  0  0  0  0  0
   18.2228   50.4742    5.9272 H   0  0  0  0  0  0
   17.6435   48.8971    6.1864 H   0  0  0  0  0  0
   22.8329   49.1886   11.6129 H   0  0  0  0  0  0
   20.2301   51.1812    8.1756 H   0  0  0  0  0  0
   19.6195   46.9356    8.2051 H   0  0  0  0  0  0
   20.2346   51.2073   10.6433 H   0  0  0  0  0  0
   19.5763   46.9696   10.6487 H   0  0  0  0  0  0
   24.7378   50.6982   11.1939 H   0  0  0  0  0  0
   22.1230   55.5412   14.7944 H   0  0  0  0  0  0
   20.9564   54.6537   13.8172 H   0  0  0  0  0  0
   21.6608   53.9292   15.2893 H   0  0  0  0  0  0
  1  8  1  0  0  0
  1 12  2  0  0  0
  1 13  2  0  0  0
  1 14  1  0  0  0
  2 10  1  0  0  0
  2  3  1  0  0  0
  2  5  1  0  0  0
  3  6  2  0  0  0
  3  7  1  0  0  0
  4  5  2  0  0  0
  4  6  1  0  0  0
  5 26  1  0  0  0
  6 22  1  0  0  0
  7  9  2  0  0  0
  7 16  1  0  0  0
  8 17  1  0  0  0
  8 18  2  0  0  0
  9 11  1  0  0  0
  9 27  1  0  0  0
 10 20  2  0  0  0
 10 19  1  0  0  0
 11 24  1  0  0  0
 11 15  2  0  0  0
 14 28  1  0  0  0
 14 29  1  0  0  0
 15 21  1  0  0  0
 15 23  1  0  0  0
 16 21  2  0  0  0
 16 30  1  0  0  0
 17 19  2  0  0  0
 17 31  1  0  0  0
 18 20  1  0  0  0
 18 32  1  0  0  0
 19 33  1  0  0  0
 20 34  1  0  0  0
 21 35  1  0  0  0
 24 25  1  0  0  0
 25 36  1  0  0  0
 25 37  1  0  0  0
 25 38  1  0  0  0
M  END
> <s_m_entry_id>
5068

> <s_m_entry_name>
dock_pv.59

> <s_m_Source_Path>
/home/csk/Desktop/cluster/DUD-E-result/pgh1

> <s_m_Source_File>
dock_pv.maegz

> <i_m_Source_File_Index>
59

> <chembl_id>
CHEMBL116683

> <chembl_pref_name>
None

> <i_lp_mmshare_version>
53161

> <r_lp_tautomer_probability>
1

> <s_lp_Force_Field>
OPLS_2005

> <r_lp_Energy>
26.116677

> <b_lp_Chiralities_Consistent>
1

> <s_lp_Variant>
CHEMBL221_lig88-1

> <s_i_glide_gridfile>
glide-grid_2oyu

> <i_i_glide_lignum>
105

> <i_i_glide_rotatable_bonds>
4

> <r_i_docking_score>
-10.0141223279485

> <r_i_glide_ligand_efficiency>
-0.40056489311794

> <r_i_glide_ligand_efficiency_sa>
-1.17125885152548

> <r_i_glide_ligand_efficiency_ln>
-2.37364709075346

> <r_i_glide_gscore>
-10.0141223279485

> <r_i_glide_lipo>
-4.12028601907724

> <r_i_glide_hbond>
-0.581732671504371

> <r_i_glide_metal>
0

> <r_i_glide_rewards>
-3.05388329366337

> <r_i_glide_evdw>
-28.2857322692871

> <r_i_glide_ecoul>
-6.91874742507935

> <r_i_glide_erotb>
0.266362653395938

> <r_i_glide_esite>
-0.0724842698731972

> <r_i_glide_emodel>
-51.4613121158982

> <r_i_glide_energy>
-35.2044796943665

> <r_i_glide_einternal>
0.818511128425598

> <i_i_glide_confnum>
6

> <i_i_glide_posenum>
268

> <r_i_glide_eff_state_penalty>
0

> <s_user_duplicate_titles>
CHEMBL221_lig88

> <i_f3d_flags>
0

> <s_m_subgroup_title>
dock_pv

> <s_m_subgroupid>
dock_pv

> <b_m_subgroup_collapsed>
1

$$$$
CHEMBL221_lig584
                    3D
 Schrodinger Suite 2021-1.
 40 43  0  0  1  0            999 V2000
   20.0104   49.0194    6.2606 S   0  0  0  0  0  0
   20.3904   49.4252   13.3956 C   0  0  0  0  0  0
   21.4716   50.4079   13.1081 C   0  0  0  0  0  0
   19.6166   48.8102   12.3742 C   0  0  0  0  0  0
   20.1224   49.1031   14.7442 C   0  0  0  0  0  0
   20.0513   49.0508    8.0629 C   0  0  0  0  0  0
   23.4520   51.0594   11.9461 C   0  0  0  0  0  0
   22.4938   50.0945   12.2000 C   0  0  0  0  0  0
   18.5722   47.9566   12.7701 C   0  0  0  0  0  0
   20.9227   50.0109    5.7080 O   0  0  0  0  0  0
   20.1230   47.6291    5.8515 O   0  0  0  0  0  0
   23.4515   52.2751   12.5633 C   0  0  0  0  0  0
   19.8203   48.9677   10.8868 C   0  0  0  0  0  0
   24.5229   50.9755   11.1319 O   0  0  0  0  0  0
   19.0638   48.2644   15.0856 C   0  0  0  0  0  0
   24.5175   52.9946   12.1285 O   0  0  0  0  0  0
   18.4184   49.4729    5.8001 N   0  0  0  0  0  0
   25.0040   52.2730   11.0274 C   0  0  0  0  0  0
   21.4912   51.6643   13.7600 C   0  0  0  0  0  0
   18.2814   47.6998   14.0991 C   0  0  0  0  0  0
   22.4870   52.6140   13.4989 C   0  0  0  0  0  0
   19.8110   47.8494    8.7178 C   0  0  0  0  0  0
   20.1230   50.2285    8.8227 C   0  0  0  0  0  0
   20.0340   50.1872   10.2238 C   0  0  0  0  0  0
   19.7230   47.8210   10.0979 C   0  0  0  0  0  0
   20.8767   49.6248   15.7428 F   0  0  0  0  0  0
   18.7713   47.9995   16.3743 F   0  0  0  0  0  0
   22.5284   49.1339   11.7075 H   0  0  0  0  0  0
   17.9508   47.4779   12.0292 H   0  0  0  0  0  0
   18.2645   50.4817    5.9050 H   0  0  0  0  0  0
   18.1945   49.2220    4.8336 H   0  0  0  0  0  0
   26.0934   52.2843   10.9845 H   0  0  0  0  0  0
   24.6187   52.6730   10.0927 H   0  0  0  0  0  0
   20.7270   51.9123   14.4822 H   0  0  0  0  0  0
   17.4536   47.0594   14.3642 H   0  0  0  0  0  0
   22.4980   53.5665   14.0089 H   0  0  0  0  0  0
   19.7094   46.9262    8.1685 H   0  0  0  0  0  0
   20.2309   51.1738    8.3128 H   0  0  0  0  0  0
   20.0804   51.1097   10.7837 H   0  0  0  0  0  0
   19.6241   46.8627   10.5711 H   0  0  0  0  0  0
  1  6  1  0  0  0
  1 10  2  0  0  0
  1 11  2  0  0  0
  1 17  1  0  0  0
  2  4  1  0  0  0
  2  3  1  0  0  0
  2  5  2  0  0  0
  3  8  2  0  0  0
  3 19  1  0  0  0
  4 13  1  0  0  0
  4  9  2  0  0  0
  5 26  1  0  0  0
  5 15  1  0  0  0
  6 22  1  0  0  0
  6 23  2  0  0  0
  7  8  1  0  0  0
  7 14  1  0  0  0
  7 12  2  0  0  0
  8 28  1  0  0  0
  9 20  1  0  0  0
  9 29  1  0  0  0
 12 21  1  0  0  0
 12 16  1  0  0  0
 13 24  2  0  0  0
 13 25  1  0  0  0
 14 18  1  0  0  0
 15 20  2  0  0  0
 15 27  1  0  0  0
 16 18  1  0  0  0
 17 30  1  0  0  0
 17 31  1  0  0  0
 18 32  1  0  0  0
 18 33  1  0  0  0
 19 21  2  0  0  0
 19 34  1  0  0  0
 20 35  1  0  0  0
 21 36  1  0  0  0
 22 25  2  0  0  0
 22 37  1  0  0  0
 23 24  1  0  0  0
 23 38  1  0  0  0
 24 39  1  0  0  0
 25 40  1  0  0  0
M  END
> <s_m_entry_id>
5069

> <s_m_entry_name>
dock_pv.60

> <s_m_Source_Path>
/home/csk/Desktop/cluster/DUD-E-result/pgh1

> <s_m_Source_File>
dock_pv.maegz

> <i_m_Source_File_Index>
60

> <chembl_id>
CHEMBL365883

> <chembl_pref_name>
None

> <i_lp_mmshare_version>
53161

> <r_lp_tautomer_probability>
1

> <s_lp_Force_Field>
OPLS_2005

> <r_lp_Energy>
42.607248

> <b_lp_Chiralities_Consistent>
1

> <s_lp_Variant>
CHEMBL221_lig584-1

> <s_i_glide_gridfile>
glide-grid_2oyu

> <i_i_glide_lignum>
722

> <i_i_glide_rotatable_bonds>
3

> <r_i_docking_score>
-9.97507497450912

> <r_i_glide_ligand_efficiency>
-0.369447221278115

> <r_i_glide_ligand_efficiency_sa>
-1.10834166261671

> <r_i_glide_ligand_efficiency_ln>
-2.32203300210215

> <r_i_glide_gscore>
-9.97507497450912

> <r_i_glide_lipo>
-4.84005507541607

> <r_i_glide_hbond>
-0.279317942960013

> <r_i_glide_metal>
0

> <r_i_glide_rewards>
-2.86146045088535

> <r_i_glide_evdw>
-24.9143352508545

> <r_i_glide_ecoul>
-6.20331001281738

> <r_i_glide_erotb>
0.257151456494559

> <r_i_glide_esite>
-0.0751796972769086

> <r_i_glide_emodel>
-35.0605663452078

> <r_i_glide_energy>
-31.1176452636719

> <r_i_glide_einternal>
1.8642692565918

> <i_i_glide_confnum>
9

> <i_i_glide_posenum>
31

> <r_i_glide_eff_state_penalty>
0

> <s_user_duplicate_titles>
CHEMBL221_lig584

> <i_f3d_flags>
0

> <s_m_subgroup_title>
dock_pv

> <s_m_subgroupid>
dock_pv

> <b_m_subgroup_collapsed>
1

$$$$
CHEMBL221_lig234
                    3D
 Schrodinger Suite 2021-1.
 44 47  0  0  1  0            999 V2000
   19.8767   48.8366   11.4984 C   0  0  0  0  0  0
   20.5644   49.5119   12.5116 C   0  0  0  0  0  0
   20.1283   48.8661    5.4821 S   0  0  0  0  0  0
   18.8972   48.0330   11.9993 O   0  0  0  0  0  0
   21.6329   50.5438   12.4435 C   0  0  0  0  0  0
   20.0219   48.9892   13.7157 C   0  0  0  0  0  0
   18.9313   48.1810   13.3410 C   0  0  0  0  0  0
   19.9877   48.8516    7.2509 C   0  0  0  0  0  0
   22.5471   50.5182   11.4004 C   0  0  0  0  0  0
   19.9348   48.8539   10.0250 C   0  0  0  0  0  0
   23.5603   51.4612   11.3346 C   0  0  0  0  0  0
   20.9224   50.0236    5.0792 O   0  0  0  0  0  0
   20.5227   47.5494    4.9999 O   0  0  0  0  0  0
   18.4900   49.0729    4.9998 N   0  0  0  0  0  0
   21.7719   51.5187   13.4405 C   0  0  0  0  0  0
   23.7527   52.3973   12.3538 C   0  0  0  0  0  0
   20.1230   50.0447    7.9517 C   0  0  0  0  0  0
   19.7235   47.6708    7.9328 C   0  0  0  0  0  0
   20.1230   50.0519    9.3421 C   0  0  0  0  0  0
   19.7226   47.6685    9.3183 C   0  0  0  0  0  0
   22.8300   52.4253   13.4073 C   0  0  0  0  0  0
   24.5232   51.4730    9.9226 Cl  0  0  0  0  0  0
   24.8430   53.2374   12.2542 O   0  0  0  0  0  0
   20.3124   49.1318   15.0691 C   0  0  0  0  0  0
   18.0392   47.6186   14.2578 C   0  0  0  0  0  0
   25.0794   54.2147   13.2581 C   0  0  0  0  0  0
   19.4542   48.5456   15.9784 C   0  0  0  0  0  0
   18.3215   47.8266   15.6041 C   0  0  0  0  0  0
   22.4691   49.7796   10.6176 H   0  0  0  0  0  0
   18.2055   50.0555    4.8667 H   0  0  0  0  0  0
   18.3022   48.5679    4.1267 H   0  0  0  0  0  0
   21.0616   51.5883   14.2497 H   0  0  0  0  0  0
   20.2438   50.9773    7.4174 H   0  0  0  0  0  0
   19.5747   46.7525    7.4008 H   0  0  0  0  0  0
   20.2352   50.9857    9.8742 H   0  0  0  0  0  0
   19.5659   46.7376    9.8387 H   0  0  0  0  0  0
   22.9164   53.1473   14.2042 H   0  0  0  0  0  0
   21.1680   49.6948   15.4089 H   0  0  0  0  0  0
   17.1680   47.0729   13.9369 H   0  0  0  0  0  0
   25.9326   54.8291   12.9701 H   0  0  0  0  0  0
   25.3279   53.7327   14.2002 H   0  0  0  0  0  0
   24.2258   54.8798   13.3989 H   0  0  0  0  0  0
   19.7230   48.6729   16.9999 H   0  0  0  0  0  0
   17.6703   47.4184   16.3639 H   0  0  0  0  0  0
  1  2  2  0  0  0
  1  4  1  0  0  0
  1 10  1  0  0  0
  2  5  1  0  0  0
  2  6  1  0  0  0
  3  8  1  0  0  0
  3 12  2  0  0  0
  3 13  2  0  0  0
  3 14  1  0  0  0
  4  7  1  0  0  0
  5  9  2  0  0  0
  5 15  1  0  0  0
  6 24  1  0  0  0
  6  7  2  0  0  0
  7 25  1  0  0  0
  8 18  1  0  0  0
  8 17  2  0  0  0
  9 11  1  0  0  0
  9 29  1  0  0  0
 10 19  2  0  0  0
 10 20  1  0  0  0
 11 22  1  0  0  0
 11 16  2  0  0  0
 14 30  1  0  0  0
 14 31  1  0  0  0
 15 21  2  0  0  0
 15 32  1  0  0  0
 16 21  1  0  0  0
 16 23  1  0  0  0
 17 19  1  0  0  0
 17 33  1  0  0  0
 18 20  2  0  0  0
 18 34  1  0  0  0
 19 35  1  0  0  0
 20 36  1  0  0  0
 21 37  1  0  0  0
 23 26  1  0  0  0
 24 27  2  0  0  0
 24 38  1  0  0  0
 25 28  2  0  0  0
 25 39  1  0  0  0
 26 40  1  0  0  0
 26 41  1  0  0  0
 26 42  1  0  0  0
 27 28  1  0  0  0
 27 43  1  0  0  0
 28 44  1  0  0  0
M  END
> <s_m_entry_id>
5070

> <s_m_entry_name>
dock_pv.61

> <s_m_Source_Path>
/home/csk/Desktop/cluster/DUD-E-result/pgh1

> <s_m_Source_File>
dock_pv.maegz

> <i_m_Source_File_Index>
61

> <chembl_id>
CHEMBL76861

> <chembl_pref_name>
None

> <i_lp_mmshare_version>
53161

> <r_lp_tautomer_probability>
1

> <s_lp_Force_Field>
OPLS_2005

> <r_lp_Energy>
28.610942

> <b_lp_Chiralities_Consistent>
1

> <s_lp_Variant>
CHEMBL221_lig234-1

> <s_i_glide_gridfile>
glide-grid_2oyu

> <i_i_glide_lignum>
262

> <i_i_glide_rotatable_bonds>
4

> <r_i_docking_score>
-9.93876887613087

> <r_i_glide_ligand_efficiency>
-0.354956031290388

> <r_i_glide_ligand_efficiency_sa>
-1.07785556891993

> <r_i_glide_ligand_efficiency_ln>
-2.29415967154536

> <r_i_glide_gscore>
-9.93876887613087

> <r_i_glide_lipo>
-5.78602367461942

> <r_i_glide_hbond>
-0.58733600985874

> <r_i_glide_metal>
0

> <r_i_glide_rewards>
-1.78746685620218

> <r_i_glide_evdw>
-18.7464637756348

> <r_i_glide_ecoul>
-6.6560959815979

> <r_i_glide_erotb>
0.230393323182312

> <r_i_glide_esite>
-0.0725980726114188

> <r_i_glide_emodel>
-28.6516115314632

> <r_i_glide_energy>
-25.4025597572327

> <r_i_glide_einternal>
0.93549633026123

> <i_i_glide_confnum>
3

> <i_i_glide_posenum>
331

> <r_i_glide_eff_state_penalty>
0

> <s_user_duplicate_titles>
CHEMBL221_lig234

> <i_f3d_flags>
0

> <s_m_subgroup_title>
dock_pv

> <s_m_subgroupid>
dock_pv

> <b_m_subgroup_collapsed>
1

$$$$
CHEMBL221_lig528
                    3D
 Schrodinger Suite 2021-1.
 38 40  0  0  1  0            999 V2000
   19.8161   49.0227   12.2433 N   0  0  0  0  0  0
   18.8843   48.2413   12.8151 N   0  0  0  0  0  0
   20.6107   49.6377   13.1916 C   0  0  0  0  0  0
   20.1230   49.1807   14.4122 C   0  0  0  0  0  0
   19.0606   48.3232   14.1106 C   0  0  0  0  0  0
   19.9994   48.9865    6.2409 S   0  0  0  0  0  0
   19.8864   49.0727   10.8275 C   0  0  0  0  0  0
   20.0354   49.0542    8.0311 C   0  0  0  0  0  0
   21.7573   50.5446   12.9100 C   0  0  0  0  0  0
   20.9230   49.9623    5.6783 O   0  0  0  0  0  0
   20.1230   47.5836    5.8790 O   0  0  0  0  0  0
   18.4027   49.4701    5.8000 N   0  0  0  0  0  0
   20.7122   49.5759   15.9773 Cl  0  0  0  0  0  0
   20.0941   50.2711   10.1343 C   0  0  0  0  0  0
   19.7230   47.8863   10.1115 C   0  0  0  0  0  0
   20.1230   50.2607    8.7373 C   0  0  0  0  0  0
   19.7809   47.8729    8.7273 C   0  0  0  0  0  0
   22.6982   50.1795   11.9467 C   0  0  0  0  0  0
   21.9194   51.7300   13.6324 C   0  0  0  0  0  0
   18.1666   47.5366   15.0448 C   0  0  0  0  0  0
   23.9700   52.1521   12.4462 C   0  0  0  0  0  0
   23.7957   50.9907   11.7026 C   0  0  0  0  0  0
   23.0302   52.5363   13.4000 C   0  0  0  0  0  0
   25.3974   53.0805   12.2169 Cl  0  0  0  0  0  0
   18.5230   46.1689   15.0000 O   0  0  0  0  0  0
   18.2149   50.4718    5.9156 H   0  0  0  0  0  0
   17.6537   48.8921    6.1964 H   0  0  0  0  0  0
   20.1881   51.2094   10.6623 H   0  0  0  0  0  0
   19.5763   46.9651   10.6439 H   0  0  0  0  0  0
   20.2295   51.1881    8.1934 H   0  0  0  0  0  0
   19.6469   46.9374    8.2054 H   0  0  0  0  0  0
   22.5891   49.2551   11.3998 H   0  0  0  0  0  0
   21.1983   52.0196   14.3831 H   0  0  0  0  0  0
   18.2481   47.8878   16.0741 H   0  0  0  0  0  0
   17.1154   47.6387   14.7699 H   0  0  0  0  0  0
   24.5230   50.6965   10.9614 H   0  0  0  0  0  0
   23.1733   53.4406   13.9742 H   0  0  0  0  0  0
   17.8545   45.6644   15.4708 H   0  0  0  0  0  0
  1  2  1  0  0  0
  1  3  1  0  0  0
  1  7  1  0  0  0
  2  5  2  0  0  0
  3  4  2  0  0  0
  3  9  1  0  0  0
  4 13  1  0  0  0
  4  5  1  0  0  0
  5 20  1  0  0  0
  6  8  1  0  0  0
  6 10  2  0  0  0
  6 11  2  0  0  0
  6 12  1  0  0  0
  7 14  1  0  0  0
  7 15  2  0  0  0
  8 17  2  0  0  0
  8 16  1  0  0  0
  9 18  1  0  0  0
  9 19  2  0  0  0
 12 26  1  0  0  0
 12 27  1  0  0  0
 14 16  2  0  0  0
 14 28  1  0  0  0
 15 17  1  0  0  0
 15 29  1  0  0  0
 16 30  1  0  0  0
 17 31  1  0  0  0
 18 22  2  0  0  0
 18 32  1  0  0  0
 19 23  1  0  0  0
 19 33  1  0  0  0
 20 25  1  0  0  0
 20 34  1  0  0  0
 20 35  1  0  0  0
 21 23  2  0  0  0
 21 24  1  0  0  0
 21 22  1  0  0  0
 22 36  1  0  0  0
 23 37  1  0  0  0
 25 38  1  0  0  0
M  END
> <s_m_entry_id>
5071

> <s_m_entry_name>
dock_pv.62

> <s_m_Source_Path>
/home/csk/Desktop/cluster/DUD-E-result/pgh1

> <s_m_Source_File>
dock_pv.maegz

> <i_m_Source_File_Index>
62

> <chembl_id>
CHEMBL287447

> <chembl_pref_name>
None

> <i_lp_mmshare_version>
53161

> <r_lp_tautomer_probability>
1

> <s_lp_Force_Field>
OPLS_2005

> <r_lp_Energy>
22.810541

> <b_lp_Chiralities_Consistent>
1

> <s_lp_Variant>
CHEMBL221_lig528-1

> <s_i_glide_gridfile>
glide-grid_2oyu

> <i_i_glide_lignum>
666

> <i_i_glide_rotatable_bonds>
5

> <r_i_docking_score>
-9.91958168268054

> <r_i_glide_ligand_efficiency>
-0.396783267307222

> <r_i_glide_ligand_efficiency_sa>
-1.16020131058753

> <r_i_glide_ligand_efficiency_ln>
-2.35123812467043

> <r_i_glide_gscore>
-9.91958168268054

> <r_i_glide_lipo>
-4.92381451786192

> <r_i_glide_hbond>
-0.576290853222138

> <r_i_glide_metal>
0

> <r_i_glide_rewards>
-2.1013112393848

> <r_i_glide_evdw>
-28.9996757507324

> <r_i_glide_ecoul>
-7.77284526824951

> <r_i_glide_erotb>
0.370387688202983

> <r_i_glide_esite>
-0.0726421826406168

> <r_i_glide_emodel>
-51.4259819770472

> <r_i_glide_energy>
-36.7725210189819

> <r_i_glide_einternal>
1.41545271873474

> <i_i_glide_confnum>
1

> <i_i_glide_posenum>
338

> <r_i_glide_eff_state_penalty>
0

> <s_user_duplicate_titles>
CHEMBL221_lig528,38854

> <i_f3d_flags>
0

> <s_m_subgroup_title>
dock_pv

> <s_m_subgroupid>
dock_pv

> <b_m_subgroup_collapsed>
1

$$$$
CHEMBL221_lig256
                    3D
 Schrodinger Suite 2021-1.
 34 36  0  0  1  0            999 V2000
   19.9997   49.0038    6.2203 S   0  0  0  0  0  0
   20.5287   49.5663   13.2169 N   0  0  0  0  0  0
   19.7699   48.9256   12.2891 C   0  0  0  0  0  0
   20.1230   49.0960   14.4844 C   0  0  0  0  0  0
   18.9521   48.1112   12.9510 C   0  0  0  0  0  0
   19.1300   48.2144   14.2637 O   0  0  0  0  0  0
   20.0319   49.0583    8.0086 C   0  0  0  0  0  0
   21.6314   50.4232   13.0000 C   0  0  0  0  0  0
   19.8966   49.0370   10.8135 C   0  0  0  0  0  0
   20.9230   49.9858    5.6657 O   0  0  0  0  0  0
   20.1230   47.6048    5.8445 O   0  0  0  0  0  0
   20.5298   49.3645   15.6154 O   0  0  0  0  0  0
   18.3955   49.4730    5.8000 N   0  0  0  0  0  0
   20.1230   50.2546    8.7314 C   0  0  0  0  0  0
   19.7798   47.8716    8.6900 C   0  0  0  0  0  0
   20.1072   50.2412   10.1300 C   0  0  0  0  0  0
   19.7230   47.8730   10.0719 C   0  0  0  0  0  0
   22.6012   50.0973   12.0418 C   0  0  0  0  0  0
   21.7704   51.5962   13.7537 C   0  0  0  0  0  0
   23.8278   52.0880   12.6000 C   0  0  0  0  0  0
   22.8665   52.4287   13.5487 C   0  0  0  0  0  0
   23.6939   50.9331   11.8353 C   0  0  0  0  0  0
   25.2278   53.0730   12.4050 Cl  0  0  0  0  0  0
   18.1936   47.4082   12.6376 H   0  0  0  0  0  0
   18.1974   50.4715    5.9248 H   0  0  0  0  0  0
   17.6555   48.8825    6.1953 H   0  0  0  0  0  0
   20.2278   51.1894    8.2000 H   0  0  0  0  0  0
   19.6434   46.9407    8.1613 H   0  0  0  0  0  0
   20.1991   51.1702   10.6734 H   0  0  0  0  0  0
   19.5751   46.9423   10.5837 H   0  0  0  0  0  0
   22.5230   49.1874   11.4650 H   0  0  0  0  0  0
   21.0361   51.8653   14.5001 H   0  0  0  0  0  0
   22.9795   53.3250   14.1424 H   0  0  0  0  0  0
   24.4488   50.6730   11.1063 H   0  0  0  0  0  0
  1  7  1  0  0  0
  1 10  2  0  0  0
  1 11  2  0  0  0
  1 13  1  0  0  0
  2  3  1  0  0  0
  2  4  1  0  0  0
  2  8  1  0  0  0
  3  9  1  0  0  0
  3  5  2  0  0  0
  4 12  2  0  0  0
  4  6  1  0  0  0
  5  6  1  0  0  0
  5 24  1  0  0  0
  7 14  1  0  0  0
  7 15  2  0  0  0
  8 18  1  0  0  0
  8 19  2  0  0  0
  9 17  2  0  0  0
  9 16  1  0  0  0
 13 25  1  0  0  0
 13 26  1  0  0  0
 14 16  2  0  0  0
 14 27  1  0  0  0
 15 17  1  0  0  0
 15 28  1  0  0  0
 16 29  1  0  0  0
 17 30  1  0  0  0
 18 22  2  0  0  0
 18 31  1  0  0  0
 19 21  1  0  0  0
 19 32  1  0  0  0
 20 21  2  0  0  0
 20 23  1  0  0  0
 20 22  1  0  0  0
 21 33  1  0  0  0
 22 34  1  0  0  0
M  END
> <s_m_entry_id>
5072

> <s_m_entry_name>
dock_pv.63

> <s_m_Source_Path>
/home/csk/Desktop/cluster/DUD-E-result/pgh1

> <s_m_Source_File>
dock_pv.maegz

> <i_m_Source_File_Index>
63

> <chembl_id>
CHEMBL70858

> <chembl_pref_name>
None

> <i_lp_mmshare_version>
53161

> <r_lp_tautomer_probability>
1

> <s_lp_Force_Field>
OPLS_2005

> <r_lp_Energy>
37.817907

> <b_lp_Chiralities_Consistent>
1

> <s_lp_Variant>
CHEMBL221_lig256-1

> <s_i_glide_gridfile>
glide-grid_2oyu

> <i_i_glide_lignum>
289

> <i_i_glide_rotatable_bonds>
3

> <r_i_docking_score>
-9.90232768581905

> <r_i_glide_ligand_efficiency>
-0.430535986339959

> <r_i_glide_ligand_efficiency_sa>
-1.22438707391035

> <r_i_glide_ligand_efficiency_ln>
-2.39447262377424

> <r_i_glide_gscore>
-9.90232768581905

> <r_i_glide_lipo>
-4.43136119838677

> <r_i_glide_hbond>
-0.581996783603364

> <r_i_glide_metal>
0

> <r_i_glide_rewards>
-2.59256285208096

> <r_i_glide_evdw>
-26.1775913238525

> <r_i_glide_ecoul>
-8.15909576416016

> <r_i_glide_erotb>
0.309886054668636

> <r_i_glide_esite>
-0.0735489755999415

> <r_i_glide_emodel>
-47.9906503856928

> <r_i_glide_energy>
-34.3366870880127

> <r_i_glide_einternal>
0.660694122314453

> <i_i_glide_confnum>
5

> <i_i_glide_posenum>
176

> <r_i_glide_eff_state_penalty>
0

> <s_user_duplicate_titles>
CHEMBL221_lig256

> <i_f3d_flags>
0

> <s_m_subgroup_title>
dock_pv

> <s_m_subgroupid>
dock_pv

> <b_m_subgroup_collapsed>
1

$$$$
CHEMBL221_lig365
                    3D
 Schrodinger Suite 2021-1.
 46 49  0  0  1  0            999 V2000
   19.8441   49.1217    6.1776 S   0  0  0  0  0  0
   20.4481   49.3382   13.2059 C   0  0  0  0  0  0
   19.7570   48.6730   12.2363 C   0  0  0  0  0  0
   18.8927   47.9453   14.3186 C   0  0  0  0  0  0
   21.5684   50.2923   13.0254 C   0  0  0  0  0  0
   20.0706   48.8593   14.6012 C   0  0  0  0  0  0
   18.7459   47.7015   12.8313 C   0  0  0  0  0  0
   19.9393   48.9885    7.9521 C   0  0  0  0  0  0
   22.4466   50.1845   11.9455 C   0  0  0  0  0  0
   19.8495   48.8226   10.7564 C   0  0  0  0  0  0
   18.4978   46.8625   15.3079 C   0  0  0  0  0  0
   17.6364   48.0774   15.1711 C   0  0  0  0  0  0
   23.3986   51.1611   11.6930 C   0  0  0  0  0  0
   20.6421   50.2730    5.8000 O   0  0  0  0  0  0
   20.1230   47.8252    5.5890 O   0  0  0  0  0  0
   18.1963   49.4730    5.8000 N   0  0  0  0  0  0
   23.6019   52.2115   12.5916 C   0  0  0  0  0  0
   21.7378   51.3669   13.9068 C   0  0  0  0  0  0
   19.7230   47.7613    8.5655 C   0  0  0  0  0  0
   20.1230   50.1322    8.7387 C   0  0  0  0  0  0
   19.7229   47.6868    9.9522 C   0  0  0  0  0  0
   20.0691   50.0543   10.1290 C   0  0  0  0  0  0
   22.7552   52.3005   13.7077 C   0  0  0  0  0  0
   24.2543   51.0738   10.2043 Cl  0  0  0  0  0  0
   24.6281   53.0952   12.3187 O   0  0  0  0  0  0
   24.9294   54.1319   13.2468 C   0  0  0  0  0  0
   20.8950   48.3068   15.0483 H   0  0  0  0  0  0
   19.8061   49.6660   15.2818 H   0  0  0  0  0  0
   19.0128   46.6719   12.6000 H   0  0  0  0  0  0
   17.7280   47.8732   12.4794 H   0  0  0  0  0  0
   22.3623   49.3642   11.2496 H   0  0  0  0  0  0
   18.1243   45.9105   14.9290 H   0  0  0  0  0  0
   19.1075   46.7363   16.2000 H   0  0  0  0  0  0
   17.6206   48.8090   15.9798 H   0  0  0  0  0  0
   16.6620   47.9856   14.6888 H   0  0  0  0  0  0
   18.0364   50.2354    5.1247 H   0  0  0  0  0  0
   17.5697   48.6729    5.6916 H   0  0  0  0  0  0
   21.0775   51.4959   14.7514 H   0  0  0  0  0  0
   19.5866   46.8692    7.9750 H   0  0  0  0  0  0
   20.2400   51.0938    8.2619 H   0  0  0  0  0  0
   19.6652   46.7144   10.4059 H   0  0  0  0  0  0
   20.1569   50.9623   10.7078 H   0  0  0  0  0  0
   22.8541   53.1060   14.4175 H   0  0  0  0  0  0
   25.7430   54.7412   12.8529 H   0  0  0  0  0  0
   25.2642   53.7216   14.1999 H   0  0  0  0  0  0
   24.0777   54.7931   13.4130 H   0  0  0  0  0  0
  1  8  1  0  0  0
  1 14  2  0  0  0
  1 15  2  0  0  0
  1 16  1  0  0  0
  2  3  2  0  0  0
  2  5  1  0  0  0
  2  6  1  0  0  0
  3 10  1  0  0  0
  3  7  1  0  0  0
  4  7  1  0  0  0
  4 11  1  0  0  0
  4 12  1  0  0  0
  4  6  1  0  0  0
  5  9  1  0  0  0
  5 18  2  0  0  0
  6 27  1  0  0  0
  6 28  1  0  0  0
  7 29  1  0  0  0
  7 30  1  0  0  0
  8 19  1  0  0  0
  8 20  2  0  0  0
  9 13  2  0  0  0
  9 31  1  0  0  0
 10 22  2  0  0  0
 10 21  1  0  0  0
 11 12  1  0  0  0
 11 32  1  0  0  0
 11 33  1  0  0  0
 12 34  1  0  0  0
 12 35  1  0  0  0
 13 24  1  0  0  0
 13 17  1  0  0  0
 16 36  1  0  0  0
 16 37  1  0  0  0
 17 23  2  0  0  0
 17 25  1  0  0  0
 18 23  1  0  0  0
 18 38  1  0  0  0
 19 21  2  0  0  0
 19 39  1  0  0  0
 20 22  1  0  0  0
 20 40  1  0  0  0
 21 41  1  0  0  0
 22 42  1  0  0  0
 23 43  1  0  0  0
 25 26  1  0  0  0
 26 44  1  0  0  0
 26 45  1  0  0  0
 26 46  1  0  0  0
M  END
> <s_m_entry_id>
5073

> <s_m_entry_name>
dock_pv.64

> <s_m_Source_Path>
/home/csk/Desktop/cluster/DUD-E-result/pgh1

> <s_m_Source_File>
dock_pv.maegz

> <i_m_Source_File_Index>
64

> <chembl_id>
CHEMBL315585

> <chembl_pref_name>
None

> <i_lp_mmshare_version>
53161

> <r_lp_tautomer_probability>
1

> <s_lp_Force_Field>
OPLS_2005

> <r_lp_Energy>
47.28339

> <b_lp_Chiralities_Consistent>
1

> <s_lp_Variant>
CHEMBL221_lig365-1

> <s_i_glide_gridfile>
glide-grid_2oyu

> <i_i_glide_lignum>
431

> <i_i_glide_rotatable_bonds>
4

> <r_i_docking_score>
-9.88914054526122

> <r_i_glide_ligand_efficiency>
-0.380351559433124

> <r_i_glide_ligand_efficiency_sa>
-1.12678999820951

> <r_i_glide_ligand_efficiency_ln>
-2.32243220813782

> <r_i_glide_gscore>
-9.88914054526122

> <r_i_glide_lipo>
-5.38264871235492

> <r_i_glide_hbond>
-0.3789620238871

> <r_i_glide_metal>
0

> <r_i_glide_rewards>
-1.9337789964674

> <r_i_glide_evdw>
-26.6082859039307

> <r_i_glide_ecoul>
-6.94928169250488

> <r_i_glide_erotb>
0.256532625918814

> <r_i_glide_esite>
-0.0774768893983407

> <r_i_glide_emodel>
-36.3229514108955

> <r_i_glide_energy>
-33.5575675964355

> <r_i_glide_einternal>
2.47096610069275

> <i_i_glide_confnum>
2

> <i_i_glide_posenum>
143

> <r_i_glide_eff_state_penalty>
0

> <s_user_duplicate_titles>
CHEMBL221_lig365

> <i_f3d_flags>
0

> <s_m_subgroup_title>
dock_pv

> <s_m_subgroupid>
dock_pv

> <b_m_subgroup_collapsed>
1

$$$$
CHEMBL221_lig375
                    3D
 Schrodinger Suite 2021-1.
 40 42  0  0  1  0            999 V2000
   20.0480   48.9703    6.4602 S   0  0  0  0  0  0
   20.3616   49.4730   13.5828 C   0  0  0  0  0  0
   19.5455   48.9093   12.5667 C   0  0  0  0  0  0
   21.4161   50.4935   13.3135 C   0  0  0  0  0  0
   20.1230   49.1058   14.9221 C   0  0  0  0  0  0
   18.4630   48.1080   12.9640 C   0  0  0  0  0  0
   20.1230   49.0639    8.2730 C   0  0  0  0  0  0
   19.0399   48.2999   15.2721 C   0  0  0  0  0  0
   18.1946   47.8202   14.2906 C   0  0  0  0  0  0
   22.3413   50.3413   12.2770 C   0  0  0  0  0  0
   20.9230   49.9268    5.8000 O   0  0  0  0  0  0
   20.1230   47.5592    6.1074 O   0  0  0  0  0  0
   19.7609   49.0459   11.0830 C   0  0  0  0  0  0
   23.2364   51.3620   11.9616 C   0  0  0  0  0  0
   18.4723   49.4730    6.0341 N   0  0  0  0  0  0
   23.2924   52.5125   12.7487 C   0  0  0  0  0  0
   21.4694   51.6682   14.0799 C   0  0  0  0  0  0
   20.1230   50.2635    8.9999 C   0  0  0  0  0  0
   19.8889   47.8730    8.9568 C   0  0  0  0  0  0
   19.9567   50.2557   10.3950 C   0  0  0  0  0  0
   19.7230   47.8732   10.3311 C   0  0  0  0  0  0
   22.4008   52.6663   13.8019 C   0  0  0  0  0  0
   17.1179   47.0730   14.6213 F   0  0  0  0  0  0
   18.7684   48.0156   16.5617 F   0  0  0  0  0  0
   24.2120   53.4730   12.5083 F   0  0  0  0  0  0
   24.1231   51.2032   10.7560 C   0  0  0  0  0  0
   20.7444   49.5004   15.7129 H   0  0  0  0  0  0
   17.7954   47.6983   12.2207 H   0  0  0  0  0  0
   22.3365   49.4426   11.6770 H   0  0  0  0  0  0
   18.3716   50.4927    6.0844 H   0  0  0  0  0  0
   18.1934   49.1701    5.0984 H   0  0  0  0  0  0
   20.7730   51.8244   14.8912 H   0  0  0  0  0  0
   20.2169   51.1949    8.4643 H   0  0  0  0  0  0
   19.8275   46.9326    8.4303 H   0  0  0  0  0  0
   19.9501   51.1922   10.9334 H   0  0  0  0  0  0
   19.6061   46.9316   10.8349 H   0  0  0  0  0  0
   22.4395   53.5595   14.4088 H   0  0  0  0  0  0
   23.5935   50.7290    9.9290 H   0  0  0  0  0  0
   24.9230   50.5515   11.0661 H   0  0  0  0  0  0
   24.5276   52.1497   10.3950 H   0  0  0  0  0  0
  1  7  1  0  0  0
  1 11  2  0  0  0
  1 12  2  0  0  0
  1 15  1  0  0  0
  2  3  1  0  0  0
  2  4  1  0  0  0
  2  5  2  0  0  0
  3 13  1  0  0  0
  3  6  2  0  0  0
  4 10  2  0  0  0
  4 17  1  0  0  0
  5  8  1  0  0  0
  5 27  1  0  0  0
  6  9  1  0  0  0
  6 28  1  0  0  0
  7 18  2  0  0  0
  7 19  1  0  0  0
  8  9  2  0  0  0
  8 24  1  0  0  0
  9 23  1  0  0  0
 10 14  1  0  0  0
 10 29  1  0  0  0
 13 21  1  0  0  0
 13 20  2  0  0  0
 14 26  1  0  0  0
 14 16  2  0  0  0
 15 30  1  0  0  0
 15 31  1  0  0  0
 16 22  1  0  0  0
 16 25  1  0  0  0
 17 22  2  0  0  0
 17 32  1  0  0  0
 18 20  1  0  0  0
 18 33  1  0  0  0
 19 21  2  0  0  0
 19 34  1  0  0  0
 20 35  1  0  0  0
 21 36  1  0  0  0
 22 37  1  0  0  0
 26 38  1  0  0  0
 26 39  1  0  0  0
 26 40  1  0  0  0
M  END
> <s_m_entry_id>
5074

> <s_m_entry_name>
dock_pv.65

> <s_m_Source_Path>
/home/csk/Desktop/cluster/DUD-E-result/pgh1

> <s_m_Source_File>
dock_pv.maegz

> <i_m_Source_File_Index>
65

> <chembl_id>
CHEMBL52020

> <chembl_pref_name>
None

> <i_lp_mmshare_version>
53161

> <r_lp_tautomer_probability>
1

> <s_lp_Force_Field>
OPLS_2005

> <r_lp_Energy>
28.354798

> <b_lp_Chiralities_Consistent>
1

> <s_lp_Variant>
CHEMBL221_lig375-1

> <s_i_glide_gridfile>
glide-grid_2oyu

> <i_i_glide_lignum>
441

> <i_i_glide_rotatable_bonds>
3

> <r_i_docking_score>
-9.87187807031454

> <r_i_glide_ligand_efficiency>
-0.379687618089021

> <r_i_glide_ligand_efficiency_sa>
-1.12482307459009

> <r_i_glide_ligand_efficiency_ln>
-2.31837817253939

> <r_i_glide_gscore>
-9.87187807031454

> <r_i_glide_lipo>
-4.89764076250781

> <r_i_glide_hbond>
-0.272959038093595

> <r_i_glide_metal>
0

> <r_i_glide_rewards>
-2.73878979527547

> <r_i_glide_evdw>
-24.7112979888916

> <r_i_glide_ecoul>
-6.1736626625061

> <r_i_glide_erotb>
0.271988518179558

> <r_i_glide_esite>
-0.0728626937967276

> <r_i_glide_emodel>
-37.7901981000851

> <r_i_glide_energy>
-30.8849606513977

> <r_i_glide_einternal>
2.27802109718323

> <i_i_glide_confnum>
16

> <i_i_glide_posenum>
76

> <r_i_glide_eff_state_penalty>
0

> <s_user_duplicate_titles>
CHEMBL221_lig375

> <i_f3d_flags>
0

> <s_m_subgroup_title>
dock_pv

> <s_m_subgroupid>
dock_pv

> <b_m_subgroup_collapsed>
1

$$$$
CHEMBL221_lig524
                    3D
 Schrodinger Suite 2021-1.
 37 39  0  0  1  0            999 V2000
   20.0130   49.1869   12.3389 N   0  0  0  0  0  0
   19.1344   48.4291   13.0204 N   0  0  0  0  0  0
   20.8740   49.8616   13.1925 C   0  0  0  0  0  0
   20.4715   49.4745   14.4696 C   0  0  0  0  0  0
   19.9919   48.9057    6.3253 S   0  0  0  0  0  0
   19.4006   48.5929   14.2912 C   0  0  0  0  0  0
   19.9606   49.1694   10.9190 C   0  0  0  0  0  0
   20.0077   49.0283    8.1170 C   0  0  0  0  0  0
   20.9230   49.8730    5.7521 O   0  0  0  0  0  0
   20.1230   47.4861    6.0322 O   0  0  0  0  0  0
   21.9822   50.7801   12.7921 C   0  0  0  0  0  0
   18.4094   49.3664    5.8000 N   0  0  0  0  0  0
   21.1261   49.9938   15.9728 Cl  0  0  0  0  0  0
   19.7230   47.9603   10.2607 C   0  0  0  0  0  0
   20.1230   50.3339   10.1633 C   0  0  0  0  0  0
   19.7375   47.8823    8.8725 C   0  0  0  0  0  0
   20.1230   50.2618    8.7688 C   0  0  0  0  0  0
   18.5654   47.8730   15.3254 C   0  0  0  0  0  0
   22.8682   50.4195   11.7750 C   0  0  0  0  0  0
   22.1503   51.9983   13.4578 C   0  0  0  0  0  0
   23.1922   52.8509   13.1031 C   0  0  0  0  0  0
   23.8956   51.2806   11.4031 C   0  0  0  0  0  0
   24.0601   52.4876   12.0766 C   0  0  0  0  0  0
   18.2206   50.3726    5.8555 H   0  0  0  0  0  0
   17.6463   48.8137    6.2075 H   0  0  0  0  0  0
   19.5466   47.0727   10.8395 H   0  0  0  0  0  0
   20.2527   51.2931   10.6440 H   0  0  0  0  0  0
   19.5666   46.9297    8.3936 H   0  0  0  0  0  0
   20.2338   51.1635    8.1841 H   0  0  0  0  0  0
   18.8900   48.0946   16.3417 H   0  0  0  0  0  0
   17.5146   48.1579   15.2600 H   0  0  0  0  0  0
   18.6139   46.7907   15.2039 H   0  0  0  0  0  0
   22.7530   49.4740   11.2674 H   0  0  0  0  0  0
   21.4764   52.2886   14.2509 H   0  0  0  0  0  0
   23.3254   53.7885   13.6244 H   0  0  0  0  0  0
   24.5650   51.0105   10.6006 H   0  0  0  0  0  0
   24.8694   53.1459   11.8000 H   0  0  0  0  0  0
  1  2  1  0  0  0
  1  3  1  0  0  0
  1  7  1  0  0  0
  2  6  2  0  0  0
  3  4  2  0  0  0
  3 11  1  0  0  0
  4 13  1  0  0  0
  4  6  1  0  0  0
  5  8  1  0  0  0
  5  9  2  0  0  0
  5 10  2  0  0  0
  5 12  1  0  0  0
  6 18  1  0  0  0
  7 14  1  0  0  0
  7 15  2  0  0  0
  8 17  2  0  0  0
  8 16  1  0  0  0
 11 19  2  0  0  0
 11 20  1  0  0  0
 12 24  1  0  0  0
 12 25  1  0  0  0
 14 16  2  0  0  0
 14 26  1  0  0  0
 15 17  1  0  0  0
 15 27  1  0  0  0
 16 28  1  0  0  0
 17 29  1  0  0  0
 18 30  1  0  0  0
 18 31  1  0  0  0
 18 32  1  0  0  0
 19 22  1  0  0  0
 19 33  1  0  0  0
 20 21  2  0  0  0
 20 34  1  0  0  0
 21 23  1  0  0  0
 21 35  1  0  0  0
 22 23  2  0  0  0
 22 36  1  0  0  0
 23 37  1  0  0  0
M  END
> <s_m_entry_id>
5075

> <s_m_entry_name>
dock_pv.66

> <s_m_Source_Path>
/home/csk/Desktop/cluster/DUD-E-result/pgh1

> <s_m_Source_File>
dock_pv.maegz

> <i_m_Source_File_Index>
66

> <chembl_id>
CHEMBL283086

> <chembl_pref_name>
None

> <i_lp_mmshare_version>
53161

> <r_lp_tautomer_probability>
1

> <s_lp_Force_Field>
OPLS_2005

> <r_lp_Energy>
24.37541

> <b_lp_Chiralities_Consistent>
1

> <s_lp_Variant>
CHEMBL221_lig524-1

> <s_i_glide_gridfile>
glide-grid_2oyu

> <i_i_glide_lignum>
662

> <i_i_glide_rotatable_bonds>
3

> <r_i_docking_score>
-9.86415151008644

> <r_i_glide_ligand_efficiency>
-0.428876152612454

> <r_i_glide_ligand_efficiency_sa>
-1.21966672758559

> <r_i_glide_ligand_efficiency_ln>
-2.38524127831967

> <r_i_glide_gscore>
-9.86415151008644

> <r_i_glide_lipo>
-4.62277317095137

> <r_i_glide_hbond>
-0.524992715874899

> <r_i_glide_metal>
0

> <r_i_glide_rewards>
-2.50359612045108

> <r_i_glide_evdw>
-28.3041954040527

> <r_i_glide_ecoul>
-6.94670486450195

> <r_i_glide_erotb>
0.314585088071638

> <r_i_glide_esite>
-0.0701590910027988

> <r_i_glide_emodel>
-52.1708376816391

> <r_i_glide_energy>
-35.2509002685547

> <r_i_glide_einternal>
0.29398649930954

> <i_i_glide_confnum>
1

> <i_i_glide_posenum>
28

> <r_i_glide_eff_state_penalty>
0

> <s_user_duplicate_titles>
CHEMBL221_lig524,38855

> <i_f3d_flags>
0

> <s_m_subgroup_title>
dock_pv

> <s_m_subgroupid>
dock_pv

> <b_m_subgroup_collapsed>
1

$$$$
CHEMBL221_lig525
                    3D
 Schrodinger Suite 2021-1.
 38 40  0  0  1  0            999 V2000
   19.9174   49.0896   12.2509 N   0  0  0  0  0  0
   19.2094   48.4557   14.1702 C   0  0  0  0  0  0
   20.2768   49.3373   14.4070 C   0  0  0  0  0  0
   19.0164   48.3090   12.8783 N   0  0  0  0  0  0
   20.7129   49.7688   13.1558 C   0  0  0  0  0  0
   20.0015   48.9785    6.2448 S   0  0  0  0  0  0
   18.4363   47.7902   15.1870 C   0  0  0  0  0  0
   19.9351   49.1033   10.8326 C   0  0  0  0  0  0
   20.0265   49.0422    8.0341 C   0  0  0  0  0  0
   21.8088   50.7351   12.8533 C   0  0  0  0  0  0
   20.9230   49.9564    5.6839 O   0  0  0  0  0  0
   20.1230   47.5796    5.8681 O   0  0  0  0  0  0
   20.9230   49.8132   15.9334 Cl  0  0  0  0  0  0
   18.4158   49.4730    5.8000 N   0  0  0  0  0  0
   17.9982   48.3716   16.1751 O   0  0  0  0  0  0
   19.7230   47.9105   10.1363 C   0  0  0  0  0  0
   20.1230   50.2880   10.1159 C   0  0  0  0  0  0
   19.7606   47.8730    8.7485 C   0  0  0  0  0  0
   20.1230   50.2575    8.7210 C   0  0  0  0  0  0
   21.8260   51.9396   13.5606 C   0  0  0  0  0  0
   22.8416   50.4363   11.9593 C   0  0  0  0  0  0
   18.2659   46.4822   15.0000 N   0  0  0  0  0  0
   23.9620   52.4721   12.5999 C   0  0  0  0  0  0
   22.9004   52.8091   13.4308 C   0  0  0  0  0  0
   23.9192   51.3114   11.8268 C   0  0  0  0  0  0
   25.3642   53.4730   12.6000 Cl  0  0  0  0  0  0
   18.2849   50.4833    5.9171 H   0  0  0  0  0  0
   18.1795   49.2413    4.8320 H   0  0  0  0  0  0
   19.5586   47.0030   10.6856 H   0  0  0  0  0  0
   20.2356   51.2348   10.6246 H   0  0  0  0  0  0
   19.6038   46.9357    8.2358 H   0  0  0  0  0  0
   20.2268   51.1769    8.1631 H   0  0  0  0  0  0
   21.0289   52.1872   14.2473 H   0  0  0  0  0  0
   22.8342   49.5086   11.4061 H   0  0  0  0  0  0
   17.7442   45.9581   15.6855 H   0  0  0  0  0  0
   18.5230   46.0607   14.1216 H   0  0  0  0  0  0
   22.9341   53.7140   14.0215 H   0  0  0  0  0  0
   24.7424   51.0647   11.1712 H   0  0  0  0  0  0
  1  4  1  0  0  0
  1  5  1  0  0  0
  1  8  1  0  0  0
  2  4  2  0  0  0
  2  7  1  0  0  0
  2  3  1  0  0  0
  3  5  2  0  0  0
  3 13  1  0  0  0
  5 10  1  0  0  0
  6  9  1  0  0  0
  6 11  2  0  0  0
  6 12  2  0  0  0
  6 14  1  0  0  0
  7 15  2  0  0  0
  7 22  1  0  0  0
  8 16  1  0  0  0
  8 17  2  0  0  0
  9 19  2  0  0  0
  9 18  1  0  0  0
 10 20  1  0  0  0
 10 21  2  0  0  0
 14 27  1  0  0  0
 14 28  1  0  0  0
 16 18  2  0  0  0
 16 29  1  0  0  0
 17 19  1  0  0  0
 17 30  1  0  0  0
 18 31  1  0  0  0
 19 32  1  0  0  0
 20 24  2  0  0  0
 20 33  1  0  0  0
 21 25  1  0  0  0
 21 34  1  0  0  0
 22 35  1  0  0  0
 22 36  1  0  0  0
 23 25  2  0  0  0
 23 26  1  0  0  0
 23 24  1  0  0  0
 24 37  1  0  0  0
 25 38  1  0  0  0
M  END
> <s_m_entry_id>
5076

> <s_m_entry_name>
dock_pv.67

> <s_m_Source_Path>
/home/csk/Desktop/cluster/DUD-E-result/pgh1

> <s_m_Source_File>
dock_pv.maegz

> <i_m_Source_File_Index>
67

> <chembl_id>
CHEMBL287170

> <chembl_pref_name>
None

> <i_lp_mmshare_version>
53161

> <r_lp_tautomer_probability>
1

> <s_lp_Force_Field>
OPLS_2005

> <r_lp_Energy>
28.111612

> <b_lp_Chiralities_Consistent>
1

> <s_lp_Variant>
CHEMBL221_lig525-1

> <s_i_glide_gridfile>
glide-grid_2oyu

> <i_i_glide_lignum>
663

> <i_i_glide_rotatable_bonds>
4

> <r_i_docking_score>
-9.78850877553328

> <r_i_glide_ligand_efficiency>
-0.37648110675128

> <r_i_glide_ligand_efficiency_sa>
-1.11532379736905

> <r_i_glide_ligand_efficiency_ln>
-2.29879916721698

> <r_i_glide_gscore>
-9.78850877553328

> <r_i_glide_lipo>
-4.53632361271522

> <r_i_glide_hbond>
-0.287226706914368

> <r_i_glide_metal>
0

> <r_i_glide_rewards>
-2.37817538345448

> <r_i_glide_evdw>
-33.3785438537598

> <r_i_glide_ecoul>
-7.18393707275391

> <r_i_glide_erotb>
0.233040984011598

> <r_i_glide_esite>
-0.0733063028597302

> <r_i_glide_emodel>
-56.9546434788187

> <r_i_glide_energy>
-40.5624809265137

> <r_i_glide_einternal>
0.910747528076172

> <i_i_glide_confnum>
8

> <i_i_glide_posenum>
29

> <r_i_glide_eff_state_penalty>
0

> <s_user_duplicate_titles>
CHEMBL221_lig525

> <i_f3d_flags>
0

> <s_m_subgroup_title>
dock_pv

> <s_m_subgroupid>
dock_pv

> <b_m_subgroup_collapsed>
1

$$$$
CHEMBL221_lig153
                    3D
 Schrodinger Suite 2021-1.
 34 36  0  0  1  0            999 V2000
   20.0057   48.9934    6.2348 S   0  0  0  0  0  0
   19.8308   49.0174   12.2313 N   0  0  0  0  0  0
   19.1147   48.3371   14.2573 N   0  0  0  0  0  0
   20.6172   49.6380   13.1862 C   0  0  0  0  0  0
   18.9458   48.2592   12.9662 C   0  0  0  0  0  0
   20.1230   49.1719   14.4086 C   0  0  0  0  0  0
   20.0375   49.0516    8.0256 C   0  0  0  0  0  0
   19.8972   49.0728   10.8193 C   0  0  0  0  0  0
   21.7517   50.5699   12.9120 C   0  0  0  0  0  0
   20.9230   49.9750    5.6723 O   0  0  0  0  0  0
   20.1230   47.5967    5.8495 O   0  0  0  0  0  0
   18.4140   49.4730    5.8000 N   0  0  0  0  0  0
   20.1230   50.2590    8.7301 C   0  0  0  0  0  0
   19.7786   47.8722    8.7228 C   0  0  0  0  0  0
   20.1027   50.2709   10.1267 C   0  0  0  0  0  0
   19.7230   47.8870   10.1083 C   0  0  0  0  0  0
   20.7011   49.5734   15.9749 Cl  0  0  0  0  0  0
   22.7122   50.2409   11.9527 C   0  0  0  0  0  0
   21.8717   51.7600   13.6356 C   0  0  0  0  0  0
   23.9008   52.2718   12.4434 C   0  0  0  0  0  0
   22.9476   52.6125   13.3999 C   0  0  0  0  0  0
   23.7803   51.0957   11.7105 C   0  0  0  0  0  0
   24.9661   53.0742   12.2370 F   0  0  0  0  0  0
   18.1946   47.6663   12.4649 H   0  0  0  0  0  0
   18.2748   50.4821    5.9181 H   0  0  0  0  0  0
   18.1750   49.2400    4.8329 H   0  0  0  0  0  0
   20.2268   51.1859    8.1849 H   0  0  0  0  0  0
   19.6406   46.9380    8.1998 H   0  0  0  0  0  0
   20.2000   51.2088   10.6547 H   0  0  0  0  0  0
   19.5783   46.9664   10.6417 H   0  0  0  0  0  0
   22.6356   49.3167   11.4000 H   0  0  0  0  0  0
   21.1368   52.0237   14.3825 H   0  0  0  0  0  0
   23.0513   53.5272   13.9657 H   0  0  0  0  0  0
   24.5231   50.8388   10.9702 H   0  0  0  0  0  0
  1  7  1  0  0  0
  1 10  2  0  0  0
  1 11  2  0  0  0
  1 12  1  0  0  0
  2  8  1  0  0  0
  2  4  1  0  0  0
  2  5  1  0  0  0
  3  5  2  0  0  0
  3  6  1  0  0  0
  4  6  2  0  0  0
  4  9  1  0  0  0
  5 24  1  0  0  0
  6 17  1  0  0  0
  7 13  1  0  0  0
  7 14  2  0  0  0
  8 16  2  0  0  0
  8 15  1  0  0  0
  9 18  2  0  0  0
  9 19  1  0  0  0
 12 25  1  0  0  0
 12 26  1  0  0  0
 13 15  2  0  0  0
 13 27  1  0  0  0
 14 16  1  0  0  0
 14 28  1  0  0  0
 15 29  1  0  0  0
 16 30  1  0  0  0
 18 22  1  0  0  0
 18 31  1  0  0  0
 19 21  2  0  0  0
 19 32  1  0  0  0
 20 21  1  0  0  0
 20 23  1  0  0  0
 20 22  2  0  0  0
 21 33  1  0  0  0
 22 34  1  0  0  0
M  END
> <s_m_entry_id>
5077

> <s_m_entry_name>
dock_pv.68

> <s_m_Source_Path>
/home/csk/Desktop/cluster/DUD-E-result/pgh1

> <s_m_Source_File>
dock_pv.maegz

> <i_m_Source_File_Index>
68

> <chembl_id>
CHEMBL326270

> <chembl_pref_name>
None

> <i_lp_mmshare_version>
53161

> <r_lp_tautomer_probability>
1

> <s_lp_Force_Field>
OPLS_2005

> <r_lp_Energy>
21.973598

> <b_lp_Chiralities_Consistent>
1

> <s_lp_Variant>
CHEMBL221_lig153-1

> <s_i_glide_gridfile>
glide-grid_2oyu

> <i_i_glide_lignum>
175

> <i_i_glide_rotatable_bonds>
3

> <r_i_docking_score>
-9.77225058486498

> <r_i_glide_ligand_efficiency>
-0.424880460211521

> <r_i_glide_ligand_efficiency_sa>
-1.20830350991681

> <r_i_glide_ligand_efficiency_ln>
-2.3630188012896

> <r_i_glide_gscore>
-9.77225058486498

> <r_i_glide_lipo>
-4.1120246350292

> <r_i_glide_hbond>
-0.289202262144509

> <r_i_glide_metal>
0

> <r_i_glide_rewards>
-3.21487856732868

> <r_i_glide_evdw>
-25.620813369751

> <r_i_glide_ecoul>
-7.39546346664429

> <r_i_glide_erotb>
0.308311337818044

> <r_i_glide_esite>
-0.0740962696964509

> <r_i_glide_emodel>
-48.6923103484528

> <r_i_glide_energy>
-33.0162768363953

> <r_i_glide_einternal>
0.466000556945801

> <i_i_glide_confnum>
16

> <i_i_glide_posenum>
107

> <r_i_glide_eff_state_penalty>
0

> <s_user_duplicate_titles>
CHEMBL221_lig153

> <i_f3d_flags>
0

> <s_m_subgroup_title>
dock_pv

> <s_m_subgroupid>
dock_pv

> <b_m_subgroup_collapsed>
1

$$$$
CHEMBL221_lig305
                    3D
 Schrodinger Suite 2021-1.
 41 43  0  0  1  0            999 V2000
   19.1220   48.2825   14.1589 C   0  0  0  0  0  0
   20.1284   49.1124   14.3577 N   0  0  0  0  0  0
   20.5217   49.5326   13.1721 C   0  0  0  0  0  0
   19.7862   48.9524   12.1494 N   0  0  0  0  0  0
   19.9966   49.0160    6.1766 S   0  0  0  0  0  0
   18.8843   48.1556   12.8102 C   0  0  0  0  0  0
   18.4612   47.5748   15.3126 C   0  0  0  0  0  0
   21.6166   50.5376   13.0173 C   0  0  0  0  0  0
   20.0449   49.0666    7.9595 C   0  0  0  0  0  0
   19.8846   49.0487   10.7440 C   0  0  0  0  0  0
   22.5241   50.4726   11.9577 C   0  0  0  0  0  0
   23.4622   51.4819   11.7723 C   0  0  0  0  0  0
   20.9106   50.0082    5.6215 O   0  0  0  0  0  0
   20.1230   47.6201    5.7932 O   0  0  0  0  0  0
   18.3755   49.4730    5.8000 N   0  0  0  0  0  0
   23.5776   52.5238   12.6918 C   0  0  0  0  0  0
   21.7230   51.5893   13.9355 C   0  0  0  0  0  0
   18.1234   48.4196   16.2840 F   0  0  0  0  0  0
   17.3537   46.9361   14.9390 F   0  0  0  0  0  0
   19.7924   47.8734    8.6337 C   0  0  0  0  0  0
   20.1230   50.2665    8.6778 C   0  0  0  0  0  0
   19.3032   46.6729   15.8000 F   0  0  0  0  0  0
   19.7230   47.8731   10.0134 C   0  0  0  0  0  0
   20.0870   50.2600   10.0741 C   0  0  0  0  0  0
   22.6955   52.5731   13.7765 C   0  0  0  0  0  0
   24.5230   51.4731   10.2000 Br  0  0  0  0  0  0
   24.5461   53.4729   12.4716 O   0  0  0  0  0  0
   25.2935   53.9344   13.5860 C   0  0  0  0  0  0
   18.1591   47.5632   12.2703 H   0  0  0  0  0  0
   22.4762   49.6679   11.2394 H   0  0  0  0  0  0
   18.2270   50.2715    5.1672 H   0  0  0  0  0  0
   17.6591   48.7423    5.7810 H   0  0  0  0  0  0
   21.0330   51.6640   14.7639 H   0  0  0  0  0  0
   19.6643   46.9440    8.1008 H   0  0  0  0  0  0
   20.2173   51.2007    8.1429 H   0  0  0  0  0  0
   19.5876   46.9366   10.5211 H   0  0  0  0  0  0
   20.1631   51.1921   10.6157 H   0  0  0  0  0  0
   22.7379   53.3876   14.4825 H   0  0  0  0  0  0
   26.1606   54.4887   13.2279 H   0  0  0  0  0  0
   24.7073   54.6194   14.1998 H   0  0  0  0  0  0
   25.6553   53.1084   14.2000 H   0  0  0  0  0  0
  1  2  1  0  0  0
  1  6  2  0  0  0
  1  7  1  0  0  0
  2  3  2  0  0  0
  3  8  1  0  0  0
  3  4  1  0  0  0
  4  6  1  0  0  0
  4 10  1  0  0  0
  5  9  1  0  0  0
  5 13  2  0  0  0
  5 14  2  0  0  0
  5 15  1  0  0  0
  6 29  1  0  0  0
  7 18  1  0  0  0
  7 19  1  0  0  0
  7 22  1  0  0  0
  8 11  2  0  0  0
  8 17  1  0  0  0
  9 21  1  0  0  0
  9 20  2  0  0  0
 10 23  2  0  0  0
 10 24  1  0  0  0
 11 12  1  0  0  0
 11 30  1  0  0  0
 12 26  1  0  0  0
 12 16  2  0  0  0
 15 31  1  0  0  0
 15 32  1  0  0  0
 16 25  1  0  0  0
 16 27  1  0  0  0
 17 25  2  0  0  0
 17 33  1  0  0  0
 20 23  1  0  0  0
 20 34  1  0  0  0
 21 24  2  0  0  0
 21 35  1  0  0  0
 23 36  1  0  0  0
 24 37  1  0  0  0
 25 38  1  0  0  0
 27 28  1  0  0  0
 28 39  1  0  0  0
 28 40  1  0  0  0
 28 41  1  0  0  0
M  END
> <s_m_entry_id>
5078

> <s_m_entry_name>
dock_pv.69

> <s_m_Source_Path>
/home/csk/Desktop/cluster/DUD-E-result/pgh1

> <s_m_Source_File>
dock_pv.maegz

> <i_m_Source_File_Index>
69

> <chembl_id>
CHEMBL47147

> <chembl_pref_name>
None

> <i_lp_mmshare_version>
53161

> <r_lp_tautomer_probability>
1

> <s_lp_Force_Field>
OPLS_2005

> <r_lp_Energy>
29.498742

> <b_lp_Chiralities_Consistent>
1

> <s_lp_Variant>
CHEMBL221_lig305-1

> <s_i_glide_gridfile>
glide-grid_2oyu

> <i_i_glide_lignum>
338

> <i_i_glide_rotatable_bonds>
5

> <r_i_docking_score>
-9.7721294762734

> <r_i_glide_ligand_efficiency>
-0.349004624152622

> <r_i_glide_ligand_efficiency_sa>
-1.05978359165832

> <r_i_glide_ligand_efficiency_ln>
-2.25569440531287

> <r_i_glide_gscore>
-9.7721294762734

> <r_i_glide_lipo>
-4.28994483374595

> <r_i_glide_hbond>
-0.422679531081729

> <r_i_glide_metal>
0

> <r_i_glide_rewards>
-2.39258372057378

> <r_i_glide_evdw>
-30.689022064209

> <r_i_glide_ecoul>
-8.18310451507568

> <r_i_glide_erotb>
0.178533256112082

> <r_i_glide_esite>
-0.0835378665122249

> <r_i_glide_emodel>
-39.6441524861896

> <r_i_glide_energy>
-38.8721265792847

> <r_i_glide_einternal>
2.3521728515625

> <i_i_glide_confnum>
4

> <i_i_glide_posenum>
32

> <r_i_glide_eff_state_penalty>
0

> <s_user_duplicate_titles>
CHEMBL221_lig305

> <i_f3d_flags>
0

> <s_m_subgroup_title>
dock_pv

> <s_m_subgroupid>
dock_pv

> <b_m_subgroup_collapsed>
1

$$$$
CHEMBL221_lig352
                    3D
 Schrodinger Suite 2021-1.
 42 45  0  0  1  0            999 V2000
   19.8516   49.1377    6.2000 S   0  0  0  0  0  0
   20.4927   49.5473   13.2352 C   0  0  0  0  0  0
   19.8323   48.8515   12.2677 C   0  0  0  0  0  0
   18.9864   48.0960   14.3541 C   0  0  0  0  0  0
   21.5520   50.5727   13.0708 C   0  0  0  0  0  0
   20.1069   49.0730   14.6342 C   0  0  0  0  0  0
   18.8309   47.8726   12.8698 C   0  0  0  0  0  0
   19.9492   49.0732    7.9756 C   0  0  0  0  0  0
   22.5105   50.5147   12.0508 C   0  0  0  0  0  0
   19.9058   48.9854   10.7860 C   0  0  0  0  0  0
   17.7432   48.1157   15.2374 C   0  0  0  0  0  0
   18.6897   46.9644   15.3216 C   0  0  0  0  0  0
   23.4510   51.5336   11.8926 C   0  0  0  0  0  0
   20.6570   50.2730    5.7884 O   0  0  0  0  0  0
   20.1230   47.8135    5.6708 O   0  0  0  0  0  0
   18.2057   49.4730    5.8000 N   0  0  0  0  0  0
   23.4874   52.5992   12.7978 C   0  0  0  0  0  0
   21.5725   51.6733   13.9366 C   0  0  0  0  0  0
   19.7231   47.8682    8.6249 C   0  0  0  0  0  0
   20.1230   50.2411    8.7291 C   0  0  0  0  0  0
   19.7230   47.8371   10.0116 C   0  0  0  0  0  0
   20.1230   50.1983   10.1235 C   0  0  0  0  0  0
   22.5260   52.6761   13.8000 C   0  0  0  0  0  0
   24.5230   51.4730   10.5458 Cl  0  0  0  0  0  0
   24.7111   53.8178   12.7226 Cl  0  0  0  0  0  0
   20.9233   48.5616   15.1298 H   0  0  0  0  0  0
   19.7832   49.8729   15.2939 H   0  0  0  0  0  0
   19.0748   46.8404   12.6188 H   0  0  0  0  0  0
   17.8095   48.0684   12.5438 H   0  0  0  0  0  0
   22.5187   49.6853   11.3588 H   0  0  0  0  0  0
   17.6953   48.8242   16.0654 H   0  0  0  0  0  0
   16.7668   47.9680   14.7734 H   0  0  0  0  0  0
   18.3756   45.9987   14.9240 H   0  0  0  0  0  0
   19.3221   46.8564   16.1999 H   0  0  0  0  0  0
   18.0393   50.2401    5.1318 H   0  0  0  0  0  0
   17.5761   48.6730    5.7074 H   0  0  0  0  0  0
   20.8421   51.7721   14.7250 H   0  0  0  0  0  0
   19.5629   46.9610    8.0630 H   0  0  0  0  0  0
   20.2328   51.1876    8.2195 H   0  0  0  0  0  0
   19.6114   46.8831   10.4885 H   0  0  0  0  0  0
   20.2338   51.1187   10.6774 H   0  0  0  0  0  0
   22.5230   53.5080   14.4903 H   0  0  0  0  0  0
  1  8  1  0  0  0
  1 14  2  0  0  0
  1 15  2  0  0  0
  1 16  1  0  0  0
  2  3  2  0  0  0
  2  5  1  0  0  0
  2  6  1  0  0  0
  3 10  1  0  0  0
  3  7  1  0  0  0
  4  7  1  0  0  0
  4 11  1  0  0  0
  4 12  1  0  0  0
  4  6  1  0  0  0
  5  9  1  0  0  0
  5 18  2  0  0  0
  6 26  1  0  0  0
  6 27  1  0  0  0
  7 28  1  0  0  0
  7 29  1  0  0  0
  8 19  1  0  0  0
  8 20  2  0  0  0
  9 13  2  0  0  0
  9 30  1  0  0  0
 10 22  2  0  0  0
 10 21  1  0  0  0
 11 12  1  0  0  0
 11 31  1  0  0  0
 11 32  1  0  0  0
 12 33  1  0  0  0
 12 34  1  0  0  0
 13 24  1  0  0  0
 13 17  1  0  0  0
 16 35  1  0  0  0
 16 36  1  0  0  0
 17 23  2  0  0  0
 17 25  1  0  0  0
 18 23  1  0  0  0
 18 37  1  0  0  0
 19 21  2  0  0  0
 19 38  1  0  0  0
 20 22  1  0  0  0
 20 39  1  0  0  0
 21 40  1  0  0  0
 22 41  1  0  0  0
 23 42  1  0  0  0
M  END
> <s_m_entry_id>
5079

> <s_m_entry_name>
dock_pv.70

> <s_m_Source_Path>
/home/csk/Desktop/cluster/DUD-E-result/pgh1

> <s_m_Source_File>
dock_pv.maegz

> <i_m_Source_File_Index>
70

> <chembl_id>
CHEMBL313387

> <chembl_pref_name>
None

> <i_lp_mmshare_version>
53161

> <r_lp_tautomer_probability>
1

> <s_lp_Force_Field>
OPLS_2005

> <r_lp_Energy>
44.158175

> <b_lp_Chiralities_Consistent>
1

> <s_lp_Variant>
CHEMBL221_lig352-1

> <s_i_glide_gridfile>
glide-grid_2oyu

> <i_i_glide_lignum>
418

> <i_i_glide_rotatable_bonds>
3

> <r_i_docking_score>
-9.76876702884698

> <r_i_glide_ligand_efficiency>
-0.390750681153879

> <r_i_glide_ligand_efficiency_sa>
-1.14256192168678

> <r_i_glide_ligand_efficiency_ln>
-2.31549053216141

> <r_i_glide_gscore>
-9.76876702884698

> <r_i_glide_lipo>
-5.33748387544916

> <r_i_glide_hbond>
-0.385260683289768

> <r_i_glide_metal>
0

> <r_i_glide_rewards>
-1.82569450012745

> <r_i_glide_evdw>
-27.8759326934814

> <r_i_glide_ecoul>
-6.68445682525635

> <r_i_glide_erotb>
0.251390369360861

> <r_i_glide_esite>
-0.0752531808789354

> <r_i_glide_emodel>
-43.0282621637022

> <r_i_glide_energy>
-34.5603895187378

> <r_i_glide_einternal>
0.535188436508179

> <i_i_glide_confnum>
1

> <i_i_glide_posenum>
331

> <r_i_glide_eff_state_penalty>
0

> <s_user_duplicate_titles>
CHEMBL221_lig352,144011

> <i_f3d_flags>
0

> <s_m_subgroup_title>
dock_pv

> <s_m_subgroupid>
dock_pv

> <b_m_subgroup_collapsed>
1

$$$$
CHEMBL221_lig290
                    3D
 Schrodinger Suite 2021-1.
 37 39  0  0  1  0            999 V2000
   19.1879   48.3638   14.1355 C   0  0  0  0  0  0
   20.1978   49.2063   14.3005 N   0  0  0  0  0  0
   20.5776   49.5783   13.0939 C   0  0  0  0  0  0
   19.8227   48.9756   12.1049 N   0  0  0  0  0  0
   20.0018   49.0256    6.1537 S   0  0  0  0  0  0
   18.9230   48.2061   12.7946 C   0  0  0  0  0  0
   18.5178   47.6770   15.3007 C   0  0  0  0  0  0
   21.7001   50.5314   12.8425 C   0  0  0  0  0  0
   20.0393   49.0624    7.9279 C   0  0  0  0  0  0
   19.9104   49.0507   10.7028 C   0  0  0  0  0  0
   20.9049   50.0270    5.5980 O   0  0  0  0  0  0
   20.1230   47.6388    5.7402 O   0  0  0  0  0  0
   18.3864   49.4730    5.8000 N   0  0  0  0  0  0
   21.7140   51.7914   13.4498 C   0  0  0  0  0  0
   20.1230   50.2641    8.6396 C   0  0  0  0  0  0
   17.3889   47.0730   14.9304 F   0  0  0  0  0  0
   19.3230   46.7426   15.8000 F   0  0  0  0  0  0
   18.2024   48.5411   16.2601 F   0  0  0  0  0  0
   19.7794   47.8730    8.6008 C   0  0  0  0  0  0
   19.7230   47.8730    9.9812 C   0  0  0  0  0  0
   20.1230   50.2584   10.0332 C   0  0  0  0  0  0
   22.7119   52.7146   13.1350 C   0  0  0  0  0  0
   22.6524   54.3046   13.8000 Cl  0  0  0  0  0  0
   22.7283   50.1913   11.9575 C   0  0  0  0  0  0
   23.7398   51.1030   11.6611 C   0  0  0  0  0  0
   23.7300   52.3675   12.2471 C   0  0  0  0  0  0
   18.1859   47.6067   12.2790 H   0  0  0  0  0  0
   18.2298   50.4753    5.9506 H   0  0  0  0  0  0
   18.1230   49.2685    4.8327 H   0  0  0  0  0  0
   20.9230   52.0746   14.1291 H   0  0  0  0  0  0
   20.2215   51.1970    8.1033 H   0  0  0  0  0  0
   19.6367   46.9477    8.0644 H   0  0  0  0  0  0
   19.5739   46.9424   10.4953 H   0  0  0  0  0  0
   20.2232   51.1887   10.5742 H   0  0  0  0  0  0
   22.7342   49.2200   11.4857 H   0  0  0  0  0  0
   24.5230   50.8325   10.9678 H   0  0  0  0  0  0
   24.5033   53.0811   12.0027 H   0  0  0  0  0  0
  1  2  1  0  0  0
  1  6  2  0  0  0
  1  7  1  0  0  0
  2  3  2  0  0  0
  3  8  1  0  0  0
  3  4  1  0  0  0
  4  6  1  0  0  0
  4 10  1  0  0  0
  5  9  1  0  0  0
  5 11  2  0  0  0
  5 12  2  0  0  0
  5 13  1  0  0  0
  6 27  1  0  0  0
  7 16  1  0  0  0
  7 17  1  0  0  0
  7 18  1  0  0  0
  8 14  1  0  0  0
  8 24  2  0  0  0
  9 15  1  0  0  0
  9 19  2  0  0  0
 10 20  2  0  0  0
 10 21  1  0  0  0
 13 28  1  0  0  0
 13 29  1  0  0  0
 14 22  2  0  0  0
 14 30  1  0  0  0
 15 21  2  0  0  0
 15 31  1  0  0  0
 19 20  1  0  0  0
 19 32  1  0  0  0
 20 33  1  0  0  0
 21 34  1  0  0  0
 22 23  1  0  0  0
 22 26  1  0  0  0
 24 25  1  0  0  0
 24 35  1  0  0  0
 25 26  2  0  0  0
 25 36  1  0  0  0
 26 37  1  0  0  0
M  END
> <s_m_entry_id>
5080

> <s_m_entry_name>
dock_pv.71

> <s_m_Source_Path>
/home/csk/Desktop/cluster/DUD-E-result/pgh1

> <s_m_Source_File>
dock_pv.maegz

> <i_m_Source_File_Index>
71

> <chembl_id>
CHEMBL298269

> <chembl_pref_name>
None

> <i_lp_mmshare_version>
53161

> <r_lp_tautomer_probability>
1

> <s_lp_Force_Field>
OPLS_2005

> <r_lp_Energy>
26.677314

> <b_lp_Chiralities_Consistent>
1

> <s_lp_Variant>
CHEMBL221_lig290-1

> <s_i_glide_gridfile>
glide-grid_2oyu

> <i_i_glide_lignum>
323

> <i_i_glide_rotatable_bonds>
4

> <r_i_docking_score>
-9.75751998632288

> <r_i_glide_ligand_efficiency>
-0.375289230243188

> <r_i_glide_ligand_efficiency_sa>
-1.11179286790363

> <r_i_glide_ligand_efficiency_ln>
-2.29152155175343

> <r_i_glide_gscore>
-9.75751998632288

> <r_i_glide_lipo>
-4.0656787524764

> <r_i_glide_hbond>
-0.322708618754751

> <r_i_glide_metal>
0

> <r_i_glide_rewards>
-3.1451736751499

> <r_i_glide_evdw>
-28.0530395507812

> <r_i_glide_ecoul>
-6.52480220794678

> <r_i_glide_erotb>
0.243036962466942

> <r_i_glide_esite>
-0.0856235936776962

> <r_i_glide_emodel>
-44.6034570739303

> <r_i_glide_energy>
-34.577841758728

> <r_i_glide_einternal>
1.45282101631165

> <i_i_glide_confnum>
12

> <i_i_glide_posenum>
263

> <r_i_glide_eff_state_penalty>
0

> <s_user_duplicate_titles>
CHEMBL221_lig290

> <i_f3d_flags>
0

> <s_m_subgroup_title>
dock_pv

> <s_m_subgroupid>
dock_pv

> <b_m_subgroup_collapsed>
1

$$$$
CHEMBL221_lig359
                    3D
 Schrodinger Suite 2021-1.
 42 45  0  0  1  0            999 V2000
   20.0100   49.0068    6.2185 S   0  0  0  0  0  0
   19.7143   48.8541   12.2907 C   0  0  0  0  0  0
   20.4845   49.4730   13.2212 C   0  0  0  0  0  0
   18.8972   48.1868   14.4082 C   0  0  0  0  0  0
   18.6463   47.9774   12.9284 C   0  0  0  0  0  0
   20.1282   49.0448   14.6369 C   0  0  0  0  0  0
   20.0423   49.0303    8.0103 C   0  0  0  0  0  0
   19.8138   48.9806   10.8126 C   0  0  0  0  0  0
   21.6706   50.2979   12.9275 C   0  0  0  0  0  0
   18.5837   47.0561   15.3733 C   0  0  0  0  0  0
   17.7230   48.2730   15.3742 C   0  0  0  0  0  0
   20.9230   50.0023    5.6724 O   0  0  0  0  0  0
   20.1230   47.6200    5.8000 O   0  0  0  0  0  0
   18.4123   49.4730    5.8000 N   0  0  0  0  0  0
   19.8021   47.8326    8.6753 C   0  0  0  0  0  0
   20.1230   50.2177    8.7491 C   0  0  0  0  0  0
   19.7230   47.8170   10.0573 C   0  0  0  0  0  0
   20.0388   50.1926   10.1455 C   0  0  0  0  0  0
   22.5465   49.8844   11.9208 C   0  0  0  0  0  0
   21.9180   51.4964   13.6084 C   0  0  0  0  0  0
   23.8685   51.8376   12.2462 C   0  0  0  0  0  0
   23.0289   52.2712   13.2711 C   0  0  0  0  0  0
   23.6237   50.6693   11.5636 C   0  0  0  0  0  0
   25.2837   52.6730   11.8000 Cl  0  0  0  0  0  0
   17.6381   48.2730   12.6376 H   0  0  0  0  0  0
   18.7858   46.9310   12.6588 H   0  0  0  0  0  0
   19.9392   49.8730   15.3121 H   0  0  0  0  0  0
   20.9230   48.4481   15.0738 H   0  0  0  0  0  0
   18.1720   46.1251   14.9817 H   0  0  0  0  0  0
   19.2689   46.8813   16.2000 H   0  0  0  0  0  0
   17.7831   48.9661   16.2140 H   0  0  0  0  0  0
   16.7109   48.2082   14.9722 H   0  0  0  0  0  0
   18.2638   50.4790    5.9325 H   0  0  0  0  0  0
   18.1716   49.2503    4.8310 H   0  0  0  0  0  0
   19.7008   46.9057    8.1324 H   0  0  0  0  0  0
   20.2360   51.1578    8.2296 H   0  0  0  0  0  0
   19.6277   46.8687   10.5506 H   0  0  0  0  0  0
   20.1092   51.1173   10.6996 H   0  0  0  0  0  0
   22.3953   48.9525   11.4000 H   0  0  0  0  0  0
   21.2518   51.8327   14.3898 H   0  0  0  0  0  0
   23.2384   53.1901   13.8000 H   0  0  0  0  0  0
   24.2999   50.3520   10.7852 H   0  0  0  0  0  0
  1  7  1  0  0  0
  1 12  2  0  0  0
  1 13  2  0  0  0
  1 14  1  0  0  0
  2  8  1  0  0  0
  2  3  2  0  0  0
  2  5  1  0  0  0
  3  6  1  0  0  0
  3  9  1  0  0  0
  4  5  1  0  0  0
  4 10  1  0  0  0
  4 11  1  0  0  0
  4  6  1  0  0  0
  5 25  1  0  0  0
  5 26  1  0  0  0
  6 27  1  0  0  0
  6 28  1  0  0  0
  7 15  2  0  0  0
  7 16  1  0  0  0
  8 18  1  0  0  0
  8 17  2  0  0  0
  9 19  1  0  0  0
  9 20  2  0  0  0
 10 11  1  0  0  0
 10 29  1  0  0  0
 10 30  1  0  0  0
 11 31  1  0  0  0
 11 32  1  0  0  0
 14 33  1  0  0  0
 14 34  1  0  0  0
 15 17  1  0  0  0
 15 35  1  0  0  0
 16 18  2  0  0  0
 16 36  1  0  0  0
 17 37  1  0  0  0
 18 38  1  0  0  0
 19 23  2  0  0  0
 19 39  1  0  0  0
 20 22  1  0  0  0
 20 40  1  0  0  0
 21 22  2  0  0  0
 21 24  1  0  0  0
 21 23  1  0  0  0
 22 41  1  0  0  0
 23 42  1  0  0  0
M  END
> <s_m_entry_id>
5081

> <s_m_entry_name>
dock_pv.72

> <s_m_Source_Path>
/home/csk/Desktop/cluster/DUD-E-result/pgh1

> <s_m_Source_File>
dock_pv.maegz

> <i_m_Source_File_Index>
72

> <chembl_id>
CHEMBL88717

> <chembl_pref_name>
None

> <i_lp_mmshare_version>
53161

> <r_lp_tautomer_probability>
1

> <s_lp_Force_Field>
OPLS_2005

> <r_lp_Energy>
43.737457

> <b_lp_Chiralities_Consistent>
1

> <s_lp_Variant>
CHEMBL221_lig359-1

> <s_i_glide_gridfile>
glide-grid_2oyu

> <i_i_glide_lignum>
425

> <i_i_glide_rotatable_bonds>
3

> <r_i_docking_score>
-9.74757616343281

> <r_i_glide_ligand_efficiency>
-0.4061490068097

> <r_i_glide_ligand_efficiency_sa>
-1.17153645986307

> <r_i_glide_ligand_efficiency_ln>
-2.33304226303399

> <r_i_glide_gscore>
-9.74757616343281

> <r_i_glide_lipo>
-5.36317461455748

> <r_i_glide_hbond>
-0.301650593672127

> <r_i_glide_metal>
0

> <r_i_glide_rewards>
-2.25633589234519

> <r_i_glide_evdw>
-22.5257205963135

> <r_i_glide_ecoul>
-6.13639497756958

> <r_i_glide_erotb>
0.296083668939369

> <r_i_glide_esite>
-0.0757534553462686

> <r_i_glide_emodel>
-37.1401832643309

> <r_i_glide_energy>
-28.6621155738831

> <r_i_glide_einternal>
1.09265506267548

> <i_i_glide_confnum>
16

> <i_i_glide_posenum>
236

> <r_i_glide_eff_state_penalty>
0

> <s_user_duplicate_titles>
CHEMBL221_lig359,144008

> <i_f3d_flags>
0

> <s_m_subgroup_title>
dock_pv

> <s_m_subgroupid>
dock_pv

> <b_m_subgroup_collapsed>
1

$$$$
CHEMBL221_lig349
                    3D
 Schrodinger Suite 2021-1.
 38 40  0  0  1  0            999 V2000
   19.8610   49.1251    6.1951 S   0  0  0  0  0  0
   20.5644   49.4424   13.2494 C   0  0  0  0  0  0
   19.8141   48.7438   12.2700 C   0  0  0  0  0  0
   21.6480   50.4262   12.9849 C   0  0  0  0  0  0
   18.9608   47.8732   14.6056 S   0  0  0  0  0  0
   19.9444   49.0046    7.9714 C   0  0  0  0  0  0
   21.6244   51.6945   13.5697 C   0  0  0  0  0  0
   22.6327   52.6166   13.3000 C   0  0  0  0  0  0
   20.1959   49.0733   14.5452 C   0  0  0  0  0  0
   18.9128   47.8726   12.8817 C   0  0  0  0  0  0
   19.9040   48.8717   10.7745 C   0  0  0  0  0  0
   20.6576   50.2730    5.7999 O   0  0  0  0  0  0
   20.1230   47.8244    5.6088 O   0  0  0  0  0  0
   18.2284   49.4730    5.8000 N   0  0  0  0  0  0
   23.7230   52.2499   12.4935 C   0  0  0  0  0  0
   22.7016   50.0864   12.1349 C   0  0  0  0  0  0
   19.7232   47.7857    8.6002 C   0  0  0  0  0  0
   20.1230   50.1589    8.7446 C   0  0  0  0  0  0
   19.7230   47.7301    9.9889 C   0  0  0  0  0  0
   20.1230   50.0948   10.1367 C   0  0  0  0  0  0
   23.7241   50.9958   11.8841 C   0  0  0  0  0  0
   22.5143   53.8666   13.8000 F   0  0  0  0  0  0
   24.7735   53.0852   12.2000 O   0  0  0  0  0  0
   25.3902   53.7652   13.2900 C   0  0  0  0  0  0
   20.8097   51.9871   14.2141 H   0  0  0  0  0  0
   20.6121   49.4492   15.4685 H   0  0  0  0  0  0
   18.2103   47.2258   12.3816 H   0  0  0  0  0  0
   17.9716   50.4016    6.1503 H   0  0  0  0  0  0
   18.1030   49.5457    4.7857 H   0  0  0  0  0  0
   22.7334   49.1102   11.6738 H   0  0  0  0  0  0
   19.5701   46.8889    8.0205 H   0  0  0  0  0  0
   20.2382   51.1146    8.2553 H   0  0  0  0  0  0
   19.6389   46.7704   10.4638 H   0  0  0  0  0  0
   20.2422   51.0036   10.7081 H   0  0  0  0  0  0
   24.5352   50.7195   11.2266 H   0  0  0  0  0  0
   26.2858   54.2728   12.9351 H   0  0  0  0  0  0
   25.6870   53.0731   14.0798 H   0  0  0  0  0  0
   24.7568   54.5421   13.7163 H   0  0  0  0  0  0
  1  6  1  0  0  0
  1 12  2  0  0  0
  1 13  2  0  0  0
  1 14  1  0  0  0
  2  3  1  0  0  0
  2  4  1  0  0  0
  2  9  2  0  0  0
  3 11  1  0  0  0
  3 10  2  0  0  0
  4  7  2  0  0  0
  4 16  1  0  0  0
  5 10  1  0  0  0
  5  9  1  0  0  0
  6 17  2  0  0  0
  6 18  1  0  0  0
  7  8  1  0  0  0
  7 25  1  0  0  0
  8 22  1  0  0  0
  8 15  2  0  0  0
  9 26  1  0  0  0
 10 27  1  0  0  0
 11 20  1  0  0  0
 11 19  2  0  0  0
 14 28  1  0  0  0
 14 29  1  0  0  0
 15 21  1  0  0  0
 15 23  1  0  0  0
 16 21  2  0  0  0
 16 30  1  0  0  0
 17 19  1  0  0  0
 17 31  1  0  0  0
 18 20  2  0  0  0
 18 32  1  0  0  0
 19 33  1  0  0  0
 20 34  1  0  0  0
 21 35  1  0  0  0
 23 24  1  0  0  0
 24 36  1  0  0  0
 24 37  1  0  0  0
 24 38  1  0  0  0
M  END
> <s_m_entry_id>
5082

> <s_m_entry_name>
dock_pv.73

> <s_m_Source_Path>
/home/csk/Desktop/cluster/DUD-E-result/pgh1

> <s_m_Source_File>
dock_pv.maegz

> <i_m_Source_File_Index>
73

> <chembl_id>
CHEMBL97874

> <chembl_pref_name>
None

> <i_lp_mmshare_version>
53161

> <r_lp_tautomer_probability>
1

> <s_lp_Force_Field>
OPLS_2005

> <r_lp_Energy>
26.282408

> <b_lp_Chiralities_Consistent>
1

> <s_lp_Variant>
CHEMBL221_lig349-1

> <s_i_glide_gridfile>
glide-grid_2oyu

> <i_i_glide_lignum>
415

> <i_i_glide_rotatable_bonds>
4

> <r_i_docking_score>
-9.73906329077647

> <r_i_glide_ligand_efficiency>
-0.405794303782353

> <r_i_glide_ligand_efficiency_sa>
-1.1705133192866

> <r_i_glide_ligand_efficiency_ln>
-2.33100474197706

> <r_i_glide_gscore>
-9.73906329077647

> <r_i_glide_lipo>
-5.02715265424098

> <r_i_glide_hbond>
-0.452875654109096

> <r_i_glide_metal>
0

> <r_i_glide_rewards>
-2.22190997341699

> <r_i_glide_evdw>
-26.9042510986328

> <r_i_glide_ecoul>
-6.01373529434204

> <r_i_glide_erotb>
0.290934116497654

> <r_i_glide_esite>
-0.0807862764241093

> <r_i_glide_emodel>
-38.6578157704256

> <r_i_glide_energy>
-32.9179863929749

> <r_i_glide_einternal>
7.05155229568481

> <i_i_glide_confnum>
16

> <i_i_glide_posenum>
354

> <r_i_glide_eff_state_penalty>
0

> <s_user_duplicate_titles>
CHEMBL221_lig349

> <i_f3d_flags>
0

> <s_m_subgroup_title>
dock_pv

> <s_m_subgroupid>
dock_pv

> <b_m_subgroup_collapsed>
1

$$$$
CHEMBL221_lig371
                    3D
 Schrodinger Suite 2021-1.
 40 42  0  0  1  0            999 V2000
   20.0503   48.9550    6.5043 S   0  0  0  0  0  0
   20.3217   49.4596   13.6310 C   0  0  0  0  0  0
   19.5183   48.9107   12.5999 C   0  0  0  0  0  0
   21.3790   50.4844   13.3926 C   0  0  0  0  0  0
   20.0656   49.0730   14.9634 C   0  0  0  0  0  0
   18.4202   48.1192   12.9770 C   0  0  0  0  0  0
   20.1230   49.0609    8.3138 C   0  0  0  0  0  0
   18.9715   48.2730   15.2938 C   0  0  0  0  0  0
   18.1327   47.8162   14.2963 C   0  0  0  0  0  0
   22.3873   50.3199   12.4359 C   0  0  0  0  0  0
   20.9230   49.9053    5.8336 O   0  0  0  0  0  0
   20.1230   47.5423    6.1551 O   0  0  0  0  0  0
   19.7626   49.0495   11.1224 C   0  0  0  0  0  0
   23.3489   51.3129   12.2200 C   0  0  0  0  0  0
   18.4787   49.4730    6.0928 N   0  0  0  0  0  0
   23.3306   52.4786   12.9999 C   0  0  0  0  0  0
   21.3640   51.6690   14.1403 C   0  0  0  0  0  0
   20.1230   50.2628    9.0367 C   0  0  0  0  0  0
   19.8900   47.8730    8.9999 C   0  0  0  0  0  0
   19.9715   50.2574   10.4351 C   0  0  0  0  0  0
   19.7230   47.8757   10.3729 C   0  0  0  0  0  0
   22.3222   52.6564   13.9411 C   0  0  0  0  0  0
   17.0460   47.0730   14.6033 F   0  0  0  0  0  0
   18.6832   47.9721   16.5774 F   0  0  0  0  0  0
   24.5458   53.7028   12.8658 Cl  0  0  0  0  0  0
   24.3941   51.0730   11.1497 C   0  0  0  0  0  0
   20.6804   49.4558   15.7653 H   0  0  0  0  0  0
   17.7578   47.7246   12.2212 H   0  0  0  0  0  0
   22.4227   49.4137   11.8477 H   0  0  0  0  0  0
   18.3613   50.4778    6.2695 H   0  0  0  0  0  0
   18.2502   49.3053    5.1099 H   0  0  0  0  0  0
   20.5997   51.8351   14.8861 H   0  0  0  0  0  0
   20.2196   51.1919    8.4982 H   0  0  0  0  0  0
   19.8268   46.9310    8.4764 H   0  0  0  0  0  0
   19.9707   51.1940   10.9736 H   0  0  0  0  0  0
   19.5969   46.9360   10.8775 H   0  0  0  0  0  0
   22.3005   53.5538   14.5434 H   0  0  0  0  0  0
   23.9173   50.9203   10.1814 H   0  0  0  0  0  0
   24.9230   50.1567   11.4001 H   0  0  0  0  0  0
   25.1259   51.8730   11.0437 H   0  0  0  0  0  0
  1  7  1  0  0  0
  1 11  2  0  0  0
  1 12  2  0  0  0
  1 15  1  0  0  0
  2  3  1  0  0  0
  2  4  1  0  0  0
  2  5  2  0  0  0
  3 13  1  0  0  0
  3  6  2  0  0  0
  4 10  2  0  0  0
  4 17  1  0  0  0
  5  8  1  0  0  0
  5 27  1  0  0  0
  6  9  1  0  0  0
  6 28  1  0  0  0
  7 18  2  0  0  0
  7 19  1  0  0  0
  8  9  2  0  0  0
  8 24  1  0  0  0
  9 23  1  0  0  0
 10 14  1  0  0  0
 10 29  1  0  0  0
 13 21  1  0  0  0
 13 20  2  0  0  0
 14 26  1  0  0  0
 14 16  2  0  0  0
 15 30  1  0  0  0
 15 31  1  0  0  0
 16 22  1  0  0  0
 16 25  1  0  0  0
 17 22  2  0  0  0
 17 32  1  0  0  0
 18 20  1  0  0  0
 18 33  1  0  0  0
 19 21  2  0  0  0
 19 34  1  0  0  0
 20 35  1  0  0  0
 21 36  1  0  0  0
 22 37  1  0  0  0
 26 38  1  0  0  0
 26 39  1  0  0  0
 26 40  1  0  0  0
M  END
> <s_m_entry_id>
5083

> <s_m_entry_name>
dock_pv.74

> <s_m_Source_Path>
/home/csk/Desktop/cluster/DUD-E-result/pgh1

> <s_m_Source_File>
dock_pv.maegz

> <i_m_Source_File_Index>
74

> <chembl_id>
CHEMBL55805

> <chembl_pref_name>
None

> <i_lp_mmshare_version>
53161

> <r_lp_tautomer_probability>
1

> <s_lp_Force_Field>
OPLS_2005

> <r_lp_Energy>
28.26068

> <b_lp_Chiralities_Consistent>
1

> <s_lp_Variant>
CHEMBL221_lig371-1

> <s_i_glide_gridfile>
glide-grid_2oyu

> <i_i_glide_lignum>
437

> <i_i_glide_rotatable_bonds>
3

> <r_i_docking_score>
-9.73105018598603

> <r_i_glide_ligand_efficiency>
-0.374271160999463

> <r_i_glide_ligand_efficiency_sa>
-1.108776841775

> <r_i_glide_ligand_efficiency_ln>
-2.28530520599882

> <r_i_glide_gscore>
-9.73105018598603

> <r_i_glide_lipo>
-5.05517941820513

> <r_i_glide_hbond>
-0.341940942770187

> <r_i_glide_metal>
0

> <r_i_glide_rewards>
-2.20937295455396

> <r_i_glide_evdw>
-26.6643581390381

> <r_i_glide_ecoul>
-6.47175645828247

> <r_i_glide_erotb>
0.251941076321249

> <r_i_glide_esite>
-0.0725165710837397

> <r_i_glide_emodel>
-36.0018261130233

> <r_i_glide_energy>
-33.1361145973206

> <r_i_glide_einternal>
5.45864582061768

> <i_i_glide_confnum>
16

> <i_i_glide_posenum>
70

> <r_i_glide_eff_state_penalty>
0

> <s_user_duplicate_titles>
CHEMBL221_lig371

> <i_f3d_flags>
0

> <s_m_subgroup_title>
dock_pv

> <s_m_subgroupid>
dock_pv

> <b_m_subgroup_collapsed>
1

$$$$
CHEMBL221_lig385
                    3D
 Schrodinger Suite 2021-1.
 37 39  0  0  1  0            999 V2000
   20.0479   48.9701    6.4615 S   0  0  0  0  0  0
   20.3755   49.4375   13.5804 C   0  0  0  0  0  0
   19.5363   48.9081   12.5646 C   0  0  0  0  0  0
   21.4793   50.4047   13.3053 C   0  0  0  0  0  0
   20.1232   49.0731   14.9187 C   0  0  0  0  0  0
   18.4395   48.1248   12.9583 C   0  0  0  0  0  0
   20.1230   49.0669    8.2734 C   0  0  0  0  0  0
   19.0266   48.2838   15.2656 C   0  0  0  0  0  0
   18.1727   47.8235   14.2823 C   0  0  0  0  0  0
   22.3596   50.2328   12.2315 C   0  0  0  0  0  0
   23.2690   51.2256   11.8865 C   0  0  0  0  0  0
   20.9229   49.9260    5.8007 O   0  0  0  0  0  0
   20.1230   47.5587    6.1097 O   0  0  0  0  0  0
   19.7514   49.0489   11.0814 C   0  0  0  0  0  0
   18.4722   49.4730    6.0367 N   0  0  0  0  0  0
   23.4126   52.3545   12.6930 C   0  0  0  0  0  0
   21.6192   51.5561   14.0951 C   0  0  0  0  0  0
   20.1230   50.2667    8.9999 C   0  0  0  0  0  0
   19.8888   47.8752    8.9563 C   0  0  0  0  0  0
   19.9490   50.2592   10.3946 C   0  0  0  0  0  0
   19.7230   47.8768   10.3304 C   0  0  0  0  0  0
   22.5840   52.5165   13.7997 C   0  0  0  0  0  0
   17.0936   47.0766   14.6080 F   0  0  0  0  0  0
   18.7566   47.9894   16.5535 F   0  0  0  0  0  0
   24.1272   51.0726   10.4060 Cl  0  0  0  0  0  0
   24.3375   53.2973   12.4053 F   0  0  0  0  0  0
   20.7573   49.4431   15.7114 H   0  0  0  0  0  0
   17.7636   47.7347   12.2119 H   0  0  0  0  0  0
   22.2927   49.3555   11.6054 H   0  0  0  0  0  0
   18.3709   50.4923    6.0944 H   0  0  0  0  0  0
   18.1980   49.1798    5.0964 H   0  0  0  0  0  0
   20.9562   51.7299   14.9306 H   0  0  0  0  0  0
   20.2203   51.1978    8.4643 H   0  0  0  0  0  0
   19.8294   46.9342    8.4305 H   0  0  0  0  0  0
   19.9416   51.1953   10.9337 H   0  0  0  0  0  0
   19.6061   46.9356   10.8352 H   0  0  0  0  0  0
   22.6712   53.4011   14.4130 H   0  0  0  0  0  0
  1  7  1  0  0  0
  1 12  2  0  0  0
  1 13  2  0  0  0
  1 15  1  0  0  0
  2  3  1  0  0  0
  2  4  1  0  0  0
  2  5  2  0  0  0
  3 14  1  0  0  0
  3  6  2  0  0  0
  4 10  2  0  0  0
  4 17  1  0  0  0
  5  8  1  0  0  0
  5 27  1  0  0  0
  6  9  1  0  0  0
  6 28  1  0  0  0
  7 18  2  0  0  0
  7 19  1  0  0  0
  8  9  2  0  0  0
  8 24  1  0  0  0
  9 23  1  0  0  0
 10 11  1  0  0  0
 10 29  1  0  0  0
 11 25  1  0  0  0
 11 16  2  0  0  0
 14 21  1  0  0  0
 14 20  2  0  0  0
 15 30  1  0  0  0
 15 31  1  0  0  0
 16 22  1  0  0  0
 16 26  1  0  0  0
 17 22  2  0  0  0
 17 32  1  0  0  0
 18 20  1  0  0  0
 18 33  1  0  0  0
 19 21  2  0  0  0
 19 34  1  0  0  0
 20 35  1  0  0  0
 21 36  1  0  0  0
 22 37  1  0  0  0
M  END
> <s_m_entry_id>
5084

> <s_m_entry_name>
dock_pv.75

> <s_m_Source_Path>
/home/csk/Desktop/cluster/DUD-E-result/pgh1

> <s_m_Source_File>
dock_pv.maegz

> <i_m_Source_File_Index>
75

> <chembl_id>
CHEMBL52820

> <chembl_pref_name>
None

> <i_lp_mmshare_version>
53161

> <r_lp_tautomer_probability>
1

> <s_lp_Force_Field>
OPLS_2005

> <r_lp_Energy>
28.253764

> <b_lp_Chiralities_Consistent>
1

> <s_lp_Variant>
CHEMBL221_lig385-1

> <s_i_glide_gridfile>
glide-grid_2oyu

> <i_i_glide_lignum>
452

> <i_i_glide_rotatable_bonds>
3

> <r_i_docking_score>
-9.70943017492334

> <r_i_glide_ligand_efficiency>
-0.373439622112436

> <r_i_glide_ligand_efficiency_sa>
-1.10631341109413

> <r_i_glide_ligand_efficiency_ln>
-2.28022781734179

> <r_i_glide_gscore>
-9.70943017492334

> <r_i_glide_lipo>
-4.82688759612684

> <r_i_glide_hbond>
-0.276339337019442

> <r_i_glide_metal>
0

> <r_i_glide_rewards>
-2.63914734705616

> <r_i_glide_evdw>
-26.0205039978027

> <r_i_glide_ecoul>
-5.60434293746948

> <r_i_glide_erotb>
0.247444433076217

> <r_i_glide_esite>
-0.0728236872865513

> <r_i_glide_emodel>
-39.4244604494736

> <r_i_glide_energy>
-31.6248469352722

> <r_i_glide_einternal>
1.92463421821594

> <i_i_glide_confnum>
16

> <i_i_glide_posenum>
374

> <r_i_glide_eff_state_penalty>
0

> <s_user_duplicate_titles>
CHEMBL221_lig385

> <i_f3d_flags>
0

> <s_m_subgroup_title>
dock_pv

> <s_m_subgroupid>
dock_pv

> <b_m_subgroup_collapsed>
1

$$$$
CHEMBL221_lig331
                    3D
 Schrodinger Suite 2021-1.
 38 40  0  0  1  0            999 V2000
   19.9952   48.9636    6.2967 S   0  0  0  0  0  0
   19.9698   49.0645   12.3960 C   0  0  0  0  0  0
   20.7621   49.7711   13.2417 C   0  0  0  0  0  0
   20.0131   49.0352    8.0926 C   0  0  0  0  0  0
   19.9365   49.1122   10.9086 C   0  0  0  0  0  0
   21.8864   50.6730   12.9083 C   0  0  0  0  0  0
   20.9230   49.9352    5.7390 O   0  0  0  0  0  0
   20.1230   47.5610    5.9333 O   0  0  0  0  0  0
   18.4258   49.4730    5.8000 N   0  0  0  0  0  0
   20.1230   50.2512    8.7759 C   0  0  0  0  0  0
   19.7479   47.8730    8.8207 C   0  0  0  0  0  0
   20.1230   50.2867   10.1724 C   0  0  0  0  0  0
   19.7230   47.9226   10.2115 C   0  0  0  0  0  0
   22.0741   51.8503   13.6426 C   0  0  0  0  0  0
   22.7868   50.3538   11.8868 C   0  0  0  0  0  0
   24.0777   52.3172   12.3975 C   0  0  0  0  0  0
   18.9363   48.2545   13.1662 C   0  0  0  0  0  0
   20.4574   49.4533   14.6960 C   0  0  0  0  0  0
   23.8765   51.1770   11.6268 C   0  0  0  0  0  0
   23.1687   52.6702   13.3891 C   0  0  0  0  0  0
   25.1781   53.0730   12.2000 F   0  0  0  0  0  0
   19.3386   48.4203   14.6272 C   0  0  0  0  0  0
   18.3013   50.4844    5.9134 H   0  0  0  0  0  0
   18.2188   49.2430    4.8250 H   0  0  0  0  0  0
   20.2354   51.1658    8.2120 H   0  0  0  0  0  0
   19.5893   46.9313    8.3169 H   0  0  0  0  0  0
   20.2514   51.2333   10.6768 H   0  0  0  0  0  0
   19.5715   47.0149   10.7622 H   0  0  0  0  0  0
   21.3857   52.1296   14.4266 H   0  0  0  0  0  0
   22.6579   49.4510   11.3102 H   0  0  0  0  0  0
   17.9424   48.6730   13.0000 H   0  0  0  0  0  0
   18.9072   47.2019   12.8835 H   0  0  0  0  0  0
   21.3230   49.0730   15.2323 H   0  0  0  0  0  0
   20.1230   50.3426   15.2234 H   0  0  0  0  0  0
   24.5776   50.9188   10.8484 H   0  0  0  0  0  0
   23.3230   53.5665   13.9719 H   0  0  0  0  0  0
   19.6907   47.4680   15.0270 H   0  0  0  0  0  0
   18.4857   48.7090   15.2438 H   0  0  0  0  0  0
  1  4  1  0  0  0
  1  7  2  0  0  0
  1  8  2  0  0  0
  1  9  1  0  0  0
  2  5  1  0  0  0
  2  3  2  0  0  0
  2 17  1  0  0  0
  3  6  1  0  0  0
  3 18  1  0  0  0
  4 10  2  0  0  0
  4 11  1  0  0  0
  5 13  1  0  0  0
  5 12  2  0  0  0
  6 14  2  0  0  0
  6 15  1  0  0  0
  9 23  1  0  0  0
  9 24  1  0  0  0
 10 12  1  0  0  0
 10 25  1  0  0  0
 11 13  2  0  0  0
 11 26  1  0  0  0
 12 27  1  0  0  0
 13 28  1  0  0  0
 14 20  1  0  0  0
 14 29  1  0  0  0
 15 19  2  0  0  0
 15 30  1  0  0  0
 16 19  1  0  0  0
 16 21  1  0  0  0
 16 20  2  0  0  0
 17 22  1  0  0  0
 17 31  1  0  0  0
 17 32  1  0  0  0
 18 22  1  0  0  0
 18 33  1  0  0  0
 18 34  1  0  0  0
 19 35  1  0  0  0
 20 36  1  0  0  0
 22 37  1  0  0  0
 22 38  1  0  0  0
M  END
> <s_m_entry_id>
5085

> <s_m_entry_name>
dock_pv.76

> <s_m_Source_Path>
/home/csk/Desktop/cluster/DUD-E-result/pgh1

> <s_m_Source_File>
dock_pv.maegz

> <i_m_Source_File_Index>
76

> <chembl_id>
CHEMBL265562

> <chembl_pref_name>
None

> <i_lp_mmshare_version>
53161

> <r_lp_tautomer_probability>
1

> <s_lp_Force_Field>
OPLS_2005

> <r_lp_Energy>
35.344462

> <b_lp_Chiralities_Consistent>
1

> <s_lp_Variant>
CHEMBL221_lig331-1

> <s_i_glide_gridfile>
glide-grid_2oyu

> <i_i_glide_lignum>
396

> <i_i_glide_rotatable_bonds>
3

> <r_i_docking_score>
-9.70864782321501

> <r_i_glide_ligand_efficiency>
-0.4413021737825

> <r_i_glide_ligand_efficiency_sa>
-1.23654604636821

> <r_i_glide_ligand_efficiency_ln>
-2.37314765952752

> <r_i_glide_gscore>
-9.70864782321501

> <r_i_glide_lipo>
-4.70877847747042

> <r_i_glide_hbond>
-0.281514851242571

> <r_i_glide_metal>
0

> <r_i_glide_rewards>
-2.89258876268073

> <r_i_glide_evdw>
-23.4137592315674

> <r_i_glide_ecoul>
-6.35349464416504

> <r_i_glide_erotb>
0.369902849281186

> <r_i_glide_esite>
-0.0719564228993454

> <r_i_glide_emodel>
-41.3621542754488

> <r_i_glide_energy>
-29.7672538757324

> <r_i_glide_einternal>
0.987400114536285

> <i_i_glide_confnum>
16

> <i_i_glide_posenum>
307

> <r_i_glide_eff_state_penalty>
0

> <s_user_duplicate_titles>
CHEMBL221_lig331

> <i_f3d_flags>
0

> <s_m_subgroup_title>
dock_pv

> <s_m_subgroupid>
dock_pv

> <b_m_subgroup_collapsed>
1

$$$$
CHEMBL221_lig332
                    3D
 Schrodinger Suite 2021-1.
 38 40  0  0  1  0            999 V2000
   19.9941   48.9716    6.2603 S   0  0  0  0  0  0
   20.5893   49.7061   13.2612 C   0  0  0  0  0  0
   19.8858   48.9849   12.3528 C   0  0  0  0  0  0
   21.6634   50.6943   13.0141 C   0  0  0  0  0  0
   20.0192   49.0464    8.0508 C   0  0  0  0  0  0
   22.6249   50.5184   12.0095 C   0  0  0  0  0  0
   23.6249   51.4697   11.8096 C   0  0  0  0  0  0
   19.9156   49.0723   10.8654 C   0  0  0  0  0  0
   20.9230   49.9431    5.6996 O   0  0  0  0  0  0
   20.1230   47.5660    5.9091 O   0  0  0  0  0  0
   18.4029   49.4584    5.8000 N   0  0  0  0  0  0
   23.6983   52.5895   12.6339 C   0  0  0  0  0  0
   21.7230   51.8507   13.8031 C   0  0  0  0  0  0
   19.7599   47.8730    8.7557 C   0  0  0  0  0  0
   20.1230   50.2519    8.7539 C   0  0  0  0  0  0
   19.7230   47.8956   10.1413 C   0  0  0  0  0  0
   20.1226   50.2611   10.1524 C   0  0  0  0  0  0
   22.7319   52.7922   13.6126 C   0  0  0  0  0  0
   24.5189   51.3103   10.8133 F   0  0  0  0  0  0
   24.7097   53.4733   12.4970 F   0  0  0  0  0  0
   20.3159   49.2266   14.6788 C   0  0  0  0  0  0
   18.9642   47.9878   13.0467 C   0  0  0  0  0  0
   19.1324   48.2815   14.5305 C   0  0  0  0  0  0
   22.6045   49.6420   11.3789 H   0  0  0  0  0  0
   18.2171   50.4603    5.9146 H   0  0  0  0  0  0
   17.6493   48.8836    6.1929 H   0  0  0  0  0  0
   20.9863   52.0294   14.5730 H   0  0  0  0  0  0
   19.6132   46.9360    8.2400 H   0  0  0  0  0  0
   20.2338   51.1762    8.2051 H   0  0  0  0  0  0
   19.5789   46.9706   10.6629 H   0  0  0  0  0  0
   20.2350   51.2006   10.6731 H   0  0  0  0  0  0
   22.7779   53.6772   14.2295 H   0  0  0  0  0  0
   21.1800   48.6794   15.0476 H   0  0  0  0  0  0
   20.1232   50.0228   15.3959 H   0  0  0  0  0  0
   17.9238   48.0762   12.7298 H   0  0  0  0  0  0
   19.2889   46.9674   12.8427 H   0  0  0  0  0  0
   19.2599   47.3714   15.1189 H   0  0  0  0  0  0
   18.2292   48.7633   14.9093 H   0  0  0  0  0  0
  1  5  1  0  0  0
  1  9  2  0  0  0
  1 10  2  0  0  0
  1 11  1  0  0  0
  2  3  2  0  0  0
  2  4  1  0  0  0
  2 21  1  0  0  0
  3  8  1  0  0  0
  3 22  1  0  0  0
  4  6  2  0  0  0
  4 13  1  0  0  0
  5 14  2  0  0  0
  5 15  1  0  0  0
  6  7  1  0  0  0
  6 24  1  0  0  0
  7 19  1  0  0  0
  7 12  2  0  0  0
  8 17  1  0  0  0
  8 16  2  0  0  0
 11 25  1  0  0  0
 11 26  1  0  0  0
 12 18  1  0  0  0
 12 20  1  0  0  0
 13 18  2  0  0  0
 13 27  1  0  0  0
 14 16  1  0  0  0
 14 28  1  0  0  0
 15 17  2  0  0  0
 15 29  1  0  0  0
 16 30  1  0  0  0
 17 31  1  0  0  0
 18 32  1  0  0  0
 21 23  1  0  0  0
 21 33  1  0  0  0
 21 34  1  0  0  0
 22 23  1  0  0  0
 22 35  1  0  0  0
 22 36  1  0  0  0
 23 37  1  0  0  0
 23 38  1  0  0  0
M  END
> <s_m_entry_id>
5086

> <s_m_entry_name>
dock_pv.77

> <s_m_Source_Path>
/home/csk/Desktop/cluster/DUD-E-result/pgh1

> <s_m_Source_File>
dock_pv.maegz

> <i_m_Source_File_Index>
77

> <chembl_id>
CHEMBL111787

> <chembl_pref_name>
None

> <i_lp_mmshare_version>
53161

> <r_lp_tautomer_probability>
1

> <s_lp_Force_Field>
OPLS_2005

> <r_lp_Energy>
35.503928

> <b_lp_Chiralities_Consistent>
1

> <s_lp_Variant>
CHEMBL221_lig332-1

> <s_i_glide_gridfile>
glide-grid_2oyu

> <i_i_glide_lignum>
397

> <i_i_glide_rotatable_bonds>
3

> <r_i_docking_score>
-9.70460004038441

> <r_i_glide_ligand_efficiency>
-0.421939132190627

> <r_i_glide_ligand_efficiency_sa>
-1.19993876429001

> <r_i_glide_ligand_efficiency_ln>
-2.34666028621298

> <r_i_glide_gscore>
-9.70460004038441

> <r_i_glide_lipo>
-4.55027772084267

> <r_i_glide_hbond>
-0.572461613309678

> <r_i_glide_metal>
0

> <r_i_glide_rewards>
-2.77127588014223

> <r_i_glide_evdw>
-22.9068660736084

> <r_i_glide_ecoul>
-6.19319820404053

> <r_i_glide_erotb>
0.335594597108324

> <r_i_glide_esite>
-0.0718563889116658

> <r_i_glide_emodel>
-39.7011511271564

> <r_i_glide_energy>
-29.1000642776489

> <r_i_glide_einternal>
0.331718981266022

> <i_i_glide_confnum>
1

> <i_i_glide_posenum>
200

> <r_i_glide_eff_state_penalty>
0

> <s_user_duplicate_titles>
CHEMBL221_lig332

> <i_f3d_flags>
0

> <s_m_subgroup_title>
dock_pv

> <s_m_subgroupid>
dock_pv

> <b_m_subgroup_collapsed>
1

$$$$
CHEMBL221_lig254
                    3D
 Schrodinger Suite 2021-1.
 37 39  0  0  1  0            999 V2000
   20.8928   50.0872   14.4566 C   0  0  0  0  0  0
   21.1185   50.2349   13.0747 N   0  0  0  0  0  0
   19.9894   48.9007    6.3630 S   0  0  0  0  0  0
   20.2106   49.4158   12.4379 C   0  0  0  0  0  0
   19.6001   48.6957   13.3806 C   0  0  0  0  0  0
   20.0202   49.0730   14.5857 O   0  0  0  0  0  0
   22.2288   50.9435   12.5331 C   0  0  0  0  0  0
   22.7457   52.1121   13.1303 C   0  0  0  0  0  0
   20.0014   49.0638    8.1522 C   0  0  0  0  0  0
   23.9098   52.7157   12.6361 C   0  0  0  0  0  0
   20.0175   49.3155   10.9585 C   0  0  0  0  0  0
   21.3230   50.6925   15.4366 O   0  0  0  0  0  0
   20.9229   49.8587    5.7724 O   0  0  0  0  0  0
   20.1230   47.4730    6.1188 O   0  0  0  0  0  0
   18.4086   49.3308    5.8000 N   0  0  0  0  0  0
   24.5614   52.1593   11.5330 C   0  0  0  0  0  0
   22.8799   50.4445   11.4000 C   0  0  0  0  0  0
   20.1230   50.3153    8.7533 C   0  0  0  0  0  0
   19.7230   47.9537    8.9603 C   0  0  0  0  0  0
   20.1283   50.4432   10.1403 C   0  0  0  0  0  0
   19.7230   48.0869   10.3499 C   0  0  0  0  0  0
   24.0064   51.0730   10.8872 C   0  0  0  0  0  0
   24.5401   54.1308   13.4000 Cl  0  0  0  0  0  0
   18.4909   47.6658   13.4018 C   0  0  0  0  0  0
   26.1230   52.6730   11.0000 Cl  0  0  0  0  0  0
   22.2698   52.5486   13.9969 H   0  0  0  0  0  0
   18.2253   50.3368    5.7213 H   0  0  0  0  0  0
   17.6339   48.8197    6.2397 H   0  0  0  0  0  0
   22.5395   49.5412   10.9180 H   0  0  0  0  0  0
   20.2291   51.1945    8.1340 H   0  0  0  0  0  0
   19.5461   46.9838    8.5196 H   0  0  0  0  0  0
   20.2726   51.4208   10.5772 H   0  0  0  0  0  0
   19.5916   47.1977   10.9471 H   0  0  0  0  0  0
   24.5069   50.6730   10.0187 H   0  0  0  0  0  0
   17.9494   47.6523   12.4579 H   0  0  0  0  0  0
   18.8978   46.6729   13.5911 H   0  0  0  0  0  0
   17.7718   47.9020   14.1867 H   0  0  0  0  0  0
  1  2  1  0  0  0
  1  6  1  0  0  0
  1 12  2  0  0  0
  2  4  1  0  0  0
  2  7  1  0  0  0
  3  9  1  0  0  0
  3 13  2  0  0  0
  3 14  2  0  0  0
  3 15  1  0  0  0
  4 11  1  0  0  0
  4  5  2  0  0  0
  5  6  1  0  0  0
  5 24  1  0  0  0
  7  8  1  0  0  0
  7 17  2  0  0  0
  8 10  2  0  0  0
  8 26  1  0  0  0
  9 19  2  0  0  0
  9 18  1  0  0  0
 10 23  1  0  0  0
 10 16  1  0  0  0
 11 20  1  0  0  0
 11 21  2  0  0  0
 15 27  1  0  0  0
 15 28  1  0  0  0
 16 22  2  0  0  0
 16 25  1  0  0  0
 17 22  1  0  0  0
 17 29  1  0  0  0
 18 20  2  0  0  0
 18 30  1  0  0  0
 19 21  1  0  0  0
 19 31  1  0  0  0
 20 32  1  0  0  0
 21 33  1  0  0  0
 22 34  1  0  0  0
 24 35  1  0  0  0
 24 36  1  0  0  0
 24 37  1  0  0  0
M  END
> <s_m_entry_id>
5087

> <s_m_entry_name>
dock_pv.78

> <s_m_Source_Path>
/home/csk/Desktop/cluster/DUD-E-result/pgh1

> <s_m_Source_File>
dock_pv.maegz

> <i_m_Source_File_Index>
78

> <chembl_id>
CHEMBL419268

> <chembl_pref_name>
None

> <i_lp_mmshare_version>
53161

> <r_lp_tautomer_probability>
1

> <s_lp_Force_Field>
OPLS_2005

> <r_lp_Energy>
36.631379

> <b_lp_Chiralities_Consistent>
1

> <s_lp_Variant>
CHEMBL221_lig254-1

> <s_i_glide_gridfile>
glide-grid_2oyu

> <i_i_glide_lignum>
287

> <i_i_glide_rotatable_bonds>
3

> <r_i_docking_score>
-9.67597238142659

> <r_i_glide_ligand_efficiency>
-0.387038895257064

> <r_i_glide_ligand_efficiency_sa>
-1.13170859389569

> <r_i_glide_ligand_efficiency_ln>
-2.29349541989159

> <r_i_glide_gscore>
-9.67597238142659

> <r_i_glide_lipo>
-4.42249550168841

> <r_i_glide_hbond>
-0.508260355537468

> <r_i_glide_metal>
0

> <r_i_glide_rewards>
-2.36123518685155

> <r_i_glide_evdw>
-28.3100337982178

> <r_i_glide_ecoul>
-7.63405275344849

> <r_i_glide_erotb>
0.245830222521314

> <r_i_glide_esite>
-0.0692019569423132

> <r_i_glide_emodel>
-45.2909634107701

> <r_i_glide_energy>
-35.9440865516663

> <r_i_glide_einternal>
1.7185891866684

> <i_i_glide_confnum>
6

> <i_i_glide_posenum>
121

> <r_i_glide_eff_state_penalty>
0

> <s_user_duplicate_titles>
CHEMBL221_lig254

> <i_f3d_flags>
0

> <s_m_subgroup_title>
dock_pv

> <s_m_subgroupid>
dock_pv

> <b_m_subgroup_collapsed>
1

$$$$
CHEMBL221_lig510
                    3D
 Schrodinger Suite 2021-1.
 40 42  0  0  1  0            999 V2000
   19.9317   49.1270   12.2087 N   0  0  0  0  0  0
   19.1795   48.5181   14.1190 C   0  0  0  0  0  0
   20.2640   49.3807   14.3681 C   0  0  0  0  0  0
   19.0133   48.3698   12.8252 N   0  0  0  0  0  0
   20.7206   49.8048   13.1194 C   0  0  0  0  0  0
   20.0005   48.9728    6.2188 S   0  0  0  0  0  0
   18.3281   47.8467   15.1109 C   0  0  0  0  0  0
   19.9474   49.1239   10.7933 C   0  0  0  0  0  0
   20.0179   49.0369    8.0026 C   0  0  0  0  0  0
   21.8250   50.7633   12.8231 C   0  0  0  0  0  0
   20.9230   49.9503    5.6574 O   0  0  0  0  0  0
   20.1230   47.5740    5.8420 O   0  0  0  0  0  0
   20.9105   49.8531   15.8961 Cl  0  0  0  0  0  0
   18.4108   49.4729    5.7999 N   0  0  0  0  0  0
   18.5254   47.8708   16.3238 O   0  0  0  0  0  0
   19.7225   47.9236   10.1102 C   0  0  0  0  0  0
   20.1232   50.3033   10.0694 C   0  0  0  0  0  0
   19.7352   47.8737    8.7224 C   0  0  0  0  0  0
   20.1230   50.2580    8.6769 C   0  0  0  0  0  0
   22.8660   50.4531   11.9428 C   0  0  0  0  0  0
   21.8416   51.9723   13.5237 C   0  0  0  0  0  0
   17.3030   47.2025   14.5189 O   0  0  0  0  0  0
   23.9925   52.4851   12.5857 C   0  0  0  0  0  0
   23.9506   51.3212   11.8174 C   0  0  0  0  0  0
   22.9230   52.8346   13.4015 C   0  0  0  0  0  0
   25.4039   53.4737   12.6000 Cl  0  0  0  0  0  0
   16.4980   46.2742   15.2181 C   0  0  0  0  0  0
   18.2859   50.4837    5.9168 H   0  0  0  0  0  0
   18.1565   49.2390    4.8371 H   0  0  0  0  0  0
   19.5517   47.0237   10.6701 H   0  0  0  0  0  0
   20.2391   51.2536   10.5718 H   0  0  0  0  0  0
   19.5639   46.9352    8.2163 H   0  0  0  0  0  0
   20.2305   51.1713    8.1089 H   0  0  0  0  0  0
   22.8604   49.5203   11.3984 H   0  0  0  0  0  0
   21.0385   52.2285   14.2000 H   0  0  0  0  0  0
   24.7799   51.0671   11.1724 H   0  0  0  0  0  0
   22.9571   53.7428   13.9874 H   0  0  0  0  0  0
   15.6463   45.9925   14.6014 H   0  0  0  0  0  0
   17.0661   45.3620   15.4002 H   0  0  0  0  0  0
   16.1243   46.6730   16.1636 H   0  0  0  0  0  0
  1  4  1  0  0  0
  1  5  1  0  0  0
  1  8  1  0  0  0
  2  4  2  0  0  0
  2  7  1  0  0  0
  2  3  1  0  0  0
  3  5  2  0  0  0
  3 13  1  0  0  0
  5 10  1  0  0  0
  6  9  1  0  0  0
  6 11  2  0  0  0
  6 12  2  0  0  0
  6 14  1  0  0  0
  7 15  2  0  0  0
  7 22  1  0  0  0
  8 16  1  0  0  0
  8 17  2  0  0  0
  9 19  2  0  0  0
  9 18  1  0  0  0
 10 20  1  0  0  0
 10 21  2  0  0  0
 14 28  1  0  0  0
 14 29  1  0  0  0
 16 18  2  0  0  0
 16 30  1  0  0  0
 17 19  1  0  0  0
 17 31  1  0  0  0
 18 32  1  0  0  0
 19 33  1  0  0  0
 20 24  2  0  0  0
 20 34  1  0  0  0
 21 25  1  0  0  0
 21 35  1  0  0  0
 22 27  1  0  0  0
 23 25  2  0  0  0
 23 26  1  0  0  0
 23 24  1  0  0  0
 24 36  1  0  0  0
 25 37  1  0  0  0
 27 38  1  0  0  0
 27 39  1  0  0  0
 27 40  1  0  0  0
M  END
> <s_m_entry_id>
5088

> <s_m_entry_name>
dock_pv.79

> <s_m_Source_Path>
/home/csk/Desktop/cluster/DUD-E-result/pgh1

> <s_m_Source_File>
dock_pv.maegz

> <i_m_Source_File_Index>
79

> <chembl_id>
CHEMBL28491

> <chembl_pref_name>
None

> <i_lp_mmshare_version>
53161

> <r_lp_tautomer_probability>
1

> <s_lp_Force_Field>
OPLS_2005

> <r_lp_Energy>
28.990662

> <b_lp_Chiralities_Consistent>
1

> <s_lp_Variant>
CHEMBL221_lig510-1

> <s_i_glide_gridfile>
glide-grid_2oyu

> <i_i_glide_lignum>
648

> <i_i_glide_rotatable_bonds>
5

> <r_i_docking_score>
-9.67122085034307

> <r_i_glide_ligand_efficiency>
-0.358193364827521

> <r_i_glide_ligand_efficiency_sa>
-1.07458009330202

> <r_i_glide_ligand_efficiency_ln>
-2.25130077142304

> <r_i_glide_gscore>
-9.67122085034307

> <r_i_glide_lipo>
-4.71761724745383

> <r_i_glide_hbond>
-0.286929348482458

> <r_i_glide_metal>
0

> <r_i_glide_rewards>
-2.23167430804379

> <r_i_glide_evdw>
-32.0749893188477

> <r_i_glide_ecoul>
-7.2362208366394

> <r_i_glide_erotb>
0.327631895514412

> <r_i_glide_esite>
-0.0734492504391202

> <r_i_glide_emodel>
-53.2646775292707

> <r_i_glide_energy>
-39.3112101554871

> <r_i_glide_einternal>
2.67624139785767

> <i_i_glide_confnum>
4

> <i_i_glide_posenum>
131

> <r_i_glide_eff_state_penalty>
0

> <s_user_duplicate_titles>
CHEMBL221_lig510,40251

> <i_f3d_flags>
0

> <s_m_subgroup_title>
dock_pv

> <s_m_subgroupid>
dock_pv

> <b_m_subgroup_collapsed>
1

$$$$
CHEMBL221_lig285
                    3D
 Schrodinger Suite 2021-1.
 34 36  0  0  1  0            999 V2000
   19.9941   48.9623    6.3016 S   0  0  0  0  0  0
   19.9815   49.1023   12.4151 C   0  0  0  0  0  0
   20.8257   49.7837   13.3127 C   0  0  0  0  0  0
   18.8323   48.1050   13.2797 S   0  0  0  0  0  0
   20.0102   49.0341    8.0980 C   0  0  0  0  0  0
   19.9408   49.1136   10.9113 C   0  0  0  0  0  0
   21.9451   50.6993   12.9596 C   0  0  0  0  0  0
   20.9230   49.9335    5.7455 O   0  0  0  0  0  0
   20.1230   47.5593    5.9397 O   0  0  0  0  0  0
   19.4805   48.5797   14.8027 C   0  0  0  0  0  0
   20.5230   49.4730   14.6522 C   0  0  0  0  0  0
   18.4262   49.4729    5.8000 N   0  0  0  0  0  0
   19.7441   47.8730    8.8282 C   0  0  0  0  0  0
   20.1230   50.2508    8.7798 C   0  0  0  0  0  0
   19.7230   47.9214   10.2195 C   0  0  0  0  0  0
   20.1230   50.2878   10.1762 C   0  0  0  0  0  0
   22.8463   50.3470   11.9518 C   0  0  0  0  0  0
   22.1229   51.8901   13.6716 C   0  0  0  0  0  0
   24.1230   52.3300   12.4135 C   0  0  0  0  0  0
   23.2133   52.7076   13.3957 C   0  0  0  0  0  0
   23.9316   51.1685   11.6736 C   0  0  0  0  0  0
   25.2256   53.0769   12.2000 F   0  0  0  0  0  0
   19.0622   48.1935   15.7207 H   0  0  0  0  0  0
   21.0616   49.8864   15.4926 H   0  0  0  0  0  0
   18.3026   50.4849    5.9090 H   0  0  0  0  0  0
   18.2194   49.2384    4.8261 H   0  0  0  0  0  0
   19.5825   46.9315    8.3250 H   0  0  0  0  0  0
   20.2363   51.1647    8.2148 H   0  0  0  0  0  0
   19.5696   47.0175   10.7769 H   0  0  0  0  0  0
   20.2540   51.2329   10.6827 H   0  0  0  0  0  0
   22.7210   49.4273   11.4000 H   0  0  0  0  0  0
   21.4297   52.1778   14.4490 H   0  0  0  0  0  0
   23.3658   53.6188   13.9552 H   0  0  0  0  0  0
   24.6409   50.8934   10.9088 H   0  0  0  0  0  0
  1  5  1  0  0  0
  1  8  2  0  0  0
  1  9  2  0  0  0
  1 12  1  0  0  0
  2  6  1  0  0  0
  2  3  2  0  0  0
  2  4  1  0  0  0
  3  7  1  0  0  0
  3 11  1  0  0  0
  4 10  1  0  0  0
  5 13  2  0  0  0
  5 14  1  0  0  0
  6 16  1  0  0  0
  6 15  2  0  0  0
  7 17  1  0  0  0
  7 18  2  0  0  0
 10 11  2  0  0  0
 10 23  1  0  0  0
 11 24  1  0  0  0
 12 25  1  0  0  0
 12 26  1  0  0  0
 13 15  1  0  0  0
 13 27  1  0  0  0
 14 16  2  0  0  0
 14 28  1  0  0  0
 15 29  1  0  0  0
 16 30  1  0  0  0
 17 21  2  0  0  0
 17 31  1  0  0  0
 18 20  1  0  0  0
 18 32  1  0  0  0
 19 20  2  0  0  0
 19 22  1  0  0  0
 19 21  1  0  0  0
 20 33  1  0  0  0
 21 34  1  0  0  0
M  END
> <s_m_entry_id>
5089

> <s_m_entry_name>
dock_pv.80

> <s_m_Source_Path>
/home/csk/Desktop/cluster/DUD-E-result/pgh1

> <s_m_Source_File>
dock_pv.maegz

> <i_m_Source_File_Index>
80

> <chembl_id>
CHEMBL67447

> <chembl_pref_name>
None

> <i_lp_mmshare_version>
53161

> <r_lp_tautomer_probability>
1

> <s_lp_Force_Field>
OPLS_2005

> <r_lp_Energy>
21.305252

> <b_lp_Chiralities_Consistent>
1

> <s_lp_Variant>
CHEMBL221_lig285-1

> <s_i_glide_gridfile>
glide-grid_2oyu

> <i_i_glide_lignum>
318

> <i_i_glide_rotatable_bonds>
3

> <r_i_docking_score>
-9.65556633529446

> <r_i_glide_ligand_efficiency>
-0.438889378877021

> <r_i_glide_ligand_efficiency_sa>
-1.22978530015322

> <r_i_glide_ligand_efficiency_ln>
-2.36017260768542

> <r_i_glide_gscore>
-9.65556633529446

> <r_i_glide_lipo>
-4.71159260190984

> <r_i_glide_hbond>
-0.277815549808604

> <r_i_glide_metal>
0

> <r_i_glide_rewards>
-2.80924121999963

> <r_i_glide_evdw>
-24.2837734222412

> <r_i_glide_ecoul>
-6.06686401367188

> <r_i_glide_erotb>
0.339106477417702

> <r_i_glide_esite>
-0.0718051678312523

> <r_i_glide_emodel>
-44.1105166108022

> <r_i_glide_energy>
-30.3506374359131

> <r_i_glide_einternal>
0.334476858377457

> <i_i_glide_confnum>
14

> <i_i_glide_posenum>
231

> <r_i_glide_eff_state_penalty>
0

> <s_user_duplicate_titles>
CHEMBL221_lig285

> <i_f3d_flags>
0

> <s_m_subgroup_title>
dock_pv

> <s_m_subgroupid>
dock_pv

> <b_m_subgroup_collapsed>
1

$$$$
CHEMBL221_lig494
                    3D
 Schrodinger Suite 2021-1.
 35 37  0  0  1  0            999 V2000
   19.9964   48.9635    6.2772 S   0  0  0  0  0  0
   20.7491   49.7984   13.2087 C   0  0  0  0  0  0
   19.9769   49.0923   12.3605 C   0  0  0  0  0  0
   20.4104   49.3980   14.5719 C   0  0  0  0  0  0
   19.3960   48.5201   14.5106 O   0  0  0  0  0  0
   19.0120   48.2724   13.1746 C   0  0  0  0  0  0
   20.0156   49.0349    8.0698 C   0  0  0  0  0  0
   19.9390   49.1222   10.8786 C   0  0  0  0  0  0
   21.8914   50.6928   12.9049 C   0  0  0  0  0  0
   20.9230   49.9355    5.7167 O   0  0  0  0  0  0
   20.1230   47.5613    5.9126 O   0  0  0  0  0  0
   18.4222   49.4728    5.8001 N   0  0  0  0  0  0
   20.9230   49.7783   15.6238 O   0  0  0  0  0  0
   20.1230   50.2539    8.7475 C   0  0  0  0  0  0
   19.7505   47.8732    8.7994 C   0  0  0  0  0  0
   20.1238   50.2948   10.1420 C   0  0  0  0  0  0
   19.7230   47.9287   10.1895 C   0  0  0  0  0  0
   22.0542   51.9009   13.5957 C   0  0  0  0  0  0
   22.8335   50.3275   11.9381 C   0  0  0  0  0  0
   24.1011   52.3180   12.4033 C   0  0  0  0  0  0
   23.9322   51.1405   11.6836 C   0  0  0  0  0  0
   23.1584   52.7108   13.3477 C   0  0  0  0  0  0
   25.2016   53.0730   12.2000 F   0  0  0  0  0  0
   19.0878   47.2052   12.9661 H   0  0  0  0  0  0
   17.9739   48.5682   13.0172 H   0  0  0  0  0  0
   18.2986   50.4847    5.9111 H   0  0  0  0  0  0
   18.2020   49.2409    4.8276 H   0  0  0  0  0  0
   20.2354   51.1681    8.1829 H   0  0  0  0  0  0
   19.5905   46.9306    8.2976 H   0  0  0  0  0  0
   20.2545   51.2427   10.6439 H   0  0  0  0  0  0
   19.5626   47.0270   10.7486 H   0  0  0  0  0  0
   21.3360   52.2068   14.3436 H   0  0  0  0  0  0
   22.7278   49.3979   11.4000 H   0  0  0  0  0  0
   24.6670   50.8487   10.9501 H   0  0  0  0  0  0
   23.2943   53.6306   13.8978 H   0  0  0  0  0  0
  1  7  1  0  0  0
  1 10  2  0  0  0
  1 11  2  0  0  0
  1 12  1  0  0  0
  2  3  2  0  0  0
  2  4  1  0  0  0
  2  9  1  0  0  0
  3  8  1  0  0  0
  3  6  1  0  0  0
  4 13  2  0  0  0
  4  5  1  0  0  0
  5  6  1  0  0  0
  6 24  1  0  0  0
  6 25  1  0  0  0
  7 14  2  0  0  0
  7 15  1  0  0  0
  8 17  1  0  0  0
  8 16  2  0  0  0
  9 18  2  0  0  0
  9 19  1  0  0  0
 12 26  1  0  0  0
 12 27  1  0  0  0
 14 16  1  0  0  0
 14 28  1  0  0  0
 15 17  2  0  0  0
 15 29  1  0  0  0
 16 30  1  0  0  0
 17 31  1  0  0  0
 18 22  1  0  0  0
 18 32  1  0  0  0
 19 21  2  0  0  0
 19 33  1  0  0  0
 20 21  1  0  0  0
 20 23  1  0  0  0
 20 22  2  0  0  0
 21 34  1  0  0  0
 22 35  1  0  0  0
M  END
> <s_m_entry_id>
5090

> <s_m_entry_name>
dock_pv.81

> <s_m_Source_Path>
/home/csk/Desktop/cluster/DUD-E-result/pgh1

> <s_m_Source_File>
dock_pv.maegz

> <i_m_Source_File_Index>
81

> <chembl_id>
CHEMBL431546

> <chembl_pref_name>
None

> <i_lp_mmshare_version>
53161

> <r_lp_tautomer_probability>
0.999841193423406

> <s_lp_Force_Field>
OPLS_2005

> <r_lp_Energy>
27.166703

> <b_lp_Chiralities_Consistent>
1

> <s_lp_Variant>
CHEMBL221_lig494-1

> <s_i_glide_gridfile>
glide-grid_2oyu

> <i_i_glide_lignum>
628

> <i_i_glide_rotatable_bonds>
3

> <r_i_docking_score>
-9.6520582291003

> <r_i_glide_ligand_efficiency>
-0.419654705613057

> <r_i_glide_ligand_efficiency_sa>
-1.19344215898496

> <r_i_glide_ligand_efficiency_ln>
-2.33395519982168

> <r_i_glide_gscore>
-9.6520582291003

> <r_i_glide_lipo>
-4.15672894198578

> <r_i_glide_hbond>
-0.280786144343396

> <r_i_glide_metal>
0

> <r_i_glide_rewards>
-3.11797604694751

> <r_i_glide_evdw>
-24.6805381774902

> <r_i_glide_ecoul>
-7.53036403656006

> <r_i_glide_erotb>
0.3392274388704

> <r_i_glide_esite>
-0.0722130203355016

> <r_i_glide_emodel>
-45.7609353751111

> <r_i_glide_energy>
-32.2109022140503

> <r_i_glide_einternal>
3.19694924354553

> <i_i_glide_confnum>
10

> <i_i_glide_posenum>
390

> <r_i_glide_eff_state_penalty>
0

> <s_user_duplicate_titles>
CHEMBL221_lig494

> <i_f3d_flags>
0

> <s_m_subgroup_title>
dock_pv

> <s_m_subgroupid>
dock_pv

> <b_m_subgroup_collapsed>
1

$$$$
CHEMBL221_lig877
                    3D
 Schrodinger Suite 2021-1.
 57 59  0  0  1  0            999 V2000
   21.0972   50.2696   13.0826 C   0  0  0  0  0  0
   20.5618   49.9220   14.2968 C   0  0  0  0  0  0
   20.6751   49.6249   11.8142 C   0  0  0  0  0  0
   22.1748   51.2918   12.9155 C   0  0  0  0  0  0
   19.4512   48.9371   14.5912 C   0  0  0  0  0  0
   21.1793   50.7085   15.7769 Cl  0  0  0  0  0  0
   20.5406   50.3202   10.6031 C   0  0  0  0  0  0
   20.3700   48.2726   11.8406 C   0  0  0  0  0  0
   18.6663   48.5864    5.0740 N   0  0  0  0  0  0
   19.7230   48.2969    9.5538 C   0  0  0  0  0  0
   20.1230   49.6415    9.4574 C   0  0  0  0  0  0
   19.7231   47.6905   10.7827 C   0  0  0  0  0  0
   19.3429   47.4673    8.5264 O   0  0  0  0  0  0
   19.7518   47.7876    7.2150 C   0  0  0  0  0  0
   18.5228   48.2748    6.4911 C   0  0  0  0  0  0
   23.2943   50.9908   12.1259 C   0  0  0  0  0  0
   22.0955   52.5543   13.5189 C   0  0  0  0  0  0
   19.4836   48.2624   15.8000 C   0  0  0  0  0  0
   18.3445   48.6755   13.7574 C   0  0  0  0  0  0
   17.3166   48.7191    4.4774 C   0  0  0  0  0  0
   19.3742   49.8730    4.9321 C   0  0  0  0  0  0
   16.3411   47.5372    4.4405 C   0  0  0  0  0  0
   20.8763   49.8587    5.1851 C   0  0  0  0  0  0
   23.1311   53.4722   13.3808 C   0  0  0  0  0  0
   18.4230   47.4732   16.2152 C   0  0  0  0  0  0
   17.2858   47.8730   14.1489 C   0  0  0  0  0  0
   24.3079   51.9244   11.9451 C   0  0  0  0  0  0
   24.2366   53.1484   12.6002 C   0  0  0  0  0  0
   17.3232   47.2750   15.3954 C   0  0  0  0  0  0
   20.7855   51.3711   10.5409 H   0  0  0  0  0  0
   20.5440   47.6673   12.7167 H   0  0  0  0  0  0
   20.0791   50.1758    8.5199 H   0  0  0  0  0  0
   19.4750   46.6730   10.8715 H   0  0  0  0  0  0
   20.5603   48.4881    7.2174 H   0  0  0  0  0  0
   20.1233   46.9044    6.7164 H   0  0  0  0  0  0
   17.8019   47.4715    6.6134 H   0  0  0  0  0  0
   18.1231   49.1465    7.0000 H   0  0  0  0  0  0
   23.3800   50.0283   11.6427 H   0  0  0  0  0  0
   21.2326   52.8296   14.1070 H   0  0  0  0  0  0
   20.3084   48.4047   16.4786 H   0  0  0  0  0  0
   18.2413   49.2050   12.8263 H   0  0  0  0  0  0
   16.7811   49.4778    5.0392 H   0  0  0  0  0  0
   17.3989   49.0730    3.4507 H   0  0  0  0  0  0
   19.3230   50.2701    3.9189 H   0  0  0  0  0  0
   18.9229   50.6422    5.5609 H   0  0  0  0  0  0
   15.3545   47.9056    4.1590 H   0  0  0  0  0  0
   16.5793   46.7860    3.6972 H   0  0  0  0  0  0
   16.2089   47.0731    5.4092 H   0  0  0  0  0  0
   21.3607   50.6262    4.6000 H   0  0  0  0  0  0
   21.0748   50.1537    6.2000 H   0  0  0  0  0  0
   21.3414   48.8975    4.9674 H   0  0  0  0  0  0
   23.0750   54.4333   13.8724 H   0  0  0  0  0  0
   18.4446   47.0730   17.2133 H   0  0  0  0  0  0
   16.4292   47.7509   13.5016 H   0  0  0  0  0  0
   25.1580   51.6874   11.3219 H   0  0  0  0  0  0
   25.0374   53.8650   12.4913 H   0  0  0  0  0  0
   16.4935   46.6734   15.7330 H   0  0  0  0  0  0
  1  2  2  0  0  0
  1  3  1  0  0  0
  1  4  1  0  0  0
  2  5  1  0  0  0
  2  6  1  0  0  0
  3  7  1  0  0  0
  3  8  2  0  0  0
  4 16  1  0  0  0
  4 17  2  0  0  0
  5 18  2  0  0  0
  5 19  1  0  0  0
  7 11  2  0  0  0
  7 30  1  0  0  0
  8 12  1  0  0  0
  8 31  1  0  0  0
  9 15  1  0  0  0
  9 20  1  0  0  0
  9 21  1  0  0  0
 10 12  2  0  0  0
 10 13  1  0  0  0
 10 11  1  0  0  0
 11 32  1  0  0  0
 12 33  1  0  0  0
 13 14  1  0  0  0
 14 15  1  0  0  0
 14 34  1  0  0  0
 14 35  1  0  0  0
 15 36  1  0  0  0
 15 37  1  0  0  0
 16 27  2  0  0  0
 16 38  1  0  0  0
 17 24  1  0  0  0
 17 39  1  0  0  0
 18 25  1  0  0  0
 18 40  1  0  0  0
 19 26  2  0  0  0
 19 41  1  0  0  0
 20 22  1  0  0  0
 20 42  1  0  0  0
 20 43  1  0  0  0
 21 23  1  0  0  0
 21 44  1  0  0  0
 21 45  1  0  0  0
 22 46  1  0  0  0
 22 47  1  0  0  0
 22 48  1  0  0  0
 23 49  1  0  0  0
 23 50  1  0  0  0
 23 51  1  0  0  0
 24 28  2  0  0  0
 24 52  1  0  0  0
 25 29  2  0  0  0
 25 53  1  0  0  0
 26 29  1  0  0  0
 26 54  1  0  0  0
 27 28  1  0  0  0
 27 55  1  0  0  0
 28 56  1  0  0  0
 29 57  1  0  0  0
M  END
> <s_m_entry_id>
5091

> <s_m_entry_name>
dock_pv.82

> <s_m_Source_Path>
/home/csk/Desktop/cluster/DUD-E-result/pgh1

> <s_m_Source_File>
dock_pv.maegz

> <i_m_Source_File_Index>
82

> <chembl_id>
CHEMBL954

> <chembl_pref_name>
ENCLOMIPHENE

> <i_lp_mmshare_version>
53161

> <r_lp_tautomer_probability>
1

> <s_lp_Force_Field>
OPLS_2005

> <r_lp_Energy>
41.858377

> <b_lp_Chiralities_Consistent>
1

> <s_lp_Variant>
CHEMBL221_lig877-1

> <s_i_glide_gridfile>
glide-grid_2oyu

> <i_i_glide_lignum>
1083

> <i_i_glide_rotatable_bonds>
9

> <r_i_docking_score>
-9.64371605650095

> <r_i_glide_ligand_efficiency>
-0.332541932982791

> <r_i_glide_ligand_efficiency_sa>
-1.02167417480237

> <r_i_glide_ligand_efficiency_ln>
-2.20816643339932

> <r_i_glide_gscore>
-9.64371605650095

> <r_i_glide_lipo>
-6.55329211691399

> <r_i_glide_hbond>
-0.32

> <r_i_glide_metal>
0

> <r_i_glide_rewards>
-1.49992220389545

> <r_i_glide_evdw>
-25.5705966949463

> <r_i_glide_ecoul>
-5.51288366317749

> <r_i_glide_erotb>
0.834960648532434

> <r_i_glide_esite>
0

> <r_i_glide_emodel>
-28.4379095188383

> <r_i_glide_energy>
-31.0834803581238

> <r_i_glide_einternal>
14.6042604446411

> <i_i_glide_confnum>
13

> <i_i_glide_posenum>
343

> <r_i_glide_eff_state_penalty>
0

> <s_user_duplicate_titles>
CHEMBL221_lig877

> <i_f3d_flags>
0

> <s_m_subgroup_title>
dock_pv

> <s_m_subgroupid>
dock_pv

> <b_m_subgroup_collapsed>
1

$$$$
CHEMBL221_lig281
                    3D
 Schrodinger Suite 2021-1.
 31 33  0  0  1  0            999 V2000
   20.5769   49.5150   13.0660 C   0  0  0  0  0  0
   19.8145   48.8257   12.1058 C   0  0  0  0  0  0
   20.1230   49.0730   14.6963 S   0  0  0  0  0  0
   21.6954   50.4877   12.8798 C   0  0  0  0  0  0
   19.9069   48.9465   10.6109 C   0  0  0  0  0  0
   18.9191   47.9927   14.1112 C   0  0  0  0  0  0
   18.8833   47.9761   12.7298 C   0  0  0  0  0  0
   20.1230   50.1717    9.9791 C   0  0  0  0  0  0
   19.7230   47.8087    9.8212 C   0  0  0  0  0  0
   21.7557   51.6854   13.6015 C   0  0  0  0  0  0
   22.6964   50.1889   11.9531 C   0  0  0  0  0  0
   19.7230   48.2730    5.5520 O   0  0  0  0  0  0
   19.9295   49.2130    6.3182 C   0  0  0  0  0  0
   23.8104   52.2533   12.4782 C   0  0  0  0  0  0
   19.9529   49.0966    7.8000 C   0  0  0  0  0  0
   23.7485   51.0730   11.7452 C   0  0  0  0  0  0
   22.8155   52.5674   13.4000 C   0  0  0  0  0  0
   20.1230   50.2444    8.5875 C   0  0  0  0  0  0
   19.7230   47.8730    8.4314 C   0  0  0  0  0  0
   24.8568   53.0887   12.3050 F   0  0  0  0  0  0
   18.2942   47.4418   14.7988 H   0  0  0  0  0  0
   18.1767   47.3773   12.1778 H   0  0  0  0  0  0
   20.2418   51.0757   10.5580 H   0  0  0  0  0  0
   19.5960   46.8515   10.2920 H   0  0  0  0  0  0
   20.9863   51.9336   14.3183 H   0  0  0  0  0  0
   22.6603   49.2628   11.4000 H   0  0  0  0  0  0
   20.1076   50.2184    5.9356 H   0  0  0  0  0  0
   24.5230   50.8370   11.0303 H   0  0  0  0  0  0
   22.8759   53.4860   13.9661 H   0  0  0  0  0  0
   20.2428   51.2116    8.1198 H   0  0  0  0  0  0
   19.5644   46.9755    7.8537 H   0  0  0  0  0  0
  1  2  2  0  0  0
  1  3  1  0  0  0
  1  4  1  0  0  0
  2  5  1  0  0  0
  2  7  1  0  0  0
  3  6  1  0  0  0
  4 10  2  0  0  0
  4 11  1  0  0  0
  5  8  2  0  0  0
  5  9  1  0  0  0
  6  7  2  0  0  0
  6 21  1  0  0  0
  7 22  1  0  0  0
  8 18  1  0  0  0
  8 23  1  0  0  0
  9 19  2  0  0  0
  9 24  1  0  0  0
 10 17  1  0  0  0
 10 25  1  0  0  0
 11 16  2  0  0  0
 11 26  1  0  0  0
 12 13  2  0  0  0
 13 15  1  0  0  0
 13 27  1  0  0  0
 14 16  1  0  0  0
 14 20  1  0  0  0
 14 17  2  0  0  0
 15 19  1  0  0  0
 15 18  2  0  0  0
 16 28  1  0  0  0
 17 29  1  0  0  0
 18 30  1  0  0  0
 19 31  1  0  0  0
M  END
> <s_m_entry_id>
5092

> <s_m_entry_name>
dock_pv.83

> <s_m_Source_Path>
/home/csk/Desktop/cluster/DUD-E-result/pgh1

> <s_m_Source_File>
dock_pv.maegz

> <i_m_Source_File_Index>
83

> <chembl_id>
CHEMBL302950

> <chembl_pref_name>
None

> <i_lp_mmshare_version>
53161

> <r_lp_tautomer_probability>
1

> <s_lp_Force_Field>
OPLS_2005

> <r_lp_Energy>
16.478807

> <b_lp_Chiralities_Consistent>
1

> <s_lp_Variant>
CHEMBL221_lig281-1

> <s_i_glide_gridfile>
glide-grid_2oyu

> <i_i_glide_lignum>
314

> <i_i_glide_rotatable_bonds>
3

> <r_i_docking_score>
-9.63332186073537

> <r_i_glide_ligand_efficiency>
-0.481666093036769

> <r_i_glide_ligand_efficiency_sa>
-1.30744292694986

> <r_i_glide_ligand_efficiency_ln>
-2.4109027335225

> <r_i_glide_gscore>
-9.63332186073537

> <r_i_glide_lipo>
-4.63710547073377

> <r_i_glide_hbond>
-0.275074789778045

> <r_i_glide_metal>
0

> <r_i_glide_rewards>
-3.24448528807816

> <r_i_glide_evdw>
-29.1877002716064

> <r_i_glide_ecoul>
-3.14136743545532

> <r_i_glide_erotb>
0.453933816753222

> <r_i_glide_esite>
0

> <r_i_glide_emodel>
-49.6557719428496

> <r_i_glide_energy>
-32.3290677070618

> <r_i_glide_einternal>
0.320358753204346

> <i_i_glide_confnum>
3

> <i_i_glide_posenum>
187

> <r_i_glide_eff_state_penalty>
0

> <s_user_duplicate_titles>
CHEMBL221_lig281,104539

> <i_f3d_flags>
0

> <s_m_subgroup_title>
dock_pv

> <s_m_subgroupid>
dock_pv

> <b_m_subgroup_collapsed>
1

$$$$
CHEMBL221_lig8
                    3D
 Schrodinger Suite 2021-1.
 41 43  0  0  1  0            999 V2000
   19.5161   47.8729    7.8844 C   0  0  0  0  0  0
   19.3230   47.5426    9.2568 O   0  0  0  0  0  0
   19.7147   48.4081   10.2598 C   0  0  0  0  0  0
   20.2584   49.6795   10.0665 C   0  0  0  0  0  0
   20.6038   50.5006   11.1381 C   0  0  0  0  0  0
   20.4990   49.9649   12.4368 C   0  0  0  0  0  0
   19.8944   48.7087   12.6558 C   0  0  0  0  0  0
   19.4637   47.9755   11.5570 C   0  0  0  0  0  0
   19.8421   48.4741   14.0603 C   0  0  0  0  0  0
   19.1681   47.3022   14.7542 C   0  0  0  0  0  0
   17.7759   47.6960   15.2414 C   0  0  0  0  0  0
   17.4890   47.8730   16.4214 O   0  0  0  0  0  0
   16.9230   47.8730   14.2000 O   0  0  0  0  0  0
   20.5230   49.5202   14.6498 C   0  0  0  0  0  0
   20.7831   49.7009   16.1285 C   0  0  0  0  0  0
   20.9230   50.4352   13.6803 N   0  0  0  0  0  0
   21.6660   51.6189   13.9798 C   0  0  0  0  0  0
   21.3230   52.3480   14.9124 O   0  0  0  0  0  0
   22.8880   51.9185   13.1490 C   0  0  0  0  0  0
   23.3419   50.9992   12.1999 C   0  0  0  0  0  0
   24.3346   51.3410   11.3207 C   0  0  0  0  0  0
   25.0878   52.4766   11.5460 C   0  0  0  0  0  0
   26.5230   52.6730   10.6002 Cl  0  0  0  0  0  0
   24.7454   53.3588   12.5774 C   0  0  0  0  0  0
   23.5898   53.1182   13.3173 C   0  0  0  0  0  0
   18.8301   47.2730    7.2873 H   0  0  0  0  0  0
   20.5230   47.6203    7.5659 H   0  0  0  0  0  0
   19.3230   48.9138    7.6308 H   0  0  0  0  0  0
   20.4083   50.0668    9.0720 H   0  0  0  0  0  0
   21.0290   51.4730   10.9503 H   0  0  0  0  0  0
   18.9333   47.0730   11.7406 H   0  0  0  0  0  0
   19.0647   46.4435   14.0907 H   0  0  0  0  0  0
   19.7445   46.9481   15.6082 H   0  0  0  0  0  0
   16.0649   48.1631   14.5162 H   0  0  0  0  0  0
   20.8196   48.7240   16.6000 H   0  0  0  0  0  0
   21.7233   50.1958   16.3592 H   0  0  0  0  0  0
   19.9887   50.2730   16.6043 H   0  0  0  0  0  0
   22.9210   50.0173   12.0659 H   0  0  0  0  0  0
   24.5230   50.6730   10.5025 H   0  0  0  0  0  0
   25.3321   54.2474   12.7603 H   0  0  0  0  0  0
   23.2539   53.8589   14.0271 H   0  0  0  0  0  0
  1  2  1  0  0  0
  1 26  1  0  0  0
  1 27  1  0  0  0
  1 28  1  0  0  0
  2  3  1  0  0  0
  3  4  2  0  0  0
  3  8  1  0  0  0
  4  5  1  0  0  0
  4 29  1  0  0  0
  5  6  2  0  0  0
  5 30  1  0  0  0
  6  7  1  0  0  0
  6 16  1  0  0  0
  7  8  2  0  0  0
  7  9  1  0  0  0
  8 31  1  0  0  0
  9 10  1  0  0  0
  9 14  2  0  0  0
 10 11  1  0  0  0
 10 32  1  0  0  0
 10 33  1  0  0  0
 11 12  2  0  0  0
 11 13  1  0  0  0
 13 34  1  0  0  0
 14 15  1  0  0  0
 14 16  1  0  0  0
 15 35  1  0  0  0
 15 36  1  0  0  0
 15 37  1  0  0  0
 16 17  1  0  0  0
 17 18  2  0  0  0
 17 19  1  0  0  0
 19 20  2  0  0  0
 19 25  1  0  0  0
 20 21  1  0  0  0
 20 38  1  0  0  0
 21 22  2  0  0  0
 21 39  1  0  0  0
 22 23  1  0  0  0
 22 24  1  0  0  0
 24 25  2  0  0  0
 24 40  1  0  0  0
 25 41  1  0  0  0
M  END
> <s_m_entry_id>
5093

> <s_m_entry_name>
dock_pv.84

> <s_m_Source_Path>
/home/csk/Desktop/cluster/DUD-E-result/pgh1

> <s_m_Source_File>
dock_pv.maegz

> <i_m_Source_File_Index>
84

> <chembl_id>
CHEMBL6

> <chembl_pref_name>
INDOMETHACIN

> <i_lp_mmshare_version>
53161

> <r_lp_tautomer_probability>
1

> <s_lp_Force_Field>
OPLS_2005

> <r_lp_Energy>
28.132168

> <b_lp_Chiralities_Consistent>
1

> <s_lp_Variant>
CHEMBL221_lig8-1

> <s_i_glide_gridfile>
glide-grid_2oyu

> <i_i_glide_lignum>
8

> <i_i_glide_rotatable_bonds>
6

> <r_i_docking_score>
-9.62896800685149

> <r_i_glide_ligand_efficiency>
-0.385158720274059

> <r_i_glide_ligand_efficiency_sa>
-1.12621092890034

> <r_i_glide_ligand_efficiency_ln>
-2.28235397450986

> <r_i_glide_gscore>
-9.62896800685149

> <r_i_glide_lipo>
-4.82020719495902

> <r_i_glide_hbond>
0

> <r_i_glide_metal>
0

> <r_i_glide_rewards>
-2.94072178161171

> <r_i_glide_evdw>
-41.8176002502441

> <r_i_glide_ecoul>
-2.50322842597961

> <r_i_glide_erotb>
0.598325246128399

> <r_i_glide_esite>
0

> <r_i_glide_emodel>
-54.5919845466821

> <r_i_glide_energy>
-44.3208286762238

> <r_i_glide_einternal>
15.2568988800049

> <i_i_glide_confnum>
52

> <i_i_glide_posenum>
187

> <r_i_glide_eff_state_penalty>
0

> <s_user_duplicate_titles>
CHEMBL221_lig8,173

> <i_f3d_flags>
0

> <s_m_subgroup_title>
dock_pv

> <s_m_subgroupid>
dock_pv

> <b_m_subgroup_collapsed>
1

$$$$
CHEMBL221_lig1058 
                    3D
 Schrodinger Suite 2021-1.
 40 42  0  0  1  0            999 V2000
   19.7614   48.8383   12.0828 C   0  0  0  0  0  0
   19.2298   47.9455   11.2380 O   0  0  0  0  0  0
   19.7230   48.2730   10.0409 C   0  0  0  0  0  0
   20.5522   49.2934   10.0639 N   0  0  0  0  0  0
   20.6626   49.6241   11.3493 C   0  0  0  0  0  0
   19.2911   48.6590   13.4645 C   0  0  0  0  0  0
   17.9656   48.2730   13.7033 C   0  0  0  0  0  0
   17.5404   48.0116   14.9998 C   0  0  0  0  0  0
   18.4417   48.1546   16.0475 C   0  0  0  0  0  0
   19.7532   48.5578   15.8000 C   0  0  0  0  0  0
   20.1834   48.7984   14.5131 C   0  0  0  0  0  0
   19.1595   47.4153    8.9337 C   0  0  0  0  0  0
   19.5942   47.6640    7.5032 C   0  0  0  0  0  0
   19.7319   49.1299    7.0738 C   0  0  0  0  0  0
   21.6336   50.6779   11.8194 C   0  0  0  0  0  0
   21.4091   51.3884   13.0045 C   0  0  0  0  0  0
   22.3226   52.3330   13.4705 C   0  0  0  0  0  0
   23.4798   52.6037   12.7455 C   0  0  0  0  0  0
   23.7143   51.9247   11.5457 C   0  0  0  0  0  0
   22.8010   50.9648   11.0963 C   0  0  0  0  0  0
   25.1164   52.2730   10.6000 Cl  0  0  0  0  0  0
   24.5972   53.7788   13.3516 Cl  0  0  0  0  0  0
   19.7852   49.2817    5.5780 C   0  0  0  0  0  0
   18.7144   48.6730    5.0000 O   0  0  0  0  0  0
   20.6903   49.8730    5.0000 O   0  0  0  0  0  0
   17.2672   48.1551   12.8870 H   0  0  0  0  0  0
   16.5230   47.7029   15.1889 H   0  0  0  0  0  0
   18.1196   47.9457   17.0564 H   0  0  0  0  0  0
   20.4616   48.6730   16.6000 H   0  0  0  0  0  0
   21.2126   49.0730   14.3392 H   0  0  0  0  0  0
   18.0751   47.4730    8.9663 H   0  0  0  0  0  0
   19.3939   46.3748    9.1437 H   0  0  0  0  0  0
   18.8493   47.1466    6.9005 H   0  0  0  0  0  0
   20.5230   47.1438    7.3177 H   0  0  0  0  0  0
   20.6323   49.5461    7.4910 H   0  0  0  0  0  0
   18.9230   49.7650    7.4000 H   0  0  0  0  0  0
   20.5230   51.2096   13.5856 H   0  0  0  0  0  0
   22.1320   52.8599   14.3949 H   0  0  0  0  0  0
   23.0061   50.4402   10.1755 H   0  0  0  0  0  0
   18.7438   48.7295    4.0383 H   0  0  0  0  0  0
  1  2  1  0  0  0
  1  5  2  0  0  0
  1  6  1  0  0  0
  2  3  1  0  0  0
  3  4  2  0  0  0
  3 12  1  0  0  0
  4  5  1  0  0  0
  5 15  1  0  0  0
  6  7  2  0  0  0
  6 11  1  0  0  0
  7  8  1  0  0  0
  7 26  1  0  0  0
  8  9  2  0  0  0
  8 27  1  0  0  0
  9 10  1  0  0  0
  9 28  1  0  0  0
 10 11  2  0  0  0
 10 29  1  0  0  0
 11 30  1  0  0  0
 12 13  1  0  0  0
 12 31  1  0  0  0
 12 32  1  0  0  0
 13 14  1  0  0  0
 13 33  1  0  0  0
 13 34  1  0  0  0
 14 23  1  0  0  0
 14 35  1  0  0  0
 14 36  1  0  0  0
 15 16  2  0  0  0
 15 20  1  0  0  0
 16 17  1  0  0  0
 16 37  1  0  0  0
 17 18  2  0  0  0
 17 38  1  0  0  0
 18 19  1  0  0  0
 18 22  1  0  0  0
 19 20  2  0  0  0
 19 21  1  0  0  0
 20 39  1  0  0  0
 23 24  1  0  0  0
 23 25  2  0  0  0
 24 40  1  0  0  0
M  END
> <s_m_entry_id>
5094

> <s_m_entry_name>
dock_pv.85

> <s_m_Source_Path>
/home/csk/Desktop/cluster/DUD-E-result/pgh1

> <s_m_Source_File>
dock_pv.maegz

> <i_m_Source_File_Index>
85

> <chembl_id>
CHEMBL4445524

> <chembl_pref_name>
None

> <i_lp_mmshare_version>
53161

> <r_lp_tautomer_probability>
1

> <s_lp_Force_Field>
OPLS_2005

> <r_lp_Energy>
14.554695

> <b_lp_Chiralities_Consistent>
1

> <s_lp_Variant>
CHEMBL221_lig1058 -1

> <s_i_glide_gridfile>
glide-grid_2oyu

> <i_i_glide_lignum>
1316

> <i_i_glide_rotatable_bonds>
7

> <r_i_docking_score>
-9.62226061238903

> <r_i_glide_ligand_efficiency>
-0.384890424495561

> <r_i_glide_ligand_efficiency_sa>
-1.12542642728576

> <r_i_glide_ligand_efficiency_ln>
-2.28076412101786

> <r_i_glide_gscore>
-9.62226061238903

> <r_i_glide_lipo>
-5.55984925045582

> <r_i_glide_hbond>
-0.0824393108762485

> <r_i_glide_metal>
0

> <r_i_glide_rewards>
-2.04471419453307

> <r_i_glide_evdw>
-44.0781326293945

> <r_i_glide_ecoul>
-3.678542137146

> <r_i_glide_erotb>
0.820430095517742

> <r_i_glide_esite>
0

> <r_i_glide_emodel>
-64.2099700482702

> <r_i_glide_energy>
-47.7566747665405

> <r_i_glide_einternal>
4.22633361816406

> <i_i_glide_confnum>
117

> <i_i_glide_posenum>
339

> <r_i_glide_eff_state_penalty>
0

> <s_user_duplicate_titles>
CHEMBL221_lig1058 

> <i_f3d_flags>
0

> <s_m_subgroup_title>
dock_pv

> <s_m_subgroupid>
dock_pv

> <b_m_subgroup_collapsed>
1

$$$$
CHEMBL221_lig585
                    3D
 Schrodinger Suite 2021-1.
 40 42  0  0  1  0            999 V2000
   20.0095   48.9994    6.1956 S   0  0  0  0  0  0
   20.6484   49.6801   13.1739 C   0  0  0  0  0  0
   21.8273   50.4916   12.7354 C   0  0  0  0  0  0
   19.7622   49.0426   12.2620 C   0  0  0  0  0  0
   20.4462   49.4732   14.5516 C   0  0  0  0  0  0
   20.0457   49.0546    7.9772 C   0  0  0  0  0  0
   22.1213   51.7557   13.2796 C   0  0  0  0  0  0
   18.7078   48.2687   12.7672 C   0  0  0  0  0  0
   20.9170   49.9867    5.6283 O   0  0  0  0  0  0
   20.1222   47.6060    5.8000 O   0  0  0  0  0  0
   23.2786   52.4564   12.9043 C   0  0  0  0  0  0
   19.8796   49.0925   10.7745 C   0  0  0  0  0  0
   19.3994   48.6712   15.0021 C   0  0  0  0  0  0
   18.4093   49.4716    5.7996 N   0  0  0  0  0  0
   24.1235   51.9090   11.9353 C   0  0  0  0  0  0
   22.7147   49.9591   11.8003 C   0  0  0  0  0  0
   18.5231   48.0769   14.1193 C   0  0  0  0  0  0
   19.7948   47.8741    8.6719 C   0  0  0  0  0  0
   20.1224   50.2649    8.6751 C   0  0  0  0  0  0
   23.8332   50.6740   11.3942 C   0  0  0  0  0  0
   20.0796   50.2817   10.0691 C   0  0  0  0  0  0
   19.7231   47.9052   10.0536 C   0  0  0  0  0  0
   21.2618   50.0434   15.4714 F   0  0  0  0  0  0
   19.2115   48.4554   16.3072 F   0  0  0  0  0  0
   25.5769   52.6718   11.4032 Cl  0  0  0  0  0  0
   23.6429   53.7624   13.5843 C   0  0  0  0  0  0
   21.4667   52.1786   14.0284 H   0  0  0  0  0  0
   18.0105   47.7861   12.1002 H   0  0  0  0  0  0
   18.2695   50.4802    5.9305 H   0  0  0  0  0  0
   18.1538   49.2490    4.8351 H   0  0  0  0  0  0
   22.5370   48.9742   11.3985 H   0  0  0  0  0  0
   17.7063   47.4698   14.4818 H   0  0  0  0  0  0
   19.6657   46.9365    8.1533 H   0  0  0  0  0  0
   20.2219   51.1912    8.1280 H   0  0  0  0  0  0
   24.5217   50.2804   10.6679 H   0  0  0  0  0  0
   20.1545   51.2231   10.5941 H   0  0  0  0  0  0
   19.5752   46.9844   10.5840 H   0  0  0  0  0  0
   22.8347   54.1635   14.1961 H   0  0  0  0  0  0
   23.9532   54.5324   12.8899 H   0  0  0  0  0  0
   24.5235   53.5920   14.1935 H   0  0  0  0  0  0
  1  6  1  0  0  0
  1  9  2  0  0  0
  1 10  2  0  0  0
  1 14  1  0  0  0
  2  4  1  0  0  0
  2  3  1  0  0  0
  2  5  2  0  0  0
  3  7  2  0  0  0
  3 16  1  0  0  0
  4 12  1  0  0  0
  4  8  2  0  0  0
  5 23  1  0  0  0
  5 13  1  0  0  0
  6 18  1  0  0  0
  6 19  2  0  0  0
  7 11  1  0  0  0
  7 27  1  0  0  0
  8 17  1  0  0  0
  8 28  1  0  0  0
 11 26  1  0  0  0
 11 15  2  0  0  0
 12 21  2  0  0  0
 12 22  1  0  0  0
 13 17  2  0  0  0
 13 24  1  0  0  0
 14 29  1  0  0  0
 14 30  1  0  0  0
 15 20  1  0  0  0
 15 25  1  0  0  0
 16 20  2  0  0  0
 16 31  1  0  0  0
 17 32  1  0  0  0
 18 22  2  0  0  0
 18 33  1  0  0  0
 19 21  1  0  0  0
 19 34  1  0  0  0
 20 35  1  0  0  0
 21 36  1  0  0  0
 22 37  1  0  0  0
 26 38  1  0  0  0
 26 39  1  0  0  0
 26 40  1  0  0  0
M  END
> <s_m_entry_id>
5095

> <s_m_entry_name>
dock_pv.86

> <s_m_Source_Path>
/home/csk/Desktop/cluster/DUD-E-result/pgh1

> <s_m_Source_File>
dock_pv.maegz

> <i_m_Source_File_Index>
86

> <chembl_id>
CHEMBL185196

> <chembl_pref_name>
None

> <i_lp_mmshare_version>
53161

> <r_lp_tautomer_probability>
1

> <s_lp_Force_Field>
OPLS_2005

> <r_lp_Energy>
29.548978

> <b_lp_Chiralities_Consistent>
1

> <s_lp_Variant>
CHEMBL221_lig585-1

> <s_i_glide_gridfile>
glide-grid_2oyu

> <i_i_glide_lignum>
723

> <i_i_glide_rotatable_bonds>
3

> <r_i_docking_score>
-9.61881265371189

> <r_i_glide_ligand_efficiency>
-0.369954332835073

> <r_i_glide_ligand_efficiency_sa>
-1.0959882553239

> <r_i_glide_ligand_efficiency_ln>
-2.25894658982562

> <r_i_glide_gscore>
-9.61881265371189

> <r_i_glide_lipo>
-5.04458535759581

> <r_i_glide_hbond>
-0.300310778504268

> <r_i_glide_metal>
0

> <r_i_glide_rewards>
-2.41827166203179

> <r_i_glide_evdw>
-19.1071968078613

> <r_i_glide_ecoul>
-7.17976760864258

> <r_i_glide_erotb>
0.251941076321249

> <r_i_glide_esite>
-0.0752609502118058

> <r_i_glide_emodel>
-27.7375348989319

> <r_i_glide_energy>
-26.2869644165039

> <r_i_glide_einternal>
4.44052934646606

> <i_i_glide_confnum>
10

> <i_i_glide_posenum>
127

> <r_i_glide_eff_state_penalty>
0

> <s_user_duplicate_titles>
CHEMBL221_lig585

> <i_f3d_flags>
0

> <s_m_subgroup_title>
dock_pv

> <s_m_subgroupid>
dock_pv

> <b_m_subgroup_collapsed>
1

$$$$
CHEMBL221_lig333
                    3D
 Schrodinger Suite 2021-1.
 42 44  0  0  1  0            999 V2000
   20.0180   49.1698    6.1417 S   0  0  0  0  0  0
   20.4753   49.4962   13.1624 C   0  0  0  0  0  0
   19.7669   48.8337   12.2124 C   0  0  0  0  0  0
   21.6069   50.4328   12.9629 C   0  0  0  0  0  0
   20.0480   49.0856    7.9286 C   0  0  0  0  0  0
   22.5211   50.2732   11.9163 C   0  0  0  0  0  0
   23.5276   51.2072   11.6983 C   0  0  0  0  0  0
   19.8566   48.9690   10.7328 C   0  0  0  0  0  0
   20.9230   50.2121    5.6753 O   0  0  0  0  0  0
   20.1230   47.8345    5.5847 O   0  0  0  0  0  0
   18.4212   49.6701    5.8000 N   0  0  0  0  0  0
   23.7051   52.2847   12.5656 C   0  0  0  0  0  0
   21.7566   51.5375   13.8094 C   0  0  0  0  0  0
   20.1230   50.2529    8.6973 C   0  0  0  0  0  0
   19.7969   47.8730    8.5592 C   0  0  0  0  0  0
   20.0706   50.1942   10.0904 C   0  0  0  0  0  0
   19.7230   47.8252    9.9449 C   0  0  0  0  0  0
   22.7977   52.4464   13.6222 C   0  0  0  0  0  0
   24.3199   51.0730   10.6170 F   0  0  0  0  0  0
   20.1122   49.0127   14.5570 C   0  0  0  0  0  0
   18.7795   47.8608   12.8430 C   0  0  0  0  0  0
   24.7764   53.1198   12.3169 O   0  0  0  0  0  0
   18.8862   48.1381   14.3363 C   0  0  0  0  0  0
   25.0577   54.1864   13.2159 C   0  0  0  0  0  0
   22.4440   49.4361   11.2396 H   0  0  0  0  0  0
   18.1872   50.5177    6.3319 H   0  0  0  0  0  0
   18.2966   49.9554    4.8205 H   0  0  0  0  0  0
   21.0619   51.7072   14.6188 H   0  0  0  0  0  0
   20.2313   51.2065    8.2005 H   0  0  0  0  0  0
   19.6789   46.9700    7.9807 H   0  0  0  0  0  0
   20.1457   51.1086   10.6607 H   0  0  0  0  0  0
   19.6005   46.8673   10.4128 H   0  0  0  0  0  0
   22.8802   53.2809   14.3001 H   0  0  0  0  0  0
   20.9230   48.4073   14.9535 H   0  0  0  0  0  0
   19.9272   49.8063   15.2787 H   0  0  0  0  0  0
   17.7557   47.9681   12.4844 H   0  0  0  0  0  0
   19.0914   46.8363   12.6373 H   0  0  0  0  0  0
   18.9244   47.2197   14.9240 H   0  0  0  0  0  0
   17.9942   48.6732   14.6680 H   0  0  0  0  0  0
   25.9113   54.7545   12.8457 H   0  0  0  0  0  0
   25.3230   53.8028   14.2000 H   0  0  0  0  0  0
   24.2193   54.8777   13.3120 H   0  0  0  0  0  0
  1  5  1  0  0  0
  1  9  2  0  0  0
  1 10  2  0  0  0
  1 11  1  0  0  0
  2  3  2  0  0  0
  2  4  1  0  0  0
  2 20  1  0  0  0
  3  8  1  0  0  0
  3 21  1  0  0  0
  4  6  2  0  0  0
  4 13  1  0  0  0
  5 14  2  0  0  0
  5 15  1  0  0  0
  6  7  1  0  0  0
  6 25  1  0  0  0
  7 19  1  0  0  0
  7 12  2  0  0  0
  8 17  1  0  0  0
  8 16  2  0  0  0
 11 26  1  0  0  0
 11 27  1  0  0  0
 12 18  1  0  0  0
 12 22  1  0  0  0
 13 18  2  0  0  0
 13 28  1  0  0  0
 14 16  1  0  0  0
 14 29  1  0  0  0
 15 17  2  0  0  0
 15 30  1  0  0  0
 16 31  1  0  0  0
 17 32  1  0  0  0
 18 33  1  0  0  0
 20 23  1  0  0  0
 20 34  1  0  0  0
 20 35  1  0  0  0
 21 23  1  0  0  0
 21 36  1  0  0  0
 21 37  1  0  0  0
 22 24  1  0  0  0
 23 38  1  0  0  0
 23 39  1  0  0  0
 24 40  1  0  0  0
 24 41  1  0  0  0
 24 42  1  0  0  0
M  END
> <s_m_entry_id>
5096

> <s_m_entry_name>
dock_pv.87

> <s_m_Source_Path>
/home/csk/Desktop/cluster/DUD-E-result/pgh1

> <s_m_Source_File>
dock_pv.maegz

> <i_m_Source_File_Index>
87

> <chembl_id>
CHEMBL111427

> <chembl_pref_name>
None

> <i_lp_mmshare_version>
53161

> <r_lp_tautomer_probability>
1

> <s_lp_Force_Field>
OPLS_2005

> <r_lp_Energy>
38.830253

> <b_lp_Chiralities_Consistent>
1

> <s_lp_Variant>
CHEMBL221_lig333-1

> <s_i_glide_gridfile>
glide-grid_2oyu

> <i_i_glide_lignum>
398

> <i_i_glide_rotatable_bonds>
4

> <r_i_docking_score>
-9.60537757920347

> <r_i_glide_ligand_efficiency>
-0.400224065800145

> <r_i_glide_ligand_efficiency_sa>
-1.15444597263092

> <r_i_glide_ligand_efficiency_ln>
-2.29900761676006

> <r_i_glide_gscore>
-9.60537757920347

> <r_i_glide_lipo>
-4.89423958049813

> <r_i_glide_hbond>
-0.535750705691396

> <r_i_glide_metal>
0

> <r_i_glide_rewards>
-2.02916512768787

> <r_i_glide_evdw>
-21.578296661377

> <r_i_glide_ecoul>
-8.64740180969238

> <r_i_glide_erotb>
0.315253251923575

> <r_i_glide_esite>
-0.0854503127269465

> <r_i_glide_emodel>
-39.4302709503866

> <r_i_glide_energy>
-30.2256984710693

> <r_i_glide_einternal>
1.32742190361023

> <i_i_glide_confnum>
16

> <i_i_glide_posenum>
120

> <r_i_glide_eff_state_penalty>
0

> <s_user_duplicate_titles>
CHEMBL221_lig333

> <i_f3d_flags>
0

> <s_m_subgroup_title>
dock_pv

> <s_m_subgroupid>
dock_pv

> <b_m_subgroup_collapsed>
1

$$$$
CHEMBL221_lig263
                    3D
 Schrodinger Suite 2021-1.
 34 36  0  0  1  0            999 V2000
   19.9967   48.9642    6.2811 S   0  0  0  0  0  0
   20.8119   49.8201   13.2273 C   0  0  0  0  0  0
   19.9475   49.0994   12.3816 C   0  0  0  0  0  0
   20.5230   49.4730   14.9132 S   0  0  0  0  0  0
   20.0158   49.0352    8.0744 C   0  0  0  0  0  0
   19.9406   49.1222   10.8810 C   0  0  0  0  0  0
   21.9417   50.7349   12.9082 C   0  0  0  0  0  0
   20.9230   49.9367    5.7216 O   0  0  0  0  0  0
   20.1230   47.5622    5.9160 O   0  0  0  0  0  0
   19.2478   48.3850   14.5041 C   0  0  0  0  0  0
   19.0613   48.3026   13.1346 C   0  0  0  0  0  0
   18.4232   49.4730    5.8000 N   0  0  0  0  0  0
   20.1230   50.2546    8.7523 C   0  0  0  0  0  0
   19.7512   47.8730    8.8041 C   0  0  0  0  0  0
   19.7230   47.9274   10.1944 C   0  0  0  0  0  0
   20.1230   50.2959   10.1471 C   0  0  0  0  0  0
   22.0823   51.9614   13.5675 C   0  0  0  0  0  0
   22.8896   50.3382   11.9628 C   0  0  0  0  0  0
   24.1456   52.3417   12.3953 C   0  0  0  0  0  0
   23.9910   51.1450   11.7053 C   0  0  0  0  0  0
   23.1879   52.7655   13.3105 C   0  0  0  0  0  0
   25.2589   53.0780   12.2000 F   0  0  0  0  0  0
   18.6942   47.8763   15.2797 H   0  0  0  0  0  0
   18.3013   47.6774   12.6879 H   0  0  0  0  0  0
   18.2996   50.4845    5.9136 H   0  0  0  0  0  0
   18.2065   49.2424    4.8272 H   0  0  0  0  0  0
   20.2319   51.1690    8.1877 H   0  0  0  0  0  0
   19.5907   46.9308    8.3020 H   0  0  0  0  0  0
   19.5597   47.0288   10.7575 H   0  0  0  0  0  0
   20.2468   51.2431   10.6516 H   0  0  0  0  0  0
   21.3510   52.2825   14.2952 H   0  0  0  0  0  0
   22.7882   49.3936   11.4496 H   0  0  0  0  0  0
   24.7436   50.8325   10.9993 H   0  0  0  0  0  0
   23.3187   53.7006   13.8354 H   0  0  0  0  0  0
  1  5  1  0  0  0
  1  8  2  0  0  0
  1  9  2  0  0  0
  1 12  1  0  0  0
  2  3  2  0  0  0
  2  4  1  0  0  0
  2  7  1  0  0  0
  3  6  1  0  0  0
  3 11  1  0  0  0
  4 10  1  0  0  0
  5 13  1  0  0  0
  5 14  2  0  0  0
  6 15  2  0  0  0
  6 16  1  0  0  0
  7 17  2  0  0  0
  7 18  1  0  0  0
 10 11  2  0  0  0
 10 23  1  0  0  0
 11 24  1  0  0  0
 12 25  1  0  0  0
 12 26  1  0  0  0
 13 16  2  0  0  0
 13 27  1  0  0  0
 14 15  1  0  0  0
 14 28  1  0  0  0
 15 29  1  0  0  0
 16 30  1  0  0  0
 17 21  1  0  0  0
 17 31  1  0  0  0
 18 20  2  0  0  0
 18 32  1  0  0  0
 19 20  1  0  0  0
 19 22  1  0  0  0
 19 21  2  0  0  0
 20 33  1  0  0  0
 21 34  1  0  0  0
M  END
> <s_m_entry_id>
5097

> <s_m_entry_name>
dock_pv.88

> <s_m_Source_Path>
/home/csk/Desktop/cluster/DUD-E-result/pgh1

> <s_m_Source_File>
dock_pv.maegz

> <i_m_Source_File_Index>
88

> <chembl_id>
CHEMBL303688

> <chembl_pref_name>
None

> <i_lp_mmshare_version>
53161

> <r_lp_tautomer_probability>
1

> <s_lp_Force_Field>
OPLS_2005

> <r_lp_Energy>
23.107661

> <b_lp_Chiralities_Consistent>
1

> <s_lp_Variant>
CHEMBL221_lig263-1

> <s_i_glide_gridfile>
glide-grid_2oyu

> <i_i_glide_lignum>
296

> <i_i_glide_rotatable_bonds>
3

> <r_i_docking_score>
-9.59925643373182

> <r_i_glide_ligand_efficiency>
-0.436329837896901

> <r_i_glide_ligand_efficiency_sa>
-1.22261336566589

> <r_i_glide_ligand_efficiency_ln>
-2.34640841378995

> <r_i_glide_gscore>
-9.59925643373182

> <r_i_glide_lipo>
-4.6971586488249

> <r_i_glide_hbond>
-0.282188539651376

> <r_i_glide_metal>
0

> <r_i_glide_rewards>
-2.71791768354888

> <r_i_glide_evdw>
-23.0928783416748

> <r_i_glide_ecoul>
-6.76161003112793

> <r_i_glide_erotb>
0.339106477417702

> <r_i_glide_esite>
-0.0722126173714275

> <r_i_glide_emodel>
-42.9357665611134

> <r_i_glide_energy>
-29.8544883728027

> <r_i_glide_einternal>
0.399936109781265

> <i_i_glide_confnum>
14

> <i_i_glide_posenum>
58

> <r_i_glide_eff_state_penalty>
0

> <s_user_duplicate_titles>
CHEMBL221_lig263

> <i_f3d_flags>
0

> <s_m_subgroup_title>
dock_pv

> <s_m_subgroupid>
dock_pv

> <b_m_subgroup_collapsed>
1

$$$$
CHEMBL221_lig335
                    3D
 Schrodinger Suite 2021-1.
 38 40  0  0  1  0            999 V2000
   19.9989   48.9998    6.2480 S   0  0  0  0  0  0
   20.4912   49.5969   13.2949 C   0  0  0  0  0  0
   19.8067   48.9171   12.3399 C   0  0  0  0  0  0
   21.5748   50.5951   13.1100 C   0  0  0  0  0  0
   20.0306   49.0570    8.0408 C   0  0  0  0  0  0
   22.5132   50.5166   12.0700 C   0  0  0  0  0  0
   23.4578   51.5281   11.8830 C   0  0  0  0  0  0
   19.8840   49.0385   10.8558 C   0  0  0  0  0  0
   20.9228   49.9805    5.6934 O   0  0  0  0  0  0
   20.1231   47.5993    5.8768 O   0  0  0  0  0  0
   18.4017   49.4729    5.8000 N   0  0  0  0  0  0
   23.5138   52.6035   12.7683 C   0  0  0  0  0  0
   21.6292   51.6995   13.9700 C   0  0  0  0  0  0
   19.7773   47.8724    8.7262 C   0  0  0  0  0  0
   20.1230   50.2522    8.7644 C   0  0  0  0  0  0
   19.7230   47.8731   10.1099 C   0  0  0  0  0  0
   20.0925   50.2405   10.1638 C   0  0  0  0  0  0
   22.5847   52.6963   13.7988 C   0  0  0  0  0  0
   24.5228   51.4729   10.5298 Cl  0  0  0  0  0  0
   24.4632   53.5565   12.6336 F   0  0  0  0  0  0
   20.1227   49.0915   14.6876 C   0  0  0  0  0  0
   18.8402   47.9182   12.9698 C   0  0  0  0  0  0
   18.9212   48.1917   14.4608 C   0  0  0  0  0  0
   22.4995   49.6823   11.3840 H   0  0  0  0  0  0
   18.2058   50.4719    5.9235 H   0  0  0  0  0  0
   17.6561   48.8868    6.1905 H   0  0  0  0  0  0
   20.9154   51.8102   14.7722 H   0  0  0  0  0  0
   19.6471   46.9396    8.1990 H   0  0  0  0  0  0
   20.2325   51.1850    8.2307 H   0  0  0  0  0  0
   19.5956   46.9350   10.6130 H   0  0  0  0  0  0
   20.1814   51.1731   10.7013 H   0  0  0  0  0  0
   22.6028   53.5423   14.4706 H   0  0  0  0  0  0
   20.9236   48.4872   15.0945 H   0  0  0  0  0  0
   19.9222   49.8725   15.4204 H   0  0  0  0  0  0
   17.8177   48.0055   12.6004 H   0  0  0  0  0  0
   19.1754   46.8994   12.7748 H   0  0  0  0  0  0
   18.9752   47.2735   15.0478 H   0  0  0  0  0  0
   18.0136   48.7047   14.7834 H   0  0  0  0  0  0
  1  5  1  0  0  0
  1  9  2  0  0  0
  1 10  2  0  0  0
  1 11  1  0  0  0
  2  3  2  0  0  0
  2  4  1  0  0  0
  2 21  1  0  0  0
  3  8  1  0  0  0
  3 22  1  0  0  0
  4  6  2  0  0  0
  4 13  1  0  0  0
  5 14  2  0  0  0
  5 15  1  0  0  0
  6  7  1  0  0  0
  6 24  1  0  0  0
  7 19  1  0  0  0
  7 12  2  0  0  0
  8 17  1  0  0  0
  8 16  2  0  0  0
 11 25  1  0  0  0
 11 26  1  0  0  0
 12 18  1  0  0  0
 12 20  1  0  0  0
 13 18  2  0  0  0
 13 27  1  0  0  0
 14 16  1  0  0  0
 14 28  1  0  0  0
 15 17  2  0  0  0
 15 29  1  0  0  0
 16 30  1  0  0  0
 17 31  1  0  0  0
 18 32  1  0  0  0
 21 23  1  0  0  0
 21 33  1  0  0  0
 21 34  1  0  0  0
 22 23  1  0  0  0
 22 35  1  0  0  0
 22 36  1  0  0  0
 23 37  1  0  0  0
 23 38  1  0  0  0
M  END
> <s_m_entry_id>
5098

> <s_m_entry_name>
dock_pv.89

> <s_m_Source_Path>
/home/csk/Desktop/cluster/DUD-E-result/pgh1

> <s_m_Source_File>
dock_pv.maegz

> <i_m_Source_File_Index>
89

> <chembl_id>
CHEMBL111786

> <chembl_pref_name>
None

> <i_lp_mmshare_version>
53161

> <r_lp_tautomer_probability>
1

> <s_lp_Force_Field>
OPLS_2005

> <r_lp_Energy>
35.122657

> <b_lp_Chiralities_Consistent>
1

> <s_lp_Variant>
CHEMBL221_lig335-1

> <s_i_glide_gridfile>
glide-grid_2oyu

> <i_i_glide_lignum>
400

> <i_i_glide_rotatable_bonds>
3

> <r_i_docking_score>
-9.59545518627789

> <r_i_glide_ligand_efficiency>
-0.417193703751213

> <r_i_glide_ligand_efficiency_sa>
-1.18644339706002

> <r_i_glide_ligand_efficiency_ln>
-2.3202680708192

> <r_i_glide_gscore>
-9.59545518627789

> <r_i_glide_lipo>
-4.63401310407754

> <r_i_glide_hbond>
-0.5809783592901

> <r_i_glide_metal>
0

> <r_i_glide_rewards>
-2.44686282615292

> <r_i_glide_evdw>
-24.3515377044678

> <r_i_glide_ecoul>
-6.34181928634644

> <r_i_glide_erotb>
0.308249367184333

> <r_i_glide_esite>
-0.0730004857663141

> <r_i_glide_emodel>
-40.4907826960513

> <r_i_glide_energy>
-30.6933569908142

> <r_i_glide_einternal>
0.414053589105606

> <i_i_glide_confnum>
1

> <i_i_glide_posenum>
283

> <r_i_glide_eff_state_penalty>
0

> <s_user_duplicate_titles>
CHEMBL221_lig335

> <i_f3d_flags>
0

> <s_m_subgroup_title>
dock_pv

> <s_m_subgroupid>
dock_pv

> <b_m_subgroup_collapsed>
1

$$$$
CHEMBL221_lig48
                    3D
 Schrodinger Suite 2021-1.
 43 46  0  0  1  0            999 V2000
   20.5157   49.5442   13.2800 C   0  0  0  0  0  0
   19.7747   48.9130   12.3334 C   0  0  0  0  0  0
   20.0207   48.8949    6.2708 S   0  0  0  0  0  0
   18.9244   48.2042   14.4266 C   0  0  0  0  0  0
   20.1394   49.0731   14.6836 C   0  0  0  0  0  0
   18.7144   48.0041   12.9466 C   0  0  0  0  0  0
   20.0310   49.0077    8.0560 C   0  0  0  0  0  0
   19.8678   49.0338   10.8581 C   0  0  0  0  0  0
   21.6637   50.4524   13.0429 C   0  0  0  0  0  0
   17.7250   48.2730   15.3648 C   0  0  0  0  0  0
   18.5968   47.0627   15.3718 C   0  0  0  0  0  0
   20.1230   47.4816    5.9414 O   0  0  0  0  0  0
   20.9230   49.8730    5.6755 O   0  0  0  0  0  0
   20.1230   50.2169    8.7579 C   0  0  0  0  0  0
   19.7771   47.8344    8.7549 C   0  0  0  0  0  0
   20.0919   50.2272   10.1585 C   0  0  0  0  0  0
   19.7230   47.8576   10.1335 C   0  0  0  0  0  0
   22.6192   50.1784   12.0551 C   0  0  0  0  0  0
   21.7806   51.6264   13.7947 C   0  0  0  0  0  0
   18.3199   49.3166    5.7915 C   0  0  0  0  0  0
   23.7710   52.2243   12.5750 C   0  0  0  0  0  0
   23.6690   51.0617   11.8180 C   0  0  0  0  0  0
   22.8299   52.5110   13.5590 C   0  0  0  0  0  0
   24.8004   53.0731   12.3619 F   0  0  0  0  0  0
   20.9230   48.4650   15.1190 H   0  0  0  0  0  0
   19.9343   49.8730   15.3868 H   0  0  0  0  0  0
   17.7048   48.2731   12.6349 H   0  0  0  0  0  0
   18.8818   46.9593   12.6871 H   0  0  0  0  0  0
   17.7594   48.9569   16.2135 H   0  0  0  0  0  0
   16.7234   48.2045   14.9379 H   0  0  0  0  0  0
   18.2009   46.1324   14.9625 H   0  0  0  0  0  0
   19.2768   46.8829   16.2000 H   0  0  0  0  0  0
   20.2372   51.1402    8.2090 H   0  0  0  0  0  0
   19.6546   46.8917    8.2435 H   0  0  0  0  0  0
   20.1897   51.1630   10.6891 H   0  0  0  0  0  0
   19.6078   46.9239   10.6485 H   0  0  0  0  0  0
   22.5505   49.2750   11.4668 H   0  0  0  0  0  0
   21.0525   51.8666   14.5560 H   0  0  0  0  0  0
   18.2839   49.3275    4.7051 H   0  0  0  0  0  0
   18.0205   50.2730    6.2000 H   0  0  0  0  0  0
   17.7230   48.4968    6.1551 H   0  0  0  0  0  0
   24.4063   50.8437   11.0584 H   0  0  0  0  0  0
   22.9219   53.4154   14.1435 H   0  0  0  0  0  0
  1  2  2  0  0  0
  1  5  1  0  0  0
  1  9  1  0  0  0
  2  6  1  0  0  0
  2  8  1  0  0  0
  3  7  1  0  0  0
  3 12  2  0  0  0
  3 13  2  0  0  0
  3 20  1  0  0  0
  4  5  1  0  0  0
  4 10  1  0  0  0
  4 11  1  0  0  0
  4  6  1  0  0  0
  5 25  1  0  0  0
  5 26  1  0  0  0
  6 27  1  0  0  0
  6 28  1  0  0  0
  7 15  2  0  0  0
  7 14  1  0  0  0
  8 16  1  0  0  0
  8 17  2  0  0  0
  9 18  2  0  0  0
  9 19  1  0  0  0
 10 11  1  0  0  0
 10 29  1  0  0  0
 10 30  1  0  0  0
 11 31  1  0  0  0
 11 32  1  0  0  0
 14 16  2  0  0  0
 14 33  1  0  0  0
 15 17  1  0  0  0
 15 34  1  0  0  0
 16 35  1  0  0  0
 17 36  1  0  0  0
 18 22  1  0  0  0
 18 37  1  0  0  0
 19 23  2  0  0  0
 19 38  1  0  0  0
 20 39  1  0  0  0
 20 40  1  0  0  0
 20 41  1  0  0  0
 21 23  1  0  0  0
 21 24  1  0  0  0
 21 22  2  0  0  0
 22 42  1  0  0  0
 23 43  1  0  0  0
M  END
> <s_m_entry_id>
5099

> <s_m_entry_name>
dock_pv.90

> <s_m_Source_Path>
/home/csk/Desktop/cluster/DUD-E-result/pgh1

> <s_m_Source_File>
dock_pv.maegz

> <i_m_Source_File_Index>
90

> <chembl_id>
CHEMBL92154

> <chembl_pref_name>
None

> <i_lp_mmshare_version>
53161

> <r_lp_tautomer_probability>
1

> <s_lp_Force_Field>
OPLS_2005

> <r_lp_Energy>
34.255517

> <b_lp_Chiralities_Consistent>
1

> <s_lp_Variant>
CHEMBL221_lig48-1

> <s_i_glide_gridfile>
glide-grid_2oyu

> <i_i_glide_lignum>
62

> <i_i_glide_rotatable_bonds>
3

> <r_i_docking_score>
-9.59125134823976

> <r_i_glide_ligand_efficiency>
-0.399635472843323

> <r_i_glide_ligand_efficiency_sa>
-1.1527481767546

> <r_i_glide_ligand_efficiency_ln>
-2.29562656147994

> <r_i_glide_gscore>
-9.59125134823976

> <r_i_glide_lipo>
-5.04967726521322

> <r_i_glide_hbond>
0

> <r_i_glide_metal>
0

> <r_i_glide_rewards>
-2.85177573025313

> <r_i_glide_evdw>
-22.3336162567139

> <r_i_glide_ecoul>
-5.87274980545044

> <r_i_glide_erotb>
0.323432803021418

> <r_i_glide_esite>
-0.0156378721415631

> <r_i_glide_emodel>
-32.4794722092865

> <r_i_glide_energy>
-28.2063660621643

> <r_i_glide_einternal>
0.979350924491882

> <i_i_glide_confnum>
11

> <i_i_glide_posenum>
320

> <r_i_glide_eff_state_penalty>
0

> <s_user_duplicate_titles>
CHEMBL221_lig48,144292

> <i_f3d_flags>
0

> <s_m_subgroup_title>
dock_pv

> <s_m_subgroupid>
dock_pv

> <b_m_subgroup_collapsed>
1

$$$$
CHEMBL221_lig372
                    3D
 Schrodinger Suite 2021-1.
 37 39  0  0  1  0            999 V2000
   20.0492   48.9665    6.4595 S   0  0  0  0  0  0
   20.4682   49.4745   13.5345 C   0  0  0  0  0  0
   21.5749   50.4137   13.2024 C   0  0  0  0  0  0
   19.5860   48.9259   12.5657 C   0  0  0  0  0  0
   20.1225   49.0702    8.2674 C   0  0  0  0  0  0
   22.4173   50.1931   12.1088 C   0  0  0  0  0  0
   23.3539   51.1451   11.7329 C   0  0  0  0  0  0
   20.9231   49.9283    5.8055 O   0  0  0  0  0  0
   20.1221   47.5539    6.0999 O   0  0  0  0  0  0
   19.7567   49.0548   11.0749 C   0  0  0  0  0  0
   18.4753   49.4827    6.0488 N   0  0  0  0  0  0
   23.5876   52.2523   12.5425 C   0  0  0  0  0  0
   21.7660   51.5743   13.9665 C   0  0  0  0  0  0
   19.8812   47.8828    8.9508 C   0  0  0  0  0  0
   20.1247   50.2713    8.9898 C   0  0  0  0  0  0
   22.7778   52.4773   13.6504 C   0  0  0  0  0  0
   19.9473   50.2648   10.3833 C   0  0  0  0  0  0
   19.7230   47.8797   10.3271 C   0  0  0  0  0  0
   24.1219   50.9916   10.2059 Cl  0  0  0  0  0  0
   24.5904   53.1065   12.2581 F   0  0  0  0  0  0
   20.2726   49.1450   14.8875 C   0  0  0  0  0  0
   18.5100   48.1400   13.0190 C   0  0  0  0  0  0
   18.3193   47.8521   14.3658 C   0  0  0  0  0  0
   19.2151   48.3438   15.3027 C   0  0  0  0  0  0
   22.2986   49.3152   11.4917 H   0  0  0  0  0  0
   18.3507   50.4815    6.2537 H   0  0  0  0  0  0
   18.2593   49.3474    5.0584 H   0  0  0  0  0  0
   21.1251   51.7872   14.8103 H   0  0  0  0  0  0
   19.8191   46.9421    8.4236 H   0  0  0  0  0  0
   20.2248   51.2011    8.4530 H   0  0  0  0  0  0
   22.9184   53.3640   14.2489 H   0  0  0  0  0  0
   19.9449   51.2013   10.9221 H   0  0  0  0  0  0
   19.6091   46.9401   10.8350 H   0  0  0  0  0  0
   20.9439   49.5325   15.6402 H   0  0  0  0  0  0
   17.8067   47.7314   12.3080 H   0  0  0  0  0  0
   17.4808   47.2466   14.6776 H   0  0  0  0  0  0
   19.0731   48.1362   16.3525 H   0  0  0  0  0  0
  1  5  1  0  0  0
  1  8  2  0  0  0
  1  9  2  0  0  0
  1 11  1  0  0  0
  2  4  1  0  0  0
  2  3  1  0  0  0
  2 21  2  0  0  0
  3  6  1  0  0  0
  3 13  2  0  0  0
  4 10  1  0  0  0
  4 22  2  0  0  0
  5 14  2  0  0  0
  5 15  1  0  0  0
  6  7  2  0  0  0
  6 25  1  0  0  0
  7 19  1  0  0  0
  7 12  1  0  0  0
 10 17  1  0  0  0
 10 18  2  0  0  0
 11 26  1  0  0  0
 11 27  1  0  0  0
 12 16  2  0  0  0
 12 20  1  0  0  0
 13 16  1  0  0  0
 13 28  1  0  0  0
 14 18  1  0  0  0
 14 29  1  0  0  0
 15 17  2  0  0  0
 15 30  1  0  0  0
 16 31  1  0  0  0
 17 32  1  0  0  0
 18 33  1  0  0  0
 21 24  1  0  0  0
 21 34  1  0  0  0
 22 23  1  0  0  0
 22 35  1  0  0  0
 23 24  2  0  0  0
 23 36  1  0  0  0
 24 37  1  0  0  0
M  END
> <s_m_entry_id>
5100

> <s_m_entry_name>
dock_pv.91

> <s_m_Source_Path>
/home/csk/Desktop/cluster/DUD-E-result/pgh1

> <s_m_Source_File>
dock_pv.maegz

> <i_m_Source_File_Index>
91

> <chembl_id>
CHEMBL54412

> <chembl_pref_name>
None

> <i_lp_mmshare_version>
53161

> <r_lp_tautomer_probability>
1

> <s_lp_Force_Field>
OPLS_2005

> <r_lp_Energy>
28.793025

> <b_lp_Chiralities_Consistent>
1

> <s_lp_Variant>
CHEMBL221_lig372-1

> <s_i_glide_gridfile>
glide-grid_2oyu

> <i_i_glide_lignum>
438

> <i_i_glide_rotatable_bonds>
3

> <r_i_docking_score>
-9.58966000767543

> <r_i_glide_ligand_efficiency>
-0.399569166986476

> <r_i_glide_ligand_efficiency_sa>
-1.15255691756771

> <r_i_glide_ligand_efficiency_ln>
-2.29524568066104

> <r_i_glide_gscore>
-9.58966000767543

> <r_i_glide_lipo>
-4.90692596858188

> <r_i_glide_hbond>
-0.357036262420052

> <r_i_glide_metal>
0

> <r_i_glide_rewards>
-2.37696686989662

> <r_i_glide_evdw>
-26.200439453125

> <r_i_glide_ecoul>
-5.72543334960938

> <r_i_glide_erotb>
0.29324738611616

> <r_i_glide_esite>
-0.0731413177953885

> <r_i_glide_emodel>
-41.1840130728236

> <r_i_glide_energy>
-31.9258728027344

> <r_i_glide_einternal>
2.7785975933075

> <i_i_glide_confnum>
16

> <i_i_glide_posenum>
364

> <r_i_glide_eff_state_penalty>
0

> <s_user_duplicate_titles>
CHEMBL221_lig372

> <i_f3d_flags>
0

> <s_m_subgroup_title>
dock_pv

> <s_m_subgroupid>
dock_pv

> <b_m_subgroup_collapsed>
1

$$$$
CHEMBL221_lig39
                    3D
 Schrodinger Suite 2021-1.
 39 41  0  0  1  0            999 V2000
   19.8064   48.9977   12.3127 C   0  0  0  0  0  0
   20.5727   49.6835   13.2480 N   0  0  0  0  0  0
   18.9186   48.1895   13.0095 C   0  0  0  0  0  0
   20.1231   49.2963   14.5092 C   0  0  0  0  0  0
   19.1156   48.3536   14.3649 C   0  0  0  0  0  0
   20.0220   48.8875    6.2603 S   0  0  0  0  0  0
   19.9148   49.0814   10.8267 C   0  0  0  0  0  0
   21.6462   50.5731   12.9718 C   0  0  0  0  0  0
   20.0289   48.9980    8.0401 C   0  0  0  0  0  0
   20.1230   47.4741    5.9318 O   0  0  0  0  0  0
   20.9230   49.8730    5.6706 O   0  0  0  0  0  0
   19.7220   47.8853   10.1419 C   0  0  0  0  0  0
   20.1189   50.2617   10.1075 C   0  0  0  0  0  0
   20.1231   50.2216    8.7121 C   0  0  0  0  0  0
   19.7661   47.8359    8.7604 C   0  0  0  0  0  0
   18.2516   47.5495   15.6164 Cl  0  0  0  0  0  0
   22.6661   50.1705   12.1014 C   0  0  0  0  0  0
   21.7030   51.8410   13.5653 C   0  0  0  0  0  0
   18.3197   49.3138    5.7971 C   0  0  0  0  0  0
   23.7961   52.2672   12.4549 C   0  0  0  0  0  0
   20.6739   49.8502   15.8000 C   0  0  0  0  0  0
   22.7842   52.6811   13.3154 C   0  0  0  0  0  0
   23.7319   51.0237   11.8320 C   0  0  0  0  0  0
   24.8576   53.0730   12.2351 F   0  0  0  0  0  0
   18.1839   47.5296   12.5697 H   0  0  0  0  0  0
   19.5641   46.9810   10.6975 H   0  0  0  0  0  0
   20.2208   51.2079   10.6184 H   0  0  0  0  0  0
   20.2288   51.1350    8.1446 H   0  0  0  0  0  0
   19.6227   46.8897    8.2609 H   0  0  0  0  0  0
   22.6417   49.1947   11.6375 H   0  0  0  0  0  0
   20.9178   52.1917   14.2169 H   0  0  0  0  0  0
   18.2807   49.3292    4.7107 H   0  0  0  0  0  0
   18.0203   50.2723    6.2000 H   0  0  0  0  0  0
   17.7240   48.4887    6.1483 H   0  0  0  0  0  0
   20.1612   49.3887   16.6364 H   0  0  0  0  0  0
   21.7230   49.6329   15.9342 H   0  0  0  0  0  0
   20.5291   50.9220   15.9192 H   0  0  0  0  0  0
   22.8442   53.6504   13.7895 H   0  0  0  0  0  0
   24.5234   50.7127   11.1652 H   0  0  0  0  0  0
  1  2  1  0  0  0
  1  3  2  0  0  0
  1  7  1  0  0  0
  2  4  1  0  0  0
  2  8  1  0  0  0
  3  5  1  0  0  0
  3 25  1  0  0  0
  4 21  1  0  0  0
  4  5  2  0  0  0
  5 16  1  0  0  0
  6  9  1  0  0  0
  6 10  2  0  0  0
  6 11  2  0  0  0
  6 19  1  0  0  0
  7 12  2  0  0  0
  7 13  1  0  0  0
  8 17  1  0  0  0
  8 18  2  0  0  0
  9 14  1  0  0  0
  9 15  2  0  0  0
 12 15  1  0  0  0
 12 26  1  0  0  0
 13 14  2  0  0  0
 13 27  1  0  0  0
 14 28  1  0  0  0
 15 29  1  0  0  0
 17 23  2  0  0  0
 17 30  1  0  0  0
 18 22  1  0  0  0
 18 31  1  0  0  0
 19 32  1  0  0  0
 19 33  1  0  0  0
 19 34  1  0  0  0
 20 22  2  0  0  0
 20 24  1  0  0  0
 20 23  1  0  0  0
 21 35  1  0  0  0
 21 36  1  0  0  0
 21 37  1  0  0  0
 22 38  1  0  0  0
 23 39  1  0  0  0
M  END
> <s_m_entry_id>
5101

> <s_m_entry_name>
dock_pv.92

> <s_m_Source_Path>
/home/csk/Desktop/cluster/DUD-E-result/pgh1

> <s_m_Source_File>
dock_pv.maegz

> <i_m_Source_File_Index>
92

> <chembl_id>
CHEMBL44283

> <chembl_pref_name>
None

> <i_lp_mmshare_version>
53161

> <r_lp_tautomer_probability>
1

> <s_lp_Force_Field>
OPLS_2005

> <r_lp_Energy>
12.162957

> <b_lp_Chiralities_Consistent>
1

> <s_lp_Variant>
CHEMBL221_lig39-1

> <s_i_glide_gridfile>
glide-grid_2oyu

> <i_i_glide_lignum>
46

> <i_i_glide_rotatable_bonds>
3

> <r_i_docking_score>
-9.58455408939765

> <r_i_glide_ligand_efficiency>
-0.399356420391569

> <r_i_glide_ligand_efficiency_sa>
-1.15194325019818

> <r_i_glide_ligand_efficiency_ln>
-2.29402360012184

> <r_i_glide_gscore>
-9.58455408939765

> <r_i_glide_lipo>
-4.95466479707382

> <r_i_glide_hbond>
0

> <r_i_glide_metal>
0

> <r_i_glide_rewards>
-2.92045990208303

> <r_i_glide_evdw>
-21.6472053527832

> <r_i_glide_ecoul>
-6.01207780838013

> <r_i_glide_erotb>
0.290355176682758

> <r_i_glide_esite>
-0.0156126280273806

> <r_i_glide_emodel>
-30.5569776065933

> <r_i_glide_energy>
-27.6592831611633

> <r_i_glide_einternal>
0.921569347381592

> <i_i_glide_confnum>
14

> <i_i_glide_posenum>
188

> <r_i_glide_eff_state_penalty>
0

> <s_user_duplicate_titles>
CHEMBL221_lig39

> <i_f3d_flags>
0

> <s_m_subgroup_title>
dock_pv

> <s_m_subgroupid>
dock_pv

> <b_m_subgroup_collapsed>
1

$$$$
CHEMBL221_lig37
                    3D
 Schrodinger Suite 2021-1.
 44 46  0  0  1  0            999 V2000
   19.3632   48.1601   14.0015 C   0  0  0  0  0  0
   20.6759   49.6273   12.9166 N   0  0  0  0  0  0
   20.3127   49.1554   14.1809 C   0  0  0  0  0  0
   19.9207   48.9362   11.9653 C   0  0  0  0  0  0
   19.0880   48.0775   12.6518 C   0  0  0  0  0  0
   19.9699   49.0731    5.8779 S   0  0  0  0  0  0
   18.7277   47.3576   15.0238 C   0  0  0  0  0  0
   17.2056   47.4406   15.1701 C   0  0  0  0  0  0
   21.7038   50.5691   12.6657 C   0  0  0  0  0  0
   19.9580   49.0425   10.4722 C   0  0  0  0  0  0
   19.9604   49.0562    7.6681 C   0  0  0  0  0  0
   20.6747   50.2730    5.4635 O   0  0  0  0  0  0
   20.4580   47.8188    5.3540 O   0  0  0  0  0  0
   19.3929   46.6743   15.8000 O   0  0  0  0  0  0
   20.1342   50.2427    9.7892 C   0  0  0  0  0  0
   19.7230   47.8730    9.7378 C   0  0  0  0  0  0
   19.7230   47.8700    8.3480 C   0  0  0  0  0  0
   20.1230   50.2437    8.3940 C   0  0  0  0  0  0
   16.9230   47.8730   16.3999 F   0  0  0  0  0  0
   16.6870   48.2730   14.2697 F   0  0  0  0  0  0
   16.6757   46.2305   15.0000 F   0  0  0  0  0  0
   21.7230   51.8141   13.3088 C   0  0  0  0  0  0
   22.7521   50.2079   11.8186 C   0  0  0  0  0  0
   20.8843   49.6717   15.4981 C   0  0  0  0  0  0
   18.1771   49.0730    5.4000 C   0  0  0  0  0  0
   23.8664   52.2799   12.3179 C   0  0  0  0  0  0
   23.8277   51.0694   11.6358 C   0  0  0  0  0  0
   22.8130   52.6645   13.1420 C   0  0  0  0  0  0
   24.9516   53.0733   12.2000 F   0  0  0  0  0  0
   18.3636   47.4147   12.2000 H   0  0  0  0  0  0
   20.2664   51.1696   10.3272 H   0  0  0  0  0  0
   19.5809   46.9399   10.2518 H   0  0  0  0  0  0
   19.5629   46.9540    7.8026 H   0  0  0  0  0  0
   20.2343   51.1799    7.8650 H   0  0  0  0  0  0
   20.9229   52.1128   13.9696 H   0  0  0  0  0  0
   22.7498   49.2406   11.3420 H   0  0  0  0  0  0
   20.1235   50.1991   16.0731 H   0  0  0  0  0  0
   21.2224   48.8526   16.1327 H   0  0  0  0  0  0
   21.7230   50.3515   15.4071 H   0  0  0  0  0  0
   18.1114   49.0729    4.3128 H   0  0  0  0  0  0
   17.7230   48.1727    5.8000 H   0  0  0  0  0  0
   17.6981   49.9585    5.8083 H   0  0  0  0  0  0
   24.6511   50.7835   11.0000 H   0  0  0  0  0  0
   22.8560   53.6081   13.6670 H   0  0  0  0  0  0
  1  3  2  0  0  0
  1  5  1  0  0  0
  1  7  1  0  0  0
  2  3  1  0  0  0
  2  9  1  0  0  0
  2  4  1  0  0  0
  3 24  1  0  0  0
  4  5  2  0  0  0
  4 10  1  0  0  0
  5 30  1  0  0  0
  6 11  1  0  0  0
  6 12  2  0  0  0
  6 13  2  0  0  0
  6 25  1  0  0  0
  7  8  1  0  0  0
  7 14  2  0  0  0
  8 19  1  0  0  0
  8 20  1  0  0  0
  8 21  1  0  0  0
  9 22  2  0  0  0
  9 23  1  0  0  0
 10 15  1  0  0  0
 10 16  2  0  0  0
 11 17  2  0  0  0
 11 18  1  0  0  0
 15 18  2  0  0  0
 15 31  1  0  0  0
 16 17  1  0  0  0
 16 32  1  0  0  0
 17 33  1  0  0  0
 18 34  1  0  0  0
 22 28  1  0  0  0
 22 35  1  0  0  0
 23 27  2  0  0  0
 23 36  1  0  0  0
 24 37  1  0  0  0
 24 38  1  0  0  0
 24 39  1  0  0  0
 25 40  1  0  0  0
 25 41  1  0  0  0
 25 42  1  0  0  0
 26 27  1  0  0  0
 26 29  1  0  0  0
 26 28  2  0  0  0
 27 43  1  0  0  0
 28 44  1  0  0  0
M  END
> <s_m_entry_id>
5102

> <s_m_entry_name>
dock_pv.93

> <s_m_Source_Path>
/home/csk/Desktop/cluster/DUD-E-result/pgh1

> <s_m_Source_File>
dock_pv.maegz

> <i_m_Source_File_Index>
93

> <chembl_id>
CHEMBL42409

> <chembl_pref_name>
None

> <i_lp_mmshare_version>
53161

> <r_lp_tautomer_probability>
1

> <s_lp_Force_Field>
OPLS_2005

> <r_lp_Energy>
26.315953

> <b_lp_Chiralities_Consistent>
1

> <s_lp_Variant>
CHEMBL221_lig37-1

> <s_i_glide_gridfile>
glide-grid_2oyu

> <i_i_glide_lignum>
44

> <i_i_glide_rotatable_bonds>
5

> <r_i_docking_score>
-9.56224667568433

> <r_i_glide_ligand_efficiency>
-0.329732643989115

> <r_i_glide_ligand_efficiency_sa>
-1.01304314896857

> <r_i_glide_ligand_efficiency_ln>
-2.18951201107756

> <r_i_glide_gscore>
-9.56224667568433

> <r_i_glide_lipo>
-4.84968928377188

> <r_i_glide_hbond>
0

> <r_i_glide_metal>
0

> <r_i_glide_rewards>
-3.08530961253894

> <r_i_glide_evdw>
-23.5385894775391

> <r_i_glide_ecoul>
-5.06493091583252

> <r_i_glide_erotb>
0.32885480883926

> <r_i_glide_esite>
-0.0194334769609455

> <r_i_glide_emodel>
-25.477270626364

> <r_i_glide_energy>
-28.6035203933716

> <r_i_glide_einternal>
6.7493748664856

> <i_i_glide_confnum>
58

> <i_i_glide_posenum>
327

> <r_i_glide_eff_state_penalty>
0

> <s_user_duplicate_titles>
CHEMBL221_lig37

> <i_f3d_flags>
0

> <s_m_subgroup_title>
dock_pv

> <s_m_subgroupid>
dock_pv

> <b_m_subgroup_collapsed>
1

$$$$
CHEMBL221_lig369
                    3D
 Schrodinger Suite 2021-1.
 41 44  0  0  1  0            999 V2000
   20.7644   49.7913   13.0054 C   0  0  0  0  0  0
   19.9458   49.0338   12.0560 C   0  0  0  0  0  0
   19.8700   48.8641    5.9859 S   0  0  0  0  0  0
   19.3311   48.4014   14.2055 C   0  0  0  0  0  0
   20.4086   49.4506   14.2589 C   0  0  0  0  0  0
   19.1021   48.2372   12.7371 C   0  0  0  0  0  0
   19.9098   48.9859    7.7687 C   0  0  0  0  0  0
   19.9563   49.0665   10.5744 C   0  0  0  0  0  0
   21.8858   50.7182   12.7257 C   0  0  0  0  0  0
   18.2588   48.2730   15.2559 C   0  0  0  0  0  0
   19.3230   47.1964   15.0990 C   0  0  0  0  0  0
   20.1230   47.4730    5.7022 O   0  0  0  0  0  0
   20.7436   49.8730    5.4000 O   0  0  0  0  0  0
   19.7215   47.8217    8.5062 C   0  0  0  0  0  0
   20.1230   50.1947    8.4367 C   0  0  0  0  0  0
   19.7230   47.8730    9.8889 C   0  0  0  0  0  0
   20.1546   50.2361    9.8332 C   0  0  0  0  0  0
   22.7319   50.5099   11.6302 C   0  0  0  0  0  0
   22.1599   51.7754   13.6032 C   0  0  0  0  0  0
   18.1230   49.0730    5.4085 C   0  0  0  0  0  0
   24.1230   52.3388   12.3349 C   0  0  0  0  0  0
   23.8503   51.3145   11.4345 C   0  0  0  0  0  0
   23.2673   52.5904   13.4000 C   0  0  0  0  0  0
   25.2474   53.0730   12.2000 F   0  0  0  0  0  0
   20.7868   49.7565   15.2233 H   0  0  0  0  0  0
   18.3441   47.5414   12.4061 H   0  0  0  0  0  0
   18.2950   48.9192   16.1336 H   0  0  0  0  0  0
   17.2374   48.0607   14.9365 H   0  0  0  0  0  0
   19.0126   46.2323   14.6954 H   0  0  0  0  0  0
   20.1475   47.1086   15.8000 H   0  0  0  0  0  0
   19.5553   46.8748    8.0177 H   0  0  0  0  0  0
   20.2345   51.1067    7.8675 H   0  0  0  0  0  0
   19.5916   46.9602   10.4396 H   0  0  0  0  0  0
   20.3055   51.1812   10.3338 H   0  0  0  0  0  0
   22.5568   49.6881   10.9530 H   0  0  0  0  0  0
   21.5218   51.9680   14.4535 H   0  0  0  0  0  0
   18.1195   49.0730    4.3194 H   0  0  0  0  0  0
   17.7261   50.0061    5.8000 H   0  0  0  0  0  0
   17.5498   48.2266    5.7729 H   0  0  0  0  0  0
   24.5230   51.1236   10.6104 H   0  0  0  0  0  0
   23.4787   53.3967   14.0858 H   0  0  0  0  0  0
  1  2  1  0  0  0
  1  5  2  0  0  0
  1  9  1  0  0  0
  2  6  2  0  0  0
  2  8  1  0  0  0
  3  7  1  0  0  0
  3 12  2  0  0  0
  3 13  2  0  0  0
  3 20  1  0  0  0
  4  5  1  0  0  0
  4 10  1  0  0  0
  4 11  1  0  0  0
  4  6  1  0  0  0
  5 25  1  0  0  0
  6 26  1  0  0  0
  7 15  2  0  0  0
  7 14  1  0  0  0
  8 16  1  0  0  0
  8 17  2  0  0  0
  9 18  2  0  0  0
  9 19  1  0  0  0
 10 11  1  0  0  0
 10 27  1  0  0  0
 10 28  1  0  0  0
 11 29  1  0  0  0
 11 30  1  0  0  0
 14 16  2  0  0  0
 14 31  1  0  0  0
 15 17  1  0  0  0
 15 32  1  0  0  0
 16 33  1  0  0  0
 17 34  1  0  0  0
 18 22  1  0  0  0
 18 35  1  0  0  0
 19 23  2  0  0  0
 19 36  1  0  0  0
 20 37  1  0  0  0
 20 38  1  0  0  0
 20 39  1  0  0  0
 21 23  1  0  0  0
 21 24  1  0  0  0
 21 22  2  0  0  0
 22 40  1  0  0  0
 23 41  1  0  0  0
M  END
> <s_m_entry_id>
5103

> <s_m_entry_name>
dock_pv.94

> <s_m_Source_Path>
/home/csk/Desktop/cluster/DUD-E-result/pgh1

> <s_m_Source_File>
dock_pv.maegz

> <i_m_Source_File_Index>
94

> <chembl_id>
CHEMBL89429

> <chembl_pref_name>
None

> <i_lp_mmshare_version>
53161

> <r_lp_tautomer_probability>
1

> <s_lp_Force_Field>
OPLS_2005

> <r_lp_Energy>
38.541347

> <b_lp_Chiralities_Consistent>
1

> <s_lp_Variant>
CHEMBL221_lig369-1

> <s_i_glide_gridfile>
glide-grid_2oyu

> <i_i_glide_lignum>
435

> <i_i_glide_rotatable_bonds>
3

> <r_i_docking_score>
-9.56011300593067

> <r_i_glide_ligand_efficiency>
-0.398338041913778

> <r_i_glide_ligand_efficiency_sa>
-1.14900573835728

> <r_i_glide_ligand_efficiency_ln>
-2.28817372731995

> <r_i_glide_gscore>
-9.56011300593067

> <r_i_glide_lipo>
-4.88673966615049

> <r_i_glide_hbond>
0

> <r_i_glide_metal>
0

> <r_i_glide_rewards>
-2.88633659593226

> <r_i_glide_evdw>
-23.8964023590088

> <r_i_glide_ecoul>
-5.99627208709717

> <r_i_glide_erotb>
0.326837335382141

> <r_i_glide_esite>
-0.019613148215048

> <r_i_glide_emodel>
-33.2906935107019

> <r_i_glide_energy>
-29.892674446106

> <r_i_glide_einternal>
6.77186918258667

> <i_i_glide_confnum>
4

> <i_i_glide_posenum>
394

> <r_i_glide_eff_state_penalty>
0

> <s_user_duplicate_titles>
CHEMBL221_lig369

> <i_f3d_flags>
0

> <s_m_subgroup_title>
dock_pv

> <s_m_subgroupid>
dock_pv

> <b_m_subgroup_collapsed>
1

$$$$
CHEMBL221_lig526
                    3D
 Schrodinger Suite 2021-1.
 34 36  0  0  1  0            999 V2000
   18.9487   48.1558   12.6215 N   0  0  0  0  0  0
   19.8640   48.9631   12.0419 N   0  0  0  0  0  0
   19.0920   48.2730   13.9217 C   0  0  0  0  0  0
   20.6312   49.6174   12.9934 C   0  0  0  0  0  0
   20.1260   49.1650   14.2043 C   0  0  0  0  0  0
   19.8414   49.0730    6.3262 N   0  3  0  0  0  0
   18.2157   47.4854   14.8809 C   0  0  0  0  0  0
   19.9167   49.0224   10.6208 C   0  0  0  0  0  0
   21.7626   50.5604   12.7577 C   0  0  0  0  0  0
   19.9298   49.0547    7.8000 C   0  0  0  0  0  0
   19.0903   48.2730    5.7844 O   0  5  0  0  0  0
   20.5230   49.8730    5.7060 O   0  0  0  0  0  0
   19.7230   47.8531    9.8826 C   0  0  0  0  0  0
   20.1230   50.2240    9.9367 C   0  0  0  0  0  0
   18.3739   47.9023   16.1374 F   0  0  0  0  0  0
   16.9231   47.6091   14.5810 F   0  0  0  0  0  0
   18.5230   46.1889   14.8493 F   0  0  0  0  0  0
   20.1230   50.2328    8.5395 C   0  0  0  0  0  0
   19.7230   47.8629    8.4940 C   0  0  0  0  0  0
   22.7082   50.3005   11.7639 C   0  0  0  0  0  0
   21.9067   51.6843   13.5770 C   0  0  0  0  0  0
   23.9303   52.2684   12.4090 C   0  0  0  0  0  0
   22.9905   52.5406   13.4000 C   0  0  0  0  0  0
   23.7875   51.1583   11.5825 C   0  0  0  0  0  0
   25.0039   53.0730   12.2605 F   0  0  0  0  0  0
   20.4735   49.4471   15.1880 H   0  0  0  0  0  0
   19.5882   46.9171   10.3935 H   0  0  0  0  0  0
   20.2467   51.1536   10.4736 H   0  0  0  0  0  0
   20.2265   51.1740    8.0177 H   0  0  0  0  0  0
   19.5531   46.9431    7.9564 H   0  0  0  0  0  0
   22.6065   49.4309   11.1342 H   0  0  0  0  0  0
   21.1861   51.8939   14.3545 H   0  0  0  0  0  0
   23.1115   53.4047   14.0374 H   0  0  0  0  0  0
   24.5230   50.9558   10.8175 H   0  0  0  0  0  0
  1  2  1  0  0  0
  1  3  2  0  0  0
  2  4  1  0  0  0
  2  8  1  0  0  0
  3  5  1  0  0  0
  3  7  1  0  0  0
  4  9  1  0  0  0
  4  5  2  0  0  0
  5 26  1  0  0  0
  6 10  1  0  0  0
  6 11  1  0  0  0
  6 12  2  0  0  0
  7 15  1  0  0  0
  7 16  1  0  0  0
  7 17  1  0  0  0
  8 13  2  0  0  0
  8 14  1  0  0  0
  9 20  1  0  0  0
  9 21  2  0  0  0
 10 18  1  0  0  0
 10 19  2  0  0  0
 13 19  1  0  0  0
 13 27  1  0  0  0
 14 18  2  0  0  0
 14 28  1  0  0  0
 18 29  1  0  0  0
 19 30  1  0  0  0
 20 24  2  0  0  0
 20 31  1  0  0  0
 21 23  1  0  0  0
 21 32  1  0  0  0
 22 23  2  0  0  0
 22 25  1  0  0  0
 22 24  1  0  0  0
 23 33  1  0  0  0
 24 34  1  0  0  0
M  CHG  2   6   1  11  -1
M  END
> <s_m_entry_id>
5104

> <s_m_entry_name>
dock_pv.95

> <s_m_Source_Path>
/home/csk/Desktop/cluster/DUD-E-result/pgh1

> <s_m_Source_File>
dock_pv.maegz

> <i_m_Source_File_Index>
95

> <chembl_id>
CHEMBL29697

> <chembl_pref_name>
None

> <i_lp_mmshare_version>
53161

> <r_lp_tautomer_probability>
1

> <s_lp_Force_Field>
OPLS_2005

> <r_lp_Energy>
21.82387

> <b_lp_Chiralities_Consistent>
1

> <s_lp_Variant>
CHEMBL221_lig526-1

> <s_i_glide_gridfile>
glide-grid_2oyu

> <i_i_glide_lignum>
664

> <i_i_glide_rotatable_bonds>
4

> <r_i_docking_score>
-9.53858225225305

> <r_i_glide_ligand_efficiency>
-0.381543290090122

> <r_i_glide_ligand_efficiency_sa>
-1.11563934692258

> <r_i_glide_ligand_efficiency_ln>
-2.26092984202754

> <r_i_glide_gscore>
-9.53858225225305

> <r_i_glide_lipo>
-4.28372483740975

> <r_i_glide_hbond>
0

> <r_i_glide_metal>
0

> <r_i_glide_rewards>
-3.34801193525492

> <r_i_glide_evdw>
-35.1537818908691

> <r_i_glide_ecoul>
-2.78124642372131

> <r_i_glide_erotb>
0.309137122284397

> <r_i_glide_esite>
-0.0411065437711306

> <r_i_glide_emodel>
-56.3639648039982

> <r_i_glide_energy>
-37.9350283145905

> <r_i_glide_einternal>
0.865856051445007

> <i_i_glide_confnum>
1

> <i_i_glide_posenum>
236

> <r_i_glide_eff_state_penalty>
0

> <s_user_duplicate_titles>
CHEMBL221_lig526

> <i_f3d_flags>
0

> <s_m_subgroup_title>
dock_pv

> <s_m_subgroupid>
dock_pv

> <b_m_subgroup_collapsed>
1

$$$$
CHEMBL221_lig292
                    3D
 Schrodinger Suite 2021-1.
 41 43  0  0  1  0            999 V2000
   19.1017   48.2446   14.1046 C   0  0  0  0  0  0
   20.1259   49.0504   14.3018 N   0  0  0  0  0  0
   20.5385   49.4494   13.1148 C   0  0  0  0  0  0
   19.8174   48.8485   12.0917 N   0  0  0  0  0  0
   19.9016   49.1247    6.1360 S   0  0  0  0  0  0
   18.9048   48.0664   12.7535 C   0  0  0  0  0  0
   18.3704   47.6245   15.2680 C   0  0  0  0  0  0
   21.6429   50.4519   12.9610 C   0  0  0  0  0  0
   19.9749   49.0435    7.9034 C   0  0  0  0  0  0
   19.9031   48.9529   10.6857 C   0  0  0  0  0  0
   22.5188   50.4140   11.8735 C   0  0  0  0  0  0
   23.4452   51.4311   11.6750 C   0  0  0  0  0  0
   20.7175   50.2476    5.6971 O   0  0  0  0  0  0
   20.1232   47.8004    5.5876 O   0  0  0  0  0  0
   18.2610   49.4726    5.8002 N   0  0  0  0  0  0
   23.6146   52.4412   12.6220 C   0  0  0  0  0  0
   21.7951   51.4736   13.9069 C   0  0  0  0  0  0
   18.0915   48.5221   16.2116 F   0  0  0  0  0  0
   17.2185   47.0726   14.8895 F   0  0  0  0  0  0
   19.7257   47.8352    8.5410 C   0  0  0  0  0  0
   20.1230   50.2162    8.6533 C   0  0  0  0  0  0
   19.1234   46.6706   15.8017 F   0  0  0  0  0  0
   19.7227   47.7954    9.9260 C   0  0  0  0  0  0
   20.1023   50.1773   10.0441 C   0  0  0  0  0  0
   22.7834   52.4454   13.7509 C   0  0  0  0  0  0
   24.3317   51.4719   10.2013 Cl  0  0  0  0  0  0
   24.5982   53.3738   12.3672 O   0  0  0  0  0  0
   24.8779   54.3922   13.3113 C   0  0  0  0  0  0
   18.1780   47.4782   12.2115 H   0  0  0  0  0  0
   22.4491   49.6279   11.1370 H   0  0  0  0  0  0
   18.0592   50.4612    5.9831 H   0  0  0  0  0  0
   18.0180   49.2917    4.8230 H   0  0  0  0  0  0
   21.1406   51.5269   14.7645 H   0  0  0  0  0  0
   19.5671   46.9336    7.9709 H   0  0  0  0  0  0
   20.2315   51.1637    8.1453 H   0  0  0  0  0  0
   19.6124   46.8435   10.4119 H   0  0  0  0  0  0
   20.1972   51.0961   10.6037 H   0  0  0  0  0  0
   22.8745   53.2131   14.5015 H   0  0  0  0  0  0
   25.6117   55.0715   12.8816 H   0  0  0  0  0  0
   23.9970   54.9782   13.5748 H   0  0  0  0  0  0
   25.3214   53.9625   14.2046 H   0  0  0  0  0  0
  1  2  1  0  0  0
  1  6  2  0  0  0
  1  7  1  0  0  0
  2  3  2  0  0  0
  3  8  1  0  0  0
  3  4  1  0  0  0
  4  6  1  0  0  0
  4 10  1  0  0  0
  5  9  1  0  0  0
  5 13  2  0  0  0
  5 14  2  0  0  0
  5 15  1  0  0  0
  6 29  1  0  0  0
  7 18  1  0  0  0
  7 19  1  0  0  0
  7 22  1  0  0  0
  8 11  2  0  0  0
  8 17  1  0  0  0
  9 21  1  0  0  0
  9 20  2  0  0  0
 10 23  2  0  0  0
 10 24  1  0  0  0
 11 12  1  0  0  0
 11 30  1  0  0  0
 12 26  1  0  0  0
 12 16  2  0  0  0
 15 31  1  0  0  0
 15 32  1  0  0  0
 16 25  1  0  0  0
 16 27  1  0  0  0
 17 25  2  0  0  0
 17 33  1  0  0  0
 20 23  1  0  0  0
 20 34  1  0  0  0
 21 24  2  0  0  0
 21 35  1  0  0  0
 23 36  1  0  0  0
 24 37  1  0  0  0
 25 38  1  0  0  0
 27 28  1  0  0  0
 28 39  1  0  0  0
 28 40  1  0  0  0
 28 41  1  0  0  0
M  END
> <s_m_entry_id>
5105

> <s_m_entry_name>
dock_pv.96

> <s_m_Source_Path>
/home/csk/Desktop/cluster/DUD-E-result/pgh1

> <s_m_Source_File>
dock_pv.maegz

> <i_m_Source_File_Index>
96

> <chembl_id>
CHEMBL298313

> <chembl_pref_name>
None

> <i_lp_mmshare_version>
53161

> <r_lp_tautomer_probability>
1

> <s_lp_Force_Field>
OPLS_2005

> <r_lp_Energy>
29.9054

> <b_lp_Chiralities_Consistent>
1

> <s_lp_Variant>
CHEMBL221_lig292-1

> <s_i_glide_gridfile>
glide-grid_2oyu

> <i_i_glide_lignum>
325

> <i_i_glide_rotatable_bonds>
5

> <r_i_docking_score>
-9.53723754270284

> <r_i_glide_ligand_efficiency>
-0.340615626525102

> <r_i_glide_ligand_efficiency_sa>
-1.0343096540058

> <r_i_glide_ligand_efficiency_ln>
-2.20147445031794

> <r_i_glide_gscore>
-9.53723754270284

> <r_i_glide_lipo>
-4.21266916736549

> <r_i_glide_hbond>
-0.335844488650149

> <r_i_glide_metal>
0

> <r_i_glide_rewards>
-2.55443633407607

> <r_i_glide_evdw>
-28.4148044586182

> <r_i_glide_ecoul>
-7.63151597976685

> <r_i_glide_erotb>
0.213370084289831

> <r_i_glide_esite>
-0.082190017005028

> <r_i_glide_emodel>
-40.6006261882205

> <r_i_glide_energy>
-36.046320438385

> <r_i_glide_einternal>
2.61124777793884

> <i_i_glide_confnum>
4

> <i_i_glide_posenum>
65

> <r_i_glide_eff_state_penalty>
0

> <s_user_duplicate_titles>
CHEMBL221_lig292

> <i_f3d_flags>
0

> <s_m_subgroup_title>
dock_pv

> <s_m_subgroupid>
dock_pv

> <b_m_subgroup_collapsed>
1

$$$$
CHEMBL221_lig284
                    3D
 Schrodinger Suite 2021-1.
 34 36  0  0  1  0            999 V2000
   20.7836   49.8100   13.6856 C   0  0  0  0  0  0
   19.8809   49.1008   12.8826 C   0  0  0  0  0  0
   20.5230   49.4730   15.3832 S   0  0  0  0  0  0
   19.8777   49.0999   11.3905 C   0  0  0  0  0  0
   21.9050   50.7038   13.2617 C   0  0  0  0  0  0
   19.2087   48.4180   15.0209 C   0  0  0  0  0  0
   18.9855   48.3364   13.6588 C   0  0  0  0  0  0
   20.0123   48.8580    8.5937 C   0  0  0  0  0  0
   19.9408   48.6801    7.1100 C   0  0  0  0  0  0
   20.0782   50.2351   10.5999 C   0  0  0  0  0  0
   19.6852   47.8727   10.7753 C   0  0  0  0  0  0
   19.7230   47.5919    6.6000 O   0  0  0  0  0  0
   19.7230   47.7498    9.3955 C   0  0  0  0  0  0
   20.1230   50.1170    9.2099 C   0  0  0  0  0  0
   22.0667   51.9756   13.8177 C   0  0  0  0  0  0
   22.7849   50.2711   12.2623 C   0  0  0  0  0  0
   24.0146   52.3234   12.4428 C   0  0  0  0  0  0
   23.8344   51.0806   11.8464 C   0  0  0  0  0  0
   23.1191   52.7872   13.4001 C   0  0  0  0  0  0
   25.0861   53.0730   12.1148 F   0  0  0  0  0  0
   20.0874   49.8730    6.1810 C   0  0  0  0  0  0
   18.6634   47.9287   15.8147 H   0  0  0  0  0  0
   18.1998   47.7294   13.2319 H   0  0  0  0  0  0
   20.1938   51.2068   11.0572 H   0  0  0  0  0  0
   19.5189   46.9953   11.3768 H   0  0  0  0  0  0
   19.5556   46.7733    8.9632 H   0  0  0  0  0  0
   20.2454   51.0155    8.6213 H   0  0  0  0  0  0
   21.3856   52.3335   14.5763 H   0  0  0  0  0  0
   22.6666   49.2949   11.8140 H   0  0  0  0  0  0
   24.5231   50.7333   11.0906 H   0  0  0  0  0  0
   23.2646   53.7608   13.8454 H   0  0  0  0  0  0
   19.1836   50.4785    6.2000 H   0  0  0  0  0  0
   20.2666   49.5399    5.1588 H   0  0  0  0  0  0
   20.9230   50.4996    6.4699 H   0  0  0  0  0  0
  1  2  2  0  0  0
  1  3  1  0  0  0
  1  5  1  0  0  0
  2  4  1  0  0  0
  2  7  1  0  0  0
  3  6  1  0  0  0
  4 10  2  0  0  0
  4 11  1  0  0  0
  5 15  2  0  0  0
  5 16  1  0  0  0
  6  7  2  0  0  0
  6 22  1  0  0  0
  7 23  1  0  0  0
  8 13  1  0  0  0
  8  9  1  0  0  0
  8 14  2  0  0  0
  9 12  2  0  0  0
  9 21  1  0  0  0
 10 14  1  0  0  0
 10 24  1  0  0  0
 11 13  2  0  0  0
 11 25  1  0  0  0
 13 26  1  0  0  0
 14 27  1  0  0  0
 15 19  1  0  0  0
 15 28  1  0  0  0
 16 18  2  0  0  0
 16 29  1  0  0  0
 17 18  1  0  0  0
 17 20  1  0  0  0
 17 19  2  0  0  0
 18 30  1  0  0  0
 19 31  1  0  0  0
 21 32  1  0  0  0
 21 33  1  0  0  0
 21 34  1  0  0  0
M  END
> <s_m_entry_id>
5106

> <s_m_entry_name>
dock_pv.97

> <s_m_Source_Path>
/home/csk/Desktop/cluster/DUD-E-result/pgh1

> <s_m_Source_File>
dock_pv.maegz

> <i_m_Source_File_Index>
97

> <chembl_id>
CHEMBL66821

> <chembl_pref_name>
None

> <i_lp_mmshare_version>
53161

> <r_lp_tautomer_probability>
0.99995

> <s_lp_Force_Field>
OPLS_2005

> <r_lp_Energy>
21.873504

> <b_lp_Chiralities_Consistent>
1

> <s_lp_Variant>
CHEMBL221_lig284-1

> <s_i_glide_gridfile>
glide-grid_2oyu

> <i_i_glide_lignum>
317

> <i_i_glide_rotatable_bonds>
3

> <r_i_docking_score>
-9.5329121604841

> <r_i_glide_ligand_efficiency>
-0.453948198118291

> <r_i_glide_ligand_efficiency_sa>
-1.2524086573422

> <r_i_glide_ligand_efficiency_ln>
-2.3569932686169

> <r_i_glide_gscore>
-9.5329121604841

> <r_i_glide_lipo>
-5.07022029160388

> <r_i_glide_hbond>
-0.102149325307025

> <r_i_glide_metal>
0

> <r_i_glide_rewards>
-2.91901926546821

> <r_i_glide_evdw>
-27.3966464996338

> <r_i_glide_ecoul>
-3.25891017913818

> <r_i_glide_erotb>
0.417145573747426

> <r_i_glide_esite>
0

> <r_i_glide_emodel>
-47.6407969448786

> <r_i_glide_energy>
-30.655556678772

> <r_i_glide_einternal>
0.362901329994202

> <i_i_glide_confnum>
16

> <i_i_glide_posenum>
263

> <r_i_glide_eff_state_penalty>
0

> <s_user_duplicate_titles>
CHEMBL221_lig284,104710

> <i_f3d_flags>
0

> <s_m_subgroup_title>
dock_pv

> <s_m_subgroupid>
dock_pv

> <b_m_subgroup_collapsed>
1

$$$$
CHEMBL221_lig1052 
                    3D
 Schrodinger Suite 2021-1.
 38 40  0  0  1  0            999 V2000
   20.9166   50.0527    5.1640 O   0  0  0  0  0  0
   20.1238   48.8823    5.5303 S   0  0  0  0  0  0
   20.5230   47.5858    5.0000 O   0  0  0  0  0  0
   19.7114   47.6039    9.3642 C   0  0  0  0  0  0
   19.7230   47.6357    7.9761 C   0  0  0  0  0  0
   19.9807   48.8284    7.3148 C   0  0  0  0  0  0
   20.1230   50.0002    8.0550 C   0  0  0  0  0  0
   20.1230   49.9728    9.4508 C   0  0  0  0  0  0
   19.9180   48.7609   10.1186 C   0  0  0  0  0  0
   19.8724   48.7017   11.5385 N   0  0  0  0  0  0
   20.6246   49.3959   12.4726 C   0  0  0  0  0  0
   20.1138   49.0139   13.7223 C   0  0  0  0  0  0
   19.1052   48.0978   13.4234 C   0  0  0  0  0  0
   18.9698   47.8979   12.1376 N   0  0  0  0  0  0
   20.5230   49.4730   15.0395 C   0  0  0  0  0  0
   20.8499   49.8603   16.0760 N   0  0  0  0  0  0
   21.6670   50.2008   12.1114 N   0  0  0  0  0  0
   21.7854   51.3177   12.7123 C   0  0  0  0  0  0
   22.9521   52.1869   12.6092 C   0  0  0  0  0  0
   18.4968   49.0730    5.0000 N   0  0  0  0  0  0
   24.0417   51.8730   11.7859 C   0  0  0  0  0  0
   25.1775   52.6730   11.8000 C   0  0  0  0  0  0
   25.2380   53.7766   12.6421 C   0  0  0  0  0  0
   24.1360   54.1414   13.4000 C   0  0  0  0  0  0
   22.9997   53.3414   13.3991 C   0  0  0  0  0  0
   19.5483   46.6730    9.8635 H   0  0  0  0  0  0
   19.5741   46.7324    7.4206 H   0  0  0  0  0  0
   20.2487   50.9462    7.5459 H   0  0  0  0  0  0
   20.2469   50.8985    9.9939 H   0  0  0  0  0  0
   18.4751   47.5876   14.1386 H   0  0  0  0  0  0
   21.0177   51.6874   13.3900 H   0  0  0  0  0  0
   18.2120   50.0561    4.8730 H   0  0  0  0  0  0
   18.3293   48.5740    4.1190 H   0  0  0  0  0  0
   24.0298   50.9956   11.1532 H   0  0  0  0  0  0
   26.0202   52.4202   11.1717 H   0  0  0  0  0  0
   26.1230   54.3952   12.6611 H   0  0  0  0  0  0
   24.1687   55.0262   14.0205 H   0  0  0  0  0  0
   22.1746   53.6197   14.0407 H   0  0  0  0  0  0
  1  2  2  0  0  0
  2  3  2  0  0  0
  2  6  1  0  0  0
  2 20  1  0  0  0
  4  5  2  0  0  0
  4  9  1  0  0  0
  4 26  1  0  0  0
  5  6  1  0  0  0
  5 27  1  0  0  0
  6  7  2  0  0  0
  7  8  1  0  0  0
  7 28  1  0  0  0
  8  9  2  0  0  0
  8 29  1  0  0  0
  9 10  1  0  0  0
 10 11  1  0  0  0
 10 14  1  0  0  0
 11 12  2  0  0  0
 11 17  1  0  0  0
 12 13  1  0  0  0
 12 15  1  0  0  0
 13 14  2  0  0  0
 13 30  1  0  0  0
 15 16  3  0  0  0
 17 18  2  0  0  0
 18 19  1  0  0  0
 18 31  1  0  0  0
 19 21  2  0  0  0
 19 25  1  0  0  0
 20 32  1  0  0  0
 20 33  1  0  0  0
 21 22  1  0  0  0
 21 34  1  0  0  0
 22 23  2  0  0  0
 22 35  1  0  0  0
 23 24  1  0  0  0
 23 36  1  0  0  0
 24 25  2  0  0  0
 24 37  1  0  0  0
 25 38  1  0  0  0
M  END
> <s_m_entry_id>
5107

> <s_m_entry_name>
dock_pv.98

> <s_m_Source_Path>
/home/csk/Desktop/cluster/DUD-E-result/pgh1

> <s_m_Source_File>
dock_pv.maegz

> <i_m_Source_File_Index>
98

> <chembl_id>
CHEMBL4450776

> <chembl_pref_name>
None

> <i_lp_mmshare_version>
53161

> <r_lp_tautomer_probability>
1

> <s_lp_Force_Field>
OPLS_2005

> <r_lp_Energy>
28.583238

> <b_lp_Chiralities_Consistent>
1

> <s_lp_Variant>
CHEMBL221_lig1052 -1

> <s_i_glide_gridfile>
glide-grid_2oyu

> <i_i_glide_lignum>
1310

> <i_i_glide_rotatable_bonds>
4

> <r_i_docking_score>
-9.51896556056514

> <r_i_glide_ligand_efficiency>
-0.380758622422605

> <r_i_glide_ligand_efficiency_sa>
-1.11334496474662

> <r_i_glide_ligand_efficiency_ln>
-2.25628009823269

> <r_i_glide_gscore>
-9.51896556056514

> <r_i_glide_lipo>
-3.63452910366311

> <r_i_glide_hbond>
-0.5959103628424

> <r_i_glide_metal>
0

> <r_i_glide_rewards>
-3.59292178051395

> <r_i_glide_evdw>
-16.8355522155762

> <r_i_glide_ecoul>
-8.29376316070557

> <r_i_glide_erotb>
0.46340473908009

> <r_i_glide_esite>
-0.0731669677411262

> <r_i_glide_emodel>
-28.0920230727309

> <r_i_glide_energy>
-25.1293153762817

> <r_i_glide_einternal>
2.43141436576843

> <i_i_glide_confnum>
24

> <i_i_glide_posenum>
309

> <r_i_glide_eff_state_penalty>
0

> <s_user_duplicate_titles>
CHEMBL221_lig1052 

> <i_f3d_flags>
0

> <s_m_subgroup_title>
dock_pv

> <s_m_subgroupid>
dock_pv

> <b_m_subgroup_collapsed>
1

$$$$
CHEMBL221_lig301
                    3D
 Schrodinger Suite 2021-1.
 37 39  0  0  1  0            999 V2000
   19.1899   48.3626   14.1367 C   0  0  0  0  0  0
   20.2018   49.2031   14.3016 N   0  0  0  0  0  0
   20.5814   49.5744   13.0948 C   0  0  0  0  0  0
   19.8238   48.9745   12.1062 N   0  0  0  0  0  0
   20.0023   49.0248    6.1549 S   0  0  0  0  0  0
   18.9230   48.2066   12.7961 C   0  0  0  0  0  0
   18.5190   47.6757   15.3015 C   0  0  0  0  0  0
   21.7043   50.5257   12.8399 C   0  0  0  0  0  0
   20.0394   49.0623    7.9292 C   0  0  0  0  0  0
   19.9107   49.0504   10.7041 C   0  0  0  0  0  0
   20.9061   50.0255    5.5989 O   0  0  0  0  0  0
   20.1230   47.6377    5.7423 O   0  0  0  0  0  0
   18.3873   49.4730    5.8000 N   0  0  0  0  0  0
   21.7130   51.7921   13.4330 C   0  0  0  0  0  0
   20.1230   50.2640    8.6410 C   0  0  0  0  0  0
   18.2044   48.5395   16.2613 F   0  0  0  0  0  0
   17.3895   47.0730   14.9308 F   0  0  0  0  0  0
   19.3230   46.7400   15.8000 F   0  0  0  0  0  0
   19.7791   47.8730    8.6022 C   0  0  0  0  0  0
   19.7230   47.8730    9.9825 C   0  0  0  0  0  0
   20.1230   50.2583   10.0347 C   0  0  0  0  0  0
   22.7020   52.7182   13.1029 C   0  0  0  0  0  0
   22.6095   54.4854   13.8000 Br  0  0  0  0  0  0
   22.7342   50.1804   11.9590 C   0  0  0  0  0  0
   23.7404   51.0944   11.6513 C   0  0  0  0  0  0
   23.7230   52.3667   12.2202 C   0  0  0  0  0  0
   18.1841   47.6092   12.2807 H   0  0  0  0  0  0
   18.2314   50.4757    5.9485 H   0  0  0  0  0  0
   18.1230   49.2659    4.8335 H   0  0  0  0  0  0
   20.9230   52.0815   14.1098 H   0  0  0  0  0  0
   20.2216   51.1970    8.1047 H   0  0  0  0  0  0
   19.6364   46.9477    8.0660 H   0  0  0  0  0  0
   19.5739   46.9423   10.4966 H   0  0  0  0  0  0
   20.2234   51.1885   10.5758 H   0  0  0  0  0  0
   22.7440   49.2041   11.4976 H   0  0  0  0  0  0
   24.5230   50.8202   10.9591 H   0  0  0  0  0  0
   24.4888   53.0841   11.9644 H   0  0  0  0  0  0
  1  2  1  0  0  0
  1  6  2  0  0  0
  1  7  1  0  0  0
  2  3  2  0  0  0
  3  8  1  0  0  0
  3  4  1  0  0  0
  4  6  1  0  0  0
  4 10  1  0  0  0
  5  9  1  0  0  0
  5 11  2  0  0  0
  5 12  2  0  0  0
  5 13  1  0  0  0
  6 27  1  0  0  0
  7 16  1  0  0  0
  7 17  1  0  0  0
  7 18  1  0  0  0
  8 14  1  0  0  0
  8 24  2  0  0  0
  9 15  1  0  0  0
  9 19  2  0  0  0
 10 20  2  0  0  0
 10 21  1  0  0  0
 13 28  1  0  0  0
 13 29  1  0  0  0
 14 22  2  0  0  0
 14 30  1  0  0  0
 15 21  2  0  0  0
 15 31  1  0  0  0
 19 20  1  0  0  0
 19 32  1  0  0  0
 20 33  1  0  0  0
 21 34  1  0  0  0
 22 23  1  0  0  0
 22 26  1  0  0  0
 24 25  1  0  0  0
 24 35  1  0  0  0
 25 26  2  0  0  0
 25 36  1  0  0  0
 26 37  1  0  0  0
M  END
> <s_m_entry_id>
5108

> <s_m_entry_name>
dock_pv.99

> <s_m_Source_Path>
/home/csk/Desktop/cluster/DUD-E-result/pgh1

> <s_m_Source_File>
dock_pv.maegz

> <i_m_Source_File_Index>
99

> <chembl_id>
CHEMBL46584

> <chembl_pref_name>
None

> <i_lp_mmshare_version>
53161

> <r_lp_tautomer_probability>
1

> <s_lp_Force_Field>
OPLS_2005

> <r_lp_Energy>
26.419928

> <b_lp_Chiralities_Consistent>
1

> <s_lp_Variant>
CHEMBL221_lig301-1

> <s_i_glide_gridfile>
glide-grid_2oyu

> <i_i_glide_lignum>
334

> <i_i_glide_rotatable_bonds>
4

> <r_i_docking_score>
-9.5170990966648

> <r_i_glide_ligand_efficiency>
-0.366042272948646

> <r_i_glide_ligand_efficiency_sa>
-1.08439879330357

> <r_i_glide_ligand_efficiency_ln>
-2.23505949470251

> <r_i_glide_gscore>
-9.5170990966648

> <r_i_glide_lipo>
-4.05789398967209

> <r_i_glide_hbond>
-0.320466154394505

> <r_i_glide_metal>
0

> <r_i_glide_rewards>
-2.8354821751422

> <r_i_glide_evdw>
-28.868860244751

> <r_i_glide_ecoul>
-6.50141000747681

> <r_i_glide_erotb>
0.201020060554923

> <r_i_glide_esite>
-0.0856223246518592

> <r_i_glide_emodel>
-45.3826455294768

> <r_i_glide_energy>
-35.3702702522278

> <r_i_glide_einternal>
1.70599102973938

> <i_i_glide_confnum>
12

> <i_i_glide_posenum>
214

> <r_i_glide_eff_state_penalty>
0

> <s_user_duplicate_titles>
CHEMBL221_lig301

> <i_f3d_flags>
0

> <s_m_subgroup_title>
dock_pv

> <s_m_subgroupid>
dock_pv

> <b_m_subgroup_collapsed>
1

$$$$
CHEMBL221_lig1053 
                    3D
 Schrodinger Suite 2021-1.
 38 40  0  0  1  0            999 V2000
   20.9156   50.0574    5.1667 O   0  0  0  0  0  0
   20.1235   48.8862    5.5311 S   0  0  0  0  0  0
   20.5230   47.5901    5.0001 O   0  0  0  0  0  0
   20.1232   49.9583    9.4597 C   0  0  0  0  0  0
   20.1230   49.9960    8.0631 C   0  0  0  0  0  0
   19.9819   48.8285    7.3150 C   0  0  0  0  0  0
   19.7225   47.6328    7.9684 C   0  0  0  0  0  0
   19.6907   47.5966    9.3544 C   0  0  0  0  0  0
   19.8990   48.7438   10.1178 C   0  0  0  0  0  0
   19.8460   48.6658   11.5366 N   0  0  0  0  0  0
   20.6140   49.3268   12.4762 C   0  0  0  0  0  0
   20.0985   48.9572   13.7256 C   0  0  0  0  0  0
   19.0721   48.0623   13.4217 C   0  0  0  0  0  0
   18.9296   47.8768   12.1327 N   0  0  0  0  0  0
   20.5229   49.4247   15.0373 C   0  0  0  0  0  0
   20.8611   49.8187   16.0675 N   0  0  0  0  0  0
   21.6649   50.1170   12.1225 N   0  0  0  0  0  0
   21.7238   51.2511   12.6912 C   0  0  0  0  0  0
   22.8586   52.1452   12.6245 C   0  0  0  0  0  0
   18.4962   49.0728    5.0000 N   0  0  0  0  0  0
   22.8065   53.3219   13.3777 C   0  0  0  0  0  0
   23.8994   54.1697   13.4005 C   0  0  0  0  0  0
   25.0585   53.8159   12.7368 C   0  0  0  0  0  0
   25.1063   52.6730   11.9409 C   0  0  0  0  0  0
   24.0027   51.8364   11.8786 C   0  0  0  0  0  0
   26.1231   54.6337   12.8335 F   0  0  0  0  0  0
   20.2514   50.8790   10.0097 H   0  0  0  0  0  0
   20.2526   50.9447    7.5600 H   0  0  0  0  0  0
   19.5725   46.7319    7.4101 H   0  0  0  0  0  0
   19.5065   46.6728    9.8513 H   0  0  0  0  0  0
   18.4301   47.5626   14.1340 H   0  0  0  0  0  0
   20.9182   51.6209   13.3218 H   0  0  0  0  0  0
   18.2087   50.0551    4.8740 H   0  0  0  0  0  0
   18.3312   48.5748    4.1179 H   0  0  0  0  0  0
   21.9345   53.5885   13.9596 H   0  0  0  0  0  0
   23.8692   55.0747   13.9905 H   0  0  0  0  0  0
   26.0001   52.4374   11.3816 H   0  0  0  0  0  0
   24.0589   50.9365   11.2805 H   0  0  0  0  0  0
  1  2  2  0  0  0
  2  3  2  0  0  0
  2  6  1  0  0  0
  2 20  1  0  0  0
  4  5  2  0  0  0
  4  9  1  0  0  0
  4 27  1  0  0  0
  5  6  1  0  0  0
  5 28  1  0  0  0
  6  7  2  0  0  0
  7  8  1  0  0  0
  7 29  1  0  0  0
  8  9  2  0  0  0
  8 30  1  0  0  0
  9 10  1  0  0  0
 10 11  1  0  0  0
 10 14  1  0  0  0
 11 12  2  0  0  0
 11 17  1  0  0  0
 12 13  1  0  0  0
 12 15  1  0  0  0
 13 14  2  0  0  0
 13 31  1  0  0  0
 15 16  3  0  0  0
 17 18  2  0  0  0
 18 19  1  0  0  0
 18 32  1  0  0  0
 19 21  2  0  0  0
 19 25  1  0  0  0
 20 33  1  0  0  0
 20 34  1  0  0  0
 21 22  1  0  0  0
 21 35  1  0  0  0
 22 23  2  0  0  0
 22 36  1  0  0  0
 23 24  1  0  0  0
 23 26  1  0  0  0
 24 25  2  0  0  0
 24 37  1  0  0  0
 25 38  1  0  0  0
M  END
> <s_m_entry_id>
5109

> <s_m_entry_name>
dock_pv.100

> <s_m_Source_Path>
/home/csk/Desktop/cluster/DUD-E-result/pgh1

> <s_m_Source_File>
dock_pv.maegz

> <i_m_Source_File_Index>
100

> <chembl_id>
CHEMBL4569790

> <chembl_pref_name>
None

> <i_lp_mmshare_version>
53161

> <r_lp_tautomer_probability>
1

> <s_lp_Force_Field>
OPLS_2005

> <r_lp_Energy>
28.235711

> <b_lp_Chiralities_Consistent>
1

> <s_lp_Variant>
CHEMBL221_lig1053 -1

> <s_i_glide_gridfile>
glide-grid_2oyu

> <i_i_glide_lignum>
1311

> <i_i_glide_rotatable_bonds>
4

> <r_i_docking_score>
-9.50889486520362

> <r_i_glide_ligand_efficiency>
-0.365726725584754

> <r_i_glide_ligand_efficiency_sa>
-1.08346398547966

> <r_i_glide_ligand_efficiency_ln>
-2.23313275786413

> <r_i_glide_gscore>
-9.50889486520362

> <r_i_glide_lipo>
-3.7013395359701

> <r_i_glide_hbond>
-0.59673422747673

> <r_i_glide_metal>
0

> <r_i_glide_rewards>
-3.52036653409951

> <r_i_glide_evdw>
-16.7530937194824

> <r_i_glide_ecoul>
-8.02330780029297

> <r_i_glide_erotb>
0.423937889426114

> <r_i_glide_esite>
-0.0732416010653235

> <r_i_glide_emodel>
-24.9725262536092

> <r_i_glide_energy>
-24.7764015197754

> <r_i_glide_einternal>
2.62899589538574

> <i_i_glide_confnum>
21

> <i_i_glide_posenum>
294

> <r_i_glide_eff_state_penalty>
0

> <s_user_duplicate_titles>
CHEMBL221_lig1053 

> <i_f3d_flags>
0

> <s_m_subgroup_title>
dock_pv

> <s_m_subgroupid>
dock_pv

> <b_m_subgroup_collapsed>
1

$$$$
CHEMBL221_lig154
                    3D
 Schrodinger Suite 2021-1.
 37 39  0  0  1  0            999 V2000
   20.0055   48.9977    6.2225 S   0  0  0  0  0  0
   19.8379   48.9859   12.2142 N   0  0  0  0  0  0
   19.1190   48.2730   14.2289 N   0  0  0  0  0  0
   20.6091   49.6063   13.1805 C   0  0  0  0  0  0
   18.9565   48.2110   12.9368 C   0  0  0  0  0  0
   20.1230   49.1089   14.3946 C   0  0  0  0  0  0
   20.0328   49.0466    8.0112 C   0  0  0  0  0  0
   19.9060   49.0538   10.8037 C   0  0  0  0  0  0
   21.7240   50.5700   12.9402 C   0  0  0  0  0  0
   20.9230   49.9836    5.6666 O   0  0  0  0  0  0
   20.1230   47.6040    5.8276 O   0  0  0  0  0  0
   18.4106   49.4730    5.8000 N   0  0  0  0  0  0
   20.1230   50.2507    8.7214 C   0  0  0  0  0  0
   19.7739   47.8641    8.7015 C   0  0  0  0  0  0
   20.1138   50.2551   10.1181 C   0  0  0  0  0  0
   19.7230   47.8730   10.0862 C   0  0  0  0  0  0
   20.6950   49.4830   15.9695 Cl  0  0  0  0  0  0
   21.7875   51.7317   13.7126 C   0  0  0  0  0  0
   22.7229   50.3060   11.9992 C   0  0  0  0  0  0
   23.7929   51.1846   11.8510 C   0  0  0  0  0  0
   22.8609   52.6037   13.5729 C   0  0  0  0  0  0
   23.8781   52.3165   12.6647 C   0  0  0  0  0  0
   25.0903   53.2264   12.6000 C   0  0  0  0  0  0
   18.2119   47.6178   12.4260 H   0  0  0  0  0  0
   18.2687   50.4811    5.9235 H   0  0  0  0  0  0
   18.1668   49.2436    4.8332 H   0  0  0  0  0  0
   20.2285   51.1801    8.1809 H   0  0  0  0  0  0
   19.6342   46.9327    8.1742 H   0  0  0  0  0  0
   20.2176   51.1894   10.6514 H   0  0  0  0  0  0
   19.5840   46.9482   10.6138 H   0  0  0  0  0  0
   21.0189   51.9505   14.4397 H   0  0  0  0  0  0
   22.6841   49.4088   11.4000 H   0  0  0  0  0  0
   24.5719   50.9599   11.1366 H   0  0  0  0  0  0
   22.9200   53.4826   14.1999 H   0  0  0  0  0  0
   24.7841   54.2730   12.6000 H   0  0  0  0  0  0
   25.6861   53.0503   11.7052 H   0  0  0  0  0  0
   25.7206   53.0731   13.4764 H   0  0  0  0  0  0
  1  7  1  0  0  0
  1 10  2  0  0  0
  1 11  2  0  0  0
  1 12  1  0  0  0
  2  8  1  0  0  0
  2  4  1  0  0  0
  2  5  1  0  0  0
  3  5  2  0  0  0
  3  6  1  0  0  0
  4  6  2  0  0  0
  4  9  1  0  0  0
  5 24  1  0  0  0
  6 17  1  0  0  0
  7 13  1  0  0  0
  7 14  2  0  0  0
  8 16  2  0  0  0
  8 15  1  0  0  0
  9 18  2  0  0  0
  9 19  1  0  0  0
 12 25  1  0  0  0
 12 26  1  0  0  0
 13 15  2  0  0  0
 13 27  1  0  0  0
 14 16  1  0  0  0
 14 28  1  0  0  0
 15 29  1  0  0  0
 16 30  1  0  0  0
 18 21  1  0  0  0
 18 31  1  0  0  0
 19 20  2  0  0  0
 19 32  1  0  0  0
 20 22  1  0  0  0
 20 33  1  0  0  0
 21 22  2  0  0  0
 21 34  1  0  0  0
 22 23  1  0  0  0
 23 35  1  0  0  0
 23 36  1  0  0  0
 23 37  1  0  0  0
M  END
> <s_m_entry_id>
5110

> <s_m_entry_name>
dock_pv.101

> <s_m_Source_Path>
/home/csk/Desktop/cluster/DUD-E-result/pgh1

> <s_m_Source_File>
dock_pv.maegz

> <i_m_Source_File_Index>
101

> <chembl_id>
CHEMBL332251

> <chembl_pref_name>
None

> <i_lp_mmshare_version>
53161

> <r_lp_tautomer_probability>
1

> <s_lp_Force_Field>
OPLS_2005

> <r_lp_Energy>
21.713913

> <b_lp_Chiralities_Consistent>
1

> <s_lp_Variant>
CHEMBL221_lig154-1

> <s_i_glide_gridfile>
glide-grid_2oyu

> <i_i_glide_lignum>
176

> <i_i_glide_rotatable_bonds>
3

> <r_i_docking_score>
-9.50741607100441

> <r_i_glide_ligand_efficiency>
-0.413365916130626

> <r_i_glide_ligand_efficiency_sa>
-1.17555767825133

> <r_i_glide_ligand_efficiency_ln>
-2.29897941445151

> <r_i_glide_gscore>
-9.50741607100441

> <r_i_glide_lipo>
-4.3732242578439

> <r_i_glide_hbond>
-0.29421000197733

> <r_i_glide_metal>
0

> <r_i_glide_rewards>
-2.68950821066952

> <r_i_glide_evdw>
-26.8925666809082

> <r_i_glide_ecoul>
-6.97216701507568

> <r_i_glide_erotb>
0.314585088071638

> <r_i_glide_esite>
-0.0746053022785433

> <r_i_glide_emodel>
-47.3401699141272

> <r_i_glide_energy>
-33.8647336959839

> <r_i_glide_einternal>
0.478554725646973

> <i_i_glide_confnum>
10

> <i_i_glide_posenum>
301

> <r_i_glide_eff_state_penalty>
0

> <s_user_duplicate_titles>
CHEMBL221_lig154

> <i_f3d_flags>
0

> <s_m_subgroup_title>
dock_pv

> <s_m_subgroupid>
dock_pv

> <b_m_subgroup_collapsed>
1

$$$$
CHEMBL221_lig211
                    3D
 Schrodinger Suite 2021-1.
 44 47  0  0  1  0            999 V2000
   20.5229   49.4729   14.3274 C   0  0  0  0  0  0
   19.6325   48.4701   14.6383 N   0  0  0  0  0  0
   20.6723   49.6640   12.8682 C   0  0  0  0  0  0
   18.9883   47.6348   13.7578 N   0  0  0  0  0  0
   19.9516   48.8847   11.9817 C   0  0  0  0  0  0
   19.8806   48.8583    5.9012 S   0  0  0  0  0  0
   19.0558   47.8731   12.5195 C   0  0  0  0  0  0
   19.1455   48.4515   16.0073 C   0  0  0  0  0  0
   17.7119   48.8886   16.2285 C   0  0  0  0  0  0
   18.0973   47.4730   16.4772 C   0  0  0  0  0  0
   19.9162   48.9622    7.6730 C   0  0  0  0  0  0
   21.7420   50.6449   12.5112 C   0  0  0  0  0  0
   19.9754   48.9577   10.4844 C   0  0  0  0  0  0
   21.0873   50.1645   15.1867 O   0  0  0  0  0  0
   20.1230   47.4730    5.5816 O   0  0  0  0  0  0
   20.7520   49.8730    5.3275 O   0  0  0  0  0  0
   19.7180   47.7817    8.3642 C   0  0  0  0  0  0
   20.1230   50.1518    8.3770 C   0  0  0  0  0  0
   19.7230   47.7913    9.7381 C   0  0  0  0  0  0
   20.1699   50.1495    9.7763 C   0  0  0  0  0  0
   21.7418   51.9442   13.0464 C   0  0  0  0  0  0
   22.8534   50.2283   11.7783 C   0  0  0  0  0  0
   18.1232   49.0730    5.4001 C   0  0  0  0  0  0
   23.9712   52.3131   12.2400 C   0  0  0  0  0  0
   23.9584   51.0640   11.6300 C   0  0  0  0  0  0
   22.8567   52.7673   12.9312 C   0  0  0  0  0  0
   25.0872   53.0729   12.1994 F   0  0  0  0  0  0
   18.4069   47.2709   11.8950 H   0  0  0  0  0  0
   19.9138   48.7084   16.7295 H   0  0  0  0  0  0
   17.4798   49.5490   17.0639 H   0  0  0  0  0  0
   17.0824   49.0759   15.3595 H   0  0  0  0  0  0
   17.7308   46.6995   15.7995 H   0  0  0  0  0  0
   18.1418   47.1378   17.5098 H   0  0  0  0  0  0
   19.5572   46.8467    7.8512 H   0  0  0  0  0  0
   20.2312   51.0796    7.8335 H   0  0  0  0  0  0
   19.6361   46.8262   10.2083 H   0  0  0  0  0  0
   20.3177   51.0821   10.2983 H   0  0  0  0  0  0
   20.9054   52.2963   13.6320 H   0  0  0  0  0  0
   22.8895   49.2194   11.3998 H   0  0  0  0  0  0
   18.0758   49.0723    4.3122 H   0  0  0  0  0  0
   17.7447   50.0098    5.8002 H   0  0  0  0  0  0
   17.5630   48.2296    5.7902 H   0  0  0  0  0  0
   24.8332   50.7198   11.1027 H   0  0  0  0  0  0
   22.8701   53.7367   13.4062 H   0  0  0  0  0  0
  1  2  1  0  0  0
  1  3  1  0  0  0
  1 14  2  0  0  0
  2  4  1  0  0  0
  2  8  1  0  0  0
  3  5  2  0  0  0
  3 12  1  0  0  0
  4  7  2  0  0  0
  5  7  1  0  0  0
  5 13  1  0  0  0
  6 11  1  0  0  0
  6 15  2  0  0  0
  6 16  2  0  0  0
  6 23  1  0  0  0
  7 28  1  0  0  0
  8  9  1  0  0  0
  8 10  1  0  0  0
  8 29  1  0  0  0
  9 10  1  0  0  0
  9 30  1  0  0  0
  9 31  1  0  0  0
 10 32  1  0  0  0
 10 33  1  0  0  0
 11 18  2  0  0  0
 11 17  1  0  0  0
 12 21  1  0  0  0
 12 22  2  0  0  0
 13 19  1  0  0  0
 13 20  2  0  0  0
 17 19  2  0  0  0
 17 34  1  0  0  0
 18 20  1  0  0  0
 18 35  1  0  0  0
 19 36  1  0  0  0
 20 37  1  0  0  0
 21 26  2  0  0  0
 21 38  1  0  0  0
 22 25  1  0  0  0
 22 39  1  0  0  0
 23 40  1  0  0  0
 23 41  1  0  0  0
 23 42  1  0  0  0
 24 25  2  0  0  0
 24 27  1  0  0  0
 24 26  1  0  0  0
 25 43  1  0  0  0
 26 44  1  0  0  0
M  END
> <s_m_entry_id>
5111

> <s_m_entry_name>
dock_pv.102

> <s_m_Source_Path>
/home/csk/Desktop/cluster/DUD-E-result/pgh1

> <s_m_Source_File>
dock_pv.maegz

> <i_m_Source_File_Index>
102

> <chembl_id>
CHEMBL347147

> <chembl_pref_name>
None

> <i_lp_mmshare_version>
53161

> <r_lp_tautomer_probability>
1

> <s_lp_Force_Field>
OPLS_2005

> <r_lp_Energy>
54.180648

> <b_lp_Chiralities_Consistent>
1

> <s_lp_Variant>
CHEMBL221_lig211-1

> <s_i_glide_gridfile>
glide-grid_2oyu

> <i_i_glide_lignum>
239

> <i_i_glide_rotatable_bonds>
4

> <r_i_docking_score>
-9.49255459503019

> <r_i_glide_ligand_efficiency>
-0.351576096112229

> <r_i_glide_ligand_efficiency_sa>
-1.05472828717795

> <r_i_glide_ligand_efficiency_ln>
-2.20971021272963

> <r_i_glide_gscore>
-9.49255459503019

> <r_i_glide_lipo>
-5.04376377030177

> <r_i_glide_hbond>
0

> <r_i_glide_metal>
0

> <r_i_glide_rewards>
-2.92608252225105

> <r_i_glide_evdw>
-17.4400959014893

> <r_i_glide_ecoul>
-6.82438516616821

> <r_i_glide_erotb>
0.394683710609648

> <r_i_glide_esite>
-0.0217294430873235

> <r_i_glide_emodel>
-27.011219901093

> <r_i_glide_energy>
-24.2644810676575

> <r_i_glide_einternal>
5.0096640586853

> <i_i_glide_confnum>
64

> <i_i_glide_posenum>
161

> <r_i_glide_eff_state_penalty>
0

> <s_user_duplicate_titles>
CHEMBL221_lig211

> <i_f3d_flags>
0

> <s_m_subgroup_title>
dock_pv

> <s_m_subgroupid>
dock_pv

> <b_m_subgroup_collapsed>
1

$$$$
CHEMBL221_lig261
                    3D
 Schrodinger Suite 2021-1.
 38 40  0  0  1  0            999 V2000
   19.9799   48.9845    6.2673 S   0  0  0  0  0  0
   20.7344   49.7928   13.2012 N   0  0  0  0  0  0
   19.9674   49.0399   12.3591 C   0  0  0  0  0  0
   20.4596   49.3711   14.5172 C   0  0  0  0  0  0
   19.2691   48.2026   13.1224 C   0  0  0  0  0  0
   19.5294   48.3986   14.4135 O   0  0  0  0  0  0
   19.9998   49.0389    8.0579 C   0  0  0  0  0  0
   21.7896   50.6778   12.8982 C   0  0  0  0  0  0
   19.9626   49.0909   10.8712 C   0  0  0  0  0  0
   20.8909   49.9766    5.7188 O   0  0  0  0  0  0
   20.1212   47.5896    5.8865 O   0  0  0  0  0  0
   20.9227   49.7320   15.6012 O   0  0  0  0  0  0
   18.3961   49.4708    5.8000 N   0  0  0  0  0  0
   19.7245   47.8735    8.7752 C   0  0  0  0  0  0
   20.1230   50.2499    8.7506 C   0  0  0  0  0  0
   19.7156   47.9129   10.1649 C   0  0  0  0  0  0
   20.1291   50.2732   10.1463 C   0  0  0  0  0  0
   22.7520   50.3318   11.9461 C   0  0  0  0  0  0
   21.9144   51.8794   13.6051 C   0  0  0  0  0  0
   23.9912   52.3466   12.4567 C   0  0  0  0  0  0
   23.0075   52.7091   13.3879 C   0  0  0  0  0  0
   23.8375   51.1706   11.7233 C   0  0  0  0  0  0
   25.1396   53.0729   12.2165 O   0  0  0  0  0  0
   25.4308   54.2059   13.0331 C   0  0  0  0  0  0
   18.5499   47.4260   12.9043 H   0  0  0  0  0  0
   18.2585   50.4813    5.9012 H   0  0  0  0  0  0
   18.1818   49.2218    4.8324 H   0  0  0  0  0  0
   19.5501   46.9388    8.2619 H   0  0  0  0  0  0
   20.2352   51.1712    8.1975 H   0  0  0  0  0  0
   19.5471   47.0045   10.7125 H   0  0  0  0  0  0
   20.2546   51.2173   10.6556 H   0  0  0  0  0  0
   22.6799   49.4019   11.4008 H   0  0  0  0  0  0
   21.1774   52.1670   14.3410 H   0  0  0  0  0  0
   23.0780   53.6190   13.9626 H   0  0  0  0  0  0
   24.5873   50.8920   10.9972 H   0  0  0  0  0  0
   26.3456   54.6818   12.6816 H   0  0  0  0  0  0
   25.5907   53.9118   14.0699 H   0  0  0  0  0  0
   24.6430   54.9596   12.9998 H   0  0  0  0  0  0
  1  7  1  0  0  0
  1 10  2  0  0  0
  1 11  2  0  0  0
  1 13  1  0  0  0
  2  3  1  0  0  0
  2  4  1  0  0  0
  2  8  1  0  0  0
  3  9  1  0  0  0
  3  5  2  0  0  0
  4 12  2  0  0  0
  4  6  1  0  0  0
  5  6  1  0  0  0
  5 25  1  0  0  0
  7 14  1  0  0  0
  7 15  2  0  0  0
  8 18  1  0  0  0
  8 19  2  0  0  0
  9 17  2  0  0  0
  9 16  1  0  0  0
 13 26  1  0  0  0
 13 27  1  0  0  0
 14 16  2  0  0  0
 14 28  1  0  0  0
 15 17  1  0  0  0
 15 29  1  0  0  0
 16 30  1  0  0  0
 17 31  1  0  0  0
 18 22  2  0  0  0
 18 32  1  0  0  0
 19 21  1  0  0  0
 19 33  1  0  0  0
 20 21  2  0  0  0
 20 23  1  0  0  0
 20 22  1  0  0  0
 21 34  1  0  0  0
 22 35  1  0  0  0
 23 24  1  0  0  0
 24 36  1  0  0  0
 24 37  1  0  0  0
 24 38  1  0  0  0
M  END
> <s_m_entry_id>
5112

> <s_m_entry_name>
dock_pv.103

> <s_m_Source_Path>
/home/csk/Desktop/cluster/DUD-E-result/pgh1

> <s_m_Source_File>
dock_pv.maegz

> <i_m_Source_File_Index>
103

> <chembl_id>
CHEMBL70478

> <chembl_pref_name>
None

> <i_lp_mmshare_version>
53161

> <r_lp_tautomer_probability>
1

> <s_lp_Force_Field>
OPLS_2005

> <r_lp_Energy>
41.047717

> <b_lp_Chiralities_Consistent>
1

> <s_lp_Variant>
CHEMBL221_lig261-1

> <s_i_glide_gridfile>
glide-grid_2oyu

> <i_i_glide_lignum>
294

> <i_i_glide_rotatable_bonds>
4

> <r_i_docking_score>
-9.48152890735498

> <r_i_glide_ligand_efficiency>
-0.395063704473124

> <r_i_glide_ligand_efficiency_sa>
-1.13956091483364

> <r_i_glide_ligand_efficiency_ln>
-2.26936494654148

> <r_i_glide_gscore>
-9.48152890735498

> <r_i_glide_lipo>
-4.45494122241583

> <r_i_glide_hbond>
-0.276396671684964

> <r_i_glide_metal>
0

> <r_i_glide_rewards>
-2.40269235974728

> <r_i_glide_evdw>
-28.902135848999

> <r_i_glide_ecoul>
-7.6463508605957

> <r_i_glide_erotb>
0.316946413279288

> <r_i_glide_esite>
-0.0723856452468984

> <r_i_glide_emodel>
-48.5969459041757

> <r_i_glide_energy>
-36.5484867095947

> <r_i_glide_einternal>
7.63090372085571

> <i_i_glide_confnum>
16

> <i_i_glide_posenum>
158

> <r_i_glide_eff_state_penalty>
0

> <s_user_duplicate_titles>
CHEMBL221_lig261,112841

> <i_f3d_flags>
0

> <s_m_subgroup_title>
dock_pv

> <s_m_subgroupid>
dock_pv

> <b_m_subgroup_collapsed>
1

$$$$
CHEMBL221_lig501
                    3D
 Schrodinger Suite 2021-1.
 36 38  0  0  1  0            999 V2000
   20.0055   49.0068    6.1942 S   0  0  0  0  0  0
   20.6016   49.6371   13.2507 C   0  0  0  0  0  0
   19.8884   48.9645   12.2491 C   0  0  0  0  0  0
   20.2415   49.3228   14.4868 N   0  0  0  0  0  0
   18.7600   47.8765   13.0167 S   0  0  0  0  0  0
   19.2738   48.4441   14.5481 C   0  0  0  0  0  0
   20.0293   49.0534    7.9714 C   0  0  0  0  0  0
   19.9244   49.0434   10.7603 C   0  0  0  0  0  0
   21.6963   50.6325   13.0522 C   0  0  0  0  0  0
   20.9229   49.9942    5.6378 O   0  0  0  0  0  0
   20.1229   47.6139    5.7974 O   0  0  0  0  0  0
   18.4028   49.4731    5.7999 N   0  0  0  0  0  0
   19.7641   47.8690    8.6507 C   0  0  0  0  0  0
   20.1230   50.2539    8.6837 C   0  0  0  0  0  0
   19.7230   47.8732   10.0321 C   0  0  0  0  0  0
   20.1228   50.2459   10.0787 C   0  0  0  0  0  0
   22.7263   50.3724   12.1426 C   0  0  0  0  0  0
   21.7087   51.8183   13.7923 C   0  0  0  0  0  0
   23.8069   52.4238   12.7889 C   0  0  0  0  0  0
   22.7554   52.7189   13.6474 C   0  0  0  0  0  0
   23.7819   51.2700   12.0078 C   0  0  0  0  0  0
   25.1738   53.4728   12.7546 Cl  0  0  0  0  0  0
   18.6257   47.9920   15.8261 C   0  0  0  0  0  0
   18.2576   50.4800    5.9288 H   0  0  0  0  0  0
   18.1447   49.2458    4.8364 H   0  0  0  0  0  0
   19.6163   46.9410    8.1203 H   0  0  0  0  0  0
   20.2291   51.1854    8.1470 H   0  0  0  0  0  0
   19.5880   46.9407   10.5441 H   0  0  0  0  0  0
   20.2375   51.1725   10.6219 H   0  0  0  0  0  0
   22.7251   49.4614   11.5624 H   0  0  0  0  0  0
   20.9178   52.0392   14.4934 H   0  0  0  0  0  0
   22.7741   53.6305   14.2250 H   0  0  0  0  0  0
   24.5964   51.0515   11.3317 H   0  0  0  0  0  0
   19.0653   47.0686   16.1987 H   0  0  0  0  0  0
   18.7214   48.7490   16.5986 H   0  0  0  0  0  0
   17.5574   47.8121   15.7010 H   0  0  0  0  0  0
  1  7  1  0  0  0
  1 10  2  0  0  0
  1 11  2  0  0  0
  1 12  1  0  0  0
  2  3  2  0  0  0
  2  4  1  0  0  0
  2  9  1  0  0  0
  3  8  1  0  0  0
  3  5  1  0  0  0
  4  6  2  0  0  0
  5  6  1  0  0  0
  6 23  1  0  0  0
  7 13  2  0  0  0
  7 14  1  0  0  0
  8 16  1  0  0  0
  8 15  2  0  0  0
  9 17  1  0  0  0
  9 18  2  0  0  0
 12 24  1  0  0  0
 12 25  1  0  0  0
 13 15  1  0  0  0
 13 26  1  0  0  0
 14 16  2  0  0  0
 14 27  1  0  0  0
 15 28  1  0  0  0
 16 29  1  0  0  0
 17 21  2  0  0  0
 17 30  1  0  0  0
 18 20  1  0  0  0
 18 31  1  0  0  0
 19 20  2  0  0  0
 19 22  1  0  0  0
 19 21  1  0  0  0
 20 32  1  0  0  0
 21 33  1  0  0  0
 23 34  1  0  0  0
 23 35  1  0  0  0
 23 36  1  0  0  0
M  END
> <s_m_entry_id>
5113

> <s_m_entry_name>
dock_pv.104

> <s_m_Source_Path>
/home/csk/Desktop/cluster/DUD-E-result/pgh1

> <s_m_Source_File>
dock_pv.maegz

> <i_m_Source_File_Index>
104

> <chembl_id>
CHEMBL278492

> <chembl_pref_name>
None

> <i_lp_mmshare_version>
53161

> <r_lp_tautomer_probability>
1

> <s_lp_Force_Field>
OPLS_2005

> <r_lp_Energy>
24.145506

> <b_lp_Chiralities_Consistent>
1

> <s_lp_Variant>
CHEMBL221_lig501-1

> <s_i_glide_gridfile>
glide-grid_2oyu

> <i_i_glide_lignum>
637

> <i_i_glide_rotatable_bonds>
3

> <r_i_docking_score>
-9.46686599351177

> <r_i_glide_ligand_efficiency>
-0.41160286928312

> <r_i_glide_ligand_efficiency_sa>
-1.17054380754302

> <r_i_glide_ligand_efficiency_ln>
-2.28917403802602

> <r_i_glide_gscore>
-9.46686599351177

> <r_i_glide_lipo>
-4.88934333244702

> <r_i_glide_hbond>
-0.299817792994786

> <r_i_glide_metal>
0

> <r_i_glide_rewards>
-2.18214752267071

> <r_i_glide_evdw>
-26.7115936279297

> <r_i_glide_ecoul>
-6.49122476577759

> <r_i_glide_erotb>
0.288884073098233

> <r_i_glide_esite>
-0.0751780222343657

> <r_i_glide_emodel>
-44.9973953308818

> <r_i_glide_energy>
-33.2028183937073

> <r_i_glide_einternal>
0.784099519252777

> <i_i_glide_confnum>
14

> <i_i_glide_posenum>
291

> <r_i_glide_eff_state_penalty>
0

> <s_user_duplicate_titles>
CHEMBL221_lig501

> <i_f3d_flags>
0

> <s_m_subgroup_title>
dock_pv

> <s_m_subgroupid>
dock_pv

> <b_m_subgroup_collapsed>
1

$$$$
CHEMBL221_lig259
                    3D
 Schrodinger Suite 2021-1.
 34 36  0  0  1  0            999 V2000
   20.5269   49.6193   13.2530 N   0  0  0  0  0  0
   19.9975   49.0047    6.2220 S   0  0  0  0  0  0
   19.8661   48.8883   12.3070 C   0  0  0  0  0  0
   20.1746   49.0788   14.5117 C   0  0  0  0  0  0
   21.5058   50.6324   13.0837 C   0  0  0  0  0  0
   19.1742   47.9557   12.9600 C   0  0  0  0  0  0
   19.3318   48.0622   14.2726 O   0  0  0  0  0  0
   22.4759   50.5495   12.0734 C   0  0  0  0  0  0
   20.0244   49.0578    8.0096 C   0  0  0  0  0  0
   23.4287   51.5578   11.9137 C   0  0  0  0  0  0
   19.9351   49.0279   10.8229 C   0  0  0  0  0  0
   20.9226   49.9873    5.6710 O   0  0  0  0  0  0
   20.1230   47.6062    5.8455 O   0  0  0  0  0  0
   20.5240   49.3852   15.6523 O   0  0  0  0  0  0
   18.3936   49.4730    5.8000 N   0  0  0  0  0  0
   23.4699   52.6305   12.8094 C   0  0  0  0  0  0
   21.5337   51.7394   13.9462 C   0  0  0  0  0  0
   20.1230   50.2518    8.7347 C   0  0  0  0  0  0
   19.7614   47.8731    8.6889 C   0  0  0  0  0  0
   20.1174   50.2352   10.1342 C   0  0  0  0  0  0
   19.7230   47.8730   10.0710 C   0  0  0  0  0  0
   22.5036   52.7276   13.8036 C   0  0  0  0  0  0
   24.5230   51.4730   10.5857 Cl  0  0  0  0  0  0
   24.7140   53.8292   12.7413 Cl  0  0  0  0  0  0
   18.5231   47.1542   12.6384 H   0  0  0  0  0  0
   22.4949   49.7062   11.3988 H   0  0  0  0  0  0
   18.1948   50.4713    5.9251 H   0  0  0  0  0  0
   17.6534   48.8818    6.1940 H   0  0  0  0  0  0
   20.8077   51.8427   14.7399 H   0  0  0  0  0  0
   20.2252   51.1865    8.2018 H   0  0  0  0  0  0
   19.6127   46.9446    8.1590 H   0  0  0  0  0  0
   20.2093   51.1668   10.6726 H   0  0  0  0  0  0
   19.5865   46.9334   10.5690 H   0  0  0  0  0  0
   22.5229   53.5598   14.4933 H   0  0  0  0  0  0
  1  3  1  0  0  0
  1  4  1  0  0  0
  1  5  1  0  0  0
  2  9  1  0  0  0
  2 12  2  0  0  0
  2 13  2  0  0  0
  2 15  1  0  0  0
  3  6  2  0  0  0
  3 11  1  0  0  0
  4  7  1  0  0  0
  4 14  2  0  0  0
  5  8  1  0  0  0
  5 17  2  0  0  0
  6  7  1  0  0  0
  6 25  1  0  0  0
  8 10  2  0  0  0
  8 26  1  0  0  0
  9 19  2  0  0  0
  9 18  1  0  0  0
 10 23  1  0  0  0
 10 16  1  0  0  0
 11 20  1  0  0  0
 11 21  2  0  0  0
 15 27  1  0  0  0
 15 28  1  0  0  0
 16 22  2  0  0  0
 16 24  1  0  0  0
 17 22  1  0  0  0
 17 29  1  0  0  0
 18 20  2  0  0  0
 18 30  1  0  0  0
 19 21  1  0  0  0
 19 31  1  0  0  0
 20 32  1  0  0  0
 21 33  1  0  0  0
 22 34  1  0  0  0
M  END
> <s_m_entry_id>
5114

> <s_m_entry_name>
dock_pv.105

> <s_m_Source_Path>
/home/csk/Desktop/cluster/DUD-E-result/pgh1

> <s_m_Source_File>
dock_pv.maegz

> <i_m_Source_File_Index>
105

> <chembl_id>
CHEMBL304560

> <chembl_pref_name>
None

> <i_lp_mmshare_version>
53161

> <r_lp_tautomer_probability>
1

> <s_lp_Force_Field>
OPLS_2005

> <r_lp_Energy>
38.058359

> <b_lp_Chiralities_Consistent>
1

> <s_lp_Variant>
CHEMBL221_lig259-1

> <s_i_glide_gridfile>
glide-grid_2oyu

> <i_i_glide_lignum>
292

> <i_i_glide_rotatable_bonds>
3

> <r_i_docking_score>
-9.46133899492316

> <r_i_glide_ligand_efficiency>
-0.394222458121798

> <r_i_glide_ligand_efficiency_sa>
-1.13713434045876

> <r_i_glide_ligand_efficiency_ln>
-2.26453257404183

> <r_i_glide_gscore>
-9.46133899492316

> <r_i_glide_lipo>
-4.37408296243043

> <r_i_glide_hbond>
-0.582239957603705

> <r_i_glide_metal>
0

> <r_i_glide_rewards>
-2.17697031679153

> <r_i_glide_evdw>
-28.1243648529053

> <r_i_glide_ecoul>
-7.40331840515137

> <r_i_glide_erotb>
0.262146406042897

> <r_i_glide_esite>
-0.0734761607224186

> <r_i_glide_emodel>
-47.5891828013949

> <r_i_glide_energy>
-35.5276832580566

> <r_i_glide_einternal>
1.18718564510345

> <i_i_glide_confnum>
2

> <i_i_glide_posenum>
217

> <r_i_glide_eff_state_penalty>
0

> <s_user_duplicate_titles>
CHEMBL221_lig259

> <i_f3d_flags>
0

> <s_m_subgroup_title>
dock_pv

> <s_m_subgroupid>
dock_pv

> <b_m_subgroup_collapsed>
1

$$$$
CHEMBL221_lig180
                    3D
 Schrodinger Suite 2021-1.
 50 53  0  0  1  0            999 V2000
   19.3995   48.2937   14.5411 N   0  0  0  0  0  0
   20.3293   49.2993   14.3223 C   0  0  0  0  0  0
   20.5349   49.5981   12.8767 C   0  0  0  0  0  0
   19.8600   48.8686   11.9136 C   0  0  0  0  0  0
   18.7797   47.5667   13.5670 N   0  0  0  0  0  0
   20.0558   49.1801    5.8254 S   0  0  0  0  0  0
   18.9231   47.8730   12.3526 C   0  0  0  0  0  0
   17.5883   47.5928   16.3138 C   0  0  0  0  0  0
   19.0778   47.8634   15.9125 C   0  0  0  0  0  0
   19.9933   49.1180    7.6025 C   0  0  0  0  0  0
   21.6279   50.5821   12.5785 C   0  0  0  0  0  0
   19.9373   48.9865   10.4152 C   0  0  0  0  0  0
   17.3231   47.4730   17.8080 C   0  0  0  0  0  0
   16.8404   48.6702   17.0595 C   0  0  0  0  0  0
   20.9230   50.2730    5.3999 O   0  0  0  0  0  0
   20.3086   47.8548    5.3029 O   0  0  0  0  0  0
   20.9230   49.8722   15.2429 O   0  0  0  0  0  0
   19.7252   47.9092    8.2187 C   0  0  0  0  0  0
   20.1230   50.2730    8.3771 C   0  0  0  0  0  0
   19.7230   47.8518    9.6000 C   0  0  0  0  0  0
   20.1230   50.2111    9.7707 C   0  0  0  0  0  0
   22.6275   50.2597   11.6556 C   0  0  0  0  0  0
   21.7230   51.8082   13.2602 C   0  0  0  0  0  0
   18.3009   49.4730    5.4000 C   0  0  0  0  0  0
   23.8277   52.2734   12.1992 C   0  0  0  0  0  0
   22.8217   52.6428   13.0830 C   0  0  0  0  0  0
   23.7230   51.0972   11.4630 C   0  0  0  0  0  0
   24.9219   53.0541   12.0743 F   0  0  0  0  0  0
   16.7522   46.6694   15.4000 C   0  0  0  0  0  0
   18.2689   47.3515   11.6680 H   0  0  0  0  0  0
   19.4842   48.5901   16.6000 H   0  0  0  0  0  0
   19.6435   46.9523   16.1046 H   0  0  0  0  0  0
   18.1759   47.4730   18.4822 H   0  0  0  0  0  0
   16.5228   46.8467   18.2000 H   0  0  0  0  0  0
   15.7540   48.6733   17.0000 H   0  0  0  0  0  0
   17.2954   49.6483   17.2211 H   0  0  0  0  0  0
   19.5754   47.0203    7.6314 H   0  0  0  0  0  0
   20.2426   51.2289    7.8866 H   0  0  0  0  0  0
   19.6011   46.8734   10.0303 H   0  0  0  0  0  0
   20.2290   51.1234   10.3379 H   0  0  0  0  0  0
   22.5625   49.3304   11.1112 H   0  0  0  0  0  0
   20.9625   52.1004   13.9703 H   0  0  0  0  0  0
   18.2577   49.4305    4.3173 H   0  0  0  0  0  0
   17.7188   48.6522    5.8000 H   0  0  0  0  0  0
   17.9805   50.4237    5.8000 H   0  0  0  0  0  0
   22.9074   53.5600   13.6479 H   0  0  0  0  0  0
   24.5028   50.8233   10.7679 H   0  0  0  0  0  0
   17.3318   45.8113   15.0581 H   0  0  0  0  0  0
   15.8689   46.2728   15.8963 H   0  0  0  0  0  0
   16.3979   47.2070   14.5210 H   0  0  0  0  0  0
  1  2  1  0  0  0
  1  5  1  0  0  0
  1  9  1  0  0  0
  2  3  1  0  0  0
  2 17  2  0  0  0
  3 11  1  0  0  0
  3  4  2  0  0  0
  4  7  1  0  0  0
  4 12  1  0  0  0
  5  7  2  0  0  0
  6 10  1  0  0  0
  6 15  2  0  0  0
  6 16  2  0  0  0
  6 24  1  0  0  0
  7 30  1  0  0  0
  8  9  1  0  0  0
  8 13  1  0  0  0
  8 14  1  0  0  0
  8 29  1  0  0  0
  9 31  1  0  0  0
  9 32  1  0  0  0
 10 19  1  0  0  0
 10 18  2  0  0  0
 11 22  2  0  0  0
 11 23  1  0  0  0
 12 20  2  0  0  0
 12 21  1  0  0  0
 13 14  1  0  0  0
 13 33  1  0  0  0
 13 34  1  0  0  0
 14 35  1  0  0  0
 14 36  1  0  0  0
 18 20  1  0  0  0
 18 37  1  0  0  0
 19 21  2  0  0  0
 19 38  1  0  0  0
 20 39  1  0  0  0
 21 40  1  0  0  0
 22 27  1  0  0  0
 22 41  1  0  0  0
 23 26  2  0  0  0
 23 42  1  0  0  0
 24 43  1  0  0  0
 24 44  1  0  0  0
 24 45  1  0  0  0
 25 26  1  0  0  0
 25 28  1  0  0  0
 25 27  2  0  0  0
 26 46  1  0  0  0
 27 47  1  0  0  0
 29 48  1  0  0  0
 29 49  1  0  0  0
 29 50  1  0  0  0
M  END
> <s_m_entry_id>
5115

> <s_m_entry_name>
dock_pv.106

> <s_m_Source_Path>
/home/csk/Desktop/cluster/DUD-E-result/pgh1

> <s_m_Source_File>
dock_pv.maegz

> <i_m_Source_File_Index>
106

> <chembl_id>
CHEMBL154253

> <chembl_pref_name>
None

> <i_lp_mmshare_version>
53161

> <r_lp_tautomer_probability>
1

> <s_lp_Force_Field>
OPLS_2005

> <r_lp_Energy>
54.157256

> <b_lp_Chiralities_Consistent>
1

> <s_lp_Variant>
CHEMBL221_lig180-1

> <s_i_glide_gridfile>
glide-grid_2oyu

> <i_i_glide_lignum>
206

> <i_i_glide_rotatable_bonds>
5

> <r_i_docking_score>
-9.45366448140478

> <r_i_glide_ligand_efficiency>
-0.325988430393268

> <r_i_glide_ligand_efficiency_sa>
-1.001539738552

> <r_i_glide_ligand_efficiency_ln>
-2.16464944199442

> <r_i_glide_gscore>
-9.45366448140478

> <r_i_glide_lipo>
-5.26734575448193

> <r_i_glide_hbond>
0

> <r_i_glide_metal>
0

> <r_i_glide_rewards>
-2.72239298172765

> <r_i_glide_evdw>
-20.2229270935059

> <r_i_glide_ecoul>
-5.90136289596558

> <r_i_glide_erotb>
0.463606789549037

> <r_i_glide_esite>
-0.0311817456741082

> <r_i_glide_emodel>
-30.2495493812604

> <r_i_glide_energy>
-26.1242899894714

> <r_i_glide_einternal>
5.89248085021973

> <i_i_glide_confnum>
6

> <i_i_glide_posenum>
312

> <r_i_glide_eff_state_penalty>
0

> <s_user_duplicate_titles>
CHEMBL221_lig180

> <i_f3d_flags>
0

> <s_m_subgroup_title>
dock_pv

> <s_m_subgroupid>
dock_pv

> <b_m_subgroup_collapsed>
1

$$$$
CHEMBL221_lig457
                    3D
 Schrodinger Suite 2021-1.
 41 44  0  0  1  0            999 V2000
   20.4623   49.4720   13.3530 C   0  0  0  0  0  0
   21.5151   50.4503   13.1203 C   0  0  0  0  0  0
   21.7230   51.8831   14.1138 S   0  0  0  0  0  0
   20.0143   48.8781    6.3192 S   0  0  0  0  0  0
   19.7503   48.8106   12.4102 C   0  0  0  0  0  0
   23.1341   52.3391   13.1976 C   0  0  0  0  0  0
   20.0484   49.0723   14.7039 C   0  0  0  0  0  0
   22.4877   50.3336   12.1535 C   0  0  0  0  0  0
   18.7252   47.8920   13.0423 C   0  0  0  0  0  0
   19.9997   48.9457    8.1099 C   0  0  0  0  0  0
   23.4146   51.3953   12.1728 C   0  0  0  0  0  0
   19.8471   48.9338   10.9250 C   0  0  0  0  0  0
   20.1230   47.4731    5.9579 O   0  0  0  0  0  0
   20.9228   49.8729    5.7664 O   0  0  0  0  0  0
   18.9044   48.0880   14.5409 C   0  0  0  0  0  0
   20.5435   49.4572   15.7648 O   0  0  0  0  0  0
   20.1229   50.1411    8.8308 C   0  0  0  0  0  0
   19.7303   47.7641    8.7967 C   0  0  0  0  0  0
   20.0586   50.1344   10.2297 C   0  0  0  0  0  0
   19.7227   47.7640   10.1827 C   0  0  0  0  0  0
   18.3327   49.3122    5.7996 C   0  0  0  0  0  0
   23.9455   53.4584   13.3997 C   0  0  0  0  0  0
   24.5229   51.6046   11.3513 C   0  0  0  0  0  0
   25.0938   53.5730   12.6344 C   0  0  0  0  0  0
   25.3685   52.6704   11.6140 C   0  0  0  0  0  0
   22.5529   49.5114   11.4578 H   0  0  0  0  0  0
   17.7102   48.1420   12.7306 H   0  0  0  0  0  0
   18.9020   46.8468   12.7831 H   0  0  0  0  0  0
   18.0031   48.4951   15.0020 H   0  0  0  0  0  0
   19.1445   47.1532   15.0478 H   0  0  0  0  0  0
   20.2539   51.0731    8.2997 H   0  0  0  0  0  0
   19.6013   46.8329    8.2661 H   0  0  0  0  0  0
   20.1377   51.0689   10.7685 H   0  0  0  0  0  0
   19.6535   46.8187   10.6886 H   0  0  0  0  0  0
   18.3016   49.2989    4.7120 H   0  0  0  0  0  0
   18.0455   50.2724    6.1999 H   0  0  0  0  0  0
   17.7257   48.5152    6.1989 H   0  0  0  0  0  0
   23.7213   54.1782   14.1746 H   0  0  0  0  0  0
   24.7453   50.9287   10.5401 H   0  0  0  0  0  0
   25.7694   54.4011   12.8080 H   0  0  0  0  0  0
   26.2607   52.7918   11.0143 H   0  0  0  0  0  0
  1  2  1  0  0  0
  1  5  2  0  0  0
  1  7  1  0  0  0
  2  3  1  0  0  0
  2  8  2  0  0  0
  3  6  1  0  0  0
  4 10  1  0  0  0
  4 13  2  0  0  0
  4 14  2  0  0  0
  4 21  1  0  0  0
  5  9  1  0  0  0
  5 12  1  0  0  0
  6 22  1  0  0  0
  6 11  2  0  0  0
  7 15  1  0  0  0
  7 16  2  0  0  0
  8 11  1  0  0  0
  8 26  1  0  0  0
  9 15  1  0  0  0
  9 27  1  0  0  0
  9 28  1  0  0  0
 10 18  1  0  0  0
 10 17  2  0  0  0
 11 23  1  0  0  0
 12 19  2  0  0  0
 12 20  1  0  0  0
 15 29  1  0  0  0
 15 30  1  0  0  0
 17 19  1  0  0  0
 17 31  1  0  0  0
 18 20  2  0  0  0
 18 32  1  0  0  0
 19 33  1  0  0  0
 20 34  1  0  0  0
 21 35  1  0  0  0
 21 36  1  0  0  0
 21 37  1  0  0  0
 22 24  2  0  0  0
 22 38  1  0  0  0
 23 25  2  0  0  0
 23 39  1  0  0  0
 24 25  1  0  0  0
 24 40  1  0  0  0
 25 41  1  0  0  0
M  END
> <s_m_entry_id>
5116

> <s_m_entry_name>
dock_pv.107

> <s_m_Source_Path>
/home/csk/Desktop/cluster/DUD-E-result/pgh1

> <s_m_Source_File>
dock_pv.maegz

> <i_m_Source_File_Index>
107

> <chembl_id>
CHEMBL23378

> <chembl_pref_name>
None

> <i_lp_mmshare_version>
53161

> <r_lp_tautomer_probability>
0.499977396165832

> <s_lp_Force_Field>
OPLS_2005

> <r_lp_Energy>
21.617497

> <b_lp_Chiralities_Consistent>
1

> <s_lp_Variant>
CHEMBL221_lig457-1

> <s_i_glide_gridfile>
glide-grid_2oyu

> <i_i_glide_lignum>
560

> <i_i_glide_rotatable_bonds>
3

> <r_i_docking_score>
-9.44313092093443

> <r_i_glide_ligand_efficiency>
-0.377725236837377

> <r_i_glide_ligand_efficiency_sa>
-1.10447529149809

> <r_i_glide_ligand_efficiency_ln>
-2.23830501605945

> <r_i_glide_gscore>
-9.44313092093443

> <r_i_glide_lipo>
-5.12681051041015

> <r_i_glide_hbond>
0

> <r_i_glide_metal>
0

> <r_i_glide_rewards>
-2.53410235190347

> <r_i_glide_evdw>
-18.0571537017822

> <r_i_glide_ecoul>
-7.65396595001221

> <r_i_glide_erotb>
0.283863497848236

> <r_i_glide_esite>
-0.0151289788781002

> <r_i_glide_emodel>
-26.0557509685657

> <r_i_glide_energy>
-25.7111196517944

> <r_i_glide_einternal>
0.709635138511658

> <i_i_glide_confnum>
6

> <i_i_glide_posenum>
245

> <r_i_glide_eff_state_penalty>
0

> <s_user_duplicate_titles>
CHEMBL221_lig457,30352

> <i_f3d_flags>
0

> <s_m_subgroup_title>
dock_pv

> <s_m_subgroupid>
dock_pv

> <b_m_subgroup_collapsed>
1

$$$$
CHEMBL221_lig366
                    3D
 Schrodinger Suite 2021-1.
 46 49  0  0  1  0            999 V2000
   19.8425   49.1145    6.1583 S   0  0  0  0  0  0
   19.8099   48.6360   12.1998 C   0  0  0  0  0  0
   20.5041   49.3171   13.1496 C   0  0  0  0  0  0
   18.9539   47.9596   14.3011 C   0  0  0  0  0  0
   25.1632   53.8604   13.1029 C   0  0  0  0  0  0
   18.7966   47.6909   12.8210 C   0  0  0  0  0  0
   20.1212   48.8892   14.5596 C   0  0  0  0  0  0
   19.9332   48.9547    7.9245 C   0  0  0  0  0  0
   19.8903   48.7763   10.7221 C   0  0  0  0  0  0
   21.6129   50.2651   12.9242 C   0  0  0  0  0  0
   17.7089   48.0740   15.1720 C   0  0  0  0  0  0
   18.5953   46.8797   15.3048 C   0  0  0  0  0  0
   20.6337   50.2729    5.7999 O   0  0  0  0  0  0
   20.1230   47.8430    5.5218 O   0  0  0  0  0  0
   18.2036   49.4730    5.8000 N   0  0  0  0  0  0
   24.5765   53.0729   12.0718 O   0  0  0  0  0  0
   20.1230   50.0964    8.7128 C   0  0  0  0  0  0
   19.7230   47.7238    8.5304 C   0  0  0  0  0  0
   20.1229   50.0070   10.1007 C   0  0  0  0  0  0
   19.7228   47.6459    9.9169 C   0  0  0  0  0  0
   21.6532   51.4497   13.6565 C   0  0  0  0  0  0
   22.5977   50.0194   11.9629 C   0  0  0  0  0  0
   25.7231   53.0732   14.0062 F   0  0  0  0  0  0
   24.2868   54.6730   13.6728 F   0  0  0  0  0  0
   26.1230   54.6266   12.6001 F   0  0  0  0  0  0
   23.6036   52.1623   12.4176 C   0  0  0  0  0  0
   22.6315   52.3965   13.4004 C   0  0  0  0  0  0
   23.5836   50.9660   11.7068 C   0  0  0  0  0  0
   19.0459   46.6544   12.6001 H   0  0  0  0  0  0
   17.7796   47.8733   12.4730 H   0  0  0  0  0  0
   20.9231   48.3456   15.0456 H   0  0  0  0  0  0
   19.8523   49.7212   15.2057 H   0  0  0  0  0  0
   17.6920   48.8125   15.9742 H   0  0  0  0  0  0
   16.7291   47.9588   14.7057 H   0  0  0  0  0  0
   18.2356   45.9171   14.9396 H   0  0  0  0  0  0
   19.2152   46.7731   16.1929 H   0  0  0  0  0  0
   17.9348   50.3553    6.2490 H   0  0  0  0  0  0
   18.0766   49.6544    4.7984 H   0  0  0  0  0  0
   20.2347   51.0661    8.2467 H   0  0  0  0  0  0
   19.5756   46.8371    7.9343 H   0  0  0  0  0  0
   20.2401   50.9094   10.6828 H   0  0  0  0  0  0
   19.6561   46.6746   10.3702 H   0  0  0  0  0  0
   20.9080   51.6650   14.4070 H   0  0  0  0  0  0
   22.5864   49.0982   11.3999 H   0  0  0  0  0  0
   22.5860   53.3070   13.9733 H   0  0  0  0  0  0
   24.3310   50.7768   10.9487 H   0  0  0  0  0  0
  1  8  1  0  0  0
  1 13  2  0  0  0
  1 14  2  0  0  0
  1 15  1  0  0  0
  2  9  1  0  0  0
  2  3  2  0  0  0
  2  6  1  0  0  0
  3  7  1  0  0  0
  3 10  1  0  0  0
  4  6  1  0  0  0
  4 11  1  0  0  0
  4 12  1  0  0  0
  4  7  1  0  0  0
  5 16  1  0  0  0
  5 23  1  0  0  0
  5 24  1  0  0  0
  5 25  1  0  0  0
  6 29  1  0  0  0
  6 30  1  0  0  0
  7 31  1  0  0  0
  7 32  1  0  0  0
  8 17  1  0  0  0
  8 18  2  0  0  0
  9 20  2  0  0  0
  9 19  1  0  0  0
 10 21  2  0  0  0
 10 22  1  0  0  0
 11 12  1  0  0  0
 11 33  1  0  0  0
 11 34  1  0  0  0
 12 35  1  0  0  0
 12 36  1  0  0  0
 15 37  1  0  0  0
 15 38  1  0  0  0
 16 26  1  0  0  0
 17 19  2  0  0  0
 17 39  1  0  0  0
 18 20  1  0  0  0
 18 40  1  0  0  0
 19 41  1  0  0  0
 20 42  1  0  0  0
 21 27  1  0  0  0
 21 43  1  0  0  0
 22 28  2  0  0  0
 22 44  1  0  0  0
 26 28  1  0  0  0
 26 27  2  0  0  0
 27 45  1  0  0  0
 28 46  1  0  0  0
M  END
> <s_m_entry_id>
5117

> <s_m_entry_name>
dock_pv.108

> <s_m_Source_Path>
/home/csk/Desktop/cluster/DUD-E-result/pgh1

> <s_m_Source_File>
dock_pv.maegz

> <i_m_Source_File_Index>
108

> <chembl_id>
CHEMBL88649

> <chembl_pref_name>
None

> <i_lp_mmshare_version>
53161

> <r_lp_tautomer_probability>
1

> <s_lp_Force_Field>
OPLS_2005

> <r_lp_Energy>
44.738593

> <b_lp_Chiralities_Consistent>
1

> <s_lp_Variant>
CHEMBL221_lig366-1

> <s_i_glide_gridfile>
glide-grid_2oyu

> <i_i_glide_lignum>
432

> <i_i_glide_rotatable_bonds>
5

> <r_i_docking_score>
-9.44240663381053

> <r_i_glide_ligand_efficiency>
-0.337228808350376

> <r_i_glide_ligand_efficiency_sa>
-1.0240252792981

> <r_i_glide_ligand_efficiency_ln>
-2.17958469218912

> <r_i_glide_gscore>
-9.44240663381053

> <r_i_glide_lipo>
-5.40837453108978

> <r_i_glide_hbond>
-0.487498608643594

> <r_i_glide_metal>
0

> <r_i_glide_rewards>
-1.62685446655007

> <r_i_glide_evdw>
-24.3770942687988

> <r_i_glide_ecoul>
-6.40358686447144

> <r_i_glide_erotb>
0.352400485696959

> <r_i_glide_esite>
-0.0926867701133841

> <r_i_glide_emodel>
-30.526005290712

> <r_i_glide_energy>
-30.7806811332703

> <r_i_glide_einternal>
2.22622632980347

> <i_i_glide_confnum>
8

> <i_i_glide_posenum>
136

> <r_i_glide_eff_state_penalty>
0

> <s_user_duplicate_titles>
CHEMBL221_lig366

> <i_f3d_flags>
0

> <s_m_subgroup_title>
dock_pv

> <s_m_subgroupid>
dock_pv

> <b_m_subgroup_collapsed>
1

$$$$
CHEMBL221_lig934
                    3D
 Schrodinger Suite 2021-1.
 42 44  0  0  1  0            999 V2000
   19.9535   49.0730   10.5582 C   0  0  0  0  0  0
   21.9272   50.6474   12.7598 C   0  0  0  0  0  0
   20.0171   49.0353   12.0448 C   0  0  0  0  0  0
   20.8137   49.6838   12.9969 C   0  0  0  0  0  0
   20.5222   49.2769   14.2294 N   0  0  0  0  0  0
   19.6097   48.3437   14.0980 C   0  0  0  0  0  0
   19.2397   48.1947   12.7962 N   0  0  0  0  0  0
   18.9491   47.3724   15.4000 S   0  0  0  0  0  0
   17.9241   48.6713   16.1304 C   0  0  0  0  0  0
   19.7230   47.8731    9.8891 C   0  0  0  0  0  0
   19.7228   47.8215    8.5053 C   0  0  0  0  0  0
   19.9174   48.9856    7.7656 C   0  0  0  0  0  0
   20.1230   50.1984    8.4286 C   0  0  0  0  0  0
   20.1395   50.2455    9.8235 C   0  0  0  0  0  0
   22.7918   50.4259   11.6846 C   0  0  0  0  0  0
   23.8843   51.2592   11.4770 C   0  0  0  0  0  0
   24.1156   52.3143   12.3518 C   0  0  0  0  0  0
   23.2370   52.5715   13.4000 C   0  0  0  0  0  0
   22.1471   51.7320   13.6140 C   0  0  0  0  0  0
   19.8769   48.8676    5.9836 S   0  0  0  0  0  0
   18.1229   49.1257    5.4300 C   0  0  0  0  0  0
   20.1230   47.4730    5.6960 O   0  0  0  0  0  0
   20.7574   49.8730    5.4000 O   0  0  0  0  0  0
   25.2186   53.0758   12.2000 F   0  0  0  0  0  0
   17.0515   48.2243   17.3048 C   0  0  0  0  0  0
   18.5520   47.5429   12.4457 H   0  0  0  0  0  0
   18.5828   49.4730   16.4604 H   0  0  0  0  0  0
   17.2930   49.0730   15.3404 H   0  0  0  0  0  0
   19.6063   46.9632   10.4480 H   0  0  0  0  0  0
   19.5614   46.8738    8.0166 H   0  0  0  0  0  0
   20.2368   51.1085    7.8567 H   0  0  0  0  0  0
   20.2999   51.1864   10.3289 H   0  0  0  0  0  0
   22.6315   49.5889   11.0223 H   0  0  0  0  0  0
   24.5639   51.0730   10.6586 H   0  0  0  0  0  0
   23.4166   53.4027   14.0651 H   0  0  0  0  0  0
   21.4845   51.9186   14.4469 H   0  0  0  0  0  0
   18.1080   49.0730    4.3419 H   0  0  0  0  0  0
   17.7583   50.0807    5.8000 H   0  0  0  0  0  0
   17.5279   48.3007    5.8000 H   0  0  0  0  0  0
   16.5022   49.0724   17.7134 H   0  0  0  0  0  0
   16.3261   47.4723   17.0002 H   0  0  0  0  0  0
   17.6543   47.7975   18.1063 H   0  0  0  0  0  0
  1  3  1  0  0  0
  1 10  2  0  0  0
  1 14  1  0  0  0
  2  4  1  0  0  0
  2 15  2  0  0  0
  2 19  1  0  0  0
  3  4  2  0  0  0
  3  7  1  0  0  0
  4  5  1  0  0  0
  5  6  2  0  0  0
  6  7  1  0  0  0
  6  8  1  0  0  0
  7 26  1  0  0  0
  8  9  1  0  0  0
  9 25  1  0  0  0
  9 27  1  0  0  0
  9 28  1  0  0  0
 10 11  1  0  0  0
 10 29  1  0  0  0
 11 12  2  0  0  0
 11 30  1  0  0  0
 12 13  1  0  0  0
 12 20  1  0  0  0
 13 14  2  0  0  0
 13 31  1  0  0  0
 14 32  1  0  0  0
 15 16  1  0  0  0
 15 33  1  0  0  0
 16 17  2  0  0  0
 16 34  1  0  0  0
 17 18  1  0  0  0
 17 24  1  0  0  0
 18 19  2  0  0  0
 18 35  1  0  0  0
 19 36  1  0  0  0
 20 21  1  0  0  0
 20 22  2  0  0  0
 20 23  2  0  0  0
 21 37  1  0  0  0
 21 38  1  0  0  0
 21 39  1  0  0  0
 25 40  1  0  0  0
 25 41  1  0  0  0
 25 42  1  0  0  0
M  END
> <s_m_entry_id>
5118

> <s_m_entry_name>
dock_pv.109

> <s_m_Source_Path>
/home/csk/Desktop/cluster/DUD-E-result/pgh1

> <s_m_Source_File>
dock_pv.maegz

> <i_m_Source_File_Index>
109

> <chembl_id>
CHEMBL2347672

> <chembl_pref_name>
None

> <i_lp_mmshare_version>
53161

> <r_lp_tautomer_probability>
0.999999999976373

> <s_lp_Force_Field>
OPLS_2005

> <r_lp_Energy>
11.036855

> <b_lp_Chiralities_Consistent>
1

> <s_lp_Variant>
CHEMBL221_lig934-1

> <s_i_glide_gridfile>
glide-grid_2oyu

> <i_i_glide_lignum>
1159

> <i_i_glide_rotatable_bonds>
5

> <r_i_docking_score>
-9.44065091301995

> <r_i_glide_ligand_efficiency>
-0.377626036520798

> <r_i_glide_ligand_efficiency_sa>
-1.10418522801309

> <r_i_glide_ligand_efficiency_ln>
-2.23771717986387

> <r_i_glide_gscore>
-9.44065091301995

> <r_i_glide_lipo>
-4.58193617151628

> <r_i_glide_hbond>
0

> <r_i_glide_metal>
0

> <r_i_glide_rewards>
-2.77804831492594

> <r_i_glide_evdw>
-29.1215591430664

> <r_i_glide_ecoul>
-6.76412582397461

> <r_i_glide_erotb>
0.40975194695809

> <r_i_glide_esite>
-0.019721542786309

> <r_i_glide_emodel>
-47.6095553684423

> <r_i_glide_energy>
-35.885684967041

> <r_i_glide_einternal>
3.99838614463806

> <i_i_glide_confnum>
5

> <i_i_glide_posenum>
115

> <r_i_glide_eff_state_penalty>
0

> <s_user_duplicate_titles>
CHEMBL221_lig934

> <i_f3d_flags>
0

> <s_m_subgroup_title>
dock_pv

> <s_m_subgroupid>
dock_pv

> <b_m_subgroup_collapsed>
1

$$$$
CHEMBL221_lig354
                    3D
 Schrodinger Suite 2021-1.
 47 50  0  0  1  0            999 V2000
   20.5230   49.5696   13.2252 C   0  0  0  0  0  0
   19.7887   48.9305   12.2765 C   0  0  0  0  0  0
   19.9984   48.9201    6.2005 S   0  0  0  0  0  0
   18.9305   48.2279   14.3750 C   0  0  0  0  0  0
   18.7301   48.0164   12.8943 C   0  0  0  0  0  0
   20.1496   49.0899   14.6279 C   0  0  0  0  0  0
   19.9980   49.0248    7.9873 C   0  0  0  0  0  0
   19.8847   49.0461   10.7976 C   0  0  0  0  0  0
   21.6742   50.4809   13.0023 C   0  0  0  0  0  0
   18.5671   47.1128   15.3440 C   0  0  0  0  0  0
   17.7186   48.3409   15.2922 C   0  0  0  0  0  0
   20.9230   49.8853    5.6233 O   0  0  0  0  0  0
   20.1230   47.5085    5.8729 O   0  0  0  0  0  0
   20.1230   50.2289    8.6934 C   0  0  0  0  0  0
   19.7425   47.8527    8.6889 C   0  0  0  0  0  0
   20.1176   50.2361   10.0947 C   0  0  0  0  0  0
   19.7224   47.8728   10.0698 C   0  0  0  0  0  0
   21.7970   51.6361   13.7798 C   0  0  0  0  0  0
   22.6322   50.2302   12.0130 C   0  0  0  0  0  0
   18.2993   49.3663    5.6873 C   0  0  0  0  0  0
   23.8184   52.2573   12.5916 C   0  0  0  0  0  0
   22.8558   52.5178   13.5766 C   0  0  0  0  0  0
   23.6910   51.1115   11.8079 C   0  0  0  0  0  0
   24.9150   53.0594   12.3401 O   0  0  0  0  0  0
   25.1524   54.2005   13.1593 C   0  0  0  0  0  0
   18.9053   46.9708   12.6424 H   0  0  0  0  0  0
   17.7133   48.2730   12.5999 H   0  0  0  0  0  0
   20.9230   48.4623   15.0499 H   0  0  0  0  0  0
   19.9599   49.8754   15.3499 H   0  0  0  0  0  0
   18.1628   46.1802   14.9486 H   0  0  0  0  0  0
   19.2166   46.9444   16.2000 H   0  0  0  0  0  0
   17.7510   49.0434   16.1257 H   0  0  0  0  0  0
   16.7210   48.2725   14.8559 H   0  0  0  0  0  0
   20.2466   51.1534    8.1487 H   0  0  0  0  0  0
   19.6016   46.9125    8.1786 H   0  0  0  0  0  0
   20.2339   51.1705   10.6242 H   0  0  0  0  0  0
   19.5960   46.9395   10.5811 H   0  0  0  0  0  0
   21.0666   51.8638   14.5426 H   0  0  0  0  0  0
   22.5634   49.3430   11.4010 H   0  0  0  0  0  0
   18.3206   49.4730    4.6072 H   0  0  0  0  0  0
   17.7230   48.4930    5.9394 H   0  0  0  0  0  0
   17.9650   50.2696    6.1931 H   0  0  0  0  0  0
   22.9197   53.3968   14.1999 H   0  0  0  0  0  0
   24.4274   50.8992   11.0456 H   0  0  0  0  0  0
   26.0484   54.7141   12.8102 H   0  0  0  0  0  0
   25.3231   53.9175   14.1985 H   0  0  0  0  0  0
   24.3283   54.9133   13.1133 H   0  0  0  0  0  0
  1  2  2  0  0  0
  1  6  1  0  0  0
  1  9  1  0  0  0
  2  5  1  0  0  0
  2  8  1  0  0  0
  3  7  1  0  0  0
  3 12  2  0  0  0
  3 13  2  0  0  0
  3 20  1  0  0  0
  4  6  1  0  0  0
  4 10  1  0  0  0
  4 11  1  0  0  0
  4  5  1  0  0  0
  5 26  1  0  0  0
  5 27  1  0  0  0
  6 28  1  0  0  0
  6 29  1  0  0  0
  7 15  1  0  0  0
  7 14  2  0  0  0
  8 16  2  0  0  0
  8 17  1  0  0  0
  9 18  1  0  0  0
  9 19  2  0  0  0
 10 11  1  0  0  0
 10 30  1  0  0  0
 10 31  1  0  0  0
 11 32  1  0  0  0
 11 33  1  0  0  0
 14 16  1  0  0  0
 14 34  1  0  0  0
 15 17  2  0  0  0
 15 35  1  0  0  0
 16 36  1  0  0  0
 17 37  1  0  0  0
 18 22  2  0  0  0
 18 38  1  0  0  0
 19 23  1  0  0  0
 19 39  1  0  0  0
 20 40  1  0  0  0
 20 41  1  0  0  0
 20 42  1  0  0  0
 21 23  2  0  0  0
 21 24  1  0  0  0
 21 22  1  0  0  0
 22 43  1  0  0  0
 23 44  1  0  0  0
 24 25  1  0  0  0
 25 45  1  0  0  0
 25 46  1  0  0  0
 25 47  1  0  0  0
M  END
> <s_m_entry_id>
5119

> <s_m_entry_name>
dock_pv.110

> <s_m_Source_Path>
/home/csk/Desktop/cluster/DUD-E-result/pgh1

> <s_m_Source_File>
dock_pv.maegz

> <i_m_Source_File_Index>
110

> <chembl_id>
CHEMBL89089

> <chembl_pref_name>
None

> <i_lp_mmshare_version>
53161

> <r_lp_tautomer_probability>
1

> <s_lp_Force_Field>
OPLS_2005

> <r_lp_Energy>
38.037075

> <b_lp_Chiralities_Consistent>
1

> <s_lp_Variant>
CHEMBL221_lig354-1

> <s_i_glide_gridfile>
glide-grid_2oyu

> <i_i_glide_lignum>
420

> <i_i_glide_rotatable_bonds>
4

> <r_i_docking_score>
-9.43480398084938

> <r_i_glide_ligand_efficiency>
-0.377392159233975

> <r_i_glide_ligand_efficiency_sa>
-1.10350136667859

> <r_i_glide_ligand_efficiency_ln>
-2.23633128172103

> <r_i_glide_gscore>
-9.43480398084938

> <r_i_glide_lipo>
-5.33970790834618

> <r_i_glide_hbond>
0

> <r_i_glide_metal>
0

> <r_i_glide_rewards>
-2.09149734733766

> <r_i_glide_evdw>
-27.2777938842773

> <r_i_glide_ecoul>
-6.17523574829102

> <r_i_glide_erotb>
0.304176301738429

> <r_i_glide_esite>
-0.0175999704464448

> <r_i_glide_emodel>
-37.3136900784762

> <r_i_glide_energy>
-33.4530296325684

> <r_i_glide_einternal>
1.92498672008514

> <i_i_glide_confnum>
4

> <i_i_glide_posenum>
346

> <r_i_glide_eff_state_penalty>
0

> <s_user_duplicate_titles>
CHEMBL221_lig354,143397

> <i_f3d_flags>
0

> <s_m_subgroup_title>
dock_pv

> <s_m_subgroupid>
dock_pv

> <b_m_subgroup_collapsed>
1

$$$$
CHEMBL221_lig157
                    3D
 Schrodinger Suite 2021-1.
 44 46  0  0  1  0            999 V2000
   19.8065   48.9289   12.2015 N   0  0  0  0  0  0
   19.0338   48.2725   14.2173 N   0  0  0  0  0  0
   20.5893   49.5185   13.1745 C   0  0  0  0  0  0
   18.8938   48.1901   12.9220 C   0  0  0  0  0  0
   19.9774   48.8924    6.2002 S   0  0  0  0  0  0
   20.0656   49.0730   14.3886 C   0  0  0  0  0  0
   19.8954   48.9936   10.7892 C   0  0  0  0  0  0
   19.9546   48.9701    7.9887 C   0  0  0  0  0  0
   21.7505   50.4052   12.9175 C   0  0  0  0  0  0
   20.9230   49.8730    5.6739 O   0  0  0  0  0  0
   20.1230   47.4854    5.8634 O   0  0  0  0  0  0
   23.9428   52.0618   12.4368 C   0  0  0  0  0  0
   19.7231   47.7921    8.6948 C   0  0  0  0  0  0
   20.1230   50.1711    8.6919 C   0  0  0  0  0  0
   19.7221   47.8106   10.0800 C   0  0  0  0  0  0
   20.1229   50.1859   10.0913 C   0  0  0  0  0  0
   21.8809   51.6012   13.6202 C   0  0  0  0  0  0
   22.7172   50.0311   11.9869 C   0  0  0  0  0  0
   23.8029   50.8583   11.7417 C   0  0  0  0  0  0
   22.9702   52.4277   13.3760 C   0  0  0  0  0  0
   20.6234   49.4658   15.9643 Cl  0  0  0  0  0  0
   18.2810   49.3426    5.6213 C   0  0  0  0  0  0
   25.0938   53.0270   12.1462 C   0  0  0  0  0  0
   26.0226   52.6730   10.9505 C   0  0  0  0  0  0
   25.8702   53.4732   13.4000 C   0  0  0  0  0  0
   18.1375   47.6153   12.4073 H   0  0  0  0  0  0
   19.5823   46.8529    8.1823 H   0  0  0  0  0  0
   20.2532   51.0932    8.1443 H   0  0  0  0  0  0
   19.6169   46.8855   10.6171 H   0  0  0  0  0  0
   20.2509   51.1213   10.6176 H   0  0  0  0  0  0
   21.1350   51.8993   14.3429 H   0  0  0  0  0  0
   22.6245   49.0995   11.4486 H   0  0  0  0  0  0
   24.5229   50.5528   11.0006 H   0  0  0  0  0  0
   23.0411   53.3637   13.9108 H   0  0  0  0  0  0
   18.3703   49.4729    4.5479 H   0  0  0  0  0  0
   17.6178   48.5052    5.7999 H   0  0  0  0  0  0
   17.9423   50.2528    6.1065 H   0  0  0  0  0  0
   24.5231   53.8773   11.8108 H   0  0  0  0  0  0
   25.4454   52.6730   10.0258 H   0  0  0  0  0  0
   26.4837   51.7119   11.0000 H   0  0  0  0  0  0
   26.8717   53.3564   10.8340 H   0  0  0  0  0  0
   25.2136   53.8086   14.1998 H   0  0  0  0  0  0
   26.4885   52.6730   13.7998 H   0  0  0  0  0  0
   26.5228   54.3180   13.1755 H   0  0  0  0  0  0
  1  3  1  0  0  0
  1  4  1  0  0  0
  1  7  1  0  0  0
  2  4  2  0  0  0
  2  6  1  0  0  0
  3  6  2  0  0  0
  3  9  1  0  0  0
  4 26  1  0  0  0
  5  8  1  0  0  0
  5 10  2  0  0  0
  5 11  2  0  0  0
  5 22  1  0  0  0
  6 21  1  0  0  0
  7 15  1  0  0  0
  7 16  2  0  0  0
  8 14  2  0  0  0
  8 13  1  0  0  0
  9 17  1  0  0  0
  9 18  2  0  0  0
 12 19  2  0  0  0
 12 23  1  0  0  0
 12 20  1  0  0  0
 13 15  2  0  0  0
 13 27  1  0  0  0
 14 16  1  0  0  0
 14 28  1  0  0  0
 15 29  1  0  0  0
 16 30  1  0  0  0
 17 20  2  0  0  0
 17 31  1  0  0  0
 18 19  1  0  0  0
 18 32  1  0  0  0
 19 33  1  0  0  0
 20 34  1  0  0  0
 22 35  1  0  0  0
 22 36  1  0  0  0
 22 37  1  0  0  0
 23 24  1  0  0  0
 23 25  1  0  0  0
 23 38  1  0  0  0
 24 39  1  0  0  0
 24 40  1  0  0  0
 24 41  1  0  0  0
 25 42  1  0  0  0
 25 43  1  0  0  0
 25 44  1  0  0  0
M  END
> <s_m_entry_id>
5120

> <s_m_entry_name>
dock_pv.111

> <s_m_Source_Path>
/home/csk/Desktop/cluster/DUD-E-result/pgh1

> <s_m_Source_File>
dock_pv.maegz

> <i_m_Source_File_Index>
111

> <chembl_id>
CHEMBL117855

> <chembl_pref_name>
None

> <i_lp_mmshare_version>
53161

> <r_lp_tautomer_probability>
1

> <s_lp_Force_Field>
OPLS_2005

> <r_lp_Energy>
12.711708

> <b_lp_Chiralities_Consistent>
1

> <s_lp_Variant>
CHEMBL221_lig157-1

> <s_i_glide_gridfile>
glide-grid_2oyu

> <i_i_glide_lignum>
179

> <i_i_glide_rotatable_bonds>
4

> <r_i_docking_score>
-9.42621576357483

> <r_i_glide_ligand_efficiency>
-0.377048630542993

> <r_i_glide_ligand_efficiency_sa>
-1.10249688269365

> <r_i_glide_ligand_efficiency_ln>
-2.23429561685886

> <r_i_glide_gscore>
-9.42621576357483

> <r_i_glide_lipo>
-4.71354488191232

> <r_i_glide_hbond>
0

> <r_i_glide_metal>
0

> <r_i_glide_rewards>
-3.0254178569036

> <r_i_glide_evdw>
-19.4936656951904

> <r_i_glide_ecoul>
-6.47117710113525

> <r_i_glide_erotb>
0.275238663331564

> <r_i_glide_esite>
-0.0171318381606717

> <r_i_glide_emodel>
-26.26168887934

> <r_i_glide_energy>
-25.9648427963257

> <r_i_glide_einternal>
2.5370409488678

> <i_i_glide_confnum>
11

> <i_i_glide_posenum>
158

> <r_i_glide_eff_state_penalty>
0

> <s_user_duplicate_titles>
CHEMBL221_lig157

> <i_f3d_flags>
0

> <s_m_subgroup_title>
dock_pv

> <s_m_subgroupid>
dock_pv

> <b_m_subgroup_collapsed>
1

$$$$
CHEMBL221_lig221
                    3D
 Schrodinger Suite 2021-1.
 50 53  0  0  1  0            999 V2000
   19.7791   48.8009   14.6960 N   0  0  0  0  0  0
   20.6808   49.7630   14.3000 C   0  0  0  0  0  0
   20.7627   49.8987   12.8271 C   0  0  0  0  0  0
   19.9739   49.1054   12.0076 C   0  0  0  0  0  0
   19.0753   47.9514   13.8683 N   0  0  0  0  0  0
   19.8820   48.8709    5.9257 S   0  0  0  0  0  0
   18.3796   47.7383   16.5546 C   0  0  2  0  0  0
   19.0824   48.1370   12.6180 C   0  0  0  0  0  0
   16.9860   47.8176   15.9707 C   0  0  0  0  0  0
   17.2176   48.1754   17.4196 C   0  0  2  0  0  0
   19.5006   48.7159   16.1320 C   0  0  0  0  0  0
   19.9232   49.0089    7.6979 C   0  0  0  0  0  0
   21.8828   50.7794   12.3532 C   0  0  0  0  0  0
   19.9545   49.1060   10.5083 C   0  0  0  0  0  0
   20.7646   49.8731    5.3424 O   0  0  0  0  0  0
   20.1230   47.4730    5.6441 O   0  0  0  0  0  0
   21.3229   50.4345   15.1185 O   0  0  0  0  0  0
   20.1230   50.2218    8.3592 C   0  0  0  0  0  0
   19.7230   47.8508    8.4330 C   0  0  0  0  0  0
   20.1234   50.2730    9.7546 C   0  0  0  0  0  0
   19.7230   47.9072    9.8109 C   0  0  0  0  0  0
   22.1855   52.0181   12.9559 C   0  0  0  0  0  0
   22.7275   50.3220   11.3422 C   0  0  0  0  0  0
   18.1192   49.1283    5.4073 C   0  0  0  0  0  0
   24.2303   52.1510   11.7110 C   0  0  0  0  0  0
   23.8697   51.0276   10.9990 C   0  0  0  0  0  0
   23.3745   52.6835   12.6662 C   0  0  0  0  0  0
   25.4499   52.6730   11.4900 F   0  0  0  0  0  0
   16.9230   49.6429   17.7885 C   0  0  0  0  0  0
   18.7690   46.7233   16.6201 H   0  0  0  0  0  0
   18.3961   47.5190   12.0461 H   0  0  0  0  0  0
   16.4976   46.8786   15.7141 H   0  0  0  0  0  0
   16.7781   48.5970   15.2376 H   0  0  0  0  0  0
   16.9230   47.4730   18.1989 H   0  0  0  0  0  0
   19.3156   49.7075   16.5440 H   0  0  0  0  0  0
   20.4387   48.4380   16.6000 H   0  0  0  0  0  0
   20.2298   51.1324    7.7861 H   0  0  0  0  0  0
   19.5626   46.9016    7.9475 H   0  0  0  0  0  0
   20.2530   51.2266   10.2437 H   0  0  0  0  0  0
   19.6178   46.9743   10.3335 H   0  0  0  0  0  0
   21.5419   52.4351   13.7167 H   0  0  0  0  0  0
   22.5230   49.3888   10.8422 H   0  0  0  0  0  0
   18.0757   49.0730    4.3199 H   0  0  0  0  0  0
   17.5379   48.3036    5.8000 H   0  0  0  0  0  0
   17.7628   50.0786    5.8000 H   0  0  0  0  0  0
   24.5230   50.6725   10.2202 H   0  0  0  0  0  0
   23.6450   53.5813   13.2029 H   0  0  0  0  0  0
   17.3230   50.3525   17.0660 H   0  0  0  0  0  0
   17.3229   49.9029   18.7692 H   0  0  0  0  0  0
   15.8463   49.8111   17.8000 H   0  0  0  0  0  0
  1  2  1  0  0  0
  1  5  1  0  0  0
  1 11  1  0  0  0
  2  3  1  0  0  0
  2 17  2  0  0  0
  3 13  1  0  0  0
  3  4  2  0  0  0
  4  8  1  0  0  0
  4 14  1  0  0  0
  5  8  2  0  0  0
  6 12  1  0  0  0
  6 15  2  0  0  0
  6 16  2  0  0  0
  6 24  1  0  0  0
  7 11  1  0  0  0
  7  9  1  0  0  0
  7 10  1  0  0  0
  7 30  1  0  0  0
  8 31  1  0  0  0
  9 10  1  0  0  0
  9 32  1  0  0  0
  9 33  1  0  0  0
 10 29  1  0  0  0
 10 34  1  0  0  0
 11 35  1  0  0  0
 11 36  1  0  0  0
 12 19  1  0  0  0
 12 18  2  0  0  0
 13 22  2  0  0  0
 13 23  1  0  0  0
 14 20  2  0  0  0
 14 21  1  0  0  0
 18 20  1  0  0  0
 18 37  1  0  0  0
 19 21  2  0  0  0
 19 38  1  0  0  0
 20 39  1  0  0  0
 21 40  1  0  0  0
 22 27  1  0  0  0
 22 41  1  0  0  0
 23 26  2  0  0  0
 23 42  1  0  0  0
 24 43  1  0  0  0
 24 44  1  0  0  0
 24 45  1  0  0  0
 25 26  1  0  0  0
 25 28  1  0  0  0
 25 27  2  0  0  0
 26 46  1  0  0  0
 27 47  1  0  0  0
 29 48  1  0  0  0
 29 49  1  0  0  0
 29 50  1  0  0  0
M  END
> <s_m_entry_id>
5121

> <s_m_entry_name>
dock_pv.112

> <s_m_Source_Path>
/home/csk/Desktop/cluster/DUD-E-result/pgh1

> <s_m_Source_File>
dock_pv.maegz

> <i_m_Source_File_Index>
112

> <chembl_id>
CHEMBL347441

> <chembl_pref_name>
None

> <i_lp_mmshare_version>
53161

> <r_lp_tautomer_probability>
1

> <s_lp_Force_Field>
OPLS_2005

> <r_lp_Energy>
53.597193

> <b_lp_Chiralities_Consistent>
1

> <s_lp_Variant>
CHEMBL221_lig221-1

> <s_i_glide_gridfile>
glide-grid_2oyu

> <i_i_glide_lignum>
249

> <i_i_glide_rotatable_bonds>
5

> <r_i_docking_score>
-9.41719832800399

> <r_i_glide_ligand_efficiency>
-0.324730976827724

> <r_i_glide_ligand_efficiency_sa>
-0.997676442809393

> <r_i_glide_ligand_efficiency_ln>
-2.1562996175675

> <r_i_glide_gscore>
-9.41719832800399

> <r_i_glide_lipo>
-5.11906930115965

> <r_i_glide_hbond>
0

> <r_i_glide_metal>
0

> <r_i_glide_rewards>
-2.43776324426338

> <r_i_glide_evdw>
-26.4299068450928

> <r_i_glide_ecoul>
-6.5456337928772

> <r_i_glide_erotb>
0.463606789549037

> <r_i_glide_esite>
-0.0206321609437926

> <r_i_glide_emodel>
-33.0536703934602

> <r_i_glide_energy>
-32.97554063797

> <r_i_glide_einternal>
7.20102834701538

> <i_i_glide_confnum>
19

> <i_i_glide_posenum>
381

> <r_i_glide_eff_state_penalty>
0

> <s_user_duplicate_titles>
CHEMBL221_lig221

> <i_f3d_flags>
0

> <s_m_subgroup_title>
dock_pv

> <s_m_subgroupid>
dock_pv

> <b_m_subgroup_collapsed>
1

$$$$
CHEMBL221_lig485
                    3D
 Schrodinger Suite 2021-1.
 44 46  0  0  1  0            999 V2000
   19.0077   47.8565   13.3493 C   0  0  1  0  0  0
   20.2562   49.0792   14.7389 C   0  0  0  0  0  0
   19.2970   48.1610   14.6646 O   0  0  0  0  0  0
   19.8573   48.7910   12.5065 C   0  0  0  0  0  0
   20.5610   49.5291   13.3825 C   0  0  0  0  0  0
   19.8822   48.8553    6.3713 S   0  0  0  0  0  0
   19.9510   48.9061    8.1708 C   0  0  0  0  0  0
   19.8677   48.8831   11.0053 C   0  0  0  0  0  0
   21.6476   50.4855   13.1030 C   0  0  0  0  0  0
   20.7550   49.4700   15.7940 O   0  0  0  0  0  0
   20.1228   47.4733    6.0064 O   0  0  0  0  0  0
   20.7102   49.9067    5.8011 O   0  0  0  0  0  0
   19.3234   46.5470   13.1024 O   0  0  0  0  0  0
   19.7224   47.7223    8.8650 C   0  0  0  0  0  0
   20.1230   50.0933    8.8980 C   0  0  0  0  0  0
   19.7212   47.7189   10.2532 C   0  0  0  0  0  0
   20.0884   50.0787   10.2996 C   0  0  0  0  0  0
   21.7237   51.7010   13.7915 C   0  0  0  0  0  0
   22.6386   50.1493   12.1770 C   0  0  0  0  0  0
   17.5043   48.0506   13.2251 C   0  0  0  0  0  0
   18.1349   49.1430    5.8628 C   0  0  0  0  0  0
   23.8264   52.1578   12.7244 C   0  0  0  0  0  0
   25.3180   53.0735   12.5954 S   0  0  0  0  0  0
   22.8143   52.5394   13.6031 C   0  0  0  0  0  0
   23.7231   50.9880   11.9815 C   0  0  0  0  0  0
   25.1115   54.6728   13.3604 C   0  0  0  0  0  0
   18.7808   46.2381   12.3679 H   0  0  0  0  0  0
   19.5996   46.7894    8.3348 H   0  0  0  0  0  0
   20.2489   51.0324    8.3749 H   0  0  0  0  0  0
   19.7216   46.7598   10.7347 H   0  0  0  0  0  0
   20.2093   51.0109   10.8319 H   0  0  0  0  0  0
   20.9618   51.9778   14.5065 H   0  0  0  0  0  0
   22.5975   49.2124   11.6409 H   0  0  0  0  0  0
   16.9673   47.3834   13.9001 H   0  0  0  0  0  0
   17.2293   49.0709   13.4780 H   0  0  0  0  0  0
   17.1795   47.8729   12.2085 H   0  0  0  0  0  0
   18.1321   49.4708    4.8297 H   0  0  0  0  0  0
   17.7229   49.8734    6.5403 H   0  0  0  0  0  0
   17.7212   48.1497    5.9378 H   0  0  0  0  0  0
   22.8876   53.4454   14.1843 H   0  0  0  0  0  0
   24.5095   50.6972   11.2986 H   0  0  0  0  0  0
   25.8587   55.3426   12.9359 H   0  0  0  0  0  0
   24.1298   55.0829   13.1334 H   0  0  0  0  0  0
   25.2574   54.6331   14.4371 H   0  0  0  0  0  0
  1  3  1  0  0  0
  1  4  1  0  0  0
  1 13  1  0  0  0
  1 20  1  0  0  0
  2  3  1  0  0  0
  2 10  2  0  0  0
  2  5  1  0  0  0
  4  5  2  0  0  0
  4  8  1  0  0  0
  5  9  1  0  0  0
  6  7  1  0  0  0
  6 11  2  0  0  0
  6 12  2  0  0  0
  6 21  1  0  0  0
  7 15  1  0  0  0
  7 14  2  0  0  0
  8 16  2  0  0  0
  8 17  1  0  0  0
  9 18  2  0  0  0
  9 19  1  0  0  0
 13 27  1  0  0  0
 14 16  1  0  0  0
 14 28  1  0  0  0
 15 17  2  0  0  0
 15 29  1  0  0  0
 16 30  1  0  0  0
 17 31  1  0  0  0
 18 24  1  0  0  0
 18 32  1  0  0  0
 19 25  2  0  0  0
 19 33  1  0  0  0
 20 34  1  0  0  0
 20 35  1  0  0  0
 20 36  1  0  0  0
 21 37  1  0  0  0
 21 38  1  0  0  0
 21 39  1  0  0  0
 22 25  1  0  0  0
 22 23  1  0  0  0
 22 24  2  0  0  0
 23 26  1  0  0  0
 24 40  1  0  0  0
 25 41  1  0  0  0
 26 42  1  0  0  0
 26 43  1  0  0  0
 26 44  1  0  0  0
M  END
> <s_m_entry_id>
5122

> <s_m_entry_name>
dock_pv.113

> <s_m_Source_Path>
/home/csk/Desktop/cluster/DUD-E-result/pgh1

> <s_m_Source_File>
dock_pv.maegz

> <i_m_Source_File_Index>
113

> <chembl_id>
CHEMBL277118

> <chembl_pref_name>
None

> <i_lp_mmshare_version>
53161

> <r_lp_tautomer_probability>
1

> <s_lp_Force_Field>
OPLS_2005

> <r_lp_Energy>
12.58266

> <b_lp_Chiralities_Consistent>
1

> <s_lp_Variant>
CHEMBL221_lig485-2

> <s_i_glide_gridfile>
glide-grid_2oyu

> <i_i_glide_lignum>
618

> <i_i_glide_rotatable_bonds>
5

> <r_i_docking_score>
-9.40783665768888

> <r_i_glide_ligand_efficiency>
-0.361839871449572

> <r_i_glide_ligand_efficiency_sa>
-1.07194919539821

> <r_i_glide_ligand_efficiency_ln>
-2.20939956942832

> <r_i_glide_gscore>
-9.40783665768888

> <r_i_glide_lipo>
-4.32815900739044

> <r_i_glide_hbond>
0

> <r_i_glide_metal>
0

> <r_i_glide_rewards>
-2.71073070227753

> <r_i_glide_evdw>
-24.1372013092041

> <r_i_glide_ecoul>
-9.35766506195068

> <r_i_glide_erotb>
0.255850064682022

> <r_i_glide_esite>
-0.0142871879501154

> <r_i_glide_emodel>
-35.6150234749275

> <r_i_glide_energy>
-33.4948663711548

> <r_i_glide_einternal>
1.44939839839935

> <i_i_glide_confnum>
17

> <i_i_glide_posenum>
257

> <r_i_glide_eff_state_penalty>
0

> <s_user_duplicate_titles>
CHEMBL221_lig485

> <i_f3d_flags>
0

> <s_m_subgroup_title>
dock_pv

> <s_m_subgroupid>
dock_pv

> <b_m_subgroup_collapsed>
1

$$$$
CHEMBL221_lig329
                    3D
 Schrodinger Suite 2021-1.
 38 40  0  0  1  0            999 V2000
   20.0332   48.9424    6.4381 S   0  0  0  0  0  0
   20.5394   49.7244   13.4168 C   0  0  0  0  0  0
   19.8078   49.0140   12.5238 C   0  0  0  0  0  0
   21.6251   50.7010   13.1476 C   0  0  0  0  0  0
   20.1205   49.0466    8.2391 C   0  0  0  0  0  0
   22.5211   50.5807   12.0731 C   0  0  0  0  0  0
   23.5124   51.5406   11.8541 C   0  0  0  0  0  0
   19.8416   49.0968   11.0396 C   0  0  0  0  0  0
   20.9212   49.9058    5.8040 O   0  0  0  0  0  0
   20.1216   47.5259    6.1072 O   0  0  0  0  0  0
   18.4483   49.4515    6.0067 N   0  0  0  0  0  0
   23.6681   52.5925   12.7572 C   0  0  0  0  0  0
   21.7490   51.8103   13.9908 C   0  0  0  0  0  0
   19.8613   47.8706    8.9494 C   0  0  0  0  0  0
   20.1231   50.2650    8.9276 C   0  0  0  0  0  0
   19.7223   47.9069   10.3273 C   0  0  0  0  0  0
   20.0264   50.2870   10.3218 C   0  0  0  0  0  0
   22.7610   52.7438   13.8009 C   0  0  0  0  0  0
   24.5164   51.4390   10.4534 Cl  0  0  0  0  0  0
   24.9976   53.6827   12.6255 Cl  0  0  0  0  0  0
   20.2896   49.2407   14.8379 C   0  0  0  0  0  0
   18.8836   48.0283   13.2301 C   0  0  0  0  0  0
   19.0919   48.3097   14.7118 C   0  0  0  0  0  0
   22.4520   49.7444   11.3939 H   0  0  0  0  0  0
   18.2827   50.4598    6.1014 H   0  0  0  0  0  0
   17.6831   48.8904    6.4002 H   0  0  0  0  0  0
   21.0657   51.9569   14.8138 H   0  0  0  0  0  0
   19.7676   46.9229    8.4411 H   0  0  0  0  0  0
   20.2118   51.1839    8.3684 H   0  0  0  0  0  0
   19.5854   46.9823   10.8524 H   0  0  0  0  0  0
   20.0714   51.2345   10.8392 H   0  0  0  0  0  0
   22.8500   53.5645   14.5013 H   0  0  0  0  0  0
   21.1583   48.6865   15.1828 H   0  0  0  0  0  0
   20.1238   50.0322   15.5673 H   0  0  0  0  0  0
   17.8371   48.1449   12.9425 H   0  0  0  0  0  0
   19.1782   47.0014   13.0118 H   0  0  0  0  0  0
   19.2252   47.3944   15.2907 H   0  0  0  0  0  0
   18.2039   48.7989   15.1170 H   0  0  0  0  0  0
  1  5  1  0  0  0
  1  9  2  0  0  0
  1 10  2  0  0  0
  1 11  1  0  0  0
  2  3  2  0  0  0
  2  4  1  0  0  0
  2 21  1  0  0  0
  3  8  1  0  0  0
  3 22  1  0  0  0
  4  6  2  0  0  0
  4 13  1  0  0  0
  5 14  2  0  0  0
  5 15  1  0  0  0
  6  7  1  0  0  0
  6 24  1  0  0  0
  7 19  1  0  0  0
  7 12  2  0  0  0
  8 17  1  0  0  0
  8 16  2  0  0  0
 11 25  1  0  0  0
 11 26  1  0  0  0
 12 18  1  0  0  0
 12 20  1  0  0  0
 13 18  2  0  0  0
 13 27  1  0  0  0
 14 16  1  0  0  0
 14 28  1  0  0  0
 15 17  2  0  0  0
 15 29  1  0  0  0
 16 30  1  0  0  0
 17 31  1  0  0  0
 18 32  1  0  0  0
 21 23  1  0  0  0
 21 33  1  0  0  0
 21 34  1  0  0  0
 22 23  1  0  0  0
 22 35  1  0  0  0
 22 36  1  0  0  0
 23 37  1  0  0  0
 23 38  1  0  0  0
M  END
> <s_m_entry_id>
5123

> <s_m_entry_name>
dock_pv.114

> <s_m_Source_Path>
/home/csk/Desktop/cluster/DUD-E-result/pgh1

> <s_m_Source_File>
dock_pv.maegz

> <i_m_Source_File_Index>
114

> <chembl_id>
CHEMBL111321

> <chembl_pref_name>
None

> <i_lp_mmshare_version>
53161

> <r_lp_tautomer_probability>
1

> <s_lp_Force_Field>
OPLS_2005

> <r_lp_Energy>
35.342883

> <b_lp_Chiralities_Consistent>
1

> <s_lp_Variant>
CHEMBL221_lig329-1

> <s_i_glide_gridfile>
glide-grid_2oyu

> <i_i_glide_lignum>
394

> <i_i_glide_rotatable_bonds>
3

> <r_i_docking_score>
-9.39380013762708

> <r_i_glide_ligand_efficiency>
-0.408426092940308

> <r_i_glide_ligand_efficiency_sa>
-1.16150947820876

> <r_i_glide_ligand_efficiency_ln>
-2.27150605154855

> <r_i_glide_gscore>
-9.39380013762708

> <r_i_glide_lipo>
-4.89487783595951

> <r_i_glide_hbond>
-0.588169295887897

> <r_i_glide_metal>
0

> <r_i_glide_rewards>
-1.81888846079296

> <r_i_glide_evdw>
-26.0190982818604

> <r_i_glide_ecoul>
-6.69429159164429

> <r_i_glide_erotb>
0.284129783164441

> <r_i_glide_esite>
-0.0708956753114977

> <r_i_glide_emodel>
-39.9329257117547

> <r_i_glide_energy>
-32.7133898735046

> <r_i_glide_einternal>
0.792471766471863

> <i_i_glide_confnum>
1

> <i_i_glide_posenum>
292

> <r_i_glide_eff_state_penalty>
0

> <s_user_duplicate_titles>
CHEMBL221_lig329

> <i_f3d_flags>
0

> <s_m_subgroup_title>
dock_pv

> <s_m_subgroupid>
dock_pv

> <b_m_subgroup_collapsed>
1

$$$$
CHEMBL221_lig35
                    3D
 Schrodinger Suite 2021-1.
 39 41  0  0  1  0            999 V2000
   19.8086   49.0102   12.3046 C   0  0  0  0  0  0
   20.5762   49.6913   13.2429 N   0  0  0  0  0  0
   18.9145   48.2082   13.0000 C   0  0  0  0  0  0
   20.1230   49.3072   14.5044 C   0  0  0  0  0  0
   19.1097   48.3720   14.3563 C   0  0  0  0  0  0
   20.0178   48.8942    6.2460 S   0  0  0  0  0  0
   19.9187   49.0939   10.8173 C   0  0  0  0  0  0
   21.6523   50.5762   12.9666 C   0  0  0  0  0  0
   20.0180   49.0118    8.0266 C   0  0  0  0  0  0
   20.1230   47.4796    5.9233 O   0  0  0  0  0  0
   20.9230   49.8730    5.6577 O   0  0  0  0  0  0
   19.7230   47.8990   10.1317 C   0  0  0  0  0  0
   20.1230   50.2730   10.0958 C   0  0  0  0  0  0
   20.1230   50.2339    8.6997 C   0  0  0  0  0  0
   19.7567   47.8507    8.7495 C   0  0  0  0  0  0
   18.1403   47.4944   15.7401 Br  0  0  0  0  0  0
   22.6704   50.1682   12.0967 C   0  0  0  0  0  0
   21.7099   51.8464   13.5547 C   0  0  0  0  0  0
   18.3337   49.3418    5.7435 C   0  0  0  0  0  0
   23.7995   52.2671   12.4335 C   0  0  0  0  0  0
   20.6724   49.8562   15.8000 C   0  0  0  0  0  0
   22.7907   52.6851   13.2965 C   0  0  0  0  0  0
   23.7349   51.0197   11.8192 C   0  0  0  0  0  0
   24.8580   53.0730   12.2001 F   0  0  0  0  0  0
   18.1748   47.5546   12.5591 H   0  0  0  0  0  0
   19.5609   46.9955   10.6871 H   0  0  0  0  0  0
   20.2300   51.2190   10.6060 H   0  0  0  0  0  0
   20.2327   51.1470    8.1328 H   0  0  0  0  0  0
   19.6076   46.9046    8.2514 H   0  0  0  0  0  0
   22.6435   49.1903   11.6372 H   0  0  0  0  0  0
   20.9230   52.1992   14.2040 H   0  0  0  0  0  0
   18.3527   49.4503    4.6625 H   0  0  0  0  0  0
   18.0157   50.2726    6.2000 H   0  0  0  0  0  0
   17.7230   48.4946    6.0088 H   0  0  0  0  0  0
   20.1604   49.3887   16.6328 H   0  0  0  0  0  0
   21.7230   49.6436   15.9330 H   0  0  0  0  0  0
   20.5232   50.9273   15.9211 H   0  0  0  0  0  0
   22.8509   53.6578   13.7635 H   0  0  0  0  0  0
   24.5230   50.7056   11.1498 H   0  0  0  0  0  0
  1  2  1  0  0  0
  1  3  2  0  0  0
  1  7  1  0  0  0
  2  4  1  0  0  0
  2  8  1  0  0  0
  3  5  1  0  0  0
  3 25  1  0  0  0
  4 21  1  0  0  0
  4  5  2  0  0  0
  5 16  1  0  0  0
  6  9  1  0  0  0
  6 10  2  0  0  0
  6 11  2  0  0  0
  6 19  1  0  0  0
  7 12  2  0  0  0
  7 13  1  0  0  0
  8 17  1  0  0  0
  8 18  2  0  0  0
  9 14  1  0  0  0
  9 15  2  0  0  0
 12 15  1  0  0  0
 12 26  1  0  0  0
 13 14  2  0  0  0
 13 27  1  0  0  0
 14 28  1  0  0  0
 15 29  1  0  0  0
 17 23  2  0  0  0
 17 30  1  0  0  0
 18 22  1  0  0  0
 18 31  1  0  0  0
 19 32  1  0  0  0
 19 33  1  0  0  0
 19 34  1  0  0  0
 20 22  2  0  0  0
 20 24  1  0  0  0
 20 23  1  0  0  0
 21 35  1  0  0  0
 21 36  1  0  0  0
 21 37  1  0  0  0
 22 38  1  0  0  0
 23 39  1  0  0  0
M  END
> <s_m_entry_id>
5124

> <s_m_entry_name>
dock_pv.115

> <s_m_Source_Path>
/home/csk/Desktop/cluster/DUD-E-result/pgh1

> <s_m_Source_File>
dock_pv.maegz

> <i_m_Source_File_Index>
115

> <chembl_id>
CHEMBL40245

> <chembl_pref_name>
None

> <i_lp_mmshare_version>
53161

> <r_lp_tautomer_probability>
1

> <s_lp_Force_Field>
OPLS_2005

> <r_lp_Energy>
11.952349

> <b_lp_Chiralities_Consistent>
1

> <s_lp_Variant>
CHEMBL221_lig35-1

> <s_i_glide_gridfile>
glide-grid_2oyu

> <i_i_glide_lignum>
42

> <i_i_glide_rotatable_bonds>
3

> <r_i_docking_score>
-9.38670964453539

> <r_i_glide_ligand_efficiency>
-0.391112901855641

> <r_i_glide_ligand_efficiency_sa>
-1.12816482809084

> <r_i_glide_ligand_efficiency_ln>
-2.24667034597629

> <r_i_glide_gscore>
-9.38670964453539

> <r_i_glide_lipo>
-4.94774687480318

> <r_i_glide_hbond>
0

> <r_i_glide_metal>
0

> <r_i_glide_rewards>
-2.65928394072546

> <r_i_glide_evdw>
-22.2882518768311

> <r_i_glide_ecoul>
-5.90316486358643

> <r_i_glide_erotb>
0.236115341069912

> <r_i_glide_esite>
-0.0159068466971453

> <r_i_glide_emodel>
-31.5652376368669

> <r_i_glide_energy>
-28.1914167404175

> <r_i_glide_einternal>
0.807483375072479

> <i_i_glide_confnum>
15

> <i_i_glide_posenum>
332

> <r_i_glide_eff_state_penalty>
0

> <s_user_duplicate_titles>
CHEMBL221_lig35,62636

> <i_f3d_flags>
0

> <s_m_subgroup_title>
dock_pv

> <s_m_subgroupid>
dock_pv

> <b_m_subgroup_collapsed>
1

$$$$
CHEMBL221_lig353
                    3D
 Schrodinger Suite 2021-1.
 46 49  0  0  1  0            999 V2000
   20.4857   49.5481   13.1570 C   0  0  0  0  0  0
   19.7881   48.8794   12.2019 C   0  0  0  0  0  0
   19.9919   48.9942    6.1390 S   0  0  0  0  0  0
   18.9289   48.1649   14.2898 C   0  0  0  0  0  0
   18.7901   47.8980   12.8083 C   0  0  0  0  0  0
   20.1137   49.0736   14.5584 C   0  0  0  0  0  0
   19.9990   49.0521    7.9220 C   0  0  0  0  0  0
   19.8873   49.0109   10.7260 C   0  0  0  0  0  0
   21.6151   50.4855   12.9461 C   0  0  0  0  0  0
   18.5460   47.0831   15.2874 C   0  0  0  0  0  0
   17.6755   48.2902   15.1464 C   0  0  0  0  0  0
   20.9087   49.9869    5.5862 O   0  0  0  0  0  0
   20.1229   47.5952    5.7690 O   0  0  0  0  0  0
   20.1241   50.2395    8.6530 C   0  0  0  0  0  0
   19.7412   47.8663    8.5945 C   0  0  0  0  0  0
   20.1225   50.2162   10.0503 C   0  0  0  0  0  0
   19.7149   47.8532    9.9744 C   0  0  0  0  0  0
   21.7241   51.6403   13.7283 C   0  0  0  0  0  0
   22.5883   50.2312   11.9725 C   0  0  0  0  0  0
   18.2611   49.3849    5.6797 C   0  0  0  0  0  0
   22.8059   52.5033   13.5623 C   0  0  0  0  0  0
   23.6672   51.0922   11.8017 C   0  0  0  0  0  0
   23.7917   52.2111   12.6206 C   0  0  0  0  0  0
   25.0220   53.0880   12.5077 C   0  0  0  0  0  0
   19.0791   46.8679   12.6019 H   0  0  0  0  0  0
   17.7728   48.0361   12.4433 H   0  0  0  0  0  0
   20.9192   48.4977   15.0034 H   0  0  0  0  0  0
   19.8776   49.8788   15.2486 H   0  0  0  0  0  0
   18.1768   46.1269   14.9149 H   0  0  0  0  0  0
   19.1592   46.9658   16.1783 H   0  0  0  0  0  0
   17.6570   49.0299   15.9473 H   0  0  0  0  0  0
   16.7006   48.1841   14.6679 H   0  0  0  0  0  0
   20.2469   51.1769    8.1308 H   0  0  0  0  0  0
   19.5949   46.9405    8.0604 H   0  0  0  0  0  0
   20.2370   51.1416   10.5975 H   0  0  0  0  0  0
   19.5782   46.9077   10.4613 H   0  0  0  0  0  0
   20.9806   51.8698   14.4780 H   0  0  0  0  0  0
   22.5262   49.3404   11.3642 H   0  0  0  0  0  0
   18.2190   49.4732    4.6015 H   0  0  0  0  0  0
   17.7233   48.4958    5.9657 H   0  0  0  0  0  0
   17.9052   50.2704    6.1906 H   0  0  0  0  0  0
   22.8949   53.3794   14.1896 H   0  0  0  0  0  0
   24.4231   50.8623   11.0637 H   0  0  0  0  0  0
   25.4226   53.0719   11.4969 H   0  0  0  0  0  0
   25.7859   52.7035   13.1807 H   0  0  0  0  0  0
   24.8028   54.1276   12.7531 H   0  0  0  0  0  0
  1  2  2  0  0  0
  1  6  1  0  0  0
  1  9  1  0  0  0
  2  5  1  0  0  0
  2  8  1  0  0  0
  3  7  1  0  0  0
  3 12  2  0  0  0
  3 13  2  0  0  0
  3 20  1  0  0  0
  4  6  1  0  0  0
  4 10  1  0  0  0
  4 11  1  0  0  0
  4  5  1  0  0  0
  5 25  1  0  0  0
  5 26  1  0  0  0
  6 27  1  0  0  0
  6 28  1  0  0  0
  7 15  1  0  0  0
  7 14  2  0  0  0
  8 16  2  0  0  0
  8 17  1  0  0  0
  9 18  1  0  0  0
  9 19  2  0  0  0
 10 11  1  0  0  0
 10 29  1  0  0  0
 10 30  1  0  0  0
 11 31  1  0  0  0
 11 32  1  0  0  0
 14 16  1  0  0  0
 14 33  1  0  0  0
 15 17  2  0  0  0
 15 34  1  0  0  0
 16 35  1  0  0  0
 17 36  1  0  0  0
 18 21  2  0  0  0
 18 37  1  0  0  0
 19 22  1  0  0  0
 19 38  1  0  0  0
 20 39  1  0  0  0
 20 40  1  0  0  0
 20 41  1  0  0  0
 21 23  1  0  0  0
 21 42  1  0  0  0
 22 23  2  0  0  0
 22 43  1  0  0  0
 23 24  1  0  0  0
 24 44  1  0  0  0
 24 45  1  0  0  0
 24 46  1  0  0  0
M  END
> <s_m_entry_id>
5125

> <s_m_entry_name>
dock_pv.116

> <s_m_Source_Path>
/home/csk/Desktop/cluster/DUD-E-result/pgh1

> <s_m_Source_File>
dock_pv.maegz

> <i_m_Source_File_Index>
116

> <chembl_id>
CHEMBL92102

> <chembl_pref_name>
None

> <i_lp_mmshare_version>
53161

> <r_lp_tautomer_probability>
1

> <s_lp_Force_Field>
OPLS_2005

> <r_lp_Energy>
34.773327

> <b_lp_Chiralities_Consistent>
1

> <s_lp_Variant>
CHEMBL221_lig353-1

> <s_i_glide_gridfile>
glide-grid_2oyu

> <i_i_glide_lignum>
419

> <i_i_glide_rotatable_bonds>
3

> <r_i_docking_score>
-9.38570823917825

> <r_i_glide_ligand_efficiency>
-0.391071176632427

> <r_i_glide_ligand_efficiency_sa>
-1.12804447172047

> <r_i_glide_ligand_efficiency_ln>
-2.24643066372283

> <r_i_glide_gscore>
-9.38570823917825

> <r_i_glide_lipo>
-5.36730476416324

> <r_i_glide_hbond>
0

> <r_i_glide_metal>
0

> <r_i_glide_rewards>
-2.3351662975717

> <r_i_glide_evdw>
-23.0226802825928

> <r_i_glide_ecoul>
-5.60053634643555

> <r_i_glide_erotb>
0.330178846984068

> <r_i_glide_esite>
-0.0222015583324116

> <r_i_glide_emodel>
-31.9338424817086

> <r_i_glide_energy>
-28.6232166290283

> <r_i_glide_einternal>
1.90540254116058

> <i_i_glide_confnum>
2

> <i_i_glide_posenum>
267

> <r_i_glide_eff_state_penalty>
0

> <s_user_duplicate_titles>
CHEMBL221_lig353

> <i_f3d_flags>
0

> <s_m_subgroup_title>
dock_pv

> <s_m_subgroupid>
dock_pv

> <b_m_subgroup_collapsed>
1

$$$$
CHEMBL221_lig198
                    3D
 Schrodinger Suite 2021-1.
 47 50  0  0  1  0            999 V2000
   19.6538   48.8040   14.6927 N   0  0  0  0  0  0
   20.5992   49.7335   14.3180 C   0  0  0  0  0  0
   20.7166   49.8724   12.8489 C   0  0  0  0  0  0
   19.9292   49.0976   12.0140 C   0  0  0  0  0  0
   18.9290   47.9897   13.8497 N   0  0  0  0  0  0
   19.9123   48.8775    5.9489 S   0  0  0  0  0  0
   18.9877   48.1618   12.6005 C   0  0  0  0  0  0
   19.9298   49.0069    7.7172 C   0  0  0  0  0  0
   19.3565   48.7102   16.1235 C   0  0  0  0  0  0
   21.8523   50.7439   12.3916 C   0  0  0  0  0  0
   19.9425   49.1020   10.5190 C   0  0  0  0  0  0
   18.3342   47.6367   16.5419 C   0  0  0  0  0  0
   20.8257   49.8730    5.3993 O   0  0  0  0  0  0
   20.1230   47.4735    5.6578 O   0  0  0  0  0  0
   21.2535   50.3792   15.1475 O   0  0  0  0  0  0
   17.1938   47.9604   17.4682 C   0  0  0  0  0  0
   16.9219   47.6335   16.0134 C   0  0  0  0  0  0
   19.7234   47.8468    8.4461 C   0  0  0  0  0  0
   20.1230   50.2212    8.3786 C   0  0  0  0  0  0
   19.7230   47.9019    9.8227 C   0  0  0  0  0  0
   20.1231   50.2722    9.7728 C   0  0  0  0  0  0
   22.1421   51.9872   12.9906 C   0  0  0  0  0  0
   22.7138   50.2827   11.3958 C   0  0  0  0  0  0
   18.1645   49.1972    5.4178 C   0  0  0  0  0  0
   24.1904   52.1338   11.7546 C   0  0  0  0  0  0
   23.8506   50.9985   11.0495 C   0  0  0  0  0  0
   23.3256   52.6630   12.7029 C   0  0  0  0  0  0
   25.4020   52.6730   11.5351 F   0  0  0  0  0  0
   18.3034   47.5609   12.0088 H   0  0  0  0  0  0
   19.0479   49.6772   16.5192 H   0  0  0  0  0  0
   20.3106   48.5226   16.6000 H   0  0  0  0  0  0
   18.8207   46.6730   16.6000 H   0  0  0  0  0  0
   17.0417   48.9870   17.8004 H   0  0  0  0  0  0
   16.9219   47.2294   18.2270 H   0  0  0  0  0  0
   16.4862   46.6717   15.7470 H   0  0  0  0  0  0
   16.6266   48.4183   15.3178 H   0  0  0  0  0  0
   19.5684   46.8971    7.9589 H   0  0  0  0  0  0
   20.2347   51.1307    7.8051 H   0  0  0  0  0  0
   19.6168   46.9704   10.3483 H   0  0  0  0  0  0
   20.2491   51.2247   10.2656 H   0  0  0  0  0  0
   21.4885   52.4034   13.7430 H   0  0  0  0  0  0
   22.5225   49.3431   10.9025 H   0  0  0  0  0  0
   18.1310   49.1209    4.3321 H   0  0  0  0  0  0
   17.5451   48.3968    5.7999 H   0  0  0  0  0  0
   17.8469   50.1681    5.7999 H   0  0  0  0  0  0
   24.5229   50.6476   10.2839 H   0  0  0  0  0  0
   23.5838   53.5675   13.2348 H   0  0  0  0  0  0
  1  2  1  0  0  0
  1  5  1  0  0  0
  1  9  1  0  0  0
  2  3  1  0  0  0
  2 15  2  0  0  0
  3 10  1  0  0  0
  3  4  2  0  0  0
  4  7  1  0  0  0
  4 11  1  0  0  0
  5  7  2  0  0  0
  6  8  1  0  0  0
  6 13  2  0  0  0
  6 14  2  0  0  0
  6 24  1  0  0  0
  7 29  1  0  0  0
  8 19  1  0  0  0
  8 18  2  0  0  0
  9 12  1  0  0  0
  9 30  1  0  0  0
  9 31  1  0  0  0
 10 22  2  0  0  0
 10 23  1  0  0  0
 11 20  2  0  0  0
 11 21  1  0  0  0
 12 16  1  0  0  0
 12 17  1  0  0  0
 12 32  1  0  0  0
 16 17  1  0  0  0
 16 33  1  0  0  0
 16 34  1  0  0  0
 17 35  1  0  0  0
 17 36  1  0  0  0
 18 20  1  0  0  0
 18 37  1  0  0  0
 19 21  2  0  0  0
 19 38  1  0  0  0
 20 39  1  0  0  0
 21 40  1  0  0  0
 22 27  1  0  0  0
 22 41  1  0  0  0
 23 26  2  0  0  0
 23 42  1  0  0  0
 24 43  1  0  0  0
 24 44  1  0  0  0
 24 45  1  0  0  0
 25 26  1  0  0  0
 25 28  1  0  0  0
 25 27  2  0  0  0
 26 46  1  0  0  0
 27 47  1  0  0  0
M  END
> <s_m_entry_id>
5126

> <s_m_entry_name>
dock_pv.117

> <s_m_Source_Path>
/home/csk/Desktop/cluster/DUD-E-result/pgh1

> <s_m_Source_File>
dock_pv.maegz

> <i_m_Source_File_Index>
117

> <chembl_id>
CHEMBL157016

> <chembl_pref_name>
None

> <i_lp_mmshare_version>
53161

> <r_lp_tautomer_probability>
1

> <s_lp_Force_Field>
OPLS_2005

> <r_lp_Energy>
48.297072

> <b_lp_Chiralities_Consistent>
1

> <s_lp_Variant>
CHEMBL221_lig198-1

> <s_i_glide_gridfile>
glide-grid_2oyu

> <i_i_glide_lignum>
225

> <i_i_glide_rotatable_bonds>
5

> <r_i_docking_score>
-9.36898984790066

> <r_i_glide_ligand_efficiency>
-0.334606780282166

> <r_i_glide_ligand_efficiency_sa>
-1.01606325779107

> <r_i_glide_ligand_efficiency_ln>
-2.16263794239062

> <r_i_glide_gscore>
-9.36898984790066

> <r_i_glide_lipo>
-5.13170120855232

> <r_i_glide_hbond>
0

> <r_i_glide_metal>
0

> <r_i_glide_rewards>
-2.56936570377004

> <r_i_glide_evdw>
-23.4540748596191

> <r_i_glide_ecoul>
-6.45495986938477

> <r_i_glide_erotb>
0.493432304359348

> <r_i_glide_esite>
-0.020407516548978

> <r_i_glide_emodel>
-32.0091673074348

> <r_i_glide_energy>
-29.9090347290039

> <r_i_glide_einternal>
5.05820989608765

> <i_i_glide_confnum>
62

> <i_i_glide_posenum>
383

> <r_i_glide_eff_state_penalty>
0

> <s_user_duplicate_titles>
CHEMBL221_lig198

> <i_f3d_flags>
0

> <s_m_subgroup_title>
dock_pv

> <s_m_subgroupid>
dock_pv

> <b_m_subgroup_collapsed>
1

$$$$
CHEMBL221_lig362
                    3D
 Schrodinger Suite 2021-1.
 43 46  0  0  1  0            999 V2000
   20.4703   49.6153   13.3641 C   0  0  0  0  0  0
   19.7579   48.9691   12.4017 C   0  0  0  0  0  0
   20.0206   48.8971    6.3267 S   0  0  0  0  0  0
   21.5588   50.5975   13.1546 C   0  0  0  0  0  0
   18.9211   48.2183   14.4810 C   0  0  0  0  0  0
   22.6679   50.2921   12.3593 C   0  0  0  0  0  0
   20.1230   49.0991   14.7565 C   0  0  0  0  0  0
   18.7203   48.0272   13.0004 C   0  0  0  0  0  0
   20.0369   49.0233    8.1161 C   0  0  0  0  0  0
   19.8618   49.0762   10.9231 C   0  0  0  0  0  0
   17.7230   48.2706   15.4196 C   0  0  0  0  0  0
   18.5974   47.0596   15.4000 C   0  0  0  0  0  0
   23.6837   51.2242   12.1546 C   0  0  0  0  0  0
   21.5160   51.8447   13.7909 C   0  0  0  0  0  0
   20.1230   47.4792    6.0132 O   0  0  0  0  0  0
   20.9230   49.8730    5.7277 O   0  0  0  0  0  0
   19.7847   47.8559    8.8278 C   0  0  0  0  0  0
   20.1230   50.2379    8.8095 C   0  0  0  0  0  0
   19.7230   47.8887   10.2076 C   0  0  0  0  0  0
   20.0909   50.2613   10.2105 C   0  0  0  0  0  0
   23.6192   52.4675   12.7774 C   0  0  0  0  0  0
   22.7690   49.0730   11.8000 F   0  0  0  0  0  0
   22.5361   52.7769   13.5976 C   0  0  0  0  0  0
   18.3303   49.3168    5.8000 C   0  0  0  0  0  0
   24.6144   53.3646   12.6001 F   0  0  0  0  0  0
   20.9230   48.4896   15.1581 H   0  0  0  0  0  0
   19.9173   49.8730   15.4901 H   0  0  0  0  0  0
   17.7045   48.2730   12.6891 H   0  0  0  0  0  0
   18.9131   46.9876   12.7377 H   0  0  0  0  0  0
   17.7567   48.9357   16.2831 H   0  0  0  0  0  0
   16.7216   48.2106   14.9909 H   0  0  0  0  0  0
   18.1992   46.1380   14.9735 H   0  0  0  0  0  0
   19.3023   46.8605   16.2001 H   0  0  0  0  0  0
   24.5273   50.9740   11.5282 H   0  0  0  0  0  0
   20.6895   52.1026   14.4370 H   0  0  0  0  0  0
   19.6650   46.9088    8.3240 H   0  0  0  0  0  0
   20.2387   51.1555    8.2517 H   0  0  0  0  0  0
   19.5992   46.9582   10.7249 H   0  0  0  0  0  0
   20.1876   51.2025   10.7314 H   0  0  0  0  0  0
   22.4989   53.7361   14.0941 H   0  0  0  0  0  0
   18.3258   49.3306    4.7128 H   0  0  0  0  0  0
   18.0176   50.2730    6.2000 H   0  0  0  0  0  0
   17.7230   48.4952    6.1419 H   0  0  0  0  0  0
  1  2  2  0  0  0
  1  4  1  0  0  0
  1  7  1  0  0  0
  2  8  1  0  0  0
  2 10  1  0  0  0
  3  9  1  0  0  0
  3 15  2  0  0  0
  3 16  2  0  0  0
  3 24  1  0  0  0
  4  6  2  0  0  0
  4 14  1  0  0  0
  5  7  1  0  0  0
  5 11  1  0  0  0
  5 12  1  0  0  0
  5  8  1  0  0  0
  6 13  1  0  0  0
  6 22  1  0  0  0
  7 26  1  0  0  0
  7 27  1  0  0  0
  8 28  1  0  0  0
  8 29  1  0  0  0
  9 18  1  0  0  0
  9 17  2  0  0  0
 10 19  2  0  0  0
 10 20  1  0  0  0
 11 12  1  0  0  0
 11 30  1  0  0  0
 11 31  1  0  0  0
 12 32  1  0  0  0
 12 33  1  0  0  0
 13 21  2  0  0  0
 13 34  1  0  0  0
 14 23  2  0  0  0
 14 35  1  0  0  0
 17 19  1  0  0  0
 17 36  1  0  0  0
 18 20  2  0  0  0
 18 37  1  0  0  0
 19 38  1  0  0  0
 20 39  1  0  0  0
 21 23  1  0  0  0
 21 25  1  0  0  0
 23 40  1  0  0  0
 24 41  1  0  0  0
 24 42  1  0  0  0
 24 43  1  0  0  0
M  END
> <s_m_entry_id>
5127

> <s_m_entry_name>
dock_pv.118

> <s_m_Source_Path>
/home/csk/Desktop/cluster/DUD-E-result/pgh1

> <s_m_Source_File>
dock_pv.maegz

> <i_m_Source_File_Index>
118

> <chembl_id>
CHEMBL314297

> <chembl_pref_name>
None

> <i_lp_mmshare_version>
53161

> <r_lp_tautomer_probability>
1

> <s_lp_Force_Field>
OPLS_2005

> <r_lp_Energy>
34.407983

> <b_lp_Chiralities_Consistent>
1

> <s_lp_Variant>
CHEMBL221_lig362-1

> <s_i_glide_gridfile>
glide-grid_2oyu

> <i_i_glide_lignum>
428

> <i_i_glide_rotatable_bonds>
3

> <r_i_docking_score>
-9.36581721225702

> <r_i_glide_ligand_efficiency>
-0.374632688490281

> <r_i_glide_ligand_efficiency_sa>
-1.0954326252846

> <r_i_glide_ligand_efficiency_ln>
-2.21997935019801

> <r_i_glide_gscore>
-9.36581721225702

> <r_i_glide_lipo>
-4.98893692603155

> <r_i_glide_hbond>
0

> <r_i_glide_metal>
0

> <r_i_glide_rewards>
-2.78193457906423

> <r_i_glide_evdw>
-21.1436004638672

> <r_i_glide_ecoul>
-5.45830488204956

> <r_i_glide_erotb>
0.295281462815934

> <r_i_glide_esite>
-0.0143014144763807

> <r_i_glide_emodel>
-31.2804765442987

> <r_i_glide_energy>
-26.6019053459167

> <r_i_glide_einternal>
0.142920434474945

> <i_i_glide_confnum>
1

> <i_i_glide_posenum>
223

> <r_i_glide_eff_state_penalty>
0

> <s_user_duplicate_titles>
CHEMBL221_lig362,144294

> <i_f3d_flags>
0

> <s_m_subgroup_title>
dock_pv

> <s_m_subgroupid>
dock_pv

> <b_m_subgroup_collapsed>
1

$$$$
CHEMBL221_lig373
                    3D
 Schrodinger Suite 2021-1.
 41 43  0  0  1  0            999 V2000
   20.0587   48.9088    6.5412 S   0  0  0  0  0  0
   20.5236   49.5727   13.5823 C   0  0  0  0  0  0
   21.6065   50.5358   13.2234 C   0  0  0  0  0  0
   19.6370   48.9864   12.6411 C   0  0  0  0  0  0
   20.1229   49.0326    8.3410 C   0  0  0  0  0  0
   22.4587   50.3241   12.1365 C   0  0  0  0  0  0
   23.3963   51.2830   11.7681 C   0  0  0  0  0  0
   20.9229   49.8736    5.8755 O   0  0  0  0  0  0
   20.1226   47.4852    6.2007 O   0  0  0  0  0  0
   19.7804   49.0805   11.1471 C   0  0  0  0  0  0
   18.4949   49.4730    6.1612 N   0  0  0  0  0  0
   23.6176   52.4111   12.5621 C   0  0  0  0  0  0
   21.7799   51.7046   13.9776 C   0  0  0  0  0  0
   19.8702   47.8610    9.0461 C   0  0  0  0  0  0
   20.1230   50.2493    9.0350 C   0  0  0  0  0  0
   19.7221   47.8913   10.4235 C   0  0  0  0  0  0
   19.9628   50.2734   10.4291 C   0  0  0  0  0  0
   22.7836   52.6180   13.6681 C   0  0  0  0  0  0
   24.2192   51.0854   10.2715 Cl  0  0  0  0  0  0
   24.6542   53.2504   12.2088 O   0  0  0  0  0  0
   20.3751   49.2584   14.9443 C   0  0  0  0  0  0
   18.5842   48.1945   13.1335 C   0  0  0  0  0  0
   25.0230   54.3167   13.0785 C   0  0  0  0  0  0
   19.3398   48.4496   15.3977 C   0  0  0  0  0  0
   18.4296   47.9284   14.4896 C   0  0  0  0  0  0
   22.3582   49.4378   11.5271 H   0  0  0  0  0  0
   18.3981   50.4817    6.3259 H   0  0  0  0  0  0
   18.2453   49.2937    5.1867 H   0  0  0  0  0  0
   21.1345   51.9123   14.8192 H   0  0  0  0  0  0
   19.7964   46.9108    8.5391 H   0  0  0  0  0  0
   20.2231   51.1672    8.4781 H   0  0  0  0  0  0
   19.5970   46.9649   10.9526 H   0  0  0  0  0  0
   19.9716   51.2214   10.9468 H   0  0  0  0  0  0
   22.8899   53.4921   14.2916 H   0  0  0  0  0  0
   21.0555   49.6714   15.6753 H   0  0  0  0  0  0
   17.8714   47.7593   12.4482 H   0  0  0  0  0  0
   25.8745   54.8514   12.6540 H   0  0  0  0  0  0
   25.3239   53.9433   14.0578 H   0  0  0  0  0  0
   24.2160   55.0384   13.2105 H   0  0  0  0  0  0
   19.2277   48.2529   16.4534 H   0  0  0  0  0  0
   17.6083   47.3162   14.8326 H   0  0  0  0  0  0
  1  5  1  0  0  0
  1  8  2  0  0  0
  1  9  2  0  0  0
  1 11  1  0  0  0
  2  4  1  0  0  0
  2  3  1  0  0  0
  2 21  2  0  0  0
  3  6  1  0  0  0
  3 13  2  0  0  0
  4 10  1  0  0  0
  4 22  2  0  0  0
  5 14  2  0  0  0
  5 15  1  0  0  0
  6  7  2  0  0  0
  6 26  1  0  0  0
  7 19  1  0  0  0
  7 12  1  0  0  0
 10 17  1  0  0  0
 10 16  2  0  0  0
 11 27  1  0  0  0
 11 28  1  0  0  0
 12 18  2  0  0  0
 12 20  1  0  0  0
 13 18  1  0  0  0
 13 29  1  0  0  0
 14 16  1  0  0  0
 14 30  1  0  0  0
 15 17  2  0  0  0
 15 31  1  0  0  0
 16 32  1  0  0  0
 17 33  1  0  0  0
 18 34  1  0  0  0
 20 23  1  0  0  0
 21 24  1  0  0  0
 21 35  1  0  0  0
 22 25  1  0  0  0
 22 36  1  0  0  0
 23 37  1  0  0  0
 23 38  1  0  0  0
 23 39  1  0  0  0
 24 25  2  0  0  0
 24 40  1  0  0  0
 25 41  1  0  0  0
M  END
> <s_m_entry_id>
5128

> <s_m_entry_name>
dock_pv.119

> <s_m_Source_Path>
/home/csk/Desktop/cluster/DUD-E-result/pgh1

> <s_m_Source_File>
dock_pv.maegz

> <i_m_Source_File_Index>
119

> <chembl_id>
CHEMBL54039

> <chembl_pref_name>
None

> <i_lp_mmshare_version>
53161

> <r_lp_tautomer_probability>
1

> <s_lp_Force_Field>
OPLS_2005

> <r_lp_Energy>
32.496225

> <b_lp_Chiralities_Consistent>
1

> <s_lp_Variant>
CHEMBL221_lig373-1

> <s_i_glide_gridfile>
glide-grid_2oyu

> <i_i_glide_lignum>
439

> <i_i_glide_rotatable_bonds>
4

> <r_i_docking_score>
-9.34672041108355

> <r_i_glide_ligand_efficiency>
-0.373868816443342

> <r_i_glide_ligand_efficiency_sa>
-1.09319904987202

> <r_i_glide_ligand_efficiency_ln>
-2.21545283603495

> <r_i_glide_gscore>
-9.34672041108355

> <r_i_glide_lipo>
-5.12708864746651

> <r_i_glide_hbond>
-0.332668038597344

> <r_i_glide_metal>
0

> <r_i_glide_rewards>
-1.69541874959947

> <r_i_glide_evdw>
-29.5711441040039

> <r_i_glide_ecoul>
-6.11558246612549

> <r_i_glide_erotb>
0.276598373518897

> <r_i_glide_esite>
-0.0722487738200974

> <r_i_glide_emodel>
-33.7193630853219

> <r_i_glide_energy>
-35.6867265701294

> <r_i_glide_einternal>
7.63701343536377

> <i_i_glide_confnum>
16

> <i_i_glide_posenum>
51

> <r_i_glide_eff_state_penalty>
0

> <s_user_duplicate_titles>
CHEMBL221_lig373

> <i_f3d_flags>
0

> <s_m_subgroup_title>
dock_pv

> <s_m_subgroupid>
dock_pv

> <b_m_subgroup_collapsed>
1

$$$$
CHEMBL221_lig112
                    3D
 Schrodinger Suite 2021-1.
 38 40  0  0  1  0            999 V2000
   19.7920   49.0369   12.4681 N   0  0  0  0  0  0
   20.5914   49.6806   13.3902 C   0  0  0  0  0  0
   19.1304   48.3887   14.5188 N   0  0  0  0  0  0
   18.9383   48.2730   13.2316 C   0  0  0  0  0  0
   20.0100   48.9535    6.4863 S   0  0  0  0  0  0
   20.1231   49.2511   14.6324 C   0  0  0  0  0  0
   21.7109   50.6023   13.0531 C   0  0  0  0  0  0
   21.7557   51.8890   13.5945 C   0  0  0  0  0  0
   19.8504   49.0846   11.0600 C   0  0  0  0  0  0
   20.1200   49.0595    8.2809 C   0  0  0  0  0  0
   22.8304   52.7312   13.3119 C   0  0  0  0  0  0
   21.3230   49.0730    5.8704 O   0  0  0  0  0  0
   19.0967   47.8730    6.2000 O   0  0  0  0  0  0
   22.7341   50.1787   12.2000 C   0  0  0  0  0  0
   23.8913   52.2730   12.5241 C   0  0  0  0  0  0
   20.1230   50.2730    8.9768 C   0  0  0  0  0  0
   19.8636   47.8756    8.9772 C   0  0  0  0  0  0
   20.0391   50.2864   10.3686 C   0  0  0  0  0  0
   19.7230   47.8923   10.3564 C   0  0  0  0  0  0
   23.8163   51.0114   11.9326 C   0  0  0  0  0  0
   20.7057   49.7388   16.1726 Cl  0  0  0  0  0  0
   22.8355   53.9916   13.8000 F   0  0  0  0  0  0
   19.1124   50.3072    5.8000 C   0  0  0  0  0  0
   25.1336   53.1190   12.3324 C   0  0  0  0  0  0
   18.1902   47.6565   12.7544 H   0  0  0  0  0  0
   20.9589   52.2416   14.2328 H   0  0  0  0  0  0
   22.7100   49.1868   11.7729 H   0  0  0  0  0  0
   20.2173   51.1996    8.4347 H   0  0  0  0  0  0
   19.7728   46.9385    8.4478 H   0  0  0  0  0  0
   20.0914   51.2283   10.8958 H   0  0  0  0  0  0
   19.5820   46.9698   10.8884 H   0  0  0  0  0  0
   24.6180   50.6548   11.3026 H   0  0  0  0  0  0
   19.3226   50.2730    4.7315 H   0  0  0  0  0  0
   18.0548   50.2476    6.0511 H   0  0  0  0  0  0
   19.6382   51.0999    6.2689 H   0  0  0  0  0  0
   25.7059   52.8025   11.4589 H   0  0  0  0  0  0
   25.7686   53.0604   13.2165 H   0  0  0  0  0  0
   24.8658   54.1654   12.2000 H   0  0  0  0  0  0
  1  2  1  0  0  0
  1  4  1  0  0  0
  1  9  1  0  0  0
  2  6  2  0  0  0
  2  7  1  0  0  0
  3  4  2  0  0  0
  3  6  1  0  0  0
  4 25  1  0  0  0
  5 10  1  0  0  0
  5 12  2  0  0  0
  5 13  2  0  0  0
  5 23  1  0  0  0
  6 21  1  0  0  0
  7  8  2  0  0  0
  7 14  1  0  0  0
  8 11  1  0  0  0
  8 26  1  0  0  0
  9 18  1  0  0  0
  9 19  2  0  0  0
 10 17  2  0  0  0
 10 16  1  0  0  0
 11 22  1  0  0  0
 11 15  2  0  0  0
 14 20  2  0  0  0
 14 27  1  0  0  0
 15 20  1  0  0  0
 15 24  1  0  0  0
 16 18  2  0  0  0
 16 28  1  0  0  0
 17 19  1  0  0  0
 17 29  1  0  0  0
 18 30  1  0  0  0
 19 31  1  0  0  0
 20 32  1  0  0  0
 23 33  1  0  0  0
 23 34  1  0  0  0
 23 35  1  0  0  0
 24 36  1  0  0  0
 24 37  1  0  0  0
 24 38  1  0  0  0
M  END
> <s_m_entry_id>
5129

> <s_m_entry_name>
dock_pv.120

> <s_m_Source_Path>
/home/csk/Desktop/cluster/DUD-E-result/pgh1

> <s_m_Source_File>
dock_pv.maegz

> <i_m_Source_File_Index>
120

> <chembl_id>
CHEMBL325298

> <chembl_pref_name>
None

> <i_lp_mmshare_version>
53161

> <r_lp_tautomer_probability>
1

> <s_lp_Force_Field>
OPLS_2005

> <r_lp_Energy>
11.613447

> <b_lp_Chiralities_Consistent>
1

> <s_lp_Variant>
CHEMBL221_lig112-1

> <s_i_glide_gridfile>
glide-grid_2oyu

> <i_i_glide_lignum>
134

> <i_i_glide_rotatable_bonds>
3

> <r_i_docking_score>
-9.34256011445491

> <r_i_glide_ligand_efficiency>
-0.389273338102288

> <r_i_glide_ligand_efficiency_sa>
-1.12285860803081

> <r_i_glide_ligand_efficiency_ln>
-2.23610333753811

> <r_i_glide_gscore>
-9.34256011445491

> <r_i_glide_lipo>
-4.57819815829897

> <r_i_glide_hbond>
0

> <r_i_glide_metal>
0

> <r_i_glide_rewards>
-2.96517068036064

> <r_i_glide_evdw>
-25.9745101928711

> <r_i_glide_ecoul>
-4.74802732467651

> <r_i_glide_erotb>
0.288953270169459

> <r_i_glide_esite>
-0.0772149376197346

> <r_i_glide_emodel>
-36.508822943403

> <r_i_glide_energy>
-30.7225375175476

> <r_i_glide_einternal>
1.66448974609375

> <i_i_glide_confnum>
2

> <i_i_glide_posenum>
218

> <r_i_glide_eff_state_penalty>
0

> <s_user_duplicate_titles>
CHEMBL221_lig112

> <i_f3d_flags>
0

> <s_m_subgroup_title>
dock_pv

> <s_m_subgroupid>
dock_pv

> <b_m_subgroup_collapsed>
1

$$$$
CHEMBL221_lig107
                    3D
 Schrodinger Suite 2021-1.
 42 44  0  0  1  0            999 V2000
   19.7057   48.9578   12.4549 N   0  0  0  0  0  0
   20.5230   49.5180   13.4080 C   0  0  0  0  0  0
   18.9821   48.2730   14.4721 N   0  0  0  0  0  0
   18.8052   48.2110   13.1784 C   0  0  0  0  0  0
   20.0109   48.9568    6.4835 S   0  0  0  0  0  0
   20.0198   49.0730   14.6306 C   0  0  0  0  0  0
   21.6672   50.3967   13.0766 C   0  0  0  0  0  0
   21.7287   51.6879   13.5992 C   0  0  0  0  0  0
   19.8012   49.0526   11.0514 C   0  0  0  0  0  0
   20.1230   49.0676    8.2777 C   0  0  0  0  0  0
   22.7886   52.5393   13.2570 C   0  0  0  0  0  0
   21.3230   49.0730    5.8654 O   0  0  0  0  0  0
   19.0995   47.8730    6.2000 O   0  0  0  0  0  0
   22.6583   49.9443   12.2022 C   0  0  0  0  0  0
   23.8053   52.0469   12.4264 C   0  0  0  0  0  0
   20.1230   50.2729    8.9918 C   0  0  0  0  0  0
   19.8776   47.8736    8.9553 C   0  0  0  0  0  0
   20.0018   50.2678   10.3838 C   0  0  0  0  0  0
   19.7230   47.8730   10.3297 C   0  0  0  0  0  0
   23.7271   50.7669   11.8816 C   0  0  0  0  0  0
   20.5934   49.4828   16.1962 Cl  0  0  0  0  0  0
   19.1119   50.3084    5.8000 C   0  0  0  0  0  0
   22.8911   53.8526   13.6757 O   0  0  0  0  0  0
   24.9908   52.9164   12.0892 C   0  0  0  0  0  0
   21.8286   54.4465   14.4084 C   0  0  0  0  0  0
   18.0380   47.6483   12.6671 H   0  0  0  0  0  0
   20.9341   52.0228   14.2483 H   0  0  0  0  0  0
   22.6131   48.9458   11.7931 H   0  0  0  0  0  0
   20.2225   51.2057    8.4614 H   0  0  0  0  0  0
   19.8084   46.9398    8.4166 H   0  0  0  0  0  0
   20.0377   51.2004   10.9288 H   0  0  0  0  0  0
   19.6002   46.9385   10.8461 H   0  0  0  0  0  0
   24.5071   50.4017   11.2289 H   0  0  0  0  0  0
   19.3230   50.2730    4.7316 H   0  0  0  0  0  0
   18.0547   50.2441    6.0511 H   0  0  0  0  0  0
   19.6373   51.1005    6.2717 H   0  0  0  0  0  0
   25.5805   52.5346   11.2544 H   0  0  0  0  0  0
   25.6285   53.0729   12.9598 H   0  0  0  0  0  0
   24.5768   53.8730   11.8000 H   0  0  0  0  0  0
   22.1129   55.4632   14.6796 H   0  0  0  0  0  0
   20.9240   54.5021   13.8000 H   0  0  0  0  0  0
   21.6212   53.9098   15.3351 H   0  0  0  0  0  0
  1  2  1  0  0  0
  1  4  1  0  0  0
  1  9  1  0  0  0
  2  6  2  0  0  0
  2  7  1  0  0  0
  3  4  2  0  0  0
  3  6  1  0  0  0
  4 26  1  0  0  0
  5 10  1  0  0  0
  5 12  2  0  0  0
  5 13  2  0  0  0
  5 22  1  0  0  0
  6 21  1  0  0  0
  7  8  2  0  0  0
  7 14  1  0  0  0
  8 11  1  0  0  0
  8 27  1  0  0  0
  9 18  1  0  0  0
  9 19  2  0  0  0
 10 17  2  0  0  0
 10 16  1  0  0  0
 11 23  1  0  0  0
 11 15  2  0  0  0
 14 20  2  0  0  0
 14 28  1  0  0  0
 15 20  1  0  0  0
 15 24  1  0  0  0
 16 18  2  0  0  0
 16 29  1  0  0  0
 17 19  1  0  0  0
 17 30  1  0  0  0
 18 31  1  0  0  0
 19 32  1  0  0  0
 20 33  1  0  0  0
 22 34  1  0  0  0
 22 35  1  0  0  0
 22 36  1  0  0  0
 23 25  1  0  0  0
 24 37  1  0  0  0
 24 38  1  0  0  0
 24 39  1  0  0  0
 25 40  1  0  0  0
 25 41  1  0  0  0
 25 42  1  0  0  0
M  END
> <s_m_entry_id>
5130

> <s_m_entry_name>
dock_pv.121

> <s_m_Source_Path>
/home/csk/Desktop/cluster/DUD-E-result/pgh1

> <s_m_Source_File>
dock_pv.maegz

> <i_m_Source_File_Index>
121

> <chembl_id>
CHEMBL326097

> <chembl_pref_name>
None

> <i_lp_mmshare_version>
53161

> <r_lp_tautomer_probability>
1

> <s_lp_Force_Field>
OPLS_2005

> <r_lp_Energy>
15.259924

> <b_lp_Chiralities_Consistent>
1

> <s_lp_Variant>
CHEMBL221_lig107-1

> <s_i_glide_gridfile>
glide-grid_2oyu

> <i_i_glide_lignum>
128

> <i_i_glide_rotatable_bonds>
4

> <r_i_docking_score>
-9.3327121469766

> <r_i_glide_ligand_efficiency>
-0.373308485879064

> <r_i_glide_ligand_efficiency_sa>
-1.09156063336457

> <r_i_glide_ligand_efficiency_ln>
-2.2121324576478

> <r_i_glide_gscore>
-9.3327121469766

> <r_i_glide_lipo>
-4.59923303811224

> <r_i_glide_hbond>
0

> <r_i_glide_metal>
0

> <r_i_glide_rewards>
-2.80144034896773

> <r_i_glide_evdw>
-27.8047504425049

> <r_i_glide_ecoul>
-4.9542384147644

> <r_i_glide_erotb>
0.272665076177145

> <r_i_glide_esite>
-0.0713305517338644

> <r_i_glide_emodel>
-39.4944155238034

> <r_i_glide_energy>
-32.7589888572693

> <r_i_glide_einternal>
2.41326260566711

> <i_i_glide_confnum>
15

> <i_i_glide_posenum>
98

> <r_i_glide_eff_state_penalty>
0

> <s_user_duplicate_titles>
CHEMBL221_lig107

> <i_f3d_flags>
0

> <s_m_subgroup_title>
dock_pv

> <s_m_subgroupid>
dock_pv

> <b_m_subgroup_collapsed>
1

$$$$
CHEMBL221_lig330
                    3D
 Schrodinger Suite 2021-1.
 42 44  0  0  1  0            999 V2000
   23.9368   52.3293   12.4562 C   0  0  0  0  0  0
   23.7826   51.1526   11.7261 C   0  0  0  0  0  0
   22.6989   50.3131   11.9602 C   0  0  0  0  0  0
   21.7402   50.6491   12.9209 C   0  0  0  0  0  0
   21.8752   51.8453   13.6292 C   0  0  0  0  0  0
   22.9627   52.6802   13.4000 C   0  0  0  0  0  0
   20.5935   49.7626   13.2113 C   0  0  0  0  0  0
   20.2734   49.3763   14.6447 C   0  0  0  0  0  0
   19.0297   48.5056   14.5198 C   0  0  0  0  0  0
   18.8591   48.1462   13.0481 C   0  0  0  0  0  0
   19.8498   49.0517   12.3290 C   0  0  0  0  0  0
   19.9068   49.0930   10.8447 C   0  0  0  0  0  0
   20.1230   50.2730   10.1248 C   0  0  0  0  0  0
   20.1230   50.2538    8.7294 C   0  0  0  0  0  0
   20.0265   49.0436    8.0357 C   0  0  0  0  0  0
   19.7696   47.8730    8.7478 C   0  0  0  0  0  0
   19.7230   47.9070   10.1356 C   0  0  0  0  0  0
   25.0703   53.0730   12.2002 O   0  0  0  0  0  0
   25.3498   54.2127   13.0110 C   0  0  0  0  0  0
   20.0022   48.9824    6.2457 S   0  0  0  0  0  0
   20.9230   49.9611    5.6849 O   0  0  0  0  0  0
   18.4162   49.4730    5.8000 N   0  0  0  0  0  0
   20.1230   47.5844    5.8655 O   0  0  0  0  0  0
   24.5230   50.8768   10.9895 H   0  0  0  0  0  0
   22.6155   49.3925   11.4017 H   0  0  0  0  0  0
   21.1417   52.1343   14.3678 H   0  0  0  0  0  0
   23.0388   53.5864   13.9814 H   0  0  0  0  0  0
   21.0959   48.7941   15.0547 H   0  0  0  0  0  0
   20.1230   50.2233   15.3124 H   0  0  0  0  0  0
   19.0866   47.6197   15.1541 H   0  0  0  0  0  0
   18.1569   49.0653   14.8600 H   0  0  0  0  0  0
   17.8290   48.2730   12.7121 H   0  0  0  0  0  0
   19.1294   47.1013   12.8924 H   0  0  0  0  0  0
   20.2345   51.2162   10.6396 H   0  0  0  0  0  0
   20.2310   51.1765    8.1781 H   0  0  0  0  0  0
   19.6226   46.9352    8.2335 H   0  0  0  0  0  0
   19.5613   46.9953   10.6758 H   0  0  0  0  0  0
   26.2462   54.7111   12.6431 H   0  0  0  0  0  0
   25.5355   53.9182   14.0439 H   0  0  0  0  0  0
   24.5435   54.9472   13.0000 H   0  0  0  0  0  0
   18.2720   50.4813    5.9181 H   0  0  0  0  0  0
   18.1957   49.2413    4.8284 H   0  0  0  0  0  0
  1  6  1  0  0  0
  1  2  2  0  0  0
  1 18  1  0  0  0
  2  3  1  0  0  0
  2 24  1  0  0  0
  3  4  2  0  0  0
  3 25  1  0  0  0
  4  7  1  0  0  0
  4  5  1  0  0  0
  5  6  2  0  0  0
  5 26  1  0  0  0
  6 27  1  0  0  0
  7 11  2  0  0  0
  7  8  1  0  0  0
  8  9  1  0  0  0
  8 28  1  0  0  0
  8 29  1  0  0  0
  9 10  1  0  0  0
  9 30  1  0  0  0
  9 31  1  0  0  0
 10 11  1  0  0  0
 10 32  1  0  0  0
 10 33  1  0  0  0
 11 12  1  0  0  0
 12 13  2  0  0  0
 12 17  1  0  0  0
 13 14  1  0  0  0
 13 34  1  0  0  0
 14 15  2  0  0  0
 14 35  1  0  0  0
 15 16  1  0  0  0
 15 20  1  0  0  0
 16 17  2  0  0  0
 16 36  1  0  0  0
 17 37  1  0  0  0
 18 19  1  0  0  0
 19 38  1  0  0  0
 19 39  1  0  0  0
 19 40  1  0  0  0
 20 21  2  0  0  0
 20 22  1  0  0  0
 20 23  2  0  0  0
 22 41  1  0  0  0
 22 42  1  0  0  0
M  END
> <s_m_entry_id>
5131

> <s_m_entry_name>
dock_pv.122

> <s_m_Source_Path>
/home/csk/Desktop/cluster/DUD-E-result/pgh1

> <s_m_Source_File>
dock_pv.maegz

> <i_m_Source_File_Index>
122

> <chembl_id>
CHEMBL111562

> <chembl_pref_name>
None

> <i_lp_mmshare_version>
53161

> <r_lp_tautomer_probability>
1

> <s_lp_Force_Field>
OPLS_2005

> <r_lp_Energy>
38.780449

> <b_lp_Chiralities_Consistent>
1

> <s_lp_Variant>
CHEMBL221_lig330-1

> <s_i_glide_gridfile>
glide-grid_2oyu

> <i_i_glide_lignum>
395

> <i_i_glide_rotatable_bonds>
4

> <r_i_docking_score>
-9.32834999041095

> <r_i_glide_ligand_efficiency>
-0.405580434365693

> <r_i_glide_ligand_efficiency_sa>
-1.15341680376094

> <r_i_glide_ligand_efficiency_ln>
-2.25567961248256

> <r_i_glide_gscore>
-9.32834999041095

> <r_i_glide_lipo>
-4.91266746247803

> <r_i_glide_hbond>
-0.289019128711389

> <r_i_glide_metal>
0

> <r_i_glide_rewards>
-2.11531233457904

> <r_i_glide_evdw>
-25.6381378173828

> <r_i_glide_ecoul>
-6.68217992782593

> <r_i_glide_erotb>
0.346399286860675

> <r_i_glide_esite>
-0.07351647146014

> <r_i_glide_emodel>
-41.506273450535

> <r_i_glide_energy>
-32.3203177452087

> <r_i_glide_einternal>
4.49241590499878

> <i_i_glide_confnum>
16

> <i_i_glide_posenum>
110

> <r_i_glide_eff_state_penalty>
0

> <s_user_duplicate_titles>
CHEMBL221_lig330,180765

> <i_f3d_flags>
0

> <s_m_subgroup_title>
dock_pv

> <s_m_subgroupid>
dock_pv

> <b_m_subgroup_collapsed>
1

$$$$
CHEMBL221_lig741
                    3D
 Schrodinger Suite 2021-1.
 38 40  0  0  1  0            999 V2000
   19.5163   47.8472    7.9650 C   0  0  0  0  0  0
   19.3230   47.5248    9.3394 O   0  0  0  0  0  0
   19.7056   48.3998   10.3371 C   0  0  0  0  0  0
   20.2490   49.6688   10.1290 C   0  0  0  0  0  0
   20.5985   50.5001   11.1891 C   0  0  0  0  0  0
   20.4977   49.9747   12.4909 C   0  0  0  0  0  0
   19.8799   48.7231   12.7350 C   0  0  0  0  0  0
   19.4510   47.9787   11.6390 C   0  0  0  0  0  0
   19.8269   48.5147   14.1533 C   0  0  0  0  0  0
   19.1584   47.3726   14.8918 C   0  0  0  0  0  0
   17.7241   47.7251   15.2879 C   0  0  0  0  0  0
   17.3570   47.8730   16.4495 O   0  0  0  0  0  0
   16.9230   47.8730   14.2000 O   0  0  0  0  0  0
   20.5230   49.5722   14.6943 C   0  0  0  0  0  0
   20.9365   50.4568   13.7207 N   0  0  0  0  0  0
   21.6994   51.6137   14.0349 C   0  0  0  0  0  0
   21.3927   52.3022   15.0061 O   0  0  0  0  0  0
   22.8969   51.9323   13.1749 C   0  0  0  0  0  0
   23.5930   53.1381   13.3292 C   0  0  0  0  0  0
   24.7453   53.3758   12.5819 C   0  0  0  0  0  0
   25.0882   52.4860   11.5559 C   0  0  0  0  0  0
   26.5230   52.6730   10.6043 Cl  0  0  0  0  0  0
   24.3339   51.3494   11.3383 C   0  0  0  0  0  0
   23.3435   51.0129   12.2219 C   0  0  0  0  0  0
   18.8311   47.2413    7.3728 H   0  0  0  0  0  0
   20.5230   47.5907    7.6490 H   0  0  0  0  0  0
   19.3230   48.8853    7.7019 H   0  0  0  0  0  0
   20.4013   50.0458    9.1310 H   0  0  0  0  0  0
   21.0226   51.4730   10.9924 H   0  0  0  0  0  0
   18.9230   47.0730   11.8152 H   0  0  0  0  0  0
   19.1356   46.4615   14.2946 H   0  0  0  0  0  0
   19.7063   47.1279   15.8000 H   0  0  0  0  0  0
   16.0388   48.1290   14.4701 H   0  0  0  0  0  0
   20.7394   49.7803   15.7345 H   0  0  0  0  0  0
   23.2600   53.8857   14.0348 H   0  0  0  0  0  0
   25.3309   54.2669   12.7566 H   0  0  0  0  0  0
   24.5230   50.6730   10.5266 H   0  0  0  0  0  0
   22.9250   50.0283   12.0981 H   0  0  0  0  0  0
  1  2  1  0  0  0
  1 25  1  0  0  0
  1 26  1  0  0  0
  1 27  1  0  0  0
  2  3  1  0  0  0
  3  4  2  0  0  0
  3  8  1  0  0  0
  4  5  1  0  0  0
  4 28  1  0  0  0
  5  6  2  0  0  0
  5 29  1  0  0  0
  6  7  1  0  0  0
  6 15  1  0  0  0
  7  8  2  0  0  0
  7  9  1  0  0  0
  8 30  1  0  0  0
  9 10  1  0  0  0
  9 14  2  0  0  0
 10 11  1  0  0  0
 10 31  1  0  0  0
 10 32  1  0  0  0
 11 12  2  0  0  0
 11 13  1  0  0  0
 13 33  1  0  0  0
 14 15  1  0  0  0
 14 34  1  0  0  0
 15 16  1  0  0  0
 16 17  2  0  0  0
 16 18  1  0  0  0
 18 19  2  0  0  0
 18 24  1  0  0  0
 19 20  1  0  0  0
 19 35  1  0  0  0
 20 21  2  0  0  0
 20 36  1  0  0  0
 21 22  1  0  0  0
 21 23  1  0  0  0
 23 24  2  0  0  0
 23 37  1  0  0  0
 24 38  1  0  0  0
M  END
> <s_m_entry_id>
5132

> <s_m_entry_name>
dock_pv.123

> <s_m_Source_Path>
/home/csk/Desktop/cluster/DUD-E-result/pgh1

> <s_m_Source_File>
dock_pv.maegz

> <i_m_Source_File_Index>
123

> <chembl_id>
CHEMBL503179

> <chembl_pref_name>
None

> <i_lp_mmshare_version>
53161

> <r_lp_tautomer_probability>
1

> <s_lp_Force_Field>
OPLS_2005

> <r_lp_Energy>
21.732472

> <b_lp_Chiralities_Consistent>
1

> <s_lp_Variant>
CHEMBL221_lig741-1

> <s_i_glide_gridfile>
glide-grid_2oyu

> <i_i_glide_lignum>
910

> <i_i_glide_rotatable_bonds>
6

> <r_i_docking_score>
-9.311486039681

> <r_i_glide_ligand_efficiency>
-0.387978584986708

> <r_i_glide_ligand_efficiency_sa>
-1.11912389378557

> <r_i_glide_ligand_efficiency_ln>
-2.22866588554833

> <r_i_glide_gscore>
-9.311486039681

> <r_i_glide_lipo>
-4.5305517223287

> <r_i_glide_hbond>
0

> <r_i_glide_metal>
0

> <r_i_glide_rewards>
-3.02697048914152

> <r_i_glide_evdw>
-40.6767768859863

> <r_i_glide_ecoul>
-2.41698455810547

> <r_i_glide_erotb>
0.642422699804353

> <r_i_glide_esite>
0

> <r_i_glide_emodel>
-50.735485238225

> <r_i_glide_energy>
-43.0937614440918

> <r_i_glide_einternal>
16.1950550079346

> <i_i_glide_confnum>
15

> <i_i_glide_posenum>
167

> <r_i_glide_eff_state_penalty>
0

> <s_user_duplicate_titles>
CHEMBL221_lig741

> <i_f3d_flags>
0

> <s_m_subgroup_title>
dock_pv

> <s_m_subgroupid>
dock_pv

> <b_m_subgroup_collapsed>
1

$$$$
CHEMBL221_lig495
                    3D
 Schrodinger Suite 2021-1.
 38 40  0  0  1  0            999 V2000
   20.0446   48.9615    6.4496 S   0  0  0  0  0  0
   20.5522   49.5565   13.4732 C   0  0  0  0  0  0
   20.4294   49.3782   14.8197 N   0  0  0  0  0  0
   19.6534   48.9863   12.5463 C   0  0  0  0  0  0
   21.7152   50.3962   13.0935 C   0  0  0  0  0  0
   20.1230   49.0558    8.2567 C   0  0  0  0  0  0
   22.9701   52.4470   13.4039 N   0  0  0  0  0  0
   20.9230   49.9208    5.8000 O   0  0  0  0  0  0
   20.1230   47.5507    6.0968 O   0  0  0  0  0  0
   19.8042   49.0741   11.0600 C   0  0  0  0  0  0
   18.5842   48.2451   13.0771 C   0  0  0  0  0  0
   18.4705   49.4730    6.0224 N   0  0  0  0  0  0
   21.9271   51.6396   13.7029 C   0  0  0  0  0  0
   20.1230   50.2651    8.9640 C   0  0  0  0  0  0
   19.8773   47.8730    8.9542 C   0  0  0  0  0  0
   22.6425   49.9839   12.1269 C   0  0  0  0  0  0
   19.7230   47.8915   10.3314 C   0  0  0  0  0  0
   20.0064   50.2730   10.3602 C   0  0  0  0  0  0
   19.3982   48.6365   15.2885 C   0  0  0  0  0  0
   23.8501   52.0156   12.4697 C   0  0  0  0  0  0
   18.4494   48.0614   14.4509 C   0  0  0  0  0  0
   23.7230   50.8005   11.8000 C   0  0  0  0  0  0
   17.1398   47.1405   15.0937 Cl  0  0  0  0  0  0
   24.9845   52.9593   12.1810 C   0  0  0  0  0  0
   17.8533   47.7990   12.4183 H   0  0  0  0  0  0
   18.3736   50.4927    6.0782 H   0  0  0  0  0  0
   18.1925   49.1772    5.0841 H   0  0  0  0  0  0
   21.2458   52.0141   14.4535 H   0  0  0  0  0  0
   20.2144   51.1900    8.4161 H   0  0  0  0  0  0
   19.7965   46.9297    8.4353 H   0  0  0  0  0  0
   22.5290   49.0309   11.6324 H   0  0  0  0  0  0
   19.5814   46.9659   10.8568 H   0  0  0  0  0  0
   20.0358   51.2131   10.8917 H   0  0  0  0  0  0
   19.3324   48.5209   16.3594 H   0  0  0  0  0  0
   24.4458   50.4965   11.0569 H   0  0  0  0  0  0
   25.6537   52.5839   11.4053 H   0  0  0  0  0  0
   24.5230   53.8730   11.8279 H   0  0  0  0  0  0
   25.5635   53.1733   13.0802 H   0  0  0  0  0  0
  1  6  1  0  0  0
  1  8  2  0  0  0
  1  9  2  0  0  0
  1 12  1  0  0  0
  2  4  1  0  0  0
  2  3  2  0  0  0
  2  5  1  0  0  0
  3 19  1  0  0  0
  4 10  1  0  0  0
  4 11  2  0  0  0
  5 13  2  0  0  0
  5 16  1  0  0  0
  6 14  2  0  0  0
  6 15  1  0  0  0
  7 13  1  0  0  0
  7 20  2  0  0  0
 10 17  1  0  0  0
 10 18  2  0  0  0
 11 21  1  0  0  0
 11 25  1  0  0  0
 12 26  1  0  0  0
 12 27  1  0  0  0
 13 28  1  0  0  0
 14 18  1  0  0  0
 14 29  1  0  0  0
 15 17  2  0  0  0
 15 30  1  0  0  0
 16 22  2  0  0  0
 16 31  1  0  0  0
 17 32  1  0  0  0
 18 33  1  0  0  0
 19 21  2  0  0  0
 19 34  1  0  0  0
 20 22  1  0  0  0
 20 24  1  0  0  0
 21 23  1  0  0  0
 22 35  1  0  0  0
 24 36  1  0  0  0
 24 37  1  0  0  0
 24 38  1  0  0  0
M  END
> <s_m_entry_id>
5133

> <s_m_entry_name>
dock_pv.124

> <s_m_Source_Path>
/home/csk/Desktop/cluster/DUD-E-result/pgh1

> <s_m_Source_File>
dock_pv.maegz

> <i_m_Source_File_Index>
124

> <chembl_id>
CHEMBL420628

> <chembl_pref_name>
None

> <i_lp_mmshare_version>
53161

> <r_lp_tautomer_probability>
1

> <s_lp_Force_Field>
OPLS_2005

> <r_lp_Energy>
26.579136

> <b_lp_Chiralities_Consistent>
1

> <s_lp_Variant>
CHEMBL221_lig495-1

> <s_i_glide_gridfile>
glide-grid_2oyu

> <i_i_glide_lignum>
629

> <i_i_glide_rotatable_bonds>
3

> <r_i_docking_score>
-9.31125201872597

> <r_i_glide_ligand_efficiency>
-0.387968834113582

> <r_i_glide_ligand_efficiency_sa>
-1.11909576740044

> <r_i_glide_ligand_efficiency_ln>
-2.22860987359527

> <r_i_glide_gscore>
-9.31125201872597

> <r_i_glide_lipo>
-4.95518949539195

> <r_i_glide_hbond>
-0.27508824535838

> <r_i_glide_metal>
0

> <r_i_glide_rewards>
-2.11753076894976

> <r_i_glide_evdw>
-28.5411853790283

> <r_i_glide_ecoul>
-5.06565093994141

> <r_i_glide_erotb>
0.296141989306077

> <r_i_glide_esite>
-0.0726785883893309

> <r_i_glide_emodel>
-41.350478136686

> <r_i_glide_energy>
-33.6068363189697

> <r_i_glide_einternal>
1.75151085853577

> <i_i_glide_confnum>
11

> <i_i_glide_posenum>
25

> <r_i_glide_eff_state_penalty>
0

> <s_user_duplicate_titles>
CHEMBL221_lig495,153510

> <i_f3d_flags>
0

> <s_m_subgroup_title>
dock_pv

> <s_m_subgroupid>
dock_pv

> <b_m_subgroup_collapsed>
1

$$$$
CHEMBL221_lig593
                    3D
 Schrodinger Suite 2021-1.
 40 42  0  0  1  0            999 V2000
   19.3186   48.0763   13.4354 C   0  0  1  0  0  0
   20.5230   49.4727   14.7112 C   0  0  0  0  0  0
   19.6502   48.4606   14.7200 O   0  0  0  0  0  0
   20.0400   49.0553   12.5185 C   0  0  0  0  0  0
   20.7610   49.8633   13.3228 C   0  0  0  0  0  0
   20.0139   48.8964    6.3935 S   0  0  0  0  0  0
   20.0114   49.0228    8.1896 C   0  0  0  0  0  0
   19.7219   46.7864   13.2039 O   0  0  0  0  0  0
   19.9511   49.0953   11.0198 C   0  0  0  0  0  0
   21.7993   50.8599   12.9730 C   0  0  0  0  0  0
   20.9961   49.9696   15.7319 O   0  0  0  0  0  0
   20.1229   47.4748    6.0975 O   0  0  0  0  0  0
   20.9231   49.8723    5.8005 O   0  0  0  0  0  0
   20.1230   50.2387    8.8719 C   0  0  0  0  0  0
   19.7302   47.8725    8.9241 C   0  0  0  0  0  0
   20.1238   50.2709   10.2719 C   0  0  0  0  0  0
   19.7229   47.9148   10.3119 C   0  0  0  0  0  0
   21.8068   52.1185   13.5841 C   0  0  0  0  0  0
   22.8392   50.5129   12.1018 C   0  0  0  0  0  0
   17.7982   48.0982   13.3973 C   0  0  0  0  0  0
   18.3455   49.3235    5.7995 C   0  0  0  0  0  0
   23.9596   52.5771   12.6172 C   0  0  0  0  0  0
   23.9188   51.3728   11.9190 C   0  0  0  0  0  0
   22.8843   52.9779   13.4009 C   0  0  0  0  0  0
   25.3870   53.5394   12.6000 Cl  0  0  0  0  0  0
   20.2465   51.1497    8.3056 H   0  0  0  0  0  0
   19.5677   46.9273    8.4280 H   0  0  0  0  0  0
   20.2605   51.2201   10.7688 H   0  0  0  0  0  0
   19.5817   46.9903   10.8275 H   0  0  0  0  0  0
   21.0108   52.4080   14.2553 H   0  0  0  0  0  0
   22.8474   49.5465   11.6188 H   0  0  0  0  0  0
   17.3824   47.3702   14.0961 H   0  0  0  0  0  0
   17.4163   49.0730   13.6730 H   0  0  0  0  0  0
   17.4409   47.8729   12.3943 H   0  0  0  0  0  0
   18.4012   49.3773    4.7145 H   0  0  0  0  0  0
   18.0068   50.2712    6.1997 H   0  0  0  0  0  0
   17.7230   48.4889    6.0765 H   0  0  0  0  0  0
   24.7506   51.0742   11.2969 H   0  0  0  0  0  0
   22.9209   53.9171   13.9346 H   0  0  0  0  0  0
   19.0566   46.3781   12.6415 H   0  0  0  0  0  0
  1  3  1  0  0  0
  1  4  1  0  0  0
  1  8  1  0  0  0
  1 20  1  0  0  0
  2  3  1  0  0  0
  2 11  2  0  0  0
  2  5  1  0  0  0
  4  5  2  0  0  0
  4  9  1  0  0  0
  5 10  1  0  0  0
  6  7  1  0  0  0
  6 12  2  0  0  0
  6 13  2  0  0  0
  6 21  1  0  0  0
  7 15  2  0  0  0
  7 14  1  0  0  0
  8 40  1  0  0  0
  9 16  1  0  0  0
  9 17  2  0  0  0
 10 18  1  0  0  0
 10 19  2  0  0  0
 14 16  2  0  0  0
 14 26  1  0  0  0
 15 17  1  0  0  0
 15 27  1  0  0  0
 16 28  1  0  0  0
 17 29  1  0  0  0
 18 24  2  0  0  0
 18 30  1  0  0  0
 19 23  1  0  0  0
 19 31  1  0  0  0
 20 32  1  0  0  0
 20 33  1  0  0  0
 20 34  1  0  0  0
 21 35  1  0  0  0
 21 36  1  0  0  0
 21 37  1  0  0  0
 22 23  2  0  0  0
 22 25  1  0  0  0
 22 24  1  0  0  0
 23 38  1  0  0  0
 24 39  1  0  0  0
M  END
> <s_m_entry_id>
5134

> <s_m_entry_name>
dock_pv.125

> <s_m_Source_Path>
/home/csk/Desktop/cluster/DUD-E-result/pgh1

> <s_m_Source_File>
dock_pv.maegz

> <i_m_Source_File_Index>
125

> <chembl_id>
CHEMBL381680

> <chembl_pref_name>
None

> <i_lp_mmshare_version>
53161

> <r_lp_tautomer_probability>
1

> <s_lp_Force_Field>
OPLS_2005

> <r_lp_Energy>
12.599015

> <b_lp_Chiralities_Consistent>
1

> <s_lp_Variant>
CHEMBL221_lig593-2

> <s_i_glide_gridfile>
glide-grid_2oyu

> <i_i_glide_lignum>
732

> <i_i_glide_rotatable_bonds>
4

> <r_i_docking_score>
-9.30858107690505

> <r_i_glide_ligand_efficiency>
-0.372343243076202

> <r_i_glide_ligand_efficiency_sa>
-1.08873824629035

> <r_i_glide_ligand_efficiency_ln>
-2.20641267089103

> <r_i_glide_gscore>
-9.30858107690505

> <r_i_glide_lipo>
-4.29293735749244

> <r_i_glide_hbond>
0

> <r_i_glide_metal>
0

> <r_i_glide_rewards>
-2.70293948919133

> <r_i_glide_evdw>
-25.7760009765625

> <r_i_glide_ecoul>
-8.54212760925293

> <r_i_glide_erotb>
0.270131793842846

> <r_i_glide_esite>
-0.0127168338480579

> <r_i_glide_emodel>
-40.4005106040786

> <r_i_glide_energy>
-34.3181285858154

> <r_i_glide_einternal>
1.40621888637543

> <i_i_glide_confnum>
13

> <i_i_glide_posenum>
289

> <r_i_glide_eff_state_penalty>
0

> <s_user_duplicate_titles>
CHEMBL221_lig593

> <i_f3d_flags>
0

> <s_m_subgroup_title>
dock_pv

> <s_m_subgroupid>
dock_pv

> <b_m_subgroup_collapsed>
1

$$$$
CHEMBL221_lig646
                    3D
 Schrodinger Suite 2021-1.
 42 44  0  0  1  0            999 V2000
   22.9077   51.8031   13.1296 C   0  0  0  0  0  0
   21.6843   51.4714   13.9485 C   0  0  0  0  0  0
   20.9093   50.3208   13.5819 N   0  0  0  0  0  0
   20.4258   49.3914   14.5043 C   0  0  0  0  0  0
   19.7616   48.3683   13.8458 C   0  0  0  0  0  0
   20.4828   49.9266   12.3104 C   0  0  0  0  0  0
   19.8520   48.6692   12.4543 C   0  0  0  0  0  0
   19.4495   47.9903   11.3056 C   0  0  0  0  0  0
   19.7230   48.4924   10.0407 C   0  0  0  0  0  0
   20.2697   49.7710    9.9209 C   0  0  0  0  0  0
   20.6108   50.5295   11.0415 C   0  0  0  0  0  0
   20.6605   49.5288   15.9972 C   0  0  0  0  0  0
   19.3385   47.6823    8.9900 O   0  0  0  0  0  0
   19.0878   47.1403   14.4416 C   0  0  0  0  0  0
   19.4874   48.1212    7.6434 C   0  0  0  0  0  0
   17.5953   47.3560   14.7504 C   0  0  0  0  0  0
   17.4271   48.2728   15.8123 O   0  0  0  0  0  0
   23.6205   52.9881   13.3610 C   0  0  0  0  0  0
   24.7509   53.2812   12.5997 C   0  0  0  0  0  0
   25.0901   52.4412   11.5348 C   0  0  0  0  0  0
   24.3541   51.3054   11.2735 C   0  0  0  0  0  0
   23.3536   50.9288   12.1334 C   0  0  0  0  0  0
   21.3602   52.1587   14.9194 O   0  0  0  0  0  0
   26.5229   52.6730   10.6001 Cl  0  0  0  0  0  0
   18.9149   47.0731   11.3988 H   0  0  0  0  0  0
   20.4233   50.2034    8.9441 H   0  0  0  0  0  0
   21.0421   51.5103   10.9131 H   0  0  0  0  0  0
   20.2981   48.6731   16.5602 H   0  0  0  0  0  0
   21.7227   49.6291   16.2072 H   0  0  0  0  0  0
   20.1567   50.3992   16.4170 H   0  0  0  0  0  0
   19.1795   46.3027   13.7501 H   0  0  0  0  0  0
   19.5961   46.8079   15.3471 H   0  0  0  0  0  0
   19.1168   47.3285    6.9982 H   0  0  0  0  0  0
   18.9230   49.0192    7.3999 H   0  0  0  0  0  0
   20.5225   48.2999    7.3787 H   0  0  0  0  0  0
   17.0759   47.7404   13.8709 H   0  0  0  0  0  0
   17.1145   46.4109   15.0049 H   0  0  0  0  0  0
   16.4887   48.4459   15.9213 H   0  0  0  0  0  0
   23.3211   53.6715   14.1449 H   0  0  0  0  0  0
   25.3368   54.1643   12.8106 H   0  0  0  0  0  0
   24.5944   50.6727   10.4390 H   0  0  0  0  0  0
   22.9259   49.9555   11.9593 H   0  0  0  0  0  0
  1  2  1  0  0  0
  1 18  1  0  0  0
  1 22  2  0  0  0
  2  3  1  0  0  0
  2 23  2  0  0  0
  3  6  1  0  0  0
  3  4  1  0  0  0
  4 12  1  0  0  0
  4  5  2  0  0  0
  5 14  1  0  0  0
  5  7  1  0  0  0
  6  7  2  0  0  0
  6 11  1  0  0  0
  7  8  1  0  0  0
  8  9  2  0  0  0
  8 25  1  0  0  0
  9 13  1  0  0  0
  9 10  1  0  0  0
 10 11  2  0  0  0
 10 26  1  0  0  0
 11 27  1  0  0  0
 12 28  1  0  0  0
 12 29  1  0  0  0
 12 30  1  0  0  0
 13 15  1  0  0  0
 14 16  1  0  0  0
 14 31  1  0  0  0
 14 32  1  0  0  0
 15 33  1  0  0  0
 15 34  1  0  0  0
 15 35  1  0  0  0
 16 17  1  0  0  0
 16 36  1  0  0  0
 16 37  1  0  0  0
 17 38  1  0  0  0
 18 19  2  0  0  0
 18 39  1  0  0  0
 19 20  1  0  0  0
 19 40  1  0  0  0
 20 21  2  0  0  0
 20 24  1  0  0  0
 21 22  1  0  0  0
 21 41  1  0  0  0
 22 42  1  0  0  0
M  END
> <s_m_entry_id>
5135

> <s_m_entry_name>
dock_pv.126

> <s_m_Source_Path>
/home/csk/Desktop/cluster/DUD-E-result/pgh1

> <s_m_Source_File>
dock_pv.maegz

> <i_m_Source_File_Index>
126

> <chembl_id>
CHEMBL237033

> <chembl_pref_name>
None

> <i_lp_mmshare_version>
53161

> <r_lp_tautomer_probability>
1

> <s_lp_Force_Field>
OPLS_2005

> <r_lp_Energy>
27.175368

> <b_lp_Chiralities_Consistent>
1

> <s_lp_Variant>
CHEMBL221_lig646-1

> <s_i_glide_gridfile>
glide-grid_2oyu

> <i_i_glide_lignum>
786

> <i_i_glide_rotatable_bonds>
6

> <r_i_docking_score>
-9.2995581172002

> <r_i_glide_ligand_efficiency>
-0.387481588216675

> <r_i_glide_ligand_efficiency_sa>
-1.11769030703104

> <r_i_glide_ligand_efficiency_ln>
-2.22581098636198

> <r_i_glide_gscore>
-9.2995581172002

> <r_i_glide_lipo>
-4.99455868763492

> <r_i_glide_hbond>
0

> <r_i_glide_metal>
0

> <r_i_glide_rewards>
-2.58164505903125

> <r_i_glide_evdw>
-39.5079917907715

> <r_i_glide_ecoul>
-2.60156464576721

> <r_i_glide_erotb>
0.642279915869632

> <r_i_glide_esite>
0

> <r_i_glide_emodel>
-53.7273887197071

> <r_i_glide_energy>
-42.1095564365387

> <r_i_glide_einternal>
14.3504209518433

> <i_i_glide_confnum>
91

> <i_i_glide_posenum>
275

> <r_i_glide_eff_state_penalty>
0

> <s_user_duplicate_titles>
CHEMBL221_lig646

> <i_f3d_flags>
0

> <s_m_subgroup_title>
dock_pv

> <s_m_subgroupid>
dock_pv

> <b_m_subgroup_collapsed>
1

$$$$
CHEMBL221_lig527
                    3D
 Schrodinger Suite 2021-1.
 40 42  0  0  1  0            999 V2000
   18.9012   48.3452   13.0624 N   0  0  0  0  0  0
   19.8329   49.0944   12.4483 N   0  0  0  0  0  0
   19.0986   48.4758   14.3506 C   0  0  0  0  0  0
   20.6579   49.7373   13.3514 C   0  0  0  0  0  0
   20.1847   49.3235   14.5880 C   0  0  0  0  0  0
   18.2421   47.7170   15.3412 C   0  0  0  0  0  0
   19.8767   49.0880   11.0379 C   0  0  0  0  0  0
   21.7976   50.6372   13.0273 C   0  0  0  0  0  0
   17.1102   47.2609   14.8017 F   0  0  0  0  0  0
   18.9230   46.6730   15.8000 F   0  0  0  0  0  0
   17.9052   48.4813   16.3777 F   0  0  0  0  0  0
   19.7230   47.8730   10.3747 C   0  0  0  0  0  0
   20.0644   50.2602   10.3028 C   0  0  0  0  0  0
   21.9380   51.8294   13.7365 C   0  0  0  0  0  0
   22.7328   50.2934   12.0494 C   0  0  0  0  0  0
   23.9624   52.3240   12.5018 C   0  0  0  0  0  0
   20.0758   48.9467    8.2524 C   0  0  0  0  0  0
   23.0101   52.6728   13.4696 C   0  0  0  0  0  0
   20.1230   50.1875    8.9129 C   0  0  0  0  0  0
   23.8012   51.1414   11.7821 C   0  0  0  0  0  0
   19.8165   47.8021    8.9940 C   0  0  0  0  0  0
   25.0839   53.0730   12.2131 O   0  0  0  0  0  0
   20.1230   48.7617    6.8872 O   0  0  0  0  0  0
   19.9049   49.8730    6.0356 C   0  0  0  0  0  0
   25.3678   54.2284   13.0000 C   0  0  0  0  0  0
   20.5815   49.6008   15.5541 H   0  0  0  0  0  0
   19.5820   46.9717   10.9426 H   0  0  0  0  0  0
   20.1444   51.2201   10.7930 H   0  0  0  0  0  0
   21.2200   52.1054   14.4956 H   0  0  0  0  0  0
   22.6378   49.3684   11.5001 H   0  0  0  0  0  0
   23.0949   53.5823   14.0446 H   0  0  0  0  0  0
   20.2362   51.0993    8.3511 H   0  0  0  0  0  0
   24.5233   50.8680   11.0268 H   0  0  0  0  0  0
   19.7179   46.8507    8.4942 H   0  0  0  0  0  0
   19.9951   49.5517    5.0000 H   0  0  0  0  0  0
   18.9004   50.2730    6.1677 H   0  0  0  0  0  0
   20.6320   50.6665    6.2000 H   0  0  0  0  0  0
   26.2464   54.7347   12.6012 H   0  0  0  0  0  0
   25.5853   53.9514   14.0314 H   0  0  0  0  0  0
   24.5505   54.9508   13.0000 H   0  0  0  0  0  0
  1  2  1  0  0  0
  1  3  2  0  0  0
  2  4  1  0  0  0
  2  7  1  0  0  0
  3  5  1  0  0  0
  3  6  1  0  0  0
  4  8  1  0  0  0
  4  5  2  0  0  0
  5 26  1  0  0  0
  6  9  1  0  0  0
  6 10  1  0  0  0
  6 11  1  0  0  0
  7 12  2  0  0  0
  7 13  1  0  0  0
  8 14  2  0  0  0
  8 15  1  0  0  0
 12 21  1  0  0  0
 12 27  1  0  0  0
 13 19  2  0  0  0
 13 28  1  0  0  0
 14 18  1  0  0  0
 14 29  1  0  0  0
 15 20  2  0  0  0
 15 30  1  0  0  0
 16 20  1  0  0  0
 16 22  1  0  0  0
 16 18  2  0  0  0
 17 19  1  0  0  0
 17 23  1  0  0  0
 17 21  2  0  0  0
 18 31  1  0  0  0
 19 32  1  0  0  0
 20 33  1  0  0  0
 21 34  1  0  0  0
 22 25  1  0  0  0
 23 24  1  0  0  0
 24 35  1  0  0  0
 24 36  1  0  0  0
 24 37  1  0  0  0
 25 38  1  0  0  0
 25 39  1  0  0  0
 25 40  1  0  0  0
M  END
> <s_m_entry_id>
5136

> <s_m_entry_name>
dock_pv.127

> <s_m_Source_Path>
/home/csk/Desktop/cluster/DUD-E-result/pgh1

> <s_m_Source_File>
dock_pv.maegz

> <i_m_Source_File_Index>
127

> <chembl_id>
CHEMBL29204

> <chembl_pref_name>
None

> <i_lp_mmshare_version>
53161

> <r_lp_tautomer_probability>
1

> <s_lp_Force_Field>
OPLS_2005

> <r_lp_Energy>
23.771192

> <b_lp_Chiralities_Consistent>
1

> <s_lp_Variant>
CHEMBL221_lig527-1

> <s_i_glide_gridfile>
glide-grid_2oyu

> <i_i_glide_lignum>
665

> <i_i_glide_rotatable_bonds>
5

> <r_i_docking_score>
-9.29882987790914

> <r_i_glide_ligand_efficiency>
-0.371953195116366

> <r_i_glide_ligand_efficiency_sa>
-1.08759773913826

> <r_i_glide_ligand_efficiency_ln>
-2.20410134450915

> <r_i_glide_gscore>
-9.29882987790914

> <r_i_glide_lipo>
-4.89602041689385

> <r_i_glide_hbond>
0

> <r_i_glide_metal>
0

> <r_i_glide_rewards>
-2.49743364901544

> <r_i_glide_evdw>
-35.6193199157715

> <r_i_glide_ecoul>
-2.92129564285278

> <r_i_glide_erotb>
0.313784530216645

> <r_i_glide_esite>
0

> <r_i_glide_emodel>
-57.9804295054555

> <r_i_glide_energy>
-38.5406155586243

> <r_i_glide_einternal>
2.29694366455078

> <i_i_glide_confnum>
7

> <i_i_glide_posenum>
380

> <r_i_glide_eff_state_penalty>
0

> <s_user_duplicate_titles>
CHEMBL221_lig527,38999

> <i_f3d_flags>
0

> <s_m_subgroup_title>
dock_pv

> <s_m_subgroupid>
dock_pv

> <b_m_subgroup_collapsed>
1

$$$$
CHEMBL221_lig515
                    3D
 Schrodinger Suite 2021-1.
 32 34  0  0  1  0            999 V2000
   20.1806   49.1333   14.1522 N   0  0  0  0  0  0
   20.5534   49.5086   12.9109 N   0  0  0  0  0  0
   19.1980   48.2730   14.0165 C   0  0  0  0  0  0
   19.8152   48.8531   11.9377 C   0  0  0  0  0  0
   18.9359   48.0647   12.6638 C   0  0  0  0  0  0
   18.5457   47.6363   15.2297 C   0  0  0  0  0  0
   21.6278   50.4249   12.7765 C   0  0  0  0  0  0
   19.9193   48.9770   10.4524 C   0  0  0  0  0  0
   19.3230   46.6730   15.7205 F   0  0  0  0  0  0
   18.3280   48.5241   16.2000 F   0  0  0  0  0  0
   17.3702   47.0881   14.9230 F   0  0  0  0  0  0
   21.7230   51.5290   13.6351 C   0  0  0  0  0  0
   22.6186   50.2106   11.8121 C   0  0  0  0  0  0
   20.1230   50.1972    9.8088 C   0  0  0  0  0  0
   19.7230   47.8261    9.6849 C   0  0  0  0  0  0
   19.9627   49.0843    7.6569 C   0  0  0  0  0  0
   23.8048   52.1543   12.5997 C   0  0  0  0  0  0
   20.1230   50.2448    8.4169 C   0  0  0  0  0  0
   23.7101   51.0730   11.7259 C   0  0  0  0  0  0
   19.7230   47.8730    8.2950 C   0  0  0  0  0  0
   22.8057   52.3962   13.5366 C   0  0  0  0  0  0
   20.0069   49.1637    5.9333 Cl  0  0  0  0  0  0
   25.1899   53.1813   12.5588 Cl  0  0  0  0  0  0
   18.1762   47.4168   12.2533 H   0  0  0  0  0  0
   20.9654   51.7177   14.3830 H   0  0  0  0  0  0
   22.5525   49.3636   11.1462 H   0  0  0  0  0  0
   20.2389   51.1086   10.3766 H   0  0  0  0  0  0
   19.5738   46.8802   10.1739 H   0  0  0  0  0  0
   20.2411   51.1933    7.9136 H   0  0  0  0  0  0
   24.4900   50.8903   10.9998 H   0  0  0  0  0  0
   19.5669   46.9797    7.7163 H   0  0  0  0  0  0
   22.8858   53.2446   14.2000 H   0  0  0  0  0  0
  1  2  1  0  0  0
  1  3  2  0  0  0
  2  4  1  0  0  0
  2  7  1  0  0  0
  3  5  1  0  0  0
  3  6  1  0  0  0
  4  8  1  0  0  0
  4  5  2  0  0  0
  5 24  1  0  0  0
  6  9  1  0  0  0
  6 10  1  0  0  0
  6 11  1  0  0  0
  7 12  2  0  0  0
  7 13  1  0  0  0
  8 14  2  0  0  0
  8 15  1  0  0  0
 12 21  1  0  0  0
 12 25  1  0  0  0
 13 19  2  0  0  0
 13 26  1  0  0  0
 14 18  1  0  0  0
 14 27  1  0  0  0
 15 20  2  0  0  0
 15 28  1  0  0  0
 16 20  1  0  0  0
 16 22  1  0  0  0
 16 18  2  0  0  0
 17 19  1  0  0  0
 17 23  1  0  0  0
 17 21  2  0  0  0
 18 29  1  0  0  0
 19 30  1  0  0  0
 20 31  1  0  0  0
 21 32  1  0  0  0
M  END
> <s_m_entry_id>
5137

> <s_m_entry_name>
dock_pv.128

> <s_m_Source_Path>
/home/csk/Desktop/cluster/DUD-E-result/pgh1

> <s_m_Source_File>
dock_pv.maegz

> <i_m_Source_File_Index>
128

> <chembl_id>
CHEMBL284914

> <chembl_pref_name>
None

> <i_lp_mmshare_version>
53161

> <r_lp_tautomer_probability>
1

> <s_lp_Force_Field>
OPLS_2005

> <r_lp_Energy>
16.828157

> <b_lp_Chiralities_Consistent>
1

> <s_lp_Variant>
CHEMBL221_lig515-1

> <s_i_glide_gridfile>
glide-grid_2oyu

> <i_i_glide_lignum>
653

> <i_i_glide_rotatable_bonds>
3

> <r_i_docking_score>
-9.29858256950301

> <r_i_glide_ligand_efficiency>
-0.404286198674044

> <r_i_glide_ligand_efficiency_sa>
-1.14973616961716

> <r_i_glide_ligand_efficiency_ln>
-2.24848158019097

> <r_i_glide_gscore>
-9.29858256950301

> <r_i_glide_lipo>
-4.93415721989769

> <r_i_glide_hbond>
0

> <r_i_glide_metal>
0

> <r_i_glide_rewards>
-2.77086149484475

> <r_i_glide_evdw>
-32.0327453613281

> <r_i_glide_ecoul>
-1.86582589149475

> <r_i_glide_erotb>
0.300104326471393

> <r_i_glide_esite>
-0.01215702944134

> <r_i_glide_emodel>
-50.4206970126244

> <r_i_glide_energy>
-33.8985712528229

> <r_i_glide_einternal>
0.178110808134079

> <i_i_glide_confnum>
2

> <i_i_glide_posenum>
269

> <r_i_glide_eff_state_penalty>
0

> <s_user_duplicate_titles>
CHEMBL221_lig515,38924

> <i_f3d_flags>
0

> <s_m_subgroup_title>
dock_pv

> <s_m_subgroupid>
dock_pv

> <b_m_subgroup_collapsed>
1

$$$$
CHEMBL221_lig95
                    3D
 Schrodinger Suite 2021-1.
 39 41  0  0  1  0            999 V2000
   19.7751   48.9359   12.2224 N   0  0  0  0  0  0
   19.0049   48.2344   14.2250 N   0  0  0  0  0  0
   20.5230   49.5495   13.2078 C   0  0  0  0  0  0
   18.8810   48.1602   12.9281 C   0  0  0  0  0  0
   19.9971   48.8982    6.2255 S   0  0  0  0  0  0
   20.0026   49.0729   14.4136 C   0  0  0  0  0  0
   19.8785   49.0082   10.8118 C   0  0  0  0  0  0
   19.9822   48.9873    8.0138 C   0  0  0  0  0  0
   21.6460   50.4882   12.9772 C   0  0  0  0  0  0
   20.9230   49.8731    5.6678 O   0  0  0  0  0  0
   20.1230   47.4887    5.8894 O   0  0  0  0  0  0
   20.1230   50.1908    8.7184 C   0  0  0  0  0  0
   19.7393   47.8092    8.7154 C   0  0  0  0  0  0
   20.0994   50.2045   10.1179 C   0  0  0  0  0  0
   19.7230   47.8253   10.0990 C   0  0  0  0  0  0
   20.5233   49.4716   16.0017 Cl  0  0  0  0  0  0
   21.7242   51.6624   13.7273 C   0  0  0  0  0  0
   22.6410   50.1705   12.0529 C   0  0  0  0  0  0
   18.3109   49.3585    5.6822 C   0  0  0  0  0  0
   23.8360   52.1495   12.6941 C   0  0  0  0  0  0
   25.3229   53.0752   12.6000 S   0  0  0  0  0  0
   23.7343   51.0084   11.9041 C   0  0  0  0  0  0
   22.8223   52.4996   13.5836 C   0  0  0  0  0  0
   25.1140   54.6729   13.4000 C   0  0  0  0  0  0
   18.1508   47.5629   12.4015 H   0  0  0  0  0  0
   20.2482   51.1142    8.1717 H   0  0  0  0  0  0
   19.6057   46.8697    8.2012 H   0  0  0  0  0  0
   20.2062   51.1413   10.6461 H   0  0  0  0  0  0
   19.6148   46.8974   10.6304 H   0  0  0  0  0  0
   20.9526   51.9132   14.4410 H   0  0  0  0  0  0
   22.5864   49.2605   11.4736 H   0  0  0  0  0  0
   18.3584   49.4730    4.6033 H   0  0  0  0  0  0
   17.7227   48.4881    5.9142 H   0  0  0  0  0  0
   17.9737   50.2670    6.1771 H   0  0  0  0  0  0
   24.5229   50.7433   11.2138 H   0  0  0  0  0  0
   22.8974   53.3820   14.1998 H   0  0  0  0  0  0
   25.8259   55.3676   12.9556 H   0  0  0  0  0  0
   25.3226   54.6086   14.4655 H   0  0  0  0  0  0
   24.1122   55.0728   13.2523 H   0  0  0  0  0  0
  1  3  1  0  0  0
  1  4  1  0  0  0
  1  7  1  0  0  0
  2  4  2  0  0  0
  2  6  1  0  0  0
  3  6  2  0  0  0
  3  9  1  0  0  0
  4 25  1  0  0  0
  5  8  1  0  0  0
  5 10  2  0  0  0
  5 11  2  0  0  0
  5 19  1  0  0  0
  6 16  1  0  0  0
  7 14  1  0  0  0
  7 15  2  0  0  0
  8 13  2  0  0  0
  8 12  1  0  0  0
  9 17  2  0  0  0
  9 18  1  0  0  0
 12 14  2  0  0  0
 12 26  1  0  0  0
 13 15  1  0  0  0
 13 27  1  0  0  0
 14 28  1  0  0  0
 15 29  1  0  0  0
 17 23  1  0  0  0
 17 30  1  0  0  0
 18 22  2  0  0  0
 18 31  1  0  0  0
 19 32  1  0  0  0
 19 33  1  0  0  0
 19 34  1  0  0  0
 20 22  1  0  0  0
 20 21  1  0  0  0
 20 23  2  0  0  0
 21 24  1  0  0  0
 22 35  1  0  0  0
 23 36  1  0  0  0
 24 37  1  0  0  0
 24 38  1  0  0  0
 24 39  1  0  0  0
M  END
> <s_m_entry_id>
5138

> <s_m_entry_name>
dock_pv.129

> <s_m_Source_Path>
/home/csk/Desktop/cluster/DUD-E-result/pgh1

> <s_m_Source_File>
dock_pv.maegz

> <i_m_Source_File_Index>
129

> <chembl_id>
CHEMBL115410

> <chembl_pref_name>
None

> <i_lp_mmshare_version>
53161

> <r_lp_tautomer_probability>
1

> <s_lp_Force_Field>
OPLS_2005

> <r_lp_Energy>
11.128393

> <b_lp_Chiralities_Consistent>
1

> <s_lp_Variant>
CHEMBL221_lig95-1

> <s_i_glide_gridfile>
glide-grid_2oyu

> <i_i_glide_lignum>
113

> <i_i_glide_rotatable_bonds>
4

> <r_i_docking_score>
-9.29766170224997

> <r_i_glide_ligand_efficiency>
-0.387402570927082

> <r_i_glide_ligand_efficiency_sa>
-1.11746238172735

> <r_i_glide_ligand_efficiency_ln>
-2.22535708724358

> <r_i_glide_gscore>
-9.29766170224997

> <r_i_glide_lipo>
-4.43778075517293

> <r_i_glide_hbond>
0

> <r_i_glide_metal>
0

> <r_i_glide_rewards>
-2.75297981949643

> <r_i_glide_evdw>
-25.1935005187988

> <r_i_glide_ecoul>
-7.3367486000061

> <r_i_glide_erotb>
0.270041771997929

> <r_i_glide_esite>
-0.0167555836376844

> <r_i_glide_emodel>
-40.3961571285003

> <r_i_glide_energy>
-32.5302491188049

> <r_i_glide_einternal>
0.34325847029686

> <i_i_glide_confnum>
10

> <i_i_glide_posenum>
181

> <r_i_glide_eff_state_penalty>
0

> <s_user_duplicate_titles>
CHEMBL221_lig95,192013

> <i_f3d_flags>
0

> <s_m_subgroup_title>
dock_pv

> <s_m_subgroupid>
dock_pv

> <b_m_subgroup_collapsed>
1

$$$$
CHEMBL221_lig103
                    3D
 Schrodinger Suite 2021-1.
 34 36  0  0  1  0            999 V2000
   19.9982   48.9592    6.2739 S   0  0  0  0  0  0
   20.0040   49.1784   12.2774 N   0  0  0  0  0  0
   19.4280   48.6133   14.3798 N   0  0  0  0  0  0
   20.8478   49.8583   13.1467 C   0  0  0  0  0  0
   19.1828   48.4506   13.1086 C   0  0  0  0  0  0
   20.4263   49.4730   14.4232 C   0  0  0  0  0  0
   20.0220   49.0445    8.0646 C   0  0  0  0  0  0
   19.9602   49.1676   10.8614 C   0  0  0  0  0  0
   20.9230   49.9267    5.7036 O   0  0  0  0  0  0
   20.1230   47.5538    5.9210 O   0  0  0  0  0  0
   18.4236   49.4730    5.8000 N   0  0  0  0  0  0
   21.9594   50.7798   12.7631 C   0  0  0  0  0  0
   19.7503   47.8916    8.8077 C   0  0  0  0  0  0
   20.1230   50.2730    8.7246 C   0  0  0  0  0  0
   19.7230   47.9623   10.1975 C   0  0  0  0  0  0
   20.1230   50.3374   10.1173 C   0  0  0  0  0  0
   21.0515   50.0006   15.9344 Cl  0  0  0  0  0  0
   22.8566   50.4202   11.7557 C   0  0  0  0  0  0
   22.1231   51.9950   13.4351 C   0  0  0  0  0  0
   23.1724   52.8456   13.0968 C   0  0  0  0  0  0
   23.8913   51.2792   11.4000 C   0  0  0  0  0  0
   24.0513   52.4835   12.0791 C   0  0  0  0  0  0
   18.4068   47.8246   12.6922 H   0  0  0  0  0  0
   18.3039   50.4854    5.9102 H   0  0  0  0  0  0
   18.1994   49.2395    4.8295 H   0  0  0  0  0  0
   19.5826   46.9451    8.3156 H   0  0  0  0  0  0
   20.2275   51.1798    8.1466 H   0  0  0  0  0  0
   19.5484   47.0716   10.7706 H   0  0  0  0  0  0
   20.2481   51.2937   10.6053 H   0  0  0  0  0  0
   22.7444   49.4761   11.2446 H   0  0  0  0  0  0
   21.4403   52.2836   14.2209 H   0  0  0  0  0  0
   23.3037   53.7804   13.6234 H   0  0  0  0  0  0
   24.5695   51.0100   10.6048 H   0  0  0  0  0  0
   24.8656   53.1403   11.8137 H   0  0  0  0  0  0
  1  7  1  0  0  0
  1  9  2  0  0  0
  1 10  2  0  0  0
  1 11  1  0  0  0
  2  8  1  0  0  0
  2  4  1  0  0  0
  2  5  1  0  0  0
  3  5  2  0  0  0
  3  6  1  0  0  0
  4  6  2  0  0  0
  4 12  1  0  0  0
  5 23  1  0  0  0
  6 17  1  0  0  0
  7 13  1  0  0  0
  7 14  2  0  0  0
  8 16  2  0  0  0
  8 15  1  0  0  0
 11 24  1  0  0  0
 11 25  1  0  0  0
 12 18  2  0  0  0
 12 19  1  0  0  0
 13 15  2  0  0  0
 13 26  1  0  0  0
 14 16  1  0  0  0
 14 27  1  0  0  0
 15 28  1  0  0  0
 16 29  1  0  0  0
 18 21  1  0  0  0
 18 30  1  0  0  0
 19 20  2  0  0  0
 19 31  1  0  0  0
 20 22  1  0  0  0
 20 32  1  0  0  0
 21 22  2  0  0  0
 21 33  1  0  0  0
 22 34  1  0  0  0
M  END
> <s_m_entry_id>
5139

> <s_m_entry_name>
dock_pv.130

> <s_m_Source_Path>
/home/csk/Desktop/cluster/DUD-E-result/pgh1

> <s_m_Source_File>
dock_pv.maegz

> <i_m_Source_File_Index>
130

> <chembl_id>
CHEMBL118064

> <chembl_pref_name>
None

> <i_lp_mmshare_version>
53161

> <r_lp_tautomer_probability>
1

> <s_lp_Force_Field>
OPLS_2005

> <r_lp_Energy>
21.911578

> <b_lp_Chiralities_Consistent>
1

> <s_lp_Variant>
CHEMBL221_lig103-1

> <s_i_glide_gridfile>
glide-grid_2oyu

> <i_i_glide_lignum>
123

> <i_i_glide_rotatable_bonds>
3

> <r_i_docking_score>
-9.29482565562651

> <r_i_glide_ligand_efficiency>
-0.42249207525575

> <r_i_glide_ligand_efficiency_sa>
-1.18383941053706

> <r_i_glide_ligand_efficiency_ln>
-2.27199442723857

> <r_i_glide_gscore>
-9.29482565562651

> <r_i_glide_lipo>
-4.12060264966132

> <r_i_glide_hbond>
-0.279257118822395

> <r_i_glide_metal>
0

> <r_i_glide_rewards>
-2.8815468652595

> <r_i_glide_evdw>
-25.4821796417236

> <r_i_glide_ecoul>
-6.70537376403809

> <r_i_glide_erotb>
0.338403963282455

> <r_i_glide_esite>
-0.0719079384738519

> <r_i_glide_emodel>
-47.3317022627474

> <r_i_glide_energy>
-32.1875534057617

> <r_i_glide_einternal>
0.469306260347366

> <i_i_glide_confnum>
12

> <i_i_glide_posenum>
159

> <r_i_glide_eff_state_penalty>
0

> <s_user_duplicate_titles>
CHEMBL221_lig103

> <i_f3d_flags>
0

> <s_m_subgroup_title>
dock_pv

> <s_m_subgroupid>
dock_pv

> <b_m_subgroup_collapsed>
1

$$$$
CHEMBL221_lig258
                    3D
 Schrodinger Suite 2021-1.
 37 39  0  0  1  0            999 V2000
   20.8010   49.8532   13.2166 N   0  0  0  0  0  0
   19.9942   48.9640    6.2933 S   0  0  0  0  0  0
   20.0370   49.0732   12.3944 C   0  0  0  0  0  0
   20.5217   49.4733   14.5430 C   0  0  0  0  0  0
   19.3793   48.2232   13.1792 C   0  0  0  0  0  0
   21.7969   50.7893   12.8742 C   0  0  0  0  0  0
   19.6509   48.4465   14.4626 O   0  0  0  0  0  0
   20.0119   49.0389    8.0875 C   0  0  0  0  0  0
   19.9964   49.1137   10.9043 C   0  0  0  0  0  0
   20.9230   49.9327    5.7326 O   0  0  0  0  0  0
   20.1229   47.5603    5.9348 O   0  0  0  0  0  0
   20.9288   49.9087   15.6207 O   0  0  0  0  0  0
   21.8094   52.0573   13.4731 C   0  0  0  0  0  0
   18.4238   49.4721    5.8014 N   0  0  0  0  0  0
   19.7340   47.8831    8.8184 C   0  0  0  0  0  0
   20.1231   50.2550    8.7692 C   0  0  0  0  0  0
   19.7224   47.9339   10.2087 C   0  0  0  0  0  0
   20.1472   50.2910   10.1648 C   0  0  0  0  0  0
   22.7787   52.9997   13.1232 C   0  0  0  0  0  0
   22.7925   50.4601   11.9457 C   0  0  0  0  0  0
   23.7722   51.3924   11.6086 C   0  0  0  0  0  0
   23.7652   52.6571   12.1966 C   0  0  0  0  0  0
   22.7475   54.3900   13.7323 C   0  0  0  0  0  0
   18.6761   47.4248   12.9851 H   0  0  0  0  0  0
   21.0524   52.3223   14.1971 H   0  0  0  0  0  0
   18.2956   50.4827    5.9222 H   0  0  0  0  0  0
   18.2197   49.2519    4.8222 H   0  0  0  0  0  0
   19.5500   46.9448    8.3173 H   0  0  0  0  0  0
   20.2272   51.1719    8.2081 H   0  0  0  0  0  0
   19.5429   47.0371   10.7661 H   0  0  0  0  0  0
   20.2770   51.2407   10.6645 H   0  0  0  0  0  0
   22.8113   49.4816   11.4876 H   0  0  0  0  0  0
   24.5361   51.1336   10.8897 H   0  0  0  0  0  0
   24.5220   53.3783   11.9222 H   0  0  0  0  0  0
   22.3175   55.0965   13.0220 H   0  0  0  0  0  0
   23.7512   54.7342   13.9912 H   0  0  0  0  0  0
   22.1594   54.4137   14.6507 H   0  0  0  0  0  0
  1  3  1  0  0  0
  1  4  1  0  0  0
  1  6  1  0  0  0
  2  8  1  0  0  0
  2 10  2  0  0  0
  2 11  2  0  0  0
  2 14  1  0  0  0
  3  5  2  0  0  0
  3  9  1  0  0  0
  4  7  1  0  0  0
  4 12  2  0  0  0
  5  7  1  0  0  0
  5 24  1  0  0  0
  6 13  1  0  0  0
  6 20  2  0  0  0
  8 16  1  0  0  0
  8 15  2  0  0  0
  9 17  2  0  0  0
  9 18  1  0  0  0
 13 19  2  0  0  0
 13 25  1  0  0  0
 14 26  1  0  0  0
 14 27  1  0  0  0
 15 17  1  0  0  0
 15 28  1  0  0  0
 16 18  2  0  0  0
 16 29  1  0  0  0
 17 30  1  0  0  0
 18 31  1  0  0  0
 19 23  1  0  0  0
 19 22  1  0  0  0
 20 21  1  0  0  0
 20 32  1  0  0  0
 21 22  2  0  0  0
 21 33  1  0  0  0
 22 34  1  0  0  0
 23 35  1  0  0  0
 23 36  1  0  0  0
 23 37  1  0  0  0
M  END
> <s_m_entry_id>
5140

> <s_m_entry_name>
dock_pv.131

> <s_m_Source_Path>
/home/csk/Desktop/cluster/DUD-E-result/pgh1

> <s_m_Source_File>
dock_pv.maegz

> <i_m_Source_File_Index>
131

> <chembl_id>
CHEMBL304054

> <chembl_pref_name>
None

> <i_lp_mmshare_version>
53161

> <r_lp_tautomer_probability>
1

> <s_lp_Force_Field>
OPLS_2005

> <r_lp_Energy>
37.79926

> <b_lp_Chiralities_Consistent>
1

> <s_lp_Variant>
CHEMBL221_lig258-1

> <s_i_glide_gridfile>
glide-grid_2oyu

> <i_i_glide_lignum>
291

> <i_i_glide_rotatable_bonds>
3

> <r_i_docking_score>
-9.27798936697889

> <r_i_glide_ligand_efficiency>
-0.40339084204256

> <r_i_glide_ligand_efficiency_sa>
-1.14718989446035

> <r_i_glide_ligand_efficiency_ln>
-2.2435019570918

> <r_i_glide_gscore>
-9.27798936697889

> <r_i_glide_lipo>
-4.17473789757277

> <r_i_glide_hbond>
-0.289204836814989

> <r_i_glide_metal>
0

> <r_i_glide_rewards>
-2.6668050414469

> <r_i_glide_evdw>
-27.4866485595703

> <r_i_glide_ecoul>
-6.97138977050781

> <r_i_glide_erotb>
0.344649942955465

> <r_i_glide_esite>
-0.0718506405450127

> <r_i_glide_emodel>
-45.7850887437915

> <r_i_glide_energy>
-34.4580383300781

> <r_i_glide_einternal>
3.90697836875916

> <i_i_glide_confnum>
14

> <i_i_glide_posenum>
271

> <r_i_glide_eff_state_penalty>
0

> <s_user_duplicate_titles>
CHEMBL221_lig258

> <i_f3d_flags>
0

> <s_m_subgroup_title>
dock_pv

> <s_m_subgroupid>
dock_pv

> <b_m_subgroup_collapsed>
1

$$$$
CHEMBL221_lig336
                    3D
 Schrodinger Suite 2021-1.
 41 43  0  0  1  0            999 V2000
   19.8730   49.1252    6.2000 S   0  0  0  0  0  0
   19.6269   48.6099   12.2699 C   0  0  0  0  0  0
   20.3282   49.2097   13.2595 C   0  0  0  0  0  0
   24.5230   52.7479   11.8159 C   0  0  0  0  0  0
   19.9492   48.9742    7.9847 C   0  0  0  0  0  0
   19.7935   48.7684   10.7931 C   0  0  0  0  0  0
   21.5181   50.0446   13.0660 C   0  0  0  0  0  0
   20.6692   50.2730    5.8000 O   0  0  0  0  0  0
   20.1230   47.8267    5.6040 O   0  0  0  0  0  0
   23.6006   51.7413   12.4335 C   0  0  0  0  0  0
   18.2421   49.4730    5.8000 N   0  0  0  0  0  0
   20.1230   50.1047    8.7964 C   0  0  0  0  0  0
   19.7231   47.7396    8.5823 C   0  0  0  0  0  0
   20.0516   50.0050   10.1884 C   0  0  0  0  0  0
   19.7042   47.6458    9.9693 C   0  0  0  0  0  0
   22.4689   49.6690   12.1158 C   0  0  0  0  0  0
   21.6782   51.2328   13.7821 C   0  0  0  0  0  0
   22.7243   52.0904   13.4642 C   0  0  0  0  0  0
   23.5094   50.5141   11.8000 C   0  0  0  0  0  0
   25.6890   52.2730   11.4000 F   0  0  0  0  0  0
   24.7270   53.8100   12.6000 F   0  0  0  0  0  0
   23.8478   53.0730   10.7247 F   0  0  0  0  0  0
   18.5635   47.7051   12.8558 C   0  0  0  0  0  0
   19.8992   48.7353   14.6365 C   0  0  0  0  0  0
   18.6253   47.9541   14.3572 C   0  0  0  0  0  0
   18.0300   50.4566    5.9964 H   0  0  0  0  0  0
   18.0437   49.3185    4.8083 H   0  0  0  0  0  0
   20.2577   51.0731    8.3384 H   0  0  0  0  0  0
   19.5958   46.8549    7.9788 H   0  0  0  0  0  0
   20.1427   50.9005   10.7863 H   0  0  0  0  0  0
   19.6383   46.6731   10.4144 H   0  0  0  0  0  0
   22.3811   48.7347   11.5835 H   0  0  0  0  0  0
   20.9557   51.5299   14.5286 H   0  0  0  0  0  0
   22.7945   53.0506   13.9567 H   0  0  0  0  0  0
   24.1933   50.2730   11.0002 H   0  0  0  0  0  0
   17.5643   47.8730   12.4545 H   0  0  0  0  0  0
   18.8381   46.6728   12.6443 H   0  0  0  0  0  0
   20.6570   48.0729   15.0479 H   0  0  0  0  0  0
   19.7387   49.5320   15.3608 H   0  0  0  0  0  0
   18.5726   47.0281   14.9319 H   0  0  0  0  0  0
   17.7615   48.5502   14.6587 H   0  0  0  0  0  0
  1  5  1  0  0  0
  1  8  2  0  0  0
  1  9  2  0  0  0
  1 11  1  0  0  0
  2  6  1  0  0  0
  2  3  2  0  0  0
  2 23  1  0  0  0
  3  7  1  0  0  0
  3 24  1  0  0  0
  4 10  1  0  0  0
  4 20  1  0  0  0
  4 21  1  0  0  0
  4 22  1  0  0  0
  5 12  2  0  0  0
  5 13  1  0  0  0
  6 15  1  0  0  0
  6 14  2  0  0  0
  7 16  1  0  0  0
  7 17  2  0  0  0
 10 18  2  0  0  0
 10 19  1  0  0  0
 11 26  1  0  0  0
 11 27  1  0  0  0
 12 14  1  0  0  0
 12 28  1  0  0  0
 13 15  2  0  0  0
 13 29  1  0  0  0
 14 30  1  0  0  0
 15 31  1  0  0  0
 16 19  2  0  0  0
 16 32  1  0  0  0
 17 18  1  0  0  0
 17 33  1  0  0  0
 18 34  1  0  0  0
 19 35  1  0  0  0
 23 25  1  0  0  0
 23 36  1  0  0  0
 23 37  1  0  0  0
 24 25  1  0  0  0
 24 38  1  0  0  0
 24 39  1  0  0  0
 25 40  1  0  0  0
 25 41  1  0  0  0
M  END
> <s_m_entry_id>
5141

> <s_m_entry_name>
dock_pv.132

> <s_m_Source_Path>
/home/csk/Desktop/cluster/DUD-E-result/pgh1

> <s_m_Source_File>
dock_pv.maegz

> <i_m_Source_File_Index>
132

> <chembl_id>
CHEMBL111057

> <chembl_pref_name>
None

> <i_lp_mmshare_version>
53161

> <r_lp_tautomer_probability>
1

> <s_lp_Force_Field>
OPLS_2005

> <r_lp_Energy>
38.953548

> <b_lp_Chiralities_Consistent>
1

> <s_lp_Variant>
CHEMBL221_lig336-1

> <s_i_glide_gridfile>
glide-grid_2oyu

> <i_i_glide_lignum>
401

> <i_i_glide_rotatable_bonds>
4

> <r_i_docking_score>
-9.27785299820677

> <r_i_glide_ligand_efficiency>
-0.371114119928271

> <r_i_glide_ligand_efficiency_sa>
-1.08514426840721

> <r_i_glide_ligand_efficiency_ln>
-2.19912919539333

> <r_i_glide_gscore>
-9.27785299820677

> <r_i_glide_lipo>
-4.95847218973047

> <r_i_glide_hbond>
-0.344509765246331

> <r_i_glide_metal>
0

> <r_i_glide_rewards>
-2.67225785749343

> <r_i_glide_evdw>
-12.6426649093628

> <r_i_glide_ecoul>
-5.78828191757202

> <r_i_glide_erotb>
0.285362591991221

> <r_i_glide_esite>
-0.0876002446238168

> <r_i_glide_emodel>
-24.3947415290129

> <r_i_glide_energy>
-18.4309468269348

> <r_i_glide_einternal>
2.04702138900757

> <i_i_glide_confnum>
12

> <i_i_glide_posenum>
302

> <r_i_glide_eff_state_penalty>
0

> <s_user_duplicate_titles>
CHEMBL221_lig336

> <i_f3d_flags>
0

> <s_m_subgroup_title>
dock_pv

> <s_m_subgroupid>
dock_pv

> <b_m_subgroup_collapsed>
1

$$$$
CHEMBL221_lig177
                    3D
 Schrodinger Suite 2021-1.
 47 50  0  0  1  0            999 V2000
   19.6723   48.8173   14.7046 N   0  0  0  0  0  0
   20.6223   49.7422   14.3280 C   0  0  0  0  0  0
   20.7440   49.8730   12.8576 C   0  0  0  0  0  0
   19.9575   49.0929   12.0237 C   0  0  0  0  0  0
   18.9581   47.9926   13.8619 N   0  0  0  0  0  0
   19.9631   48.9018    5.9493 S   0  0  0  0  0  0
   19.0223   48.1543   12.6116 C   0  0  0  0  0  0
   19.9506   49.0246    7.7210 C   0  0  0  0  0  0
   19.3757   48.7125   16.1364 C   0  0  0  0  0  0
   19.9559   49.0997   10.5275 C   0  0  0  0  0  0
   18.3389   47.6436   16.5427 C   0  0  0  0  0  0
   20.9054   49.8730    5.4000 O   0  0  0  0  0  0
   20.1230   47.4905    5.6520 O   0  0  0  0  0  0
   21.2782   50.3875   15.1563 O   0  0  0  0  0  0
   17.1975   47.9726   17.4647 C   0  0  0  0  0  0
   16.9258   47.6543   16.0088 C   0  0  0  0  0  0
   21.8686   50.7586   12.3961 C   0  0  0  0  0  0
   20.1230   50.2354    8.3924 C   0  0  0  0  0  0
   19.7230   47.8625    8.4429 C   0  0  0  0  0  0
   20.1241   50.2730    9.7869 C   0  0  0  0  0  0
   19.7230   47.9069    9.8212 C   0  0  0  0  0  0
   18.2384   49.2916    5.4186 C   0  0  0  0  0  0
   22.7378   50.3105   11.4000 C   0  0  0  0  0  0
   22.1230   52.0171   12.9734 C   0  0  0  0  0  0
   23.2365   52.7666   12.6070 C   0  0  0  0  0  0
   23.8324   51.0730   11.0009 C   0  0  0  0  0  0
   24.0920   52.2862   11.6235 C   0  0  0  0  0  0
   18.3435   47.5441   12.0228 H   0  0  0  0  0  0
   19.0887   49.6772   16.5595 H   0  0  0  0  0  0
   20.3315   48.5000   16.6000 H   0  0  0  0  0  0
   18.8161   46.6730   16.6000 H   0  0  0  0  0  0
   17.0502   48.9995   17.8000 H   0  0  0  0  0  0
   16.9230   47.2397   18.2195 H   0  0  0  0  0  0
   16.4878   46.6951   15.7332 H   0  0  0  0  0  0
   16.6442   48.4453   15.3153 H   0  0  0  0  0  0
   20.2364   51.1501    7.8276 H   0  0  0  0  0  0
   19.5660   46.9173    7.9485 H   0  0  0  0  0  0
   20.2493   51.2226   10.2853 H   0  0  0  0  0  0
   19.6112   46.9722   10.3390 H   0  0  0  0  0  0
   18.2238   49.2315    4.3332 H   0  0  0  0  0  0
   17.5859   48.5172    5.8000 H   0  0  0  0  0  0
   17.9611   50.2727    5.8000 H   0  0  0  0  0  0
   22.5508   49.3541   10.9383 H   0  0  0  0  0  0
   21.4687   52.4159   13.7348 H   0  0  0  0  0  0
   23.4321   53.7159   13.0851 H   0  0  0  0  0  0
   24.4967   50.7100   10.2301 H   0  0  0  0  0  0
   24.9606   52.8589   11.3390 H   0  0  0  0  0  0
  1  2  1  0  0  0
  1  5  1  0  0  0
  1  9  1  0  0  0
  2  3  1  0  0  0
  2 14  2  0  0  0
  3 17  1  0  0  0
  3  4  2  0  0  0
  4  7  1  0  0  0
  4 10  1  0  0  0
  5  7  2  0  0  0
  6  8  1  0  0  0
  6 12  2  0  0  0
  6 13  2  0  0  0
  6 22  1  0  0  0
  7 28  1  0  0  0
  8 19  1  0  0  0
  8 18  2  0  0  0
  9 11  1  0  0  0
  9 29  1  0  0  0
  9 30  1  0  0  0
 10 20  2  0  0  0
 10 21  1  0  0  0
 11 15  1  0  0  0
 11 16  1  0  0  0
 11 31  1  0  0  0
 15 16  1  0  0  0
 15 32  1  0  0  0
 15 33  1  0  0  0
 16 34  1  0  0  0
 16 35  1  0  0  0
 17 23  2  0  0  0
 17 24  1  0  0  0
 18 20  1  0  0  0
 18 36  1  0  0  0
 19 21  2  0  0  0
 19 37  1  0  0  0
 20 38  1  0  0  0
 21 39  1  0  0  0
 22 40  1  0  0  0
 22 41  1  0  0  0
 22 42  1  0  0  0
 23 26  1  0  0  0
 23 43  1  0  0  0
 24 25  2  0  0  0
 24 44  1  0  0  0
 25 27  1  0  0  0
 25 45  1  0  0  0
 26 27  2  0  0  0
 26 46  1  0  0  0
 27 47  1  0  0  0
M  END
> <s_m_entry_id>
5142

> <s_m_entry_name>
dock_pv.133

> <s_m_Source_Path>
/home/csk/Desktop/cluster/DUD-E-result/pgh1

> <s_m_Source_File>
dock_pv.maegz

> <i_m_Source_File_Index>
133

> <chembl_id>
CHEMBL153829

> <chembl_pref_name>
None

> <i_lp_mmshare_version>
53161

> <r_lp_tautomer_probability>
1

> <s_lp_Force_Field>
OPLS_2005

> <r_lp_Energy>
49.355867

> <b_lp_Chiralities_Consistent>
1

> <s_lp_Variant>
CHEMBL221_lig177-1

> <s_i_glide_gridfile>
glide-grid_2oyu

> <i_i_glide_lignum>
203

> <i_i_glide_rotatable_bonds>
5

> <r_i_docking_score>
-9.26850154725164

> <r_i_glide_ligand_efficiency>
-0.343277835083394

> <r_i_glide_ligand_efficiency_sa>
-1.02983350411879

> <r_i_glide_ligand_efficiency_ln>
-2.15755435700996

> <r_i_glide_gscore>
-9.26850154725164

> <r_i_glide_lipo>
-5.13104933309211

> <r_i_glide_hbond>
0

> <r_i_glide_metal>
0

> <r_i_glide_rewards>
-2.5439009168335

> <r_i_glide_evdw>
-23.118335723877

> <r_i_glide_ecoul>
-6.35104465484619

> <r_i_glide_erotb>
0.536114539138868

> <r_i_glide_esite>
-0.0210923520441195

> <r_i_glide_emodel>
-34.4248159555249

> <r_i_glide_energy>
-29.4693803787231

> <r_i_glide_einternal>
4.49429035186768

> <i_i_glide_confnum>
21

> <i_i_glide_posenum>
271

> <r_i_glide_eff_state_penalty>
0

> <s_user_duplicate_titles>
CHEMBL221_lig177

> <i_f3d_flags>
0

> <s_m_subgroup_title>
dock_pv

> <s_m_subgroupid>
dock_pv

> <b_m_subgroup_collapsed>
1

$$$$
CHEMBL221_lig475
                    3D
 Schrodinger Suite 2021-1.
 38 40  0  0  1  0            999 V2000
   20.0576   48.7531    6.8275 S   0  0  0  0  0  0
   20.8315   49.9028   13.7085 C   0  0  0  0  0  0
   20.0284   49.1568   12.9163 C   0  0  0  0  0  0
   20.5231   49.6705   15.1226 C   0  0  0  0  0  0
   19.0276   48.3580   13.7270 C   0  0  0  0  0  0
   20.1200   48.9702    8.6292 C   0  0  0  0  0  0
   19.9975   49.1505   11.4337 C   0  0  0  0  0  0
   21.9638   50.7632   13.2717 C   0  0  0  0  0  0
   19.4354   47.4737    6.6011 O   0  0  0  0  0  0
   21.3230   49.0734    6.1997 O   0  0  0  0  0  0
   19.3965   48.6523   15.1749 C   0  0  0  0  0  0
   21.0783   50.2194   16.0731 O   0  0  0  0  0  0
   20.3162   50.1957    9.2686 C   0  0  0  0  0  0
   19.7240   47.8727    9.3988 C   0  0  0  0  0  0
   20.2585   50.2870   10.6573 C   0  0  0  0  0  0
   19.7202   47.9522   10.7838 C   0  0  0  0  0  0
   22.1190   52.0544   13.7917 C   0  0  0  0  0  0
   22.8828   50.2970   12.3198 C   0  0  0  0  0  0
   18.9109   49.8730    6.0367 C   0  0  0  0  0  0
   24.1212   52.3476   12.4927 C   0  0  0  0  0  0
   23.9508   51.0920   11.9209 C   0  0  0  0  0  0
   23.1944   52.8451   13.4005 C   0  0  0  0  0  0
   25.2181   53.0738   12.1955 F   0  0  0  0  0  0
   18.0041   48.6722   13.5126 H   0  0  0  0  0  0
   19.0863   47.2869   13.5339 H   0  0  0  0  0  0
   18.5518   49.0603   15.7304 H   0  0  0  0  0  0
   19.7364   47.7591   15.6985 H   0  0  0  0  0  0
   20.5202   51.0741    8.6775 H   0  0  0  0  0  0
   19.4832   46.9263    8.9380 H   0  0  0  0  0  0
   20.4326   51.2459   11.1232 H   0  0  0  0  0  0
   19.4800   47.0695   11.3507 H   0  0  0  0  0  0
   21.4181   52.4439   14.5162 H   0  0  0  0  0  0
   22.7811   49.3094   11.8927 H   0  0  0  0  0  0
   18.9071   49.6454    4.9731 H   0  0  0  0  0  0
   19.3251   50.8615    6.1991 H   0  0  0  0  0  0
   17.9176   49.7755    6.4618 H   0  0  0  0  0  0
   24.6692   50.7198   11.2062 H   0  0  0  0  0  0
   23.3307   53.8282   13.8274 H   0  0  0  0  0  0
  1  6  1  0  0  0
  1  9  2  0  0  0
  1 10  2  0  0  0
  1 19  1  0  0  0
  2  3  2  0  0  0
  2  4  1  0  0  0
  2  8  1  0  0  0
  3  7  1  0  0  0
  3  5  1  0  0  0
  4 12  2  0  0  0
  4 11  1  0  0  0
  5 11  1  0  0  0
  5 24  1  0  0  0
  5 25  1  0  0  0
  6 13  1  0  0  0
  6 14  2  0  0  0
  7 16  2  0  0  0
  7 15  1  0  0  0
  8 17  2  0  0  0
  8 18  1  0  0  0
 11 26  1  0  0  0
 11 27  1  0  0  0
 13 15  2  0  0  0
 13 28  1  0  0  0
 14 16  1  0  0  0
 14 29  1  0  0  0
 15 30  1  0  0  0
 16 31  1  0  0  0
 17 22  1  0  0  0
 17 32  1  0  0  0
 18 21  2  0  0  0
 18 33  1  0  0  0
 19 34  1  0  0  0
 19 35  1  0  0  0
 19 36  1  0  0  0
 20 21  1  0  0  0
 20 23  1  0  0  0
 20 22  2  0  0  0
 21 37  1  0  0  0
 22 38  1  0  0  0
M  END
> <s_m_entry_id>
5143

> <s_m_entry_name>
dock_pv.134

> <s_m_Source_Path>
/home/csk/Desktop/cluster/DUD-E-result/pgh1

> <s_m_Source_File>
dock_pv.maegz

> <i_m_Source_File_Index>
134

> <chembl_id>
CHEMBL22812

> <chembl_pref_name>
None

> <i_lp_mmshare_version>
53161

> <r_lp_tautomer_probability>
0.499977396165832

> <s_lp_Force_Field>
OPLS_2005

> <r_lp_Energy>
19.904845

> <b_lp_Chiralities_Consistent>
1

> <s_lp_Variant>
CHEMBL221_lig475-1

> <s_i_glide_gridfile>
glide-grid_2oyu

> <i_i_glide_lignum>
590

> <i_i_glide_rotatable_bonds>
3

> <r_i_docking_score>
-9.26847989015992

> <r_i_glide_ligand_efficiency>
-0.402977386528692

> <r_i_glide_ligand_efficiency_sa>
-1.14601408197806

> <r_i_glide_ligand_efficiency_ln>
-2.24120247936981

> <r_i_glide_gscore>
-9.26847989015992

> <r_i_glide_lipo>
-4.43976519637142

> <r_i_glide_hbond>
0

> <r_i_glide_metal>
0

> <r_i_glide_rewards>
-3.2196641246006

> <r_i_glide_evdw>
-20.8616962432861

> <r_i_glide_ecoul>
-6.07058763504028

> <r_i_glide_erotb>
0.344622388232458

> <r_i_glide_esite>
0

> <r_i_glide_emodel>
-33.4329166594095

> <r_i_glide_energy>
-26.9322838783264

> <r_i_glide_einternal>
0.810435116291046

> <i_i_glide_confnum>
5

> <i_i_glide_posenum>
200

> <r_i_glide_eff_state_penalty>
0

> <s_user_duplicate_titles>
CHEMBL221_lig475,30671

> <i_f3d_flags>
0

> <s_m_subgroup_title>
dock_pv

> <s_m_subgroupid>
dock_pv

> <b_m_subgroup_collapsed>
1

$$$$
CHEMBL221_lig137
                    3D
 Schrodinger Suite 2021-1.
 38 40  0  0  1  0            999 V2000
   20.0103   49.0071    6.2002 S   0  0  0  0  0  0
   19.8314   48.9754   12.1886 N   0  0  0  0  0  0
   20.6007   49.5970   13.1592 C   0  0  0  0  0  0
   19.1307   48.2256   14.1949 N   0  0  0  0  0  0
   18.9642   48.1789   12.9040 C   0  0  0  0  0  0
   20.1230   49.0730   14.3689 C   0  0  0  0  0  0
   21.6868   50.6019   12.9248 C   0  0  0  0  0  0
   20.0438   49.0545    7.9870 C   0  0  0  0  0  0
   22.5873   50.5117   11.8567 C   0  0  0  0  0  0
   19.8880   49.0535   10.7773 C   0  0  0  0  0  0
   23.5492   51.5016   11.6551 C   0  0  0  0  0  0
   20.9229   49.9955    5.6393 O   0  0  0  0  0  0
   20.1230   47.6148    5.8001 O   0  0  0  0  0  0
   18.4082   49.4730    5.8000 N   0  0  0  0  0  0
   21.7950   51.6826   13.8037 C   0  0  0  0  0  0
   23.6999   52.5423   12.5727 C   0  0  0  0  0  0
   19.7852   47.8694    8.6710 C   0  0  0  0  0  0
   20.1230   50.2576    8.6994 C   0  0  0  0  0  0
   19.7230   47.8730   10.0541 C   0  0  0  0  0  0
   20.0797   50.2602   10.0951 C   0  0  0  0  0  0
   22.7974   52.6331   13.6405 C   0  0  0  0  0  0
   20.6878   49.4224   15.9528 Cl  0  0  0  0  0  0
   24.5230   51.4730   10.2309 Cl  0  0  0  0  0  0
   24.7418   53.4197   12.3593 O   0  0  0  0  0  0
   24.9998   54.4445   13.3017 C   0  0  0  0  0  0
   18.2260   47.5821   12.3882 H   0  0  0  0  0  0
   22.5230   49.6934   11.1554 H   0  0  0  0  0  0
   18.2519   50.4795    5.9192 H   0  0  0  0  0  0
   18.1630   49.2348    4.8358 H   0  0  0  0  0  0
   21.1019   51.7956   14.6241 H   0  0  0  0  0  0
   19.6551   46.9390    8.1398 H   0  0  0  0  0  0
   20.2243   51.1891    8.1613 H   0  0  0  0  0  0
   19.5948   46.9404   10.5701 H   0  0  0  0  0  0
   20.1592   51.1963   10.6292 H   0  0  0  0  0  0
   22.8521   53.4421   14.3503 H   0  0  0  0  0  0
   25.8089   55.0730   12.9318 H   0  0  0  0  0  0
   25.3231   54.0181   14.2462 H   0  0  0  0  0  0
   24.1254   55.0730   13.4644 H   0  0  0  0  0  0
  1  8  1  0  0  0
  1 12  2  0  0  0
  1 13  2  0  0  0
  1 14  1  0  0  0
  2 10  1  0  0  0
  2  3  1  0  0  0
  2  5  1  0  0  0
  3  6  2  0  0  0
  3  7  1  0  0  0
  4  5  2  0  0  0
  4  6  1  0  0  0
  5 26  1  0  0  0
  6 22  1  0  0  0
  7  9  2  0  0  0
  7 15  1  0  0  0
  8 17  1  0  0  0
  8 18  2  0  0  0
  9 11  1  0  0  0
  9 27  1  0  0  0
 10 20  2  0  0  0
 10 19  1  0  0  0
 11 23  1  0  0  0
 11 16  2  0  0  0
 14 28  1  0  0  0
 14 29  1  0  0  0
 15 21  2  0  0  0
 15 30  1  0  0  0
 16 21  1  0  0  0
 16 24  1  0  0  0
 17 19  2  0  0  0
 17 31  1  0  0  0
 18 20  1  0  0  0
 18 32  1  0  0  0
 19 33  1  0  0  0
 20 34  1  0  0  0
 21 35  1  0  0  0
 24 25  1  0  0  0
 25 36  1  0  0  0
 25 37  1  0  0  0
 25 38  1  0  0  0
M  END
> <s_m_entry_id>
5144

> <s_m_entry_name>
dock_pv.135

> <s_m_Source_Path>
/home/csk/Desktop/cluster/DUD-E-result/pgh1

> <s_m_Source_File>
dock_pv.maegz

> <i_m_Source_File_Index>
135

> <chembl_id>
CHEMBL115979

> <chembl_pref_name>
None

> <i_lp_mmshare_version>
53161

> <r_lp_tautomer_probability>
1

> <s_lp_Force_Field>
OPLS_2005

> <r_lp_Energy>
25.857608

> <b_lp_Chiralities_Consistent>
1

> <s_lp_Variant>
CHEMBL221_lig137-1

> <s_i_glide_gridfile>
glide-grid_2oyu

> <i_i_glide_lignum>
159

> <i_i_glide_rotatable_bonds>
4

> <r_i_docking_score>
-9.25629058870596

> <r_i_glide_ligand_efficiency>
-0.370251623548238

> <r_i_glide_ligand_efficiency_sa>
-1.08262231369555

> <r_i_glide_ligand_efficiency_ln>
-2.19401825816837

> <r_i_glide_gscore>
-9.25629058870596

> <r_i_glide_lipo>
-4.28416816414518

> <r_i_glide_hbond>
-0.291892518554544

> <r_i_glide_metal>
0

> <r_i_glide_rewards>
-2.26812413469994

> <r_i_glide_evdw>
-29.4619445800781

> <r_i_glide_ecoul>
-7.40355110168457

> <r_i_glide_erotb>
0.246925125468655

> <r_i_glide_esite>
-0.0754010025183579

> <r_i_glide_emodel>
-51.7579596772293

> <r_i_glide_energy>
-36.8654956817627

> <r_i_glide_einternal>
0.781520187854767

> <i_i_glide_confnum>
16

> <i_i_glide_posenum>
352

> <r_i_glide_eff_state_penalty>
0

> <s_user_duplicate_titles>
CHEMBL221_lig137

> <i_f3d_flags>
0

> <s_m_subgroup_title>
dock_pv

> <s_m_subgroupid>
dock_pv

> <b_m_subgroup_collapsed>
1

$$$$
CHEMBL221_lig534
                    3D
 Schrodinger Suite 2021-1.
 36 38  0  0  1  0            999 V2000
   19.9940   49.1823   12.3529 N   0  0  0  0  0  0
   19.9925   48.9077    6.3346 S   0  0  0  0  0  0
   20.8484   49.8539   13.2205 C   0  0  0  0  0  0
   19.1051   48.4233   13.0209 N   0  0  0  0  0  0
   20.4343   49.4730   14.5007 C   0  0  0  0  0  0
   19.3757   48.5948   14.2869 C   0  0  0  0  0  0
   20.0107   49.0350    8.1275 C   0  0  0  0  0  0
   19.9557   49.1696   10.9316 C   0  0  0  0  0  0
   20.9230   49.8730    5.7553 O   0  0  0  0  0  0
   20.1230   47.4858    6.0510 O   0  0  0  0  0  0
   21.9627   50.7700   12.8230 C   0  0  0  0  0  0
   18.4085   49.3560    5.8000 N   0  0  0  0  0  0
   19.7406   47.8876    8.8813 C   0  0  0  0  0  0
   20.1230   50.2672    8.7827 C   0  0  0  0  0  0
   19.7230   47.9622   10.2693 C   0  0  0  0  0  0
   20.1230   50.3356   10.1781 C   0  0  0  0  0  0
   20.9230   49.8730   15.7104 N   0  0  0  0  0  0
   22.8442   50.4127   11.8000 C   0  0  0  0  0  0
   22.1387   51.9837   13.4951 C   0  0  0  0  0  0
   23.1830   52.8342   13.1410 C   0  0  0  0  0  0
   23.8734   51.2712   11.4289 C   0  0  0  0  0  0
   24.0450   52.4739   12.1081 C   0  0  0  0  0  0
   18.7987   48.1040   15.0565 H   0  0  0  0  0  0
   18.2294   50.3642    5.7456 H   0  0  0  0  0  0
   17.6369   48.8385    6.2373 H   0  0  0  0  0  0
   19.5707   46.9353    8.4015 H   0  0  0  0  0  0
   20.2332   51.1700    8.1998 H   0  0  0  0  0  0
   19.5445   47.0730   10.8449 H   0  0  0  0  0  0
   20.2496   51.2938   10.6614 H   0  0  0  0  0  0
   20.5230   49.5503   16.5797 H   0  0  0  0  0  0
   21.6883   50.5278   15.7769 H   0  0  0  0  0  0
   22.7236   49.4729   11.2842 H   0  0  0  0  0  0
   21.4663   52.2735   14.2898 H   0  0  0  0  0  0
   23.3227   53.7689   13.6658 H   0  0  0  0  0  0
   24.5370   51.0008   10.6215 H   0  0  0  0  0  0
   24.8546   53.1315   11.8302 H   0  0  0  0  0  0
  1  3  1  0  0  0
  1  4  1  0  0  0
  1  8  1  0  0  0
  2  7  1  0  0  0
  2  9  2  0  0  0
  2 10  2  0  0  0
  2 12  1  0  0  0
  3  5  2  0  0  0
  3 11  1  0  0  0
  4  6  2  0  0  0
  5 17  1  0  0  0
  5  6  1  0  0  0
  6 23  1  0  0  0
  7 14  1  0  0  0
  7 13  2  0  0  0
  8 15  2  0  0  0
  8 16  1  0  0  0
 11 18  1  0  0  0
 11 19  2  0  0  0
 12 24  1  0  0  0
 12 25  1  0  0  0
 13 15  1  0  0  0
 13 26  1  0  0  0
 14 16  2  0  0  0
 14 27  1  0  0  0
 15 28  1  0  0  0
 16 29  1  0  0  0
 17 30  1  0  0  0
 17 31  1  0  0  0
 18 21  2  0  0  0
 18 32  1  0  0  0
 19 20  1  0  0  0
 19 33  1  0  0  0
 20 22  2  0  0  0
 20 34  1  0  0  0
 21 22  1  0  0  0
 21 35  1  0  0  0
 22 36  1  0  0  0
M  END
> <s_m_entry_id>
5145

> <s_m_entry_name>
dock_pv.136

> <s_m_Source_Path>
/home/csk/Desktop/cluster/DUD-E-result/pgh1

> <s_m_Source_File>
dock_pv.maegz

> <i_m_Source_File_Index>
136

> <chembl_id>
CHEMBL28487

> <chembl_pref_name>
None

> <i_lp_mmshare_version>
53161

> <r_lp_tautomer_probability>
1

> <s_lp_Force_Field>
OPLS_2005

> <r_lp_Energy>
25.640206

> <b_lp_Chiralities_Consistent>
1

> <s_lp_Variant>
CHEMBL221_lig534-1

> <s_i_glide_gridfile>
glide-grid_2oyu

> <i_i_glide_lignum>
672

> <i_i_glide_rotatable_bonds>
3

> <r_i_docking_score>
-9.25516783334506

> <r_i_glide_ligand_efficiency>
-0.42068944697023

> <r_i_glide_ligand_efficiency_sa>
-1.17878837518769

> <r_i_glide_ligand_efficiency_ln>
-2.26230060891877

> <r_i_glide_gscore>
-9.25516783334506

> <r_i_glide_lipo>
-4.13829163630005

> <r_i_glide_hbond>
-0.511872776273445

> <r_i_glide_metal>
0

> <r_i_glide_rewards>
-2.57376664938677

> <r_i_glide_evdw>
-26.0029716491699

> <r_i_glide_ecoul>
-6.9148063659668

> <r_i_glide_erotb>
0.376169045383426

> <r_i_glide_esite>
-0.0700362794147162

> <r_i_glide_emodel>
-46.7274623565372

> <r_i_glide_energy>
-32.9177780151367

> <r_i_glide_einternal>
0.296328604221344

> <i_i_glide_confnum>
5

> <i_i_glide_posenum>
355

> <r_i_glide_eff_state_penalty>
0

> <s_user_duplicate_titles>
CHEMBL221_lig534

> <i_f3d_flags>
0

> <s_m_subgroup_title>
dock_pv

> <s_m_subgroupid>
dock_pv

> <b_m_subgroup_collapsed>
1

$$$$
CHEMBL221_lig57
                    3D
 Schrodinger Suite 2021-1.
 38 40  0  0  1  0            999 V2000
   20.5848   49.6410   13.2189 N   0  0  0  0  0  0
   19.8007   49.0029   12.2716 C   0  0  0  0  0  0
   20.0008   48.8856    6.2144 S   0  0  0  0  0  0
   19.1050   48.3267   14.3028 N   0  0  0  0  0  0
   18.9104   48.2337   13.0108 C   0  0  0  0  0  0
   20.1094   49.1571   14.4320 C   0  0  0  0  0  0
   21.6658   50.5258   12.9876 C   0  0  0  0  0  0
   19.9856   48.9993    7.9951 C   0  0  0  0  0  0
   19.9064   49.0886   10.7862 C   0  0  0  0  0  0
   20.1230   47.4730    5.8986 O   0  0  0  0  0  0
   20.9230   49.8730    5.6534 O   0  0  0  0  0  0
   20.1230   50.2197    8.6674 C   0  0  0  0  0  0
   19.7230   47.8407    8.7220 C   0  0  0  0  0  0
   20.1230   50.2638   10.0636 C   0  0  0  0  0  0
   19.7068   47.8925   10.1055 C   0  0  0  0  0  0
   22.6724   50.1622   12.0864 C   0  0  0  0  0  0
   21.7230   51.7654   13.6353 C   0  0  0  0  0  0
   18.3045   49.2802    5.6676 C   0  0  0  0  0  0
   23.7942   52.2500   12.5041 C   0  0  0  0  0  0
   20.6695   49.4730   15.8000 C   0  0  0  0  0  0
   22.7952   52.6223   13.3999 C   0  0  0  0  0  0
   23.7302   51.0303   11.8364 C   0  0  0  0  0  0
   24.8431   53.0729   12.2874 F   0  0  0  0  0  0
   20.5230   50.7396   16.1803 F   0  0  0  0  0  0
   18.1312   47.6014   12.6083 H   0  0  0  0  0  0
   20.2470   51.1302    8.0992 H   0  0  0  0  0  0
   19.5633   46.8954    8.2259 H   0  0  0  0  0  0
   20.2447   51.2076   10.5749 H   0  0  0  0  0  0
   19.5395   46.9956   10.6692 H   0  0  0  0  0  0
   22.6387   49.2087   11.5789 H   0  0  0  0  0  0
   20.9395   52.0822   14.3072 H   0  0  0  0  0  0
   18.3773   49.4730    4.6012 H   0  0  0  0  0  0
   17.9234   50.1472    6.1997 H   0  0  0  0  0  0
   17.6809   48.4040    5.8000 H   0  0  0  0  0  0
   20.1819   48.8860   16.5788 H   0  0  0  0  0  0
   21.7230   49.2454   15.8752 H   0  0  0  0  0  0
   22.8551   53.5737   13.9090 H   0  0  0  0  0  0
   24.5129   50.7526   11.1444 H   0  0  0  0  0  0
  1  2  1  0  0  0
  1  6  1  0  0  0
  1  7  1  0  0  0
  2  5  2  0  0  0
  2  9  1  0  0  0
  3  8  1  0  0  0
  3 10  2  0  0  0
  3 11  2  0  0  0
  3 18  1  0  0  0
  4  6  2  0  0  0
  4  5  1  0  0  0
  5 25  1  0  0  0
  6 20  1  0  0  0
  7 16  1  0  0  0
  7 17  2  0  0  0
  8 13  2  0  0  0
  8 12  1  0  0  0
  9 14  1  0  0  0
  9 15  2  0  0  0
 12 14  2  0  0  0
 12 26  1  0  0  0
 13 15  1  0  0  0
 13 27  1  0  0  0
 14 28  1  0  0  0
 15 29  1  0  0  0
 16 22  2  0  0  0
 16 30  1  0  0  0
 17 21  1  0  0  0
 17 31  1  0  0  0
 18 32  1  0  0  0
 18 33  1  0  0  0
 18 34  1  0  0  0
 19 21  2  0  0  0
 19 23  1  0  0  0
 19 22  1  0  0  0
 20 24  1  0  0  0
 20 35  1  0  0  0
 20 36  1  0  0  0
 21 37  1  0  0  0
 22 38  1  0  0  0
M  END
> <s_m_entry_id>
5146

> <s_m_entry_name>
dock_pv.137

> <s_m_Source_Path>
/home/csk/Desktop/cluster/DUD-E-result/pgh1

> <s_m_Source_File>
dock_pv.maegz

> <i_m_Source_File_Index>
137

> <chembl_id>
CHEMBL119001

> <chembl_pref_name>
None

> <i_lp_mmshare_version>
53161

> <r_lp_tautomer_probability>
1

> <s_lp_Force_Field>
OPLS_2005

> <r_lp_Energy>
13.667602

> <b_lp_Chiralities_Consistent>
1

> <s_lp_Variant>
CHEMBL221_lig57-1

> <s_i_glide_gridfile>
glide-grid_2oyu

> <i_i_glide_lignum>
74

> <i_i_glide_rotatable_bonds>
4

> <r_i_docking_score>
-9.25137790714025

> <r_i_glide_ligand_efficiency>
-0.385474079464177

> <r_i_glide_ligand_efficiency_sa>
-1.11189964976581

> <r_i_glide_ligand_efficiency_ln>
-2.21427925124885

> <r_i_glide_gscore>
-9.25137790714025

> <r_i_glide_lipo>
-4.19762050876006

> <r_i_glide_hbond>
0

> <r_i_glide_metal>
0

> <r_i_glide_rewards>
-3.4505700342912

> <r_i_glide_evdw>
-20.7573299407959

> <r_i_glide_ecoul>
-5.75240612030029

> <r_i_glide_erotb>
0.313706176222282

> <r_i_glide_esite>
-0.0161661252264356

> <r_i_glide_emodel>
-30.2345137316999

> <r_i_glide_energy>
-26.5097360610962

> <r_i_glide_einternal>
0.114257089793682

> <i_i_glide_confnum>
2

> <i_i_glide_posenum>
233

> <r_i_glide_eff_state_penalty>
0

> <s_user_duplicate_titles>
CHEMBL221_lig57

> <i_f3d_flags>
0

> <s_m_subgroup_title>
dock_pv

> <s_m_subgroupid>
dock_pv

> <b_m_subgroup_collapsed>
1

$$$$
CHEMBL221_lig136
                    3D
 Schrodinger Suite 2021-1.
 38 40  0  0  1  0            999 V2000
   20.0056   48.9940    6.2411 S   0  0  0  0  0  0
   19.8248   48.9873   12.2440 N   0  0  0  0  0  0
   20.5938   49.6119   13.2124 C   0  0  0  0  0  0
   19.1250   48.2584   14.2602 N   0  0  0  0  0  0
   18.9553   48.2011   12.9684 C   0  0  0  0  0  0
   20.1230   49.1017   14.4260 C   0  0  0  0  0  0
   21.6946   50.5891   12.9690 C   0  0  0  0  0  0
   20.0355   49.0460    8.0335 C   0  0  0  0  0  0
   22.6385   50.3672   11.9658 C   0  0  0  0  0  0
   19.8888   49.0563   10.8304 C   0  0  0  0  0  0
   23.6645   51.2810   11.7510 C   0  0  0  0  0  0
   20.9230   49.9776    5.6827 O   0  0  0  0  0  0
   20.1230   47.5986    5.8513 O   0  0  0  0  0  0
   18.4152   49.4730    5.8000 N   0  0  0  0  0  0
   21.8033   51.7360   13.7614 C   0  0  0  0  0  0
   23.8087   52.4038   12.5660 C   0  0  0  0  0  0
   19.7789   47.8639    8.7264 C   0  0  0  0  0  0
   20.1230   50.2504    8.7436 C   0  0  0  0  0  0
   19.7230   47.8730   10.1119 C   0  0  0  0  0  0
   20.0889   50.2580   10.1411 C   0  0  0  0  0  0
   22.8512   52.6350   13.5639 C   0  0  0  0  0  0
   20.6984   49.4731   16.0002 Cl  0  0  0  0  0  0
   24.5230   51.0762   10.7347 F   0  0  0  0  0  0
   24.9088   53.2040   12.3338 O   0  0  0  0  0  0
   25.1494   54.3272   13.1710 C   0  0  0  0  0  0
   18.2146   47.6020   12.4587 H   0  0  0  0  0  0
   22.5762   49.4894   11.3404 H   0  0  0  0  0  0
   18.2643   50.4810    5.9132 H   0  0  0  0  0  0
   18.1908   49.2338    4.8310 H   0  0  0  0  0  0
   21.0791   51.9325   14.5387 H   0  0  0  0  0  0
   19.6463   46.9310    8.2000 H   0  0  0  0  0  0
   20.2281   51.1783    8.2000 H   0  0  0  0  0  0
   19.5921   46.9462   10.6385 H   0  0  0  0  0  0
   20.1790   51.1950   10.6719 H   0  0  0  0  0  0
   22.9142   53.5040   14.2000 H   0  0  0  0  0  0
   26.0449   54.8463   12.8289 H   0  0  0  0  0  0
   25.3230   54.0191   14.2000 H   0  0  0  0  0  0
   24.3259   55.0416   13.1450 H   0  0  0  0  0  0
  1  8  1  0  0  0
  1 12  2  0  0  0
  1 13  2  0  0  0
  1 14  1  0  0  0
  2 10  1  0  0  0
  2  3  1  0  0  0
  2  5  1  0  0  0
  3  6  2  0  0  0
  3  7  1  0  0  0
  4  5  2  0  0  0
  4  6  1  0  0  0
  5 26  1  0  0  0
  6 22  1  0  0  0
  7  9  2  0  0  0
  7 15  1  0  0  0
  8 17  1  0  0  0
  8 18  2  0  0  0
  9 11  1  0  0  0
  9 27  1  0  0  0
 10 20  2  0  0  0
 10 19  1  0  0  0
 11 23  1  0  0  0
 11 16  2  0  0  0
 14 28  1  0  0  0
 14 29  1  0  0  0
 15 21  2  0  0  0
 15 30  1  0  0  0
 16 21  1  0  0  0
 16 24  1  0  0  0
 17 19  2  0  0  0
 17 31  1  0  0  0
 18 20  1  0  0  0
 18 32  1  0  0  0
 19 33  1  0  0  0
 20 34  1  0  0  0
 21 35  1  0  0  0
 24 25  1  0  0  0
 25 36  1  0  0  0
 25 37  1  0  0  0
 25 38  1  0  0  0
M  END
> <s_m_entry_id>
5147

> <s_m_entry_name>
dock_pv.138

> <s_m_Source_Path>
/home/csk/Desktop/cluster/DUD-E-result/pgh1

> <s_m_Source_File>
dock_pv.maegz

> <i_m_Source_File_Index>
138

> <chembl_id>
CHEMBL435381

> <chembl_pref_name>
CIMICOXIB

> <i_lp_mmshare_version>
53161

> <r_lp_tautomer_probability>
1

> <s_lp_Force_Field>
OPLS_2005

> <r_lp_Energy>
25.894263

> <b_lp_Chiralities_Consistent>
1

> <s_lp_Variant>
CHEMBL221_lig136-1

> <s_i_glide_gridfile>
glide-grid_2oyu

> <i_i_glide_lignum>
158

> <i_i_glide_rotatable_bonds>
4

> <r_i_docking_score>
-9.24843118067064

> <r_i_glide_ligand_efficiency>
-0.369937247226826

> <r_i_glide_ligand_efficiency_sa>
-1.08170307175625

> <r_i_glide_ligand_efficiency_ln>
-2.19215534293654

> <r_i_glide_gscore>
-9.24843118067064

> <r_i_glide_lipo>
-4.28816047371308

> <r_i_glide_hbond>
-0.285992315560878

> <r_i_glide_metal>
0

> <r_i_glide_rewards>
-2.39647732408663

> <r_i_glide_evdw>
-28.1731910705566

> <r_i_glide_ecoul>
-6.948410987854

> <r_i_glide_erotb>
0.266362653395938

> <r_i_glide_esite>
-0.0932425190000561

> <r_i_glide_emodel>
-50.7259440193434

> <r_i_glide_energy>
-35.1216020584106

> <r_i_glide_einternal>
1.3832026720047

> <i_i_glide_confnum>
4

> <i_i_glide_posenum>
286

> <r_i_glide_eff_state_penalty>
0

> <s_user_duplicate_titles>
CHEMBL221_lig136

> <i_f3d_flags>
0

> <s_m_subgroup_title>
dock_pv

> <s_m_subgroupid>
dock_pv

> <b_m_subgroup_collapsed>
1

$$$$
CHEMBL221_lig455
                    3D
 Schrodinger Suite 2021-1.
 38 40  0  0  1  0            999 V2000
   20.6358   49.6999   13.0154 C   0  0  0  0  0  0
   19.8708   48.8683    6.0261 S   0  0  0  0  0  0
   19.9021   48.9850   12.1310 C   0  0  0  0  0  0
   21.7464   50.6339   12.7267 C   0  0  0  0  0  0
   20.3492   49.2924   14.3934 C   0  0  0  0  0  0
   21.8017   51.8942   13.3365 C   0  0  0  0  0  0
   18.9414   48.0553   12.8516 C   0  0  0  0  0  0
   19.9141   48.9976    7.8158 C   0  0  0  0  0  0
   22.8954   52.7340   13.1323 C   0  0  0  0  0  0
   19.9168   49.0592   10.6412 C   0  0  0  0  0  0
   20.1230   47.4730    5.7537 O   0  0  0  0  0  0
   20.7400   49.8730    5.4245 O   0  0  0  0  0  0
   23.9549   52.3115   12.3300 C   0  0  0  0  0  0
   22.7885   50.2504   11.8766 C   0  0  0  0  0  0
   19.2190   48.2801   14.3310 C   0  0  0  0  0  0
   20.9230   49.7082   15.4002 O   0  0  0  0  0  0
   19.7230   47.8322    8.5521 C   0  0  0  0  0  0
   20.1230   50.2007    8.5022 C   0  0  0  0  0  0
   19.7230   47.8730    9.9367 C   0  0  0  0  0  0
   20.1278   50.2331    9.9045 C   0  0  0  0  0  0
   23.8879   51.0823   11.6799 C   0  0  0  0  0  0
   22.9230   53.9524   13.7172 F   0  0  0  0  0  0
   18.1232   49.0730    5.4387 C   0  0  0  0  0  0
   25.0602   53.0753   12.2000 F   0  0  0  0  0  0
   21.0047   52.2222   13.9884 H   0  0  0  0  0  0
   17.9003   48.2729   12.6095 H   0  0  0  0  0  0
   19.1112   47.0077   12.6022 H   0  0  0  0  0  0
   22.7649   49.2821   11.4001 H   0  0  0  0  0  0
   18.3449   48.6728   14.8512 H   0  0  0  0  0  0
   19.5169   47.3598   14.8327 H   0  0  0  0  0  0
   19.5671   46.8848    8.0605 H   0  0  0  0  0  0
   20.2443   51.1169    7.9420 H   0  0  0  0  0  0
   19.6060   46.9474   10.4667 H   0  0  0  0  0  0
   20.2751   51.1756   10.4110 H   0  0  0  0  0  0
   24.7022   50.7642   11.0469 H   0  0  0  0  0  0
   18.1228   49.0730    4.3497 H   0  0  0  0  0  0
   17.7222   50.0083    5.8196 H   0  0  0  0  0  0
   17.5502   48.2253    5.8000 H   0  0  0  0  0  0
  1  3  2  0  0  0
  1  4  1  0  0  0
  1  5  1  0  0  0
  2  8  1  0  0  0
  2 11  2  0  0  0
  2 12  2  0  0  0
  2 23  1  0  0  0
  3  7  1  0  0  0
  3 10  1  0  0  0
  4  6  1  0  0  0
  4 14  2  0  0  0
  5 15  1  0  0  0
  5 16  2  0  0  0
  6  9  2  0  0  0
  6 25  1  0  0  0
  7 15  1  0  0  0
  7 26  1  0  0  0
  7 27  1  0  0  0
  8 18  2  0  0  0
  8 17  1  0  0  0
  9 22  1  0  0  0
  9 13  1  0  0  0
 10 19  1  0  0  0
 10 20  2  0  0  0
 13 21  2  0  0  0
 13 24  1  0  0  0
 14 21  1  0  0  0
 14 28  1  0  0  0
 15 29  1  0  0  0
 15 30  1  0  0  0
 17 19  2  0  0  0
 17 31  1  0  0  0
 18 20  1  0  0  0
 18 32  1  0  0  0
 19 33  1  0  0  0
 20 34  1  0  0  0
 21 35  1  0  0  0
 23 36  1  0  0  0
 23 37  1  0  0  0
 23 38  1  0  0  0
M  END
> <s_m_entry_id>
5148

> <s_m_entry_name>
dock_pv.139

> <s_m_Source_Path>
/home/csk/Desktop/cluster/DUD-E-result/pgh1

> <s_m_Source_File>
dock_pv.maegz

> <i_m_Source_File_Index>
139

> <chembl_id>
CHEMBL279249

> <chembl_pref_name>
None

> <i_lp_mmshare_version>
53161

> <r_lp_tautomer_probability>
0.499977396165832

> <s_lp_Force_Field>
OPLS_2005

> <r_lp_Energy>
20.2486

> <b_lp_Chiralities_Consistent>
1

> <s_lp_Variant>
CHEMBL221_lig455-1

> <s_i_glide_gridfile>
glide-grid_2oyu

> <i_i_glide_lignum>
550

> <i_i_glide_rotatable_bonds>
3

> <r_i_docking_score>
-9.24244559706748

> <r_i_glide_ligand_efficiency>
-0.385101899877812

> <r_i_glide_ligand_efficiency_sa>
-1.11082609806993

> <r_i_glide_ligand_efficiency_ln>
-2.21214133957144

> <r_i_glide_gscore>
-9.24244559706748

> <r_i_glide_lipo>
-4.41326381095453

> <r_i_glide_hbond>
0

> <r_i_glide_metal>
0

> <r_i_glide_rewards>
-3.16032098477216

> <r_i_glide_evdw>
-22.3359756469727

> <r_i_glide_ecoul>
-5.64709806442261

> <r_i_glide_erotb>
0.313711456831416

> <r_i_glide_esite>
-0.018708766160182

> <r_i_glide_emodel>
-33.7923352151691

> <r_i_glide_energy>
-27.9830737113953

> <r_i_glide_einternal>
1.38868689537048

> <i_i_glide_confnum>
3

> <i_i_glide_posenum>
191

> <r_i_glide_eff_state_penalty>
0

> <s_user_duplicate_titles>
CHEMBL221_lig455

> <i_f3d_flags>
0

> <s_m_subgroup_title>
dock_pv

> <s_m_subgroupid>
dock_pv

> <b_m_subgroup_collapsed>
1

$$$$
CHEMBL221_lig166
                    3D
 Schrodinger Suite 2021-1.
 36 38  0  0  1  0            999 V2000
   19.9951   48.9580    6.2429 S   0  0  0  0  0  0
   20.8563   49.8498   13.2307 C   0  0  0  0  0  0
   20.0862   49.1610   12.2963 C   0  0  0  0  0  0
   20.5220   49.4730   14.4565 N   0  0  0  0  0  0
   19.2558   48.3457   12.9915 O   0  0  0  0  0  0
   19.5633   48.5948   14.2861 C   0  0  0  0  0  0
   20.0072   49.0312    8.0270 C   0  0  0  0  0  0
   21.9274   50.8544   12.9986 C   0  0  0  0  0  0
   19.9900   49.1460   10.8140 C   0  0  0  0  0  0
   20.9230   49.9306    5.6837 O   0  0  0  0  0  0
   20.1230   47.5565    5.8777 O   0  0  0  0  0  0
   18.4142   49.4730    5.8000 N   0  0  0  0  0  0
   19.7299   47.8771    8.7674 C   0  0  0  0  0  0
   20.1230   50.2590    8.6847 C   0  0  0  0  0  0
   19.7230   47.9476   10.1575 C   0  0  0  0  0  0
   20.1567   50.3139   10.0750 C   0  0  0  0  0  0
   21.9469   52.0298   13.7525 C   0  0  0  0  0  0
   22.9230   50.6165   12.0458 C   0  0  0  0  0  0
   24.0016   52.6730   12.6765 C   0  0  0  0  0  0
   23.9650   51.5267   11.8856 C   0  0  0  0  0  0
   22.9767   52.9453   13.5766 C   0  0  0  0  0  0
   25.0542   53.5156   12.5993 F   0  0  0  0  0  0
   18.7747   47.8728   15.3507 C   0  0  0  0  0  0
   18.2954   50.4843    5.9210 H   0  0  0  0  0  0
   18.1748   49.2481    4.8311 H   0  0  0  0  0  0
   19.5466   46.9340    8.2746 H   0  0  0  0  0  0
   20.2311   51.1665    8.1085 H   0  0  0  0  0  0
   19.5393   47.0696   10.7466 H   0  0  0  0  0  0
   20.3106   51.2608   10.5723 H   0  0  0  0  0  0
   21.1751   52.2289   14.4823 H   0  0  0  0  0  0
   22.9095   49.7117   11.4558 H   0  0  0  0  0  0
   24.7580   51.3290   11.1785 H   0  0  0  0  0  0
   23.0088   53.8435   14.1765 H   0  0  0  0  0  0
   19.0467   48.2003   16.3537 H   0  0  0  0  0  0
   17.7049   48.0501   15.2373 H   0  0  0  0  0  0
   18.9295   46.7954   15.3049 H   0  0  0  0  0  0
  1  7  1  0  0  0
  1 10  2  0  0  0
  1 11  2  0  0  0
  1 12  1  0  0  0
  2  3  2  0  0  0
  2  4  1  0  0  0
  2  8  1  0  0  0
  3  9  1  0  0  0
  3  5  1  0  0  0
  4  6  2  0  0  0
  5  6  1  0  0  0
  6 23  1  0  0  0
  7 13  1  0  0  0
  7 14  2  0  0  0
  8 17  1  0  0  0
  8 18  2  0  0  0
  9 16  2  0  0  0
  9 15  1  0  0  0
 12 24  1  0  0  0
 12 25  1  0  0  0
 13 15  2  0  0  0
 13 26  1  0  0  0
 14 16  1  0  0  0
 14 27  1  0  0  0
 15 28  1  0  0  0
 16 29  1  0  0  0
 17 21  2  0  0  0
 17 30  1  0  0  0
 18 20  1  0  0  0
 18 31  1  0  0  0
 19 20  2  0  0  0
 19 22  1  0  0  0
 19 21  1  0  0  0
 20 32  1  0  0  0
 21 33  1  0  0  0
 23 34  1  0  0  0
 23 35  1  0  0  0
 23 36  1  0  0  0
M  END
> <s_m_entry_id>
5149

> <s_m_entry_name>
dock_pv.140

> <s_m_Source_Path>
/home/csk/Desktop/cluster/DUD-E-result/pgh1

> <s_m_Source_File>
dock_pv.maegz

> <i_m_Source_File_Index>
140

> <chembl_id>
CHEMBL290192

> <chembl_pref_name>
None

> <i_lp_mmshare_version>
53161

> <r_lp_tautomer_probability>
1

> <s_lp_Force_Field>
OPLS_2005

> <r_lp_Energy>
19.226665

> <b_lp_Chiralities_Consistent>
1

> <s_lp_Variant>
CHEMBL221_lig166-1

> <s_i_glide_gridfile>
glide-grid_2oyu

> <i_i_glide_lignum>
189

> <i_i_glide_rotatable_bonds>
3

> <r_i_docking_score>
-9.23156454589543

> <r_i_glide_ligand_efficiency>
-0.401372371560671

> <r_i_glide_ligand_efficiency_sa>
-1.1414496329131

> <r_i_glide_ligand_efficiency_ln>
-2.23227601439682

> <r_i_glide_gscore>
-9.23156454589543

> <r_i_glide_lipo>
-4.26546418447999

> <r_i_glide_hbond>
-0.28929797917097

> <r_i_glide_metal>
0

> <r_i_glide_rewards>
-2.71769971919256

> <r_i_glide_evdw>
-25.0214729309082

> <r_i_glide_ecoul>
-6.51091003417969

> <r_i_glide_erotb>
0.341007519736486

> <r_i_glide_esite>
-0.072400031116025

> <r_i_glide_emodel>
-44.5811397520438

> <r_i_glide_energy>
-31.5323829650879

> <r_i_glide_einternal>
2.14387273788452

> <i_i_glide_confnum>
5

> <i_i_glide_posenum>
305

> <r_i_glide_eff_state_penalty>
0

> <s_user_duplicate_titles>
CHEMBL221_lig166

> <i_f3d_flags>
0

> <s_m_subgroup_title>
dock_pv

> <s_m_subgroupid>
dock_pv

> <b_m_subgroup_collapsed>
1

$$$$
CHEMBL221_lig294
                    3D
 Schrodinger Suite 2021-1.
 41 43  0  0  1  0            999 V2000
   19.2960   48.0971   14.0384 C   0  0  0  0  0  0
   20.1729   49.0648   14.1770 N   0  0  0  0  0  0
   20.5299   49.4603   12.9721 C   0  0  0  0  0  0
   19.8823   48.7304   11.9750 N   0  0  0  0  0  0
   19.1036   47.8495   12.6929 C   0  0  0  0  0  0
   19.8855   49.0253    5.9688 S   0  0  0  0  0  0
   18.7316   47.4026   15.2611 C   0  0  0  0  0  0
   21.5447   50.5641   12.8350 C   0  0  0  0  0  0
   19.9255   48.8022   10.5560 C   0  0  0  0  0  0
   19.9075   48.9023    7.7530 C   0  0  0  0  0  0
   22.5175   50.5973   11.8279 C   0  0  0  0  0  0
   23.4713   51.6221   11.7811 C   0  0  0  0  0  0
   20.4169   47.8289    5.3551 O   0  0  0  0  0  0
   20.5379   50.2718    5.6580 O   0  0  0  0  0  0
   23.4909   52.5967   12.7904 C   0  0  0  0  0  0
   21.5596   51.5749   13.8076 C   0  0  0  0  0  0
   17.6795   46.6466   14.9554 F   0  0  0  0  0  0
   19.6579   46.6116   15.7975 F   0  0  0  0  0  0
   18.3416   48.2720   16.1952 F   0  0  0  0  0  0
   19.7224   47.6427    9.7875 C   0  0  0  0  0  0
   20.1233   50.0198    9.9026 C   0  0  0  0  0  0
   20.1230   50.0607    8.5122 C   0  0  0  0  0  0
   19.7228   47.6851    8.3955 C   0  0  0  0  0  0
   22.5215   52.5770   13.7892 C   0  0  0  0  0  0
   18.1149   49.0720    5.4464 C   0  0  0  0  0  0
   24.7143   53.8183   12.8549 Cl  0  0  0  0  0  0
   24.4624   51.6713   10.6310 C   0  0  0  0  0  0
   18.4854   47.1197   12.1933 H   0  0  0  0  0  0
   22.5367   49.8204   11.0783 H   0  0  0  0  0  0
   20.8325   51.5805   14.6064 H   0  0  0  0  0  0
   19.6579   46.6754   10.2606 H   0  0  0  0  0  0
   20.2351   50.9430   10.4529 H   0  0  0  0  0  0
   20.2269   51.0186    8.0205 H   0  0  0  0  0  0
   19.5875   46.7812    7.8232 H   0  0  0  0  0  0
   22.5213   53.3311   14.5638 H   0  0  0  0  0  0
   18.0776   49.0728    4.3584 H   0  0  0  0  0  0
   17.6204   49.9441    5.8689 H   0  0  0  0  0  0
   17.7085   48.1365    5.8007 H   0  0  0  0  0  0
   25.4717   51.5201   11.0011 H   0  0  0  0  0  0
   24.2496   50.9278    9.8622 H   0  0  0  0  0  0
   24.4438   52.6530   10.1569 H   0  0  0  0  0  0
  1  2  1  0  0  0
  1  5  2  0  0  0
  1  7  1  0  0  0
  2  3  2  0  0  0
  3  8  1  0  0  0
  3  4  1  0  0  0
  4  5  1  0  0  0
  4  9  1  0  0  0
  5 28  1  0  0  0
  6 10  1  0  0  0
  6 13  2  0  0  0
  6 14  2  0  0  0
  6 25  1  0  0  0
  7 17  1  0  0  0
  7 18  1  0  0  0
  7 19  1  0  0  0
  8 11  2  0  0  0
  8 16  1  0  0  0
  9 20  1  0  0  0
  9 21  2  0  0  0
 10 22  2  0  0  0
 10 23  1  0  0  0
 11 12  1  0  0  0
 11 29  1  0  0  0
 12 27  1  0  0  0
 12 15  2  0  0  0
 15 24  1  0  0  0
 15 26  1  0  0  0
 16 24  2  0  0  0
 16 30  1  0  0  0
 20 23  2  0  0  0
 20 31  1  0  0  0
 21 22  1  0  0  0
 21 32  1  0  0  0
 22 33  1  0  0  0
 23 34  1  0  0  0
 24 35  1  0  0  0
 25 36  1  0  0  0
 25 37  1  0  0  0
 25 38  1  0  0  0
 27 39  1  0  0  0
 27 40  1  0  0  0
 27 41  1  0  0  0
M  END
> <s_m_entry_id>
5150

> <s_m_entry_name>
dock_pv.141

> <s_m_Source_Path>
/home/csk/Desktop/cluster/DUD-E-result/pgh1

> <s_m_Source_File>
dock_pv.maegz

> <i_m_Source_File_Index>
141

> <chembl_id>
CHEMBL290945

> <chembl_pref_name>
None

> <i_lp_mmshare_version>
53161

> <r_lp_tautomer_probability>
1

> <s_lp_Force_Field>
OPLS_2005

> <r_lp_Energy>
18.416219

> <b_lp_Chiralities_Consistent>
1

> <s_lp_Variant>
CHEMBL221_lig294-1

> <s_i_glide_gridfile>
glide-grid_2oyu

> <i_i_glide_lignum>
327

> <i_i_glide_rotatable_bonds>
4

> <r_i_docking_score>
-9.22688601469534

> <r_i_glide_ligand_efficiency>
-0.34173651906279

> <r_i_glide_ligand_efficiency_sa>
-1.02520955606206

> <r_i_glide_ligand_efficiency_ln>
-2.14786694711652

> <r_i_glide_gscore>
-9.22688601469534

> <r_i_glide_lipo>
-4.42094770567449

> <r_i_glide_hbond>
0

> <r_i_glide_metal>
0

> <r_i_glide_rewards>
-2.97354984190259

> <r_i_glide_evdw>
-26.58327293396

> <r_i_glide_ecoul>
-4.60943794250488

> <r_i_glide_erotb>
0.229436402885006

> <r_i_glide_esite>
-0.0412455319295299

> <r_i_glide_emodel>
-36.0455829796024

> <r_i_glide_energy>
-31.1927108764648

> <r_i_glide_einternal>
2.24800157546997

> <i_i_glide_confnum>
3

> <i_i_glide_posenum>
305

> <r_i_glide_eff_state_penalty>
0

> <s_user_duplicate_titles>
CHEMBL221_lig294

> <i_f3d_flags>
0

> <s_m_subgroup_title>
dock_pv

> <s_m_subgroupid>
dock_pv

> <b_m_subgroup_collapsed>
1

$$$$
CHEMBL221_lig130
                    3D
 Schrodinger Suite 2021-1.
 38 40  0  0  1  0            999 V2000
   20.5714   49.7129   14.6841 C   0  0  0  0  0  0
   20.9230   50.0055   13.3775 N   0  0  0  0  0  0
   19.5922   48.8680   14.7740 N   0  0  0  0  0  0
   19.1931   48.6727   13.5380 C   0  0  0  0  0  0
   20.0266   49.2856   12.5945 C   0  0  0  0  0  0
   20.0113   48.8963    6.4608 S   0  0  0  0  0  0
   21.9807   50.8415   12.9733 C   0  0  0  0  0  0
   20.0192   49.0391    8.2681 C   0  0  0  0  0  0
   19.9733   49.2364   11.0860 C   0  0  0  0  0  0
   20.1230   47.4730    6.1936 O   0  0  0  0  0  0
   20.9230   49.8552    5.8443 O   0  0  0  0  0  0
   21.3230   50.3932   16.0761 Cl  0  0  0  0  0  0
   20.1230   50.2788    8.9008 C   0  0  0  0  0  0
   19.7413   47.9125    9.0548 C   0  0  0  0  0  0
   20.1353   50.3771   10.2945 C   0  0  0  0  0  0
   19.7230   48.0157   10.4489 C   0  0  0  0  0  0
   22.1037   52.1222   13.5245 C   0  0  0  0  0  0
   22.9377   50.3580   12.0789 C   0  0  0  0  0  0
   18.3612   49.3272    5.8000 C   0  0  0  0  0  0
   24.2050   52.3793   12.3934 C   0  0  0  0  0  0
   17.9442   47.8730   13.3559 C   0  0  0  0  0  0
   24.0513   51.1368   11.7858 C   0  0  0  0  0  0
   23.2255   52.8893   13.2378 C   0  0  0  0  0  0
   25.3420   53.0763   12.2000 F   0  0  0  0  0  0
   20.2368   51.1658    8.2952 H   0  0  0  0  0  0
   19.5729   46.9513    8.5925 H   0  0  0  0  0  0
   20.2717   51.3445   10.7552 H   0  0  0  0  0  0
   19.5563   47.1250   11.0369 H   0  0  0  0  0  0
   21.3602   52.5113   14.2060 H   0  0  0  0  0  0
   22.8479   49.3701   11.6503 H   0  0  0  0  0  0
   18.4650   49.3982    4.7192 H   0  0  0  0  0  0
   18.0070   50.2719    6.2000 H   0  0  0  0  0  0
   17.7230   48.4908    6.0340 H   0  0  0  0  0  0
   17.6045   47.8730   12.3223 H   0  0  0  0  0  0
   18.1230   46.8418   13.6581 H   0  0  0  0  0  0
   17.1162   48.2543   13.9553 H   0  0  0  0  0  0
   24.8198   50.7630   11.1269 H   0  0  0  0  0  0
   23.3562   53.8577   13.6995 H   0  0  0  0  0  0
  1  2  1  0  0  0
  1  3  2  0  0  0
  1 12  1  0  0  0
  2  5  1  0  0  0
  2  7  1  0  0  0
  3  4  1  0  0  0
  4 21  1  0  0  0
  4  5  2  0  0  0
  5  9  1  0  0  0
  6  8  1  0  0  0
  6 10  2  0  0  0
  6 11  2  0  0  0
  6 19  1  0  0  0
  7 17  2  0  0  0
  7 18  1  0  0  0
  8 14  1  0  0  0
  8 13  2  0  0  0
  9 15  2  0  0  0
  9 16  1  0  0  0
 13 15  1  0  0  0
 13 25  1  0  0  0
 14 16  2  0  0  0
 14 26  1  0  0  0
 15 27  1  0  0  0
 16 28  1  0  0  0
 17 23  1  0  0  0
 17 29  1  0  0  0
 18 22  2  0  0  0
 18 30  1  0  0  0
 19 31  1  0  0  0
 19 32  1  0  0  0
 19 33  1  0  0  0
 20 22  1  0  0  0
 20 24  1  0  0  0
 20 23  2  0  0  0
 21 34  1  0  0  0
 21 35  1  0  0  0
 21 36  1  0  0  0
 22 37  1  0  0  0
 23 38  1  0  0  0
M  END
> <s_m_entry_id>
5151

> <s_m_entry_name>
dock_pv.142

> <s_m_Source_Path>
/home/csk/Desktop/cluster/DUD-E-result/pgh1

> <s_m_Source_File>
dock_pv.maegz

> <i_m_Source_File_Index>
142

> <chembl_id>
CHEMBL324042

> <chembl_pref_name>
None

> <i_lp_mmshare_version>
53161

> <r_lp_tautomer_probability>
1

> <s_lp_Force_Field>
OPLS_2005

> <r_lp_Energy>
10.579109

> <b_lp_Chiralities_Consistent>
1

> <s_lp_Variant>
CHEMBL221_lig130-1

> <s_i_glide_gridfile>
glide-grid_2oyu

> <i_i_glide_lignum>
152

> <i_i_glide_rotatable_bonds>
3

> <r_i_docking_score>
-9.20223054698337

> <r_i_glide_ligand_efficiency>
-0.383426272790974

> <r_i_glide_ligand_efficiency_sa>
-1.10599275318307

> <r_i_glide_ligand_efficiency_ln>
-2.20251603273791

> <r_i_glide_gscore>
-9.20223054698337

> <r_i_glide_lipo>
-4.28234017826655

> <r_i_glide_hbond>
0

> <r_i_glide_metal>
0

> <r_i_glide_rewards>
-3.15162963203374

> <r_i_glide_evdw>
-23.1056900024414

> <r_i_glide_ecoul>
-5.93959283828735

> <r_i_glide_erotb>
0.288953270169459

> <r_i_glide_esite>
-0.0109905809873687

> <r_i_glide_emodel>
-31.3276515368824

> <r_i_glide_energy>
-29.0452828407288

> <r_i_glide_einternal>
1.66170608997345

> <i_i_glide_confnum>
4

> <i_i_glide_posenum>
324

> <r_i_glide_eff_state_penalty>
0

> <s_user_duplicate_titles>
CHEMBL221_lig130

> <i_f3d_flags>
0

> <s_m_subgroup_title>
dock_pv

> <s_m_subgroupid>
dock_pv

> <b_m_subgroup_collapsed>
1

$$$$
CHEMBL221_lig322
                    3D
 Schrodinger Suite 2021-1.
 38 40  0  0  1  0            999 V2000
   20.1679   49.1625   14.2165 N   0  0  0  0  0  0
   20.5415   49.5786   12.9857 N   0  0  0  0  0  0
   19.1865   48.3013   14.0422 C   0  0  0  0  0  0
   19.7982   48.9578   11.9990 C   0  0  0  0  0  0
   18.9229   48.1456   12.6927 C   0  0  0  0  0  0
   19.9157   48.8711    5.9597 S   0  0  0  0  0  0
   18.5293   47.5645   15.1853 C   0  0  0  0  0  0
   21.6249   50.4809   12.8515 C   0  0  0  0  0  0
   19.9306   48.9992    7.7356 C   0  0  0  0  0  0
   19.9146   49.0694   10.5219 C   0  0  0  0  0  0
   20.1230   47.4730    5.6750 O   0  0  0  0  0  0
   20.7969   49.8730    5.3733 O   0  0  0  0  0  0
   19.1626   46.4139   15.4000 F   0  0  0  0  0  0
   18.5366   48.2730   16.3080 F   0  0  0  0  0  0
   17.2567   47.2782   14.9108 F   0  0  0  0  0  0
   19.7230   47.8310    8.4594 C   0  0  0  0  0  0
   20.1230   50.2101    8.4089 C   0  0  0  0  0  0
   19.7230   47.8730    9.8380 C   0  0  0  0  0  0
   20.1230   50.2496    9.8058 C   0  0  0  0  0  0
   21.7230   51.5989   13.6902 C   0  0  0  0  0  0
   22.6105   50.2464   11.8858 C   0  0  0  0  0  0
   18.1837   49.0534    5.4000 C   0  0  0  0  0  0
   23.7723   52.2330   12.5908 C   0  0  0  0  0  0
   23.6839   51.1230   11.7553 C   0  0  0  0  0  0
   22.7959   52.4756   13.5530 C   0  0  0  0  0  0
   24.8248   53.0730   12.4773 F   0  0  0  0  0  0
   18.1765   47.4901   12.2650 H   0  0  0  0  0  0
   19.5648   46.8855    7.9658 H   0  0  0  0  0  0
   20.2397   51.1238    7.8430 H   0  0  0  0  0  0
   19.5833   46.9571   10.3822 H   0  0  0  0  0  0
   20.2487   51.1899   10.3223 H   0  0  0  0  0  0
   20.9728   51.7953   14.4437 H   0  0  0  0  0  0
   22.5499   49.3828   11.2403 H   0  0  0  0  0  0
   18.1506   49.0730    4.3162 H   0  0  0  0  0  0
   17.7230   49.8997    5.8705 H   0  0  0  0  0  0
   17.7230   48.1366    5.7315 H   0  0  0  0  0  0
   24.4509   50.9415   11.0154 H   0  0  0  0  0  0
   22.8819   53.3372   14.1999 H   0  0  0  0  0  0
  1  2  1  0  0  0
  1  3  2  0  0  0
  2  4  1  0  0  0
  2  8  1  0  0  0
  3  5  1  0  0  0
  3  7  1  0  0  0
  4 10  1  0  0  0
  4  5  2  0  0  0
  5 27  1  0  0  0
  6  9  1  0  0  0
  6 11  2  0  0  0
  6 12  2  0  0  0
  6 22  1  0  0  0
  7 13  1  0  0  0
  7 14  1  0  0  0
  7 15  1  0  0  0
  8 20  2  0  0  0
  8 21  1  0  0  0
  9 17  1  0  0  0
  9 16  2  0  0  0
 10 18  2  0  0  0
 10 19  1  0  0  0
 16 18  1  0  0  0
 16 28  1  0  0  0
 17 19  2  0  0  0
 17 29  1  0  0  0
 18 30  1  0  0  0
 19 31  1  0  0  0
 20 25  1  0  0  0
 20 32  1  0  0  0
 21 24  2  0  0  0
 21 33  1  0  0  0
 22 34  1  0  0  0
 22 35  1  0  0  0
 22 36  1  0  0  0
 23 24  1  0  0  0
 23 26  1  0  0  0
 23 25  2  0  0  0
 24 37  1  0  0  0
 25 38  1  0  0  0
M  END
> <s_m_entry_id>
5152

> <s_m_entry_name>
dock_pv.143

> <s_m_Source_Path>
/home/csk/Desktop/cluster/DUD-E-result/pgh1

> <s_m_Source_File>
dock_pv.maegz

> <i_m_Source_File_Index>
143

> <chembl_id>
CHEMBL355263

> <chembl_pref_name>
None

> <i_lp_mmshare_version>
53161

> <r_lp_tautomer_probability>
1

> <s_lp_Force_Field>
OPLS_2005

> <r_lp_Energy>
13.921285

> <b_lp_Chiralities_Consistent>
1

> <s_lp_Variant>
CHEMBL221_lig322-1

> <s_i_glide_gridfile>
glide-grid_2oyu

> <i_i_glide_lignum>
379

> <i_i_glide_rotatable_bonds>
4

> <r_i_docking_score>
-9.18874068930621

> <r_i_glide_ligand_efficiency>
-0.353413103434854

> <r_i_glide_ligand_efficiency_sa>
-1.04698492831234

> <r_i_glide_ligand_efficiency_ln>
-2.15794560016616

> <r_i_glide_gscore>
-9.18874068930621

> <r_i_glide_lipo>
-4.26155226044877

> <r_i_glide_hbond>
0

> <r_i_glide_metal>
0

> <r_i_glide_rewards>
-3.17779995355274

> <r_i_glide_evdw>
-21.2129592895508

> <r_i_glide_ecoul>
-6.09436702728271

> <r_i_glide_erotb>
0.26321578687019

> <r_i_glide_esite>
-0.037801243604943

> <r_i_glide_emodel>
-30.8593467958723

> <r_i_glide_energy>
-27.3073263168335

> <r_i_glide_einternal>
0.558687150478363

> <i_i_glide_confnum>
14

> <i_i_glide_posenum>
106

> <r_i_glide_eff_state_penalty>
0

> <s_user_duplicate_titles>
CHEMBL221_lig322

> <i_f3d_flags>
0

> <s_m_subgroup_title>
dock_pv

> <s_m_subgroupid>
dock_pv

> <b_m_subgroup_collapsed>
1

$$$$
CHEMBL221_lig73
                    3D
 Schrodinger Suite 2021-1.
 39 41  0  0  1  0            999 V2000
   20.6582   49.6426   13.1579 C   0  0  0  0  0  0
   19.8684   49.0235   12.2022 N   0  0  0  0  0  0
   19.1767   48.3142   14.2287 N   0  0  0  0  0  0
   18.9887   48.2608   12.9403 C   0  0  0  0  0  0
   19.9793   48.8997    6.2000 S   0  0  0  0  0  0
   20.1931   49.1379   14.3779 C   0  0  0  0  0  0
   21.7845   50.5940   12.8989 C   0  0  0  0  0  0
   21.9142   51.7880   13.6231 C   0  0  0  0  0  0
   19.9184   49.0680   10.7873 C   0  0  0  0  0  0
   19.9612   49.0041    7.9872 C   0  0  0  0  0  0
   22.7584   50.2737   11.9500 C   0  0  0  0  0  0
   22.9965   52.6344   13.4000 C   0  0  0  0  0  0
   20.9228   49.8730    5.6564 O   0  0  0  0  0  0
   20.1230   47.4874    5.8848 O   0  0  0  0  0  0
   19.7230   47.8372    8.7102 C   0  0  0  0  0  0
   20.1230   50.2159    8.6722 C   0  0  0  0  0  0
   19.7230   47.8730   10.0958 C   0  0  0  0  0  0
   20.1230   50.2520   10.0708 C   0  0  0  0  0  0
   20.8159   49.4728   15.9418 Cl  0  0  0  0  0  0
   23.9761   52.3092   12.4526 C   0  0  0  0  0  0
   21.0002   52.1448   14.5532 F   0  0  0  0  0  0
   23.8327   51.1307   11.7206 C   0  0  0  0  0  0
   18.2806   49.3421    5.6202 C   0  0  0  0  0  0
   25.0966   53.0730   12.2001 O   0  0  0  0  0  0
   25.3523   54.2174   13.0122 C   0  0  0  0  0  0
   18.2306   47.6739   12.4422 H   0  0  0  0  0  0
   22.6906   49.3479   11.3999 H   0  0  0  0  0  0
   23.0610   53.5353   13.9907 H   0  0  0  0  0  0
   19.5717   46.8942    8.2067 H   0  0  0  0  0  0
   20.2484   51.1303    8.1101 H   0  0  0  0  0  0
   19.5962   46.9580   10.6441 H   0  0  0  0  0  0
   20.2515   51.1950   10.5832 H   0  0  0  0  0  0
   24.5783   50.8656   10.9864 H   0  0  0  0  0  0
   18.3680   49.4730    4.5468 H   0  0  0  0  0  0
   17.6212   48.5019    5.8000 H   0  0  0  0  0  0
   17.9377   50.2505    6.1054 H   0  0  0  0  0  0
   26.2396   54.7335   12.6466 H   0  0  0  0  0  0
   25.5414   53.9262   14.0454 H   0  0  0  0  0  0
   24.5315   54.9357   12.9999 H   0  0  0  0  0  0
  1  2  1  0  0  0
  1  6  2  0  0  0
  1  7  1  0  0  0
  2  4  1  0  0  0
  2  9  1  0  0  0
  3  6  1  0  0  0
  3  4  2  0  0  0
  4 26  1  0  0  0
  5 10  1  0  0  0
  5 13  2  0  0  0
  5 14  2  0  0  0
  5 23  1  0  0  0
  6 19  1  0  0  0
  7  8  2  0  0  0
  7 11  1  0  0  0
  8 12  1  0  0  0
  8 21  1  0  0  0
  9 17  1  0  0  0
  9 18  2  0  0  0
 10 16  2  0  0  0
 10 15  1  0  0  0
 11 22  2  0  0  0
 11 27  1  0  0  0
 12 20  2  0  0  0
 12 28  1  0  0  0
 15 17  2  0  0  0
 15 29  1  0  0  0
 16 18  1  0  0  0
 16 30  1  0  0  0
 17 31  1  0  0  0
 18 32  1  0  0  0
 20 22  1  0  0  0
 20 24  1  0  0  0
 22 33  1  0  0  0
 23 34  1  0  0  0
 23 35  1  0  0  0
 23 36  1  0  0  0
 24 25  1  0  0  0
 25 37  1  0  0  0
 25 38  1  0  0  0
 25 39  1  0  0  0
M  END
> <s_m_entry_id>
5153

> <s_m_entry_name>
dock_pv.144

> <s_m_Source_Path>
/home/csk/Desktop/cluster/DUD-E-result/pgh1

> <s_m_Source_File>
dock_pv.maegz

> <i_m_Source_File_Index>
144

> <chembl_id>
CHEMBL117528

> <chembl_pref_name>
None

> <i_lp_mmshare_version>
53161

> <r_lp_tautomer_probability>
1

> <s_lp_Force_Field>
OPLS_2005

> <r_lp_Energy>
16.031658

> <b_lp_Chiralities_Consistent>
1

> <s_lp_Variant>
CHEMBL221_lig73-1

> <s_i_glide_gridfile>
glide-grid_2oyu

> <i_i_glide_lignum>
90

> <i_i_glide_rotatable_bonds>
4

> <r_i_docking_score>
-9.18318639330365

> <r_i_glide_ligand_efficiency>
-0.367327455732146

> <r_i_glide_ligand_efficiency_sa>
-1.07407199514096

> <r_i_glide_ligand_efficiency_ln>
-2.17669037310207

> <r_i_glide_gscore>
-9.18318639330365

> <r_i_glide_lipo>
-4.35067321179104

> <r_i_glide_hbond>
0

> <r_i_glide_metal>
0

> <r_i_glide_rewards>
-2.64432679295217

> <r_i_glide_evdw>
-27.4842643737793

> <r_i_glide_ecoul>
-7.09848976135254

> <r_i_glide_erotb>
0.267602523335837

> <r_i_glide_esite>
-0.0168022290044315

> <r_i_glide_emodel>
-45.3577080548545

> <r_i_glide_energy>
-34.5827541351318

> <r_i_glide_einternal>
1.35838055610657

> <i_i_glide_confnum>
16

> <i_i_glide_posenum>
241

> <r_i_glide_eff_state_penalty>
0

> <s_user_duplicate_titles>
CHEMBL221_lig73,192543

> <i_f3d_flags>
0

> <s_m_subgroup_title>
dock_pv

> <s_m_subgroupid>
dock_pv

> <b_m_subgroup_collapsed>
1

$$$$
CHEMBL221_lig540
                    3D
 Schrodinger Suite 2021-1.
 36 38  0  0  1  0            999 V2000
   18.9227   48.1069   12.8073 N   0  0  0  0  0  0
   19.8225   48.9334   12.2446 N   0  0  0  0  0  0
   19.0812   48.1966   14.1059 C   0  0  0  0  0  0
   20.6026   49.5676   13.1975 C   0  0  0  0  0  0
   20.1230   49.0777   14.4037 C   0  0  0  0  0  0
   18.2078   47.3828   15.0379 C   0  0  0  0  0  0
   19.8649   49.0290   10.8326 C   0  0  0  0  0  0
   21.7200   50.5266   12.9519 C   0  0  0  0  0  0
   18.3214   47.8022   16.2968 F   0  0  0  0  0  0
   16.9230   47.4739   14.7029 F   0  0  0  0  0  0
   18.5479   46.0949   15.0000 F   0  0  0  0  0  0
   19.7230   47.8730   10.0586 C   0  0  0  0  0  0
   20.0433   50.2607   10.1999 C   0  0  0  0  0  0
   21.8143   51.6869   13.7222 C   0  0  0  0  0  0
   22.6938   50.2560   11.9895 C   0  0  0  0  0  0
   20.1230   49.1286    8.0576 C   0  0  0  0  0  0
   23.8638   52.2880   12.5750 C   0  0  0  0  0  0
   20.1230   50.3026    8.8115 C   0  0  0  0  0  0
   19.8513   47.9133    8.6754 C   0  0  0  0  0  0
   23.7536   51.1356   11.7994 C   0  0  0  0  0  0
   22.8756   52.5678   13.5304 C   0  0  0  0  0  0
   20.3277   49.1970    6.3444 Cl  0  0  0  0  0  0
   24.9761   53.0730   12.3469 O   0  0  0  0  0  0
   25.1949   54.2296   13.1489 C   0  0  0  0  0  0
   20.4842   49.3336   15.3895 H   0  0  0  0  0  0
   19.5972   46.9215   10.5402 H   0  0  0  0  0  0
   20.1047   51.1788   10.7666 H   0  0  0  0  0  0
   21.0690   51.9078   14.4729 H   0  0  0  0  0  0
   22.6391   49.3532   11.4001 H   0  0  0  0  0  0
   20.2477   51.2467    8.3030 H   0  0  0  0  0  0
   19.7923   47.0081    8.0916 H   0  0  0  0  0  0
   24.5116   50.9118   11.0617 H   0  0  0  0  0  0
   22.9247   53.4522   14.1481 H   0  0  0  0  0  0
   26.1091   54.7259   12.8225 H   0  0  0  0  0  0
   25.3230   53.9691   14.1999 H   0  0  0  0  0  0
   24.3812   54.9494   13.0552 H   0  0  0  0  0  0
  1  2  1  0  0  0
  1  3  2  0  0  0
  2  4  1  0  0  0
  2  7  1  0  0  0
  3  5  1  0  0  0
  3  6  1  0  0  0
  4  8  1  0  0  0
  4  5  2  0  0  0
  5 25  1  0  0  0
  6  9  1  0  0  0
  6 10  1  0  0  0
  6 11  1  0  0  0
  7 12  2  0  0  0
  7 13  1  0  0  0
  8 14  2  0  0  0
  8 15  1  0  0  0
 12 19  1  0  0  0
 12 26  1  0  0  0
 13 18  2  0  0  0
 13 27  1  0  0  0
 14 21  1  0  0  0
 14 28  1  0  0  0
 15 20  2  0  0  0
 15 29  1  0  0  0
 16 18  1  0  0  0
 16 22  1  0  0  0
 16 19  2  0  0  0
 17 20  1  0  0  0
 17 23  1  0  0  0
 17 21  2  0  0  0
 18 30  1  0  0  0
 19 31  1  0  0  0
 20 32  1  0  0  0
 21 33  1  0  0  0
 23 24  1  0  0  0
 24 34  1  0  0  0
 24 35  1  0  0  0
 24 36  1  0  0  0
M  END
> <s_m_entry_id>
5154

> <s_m_entry_name>
dock_pv.145

> <s_m_Source_Path>
/home/csk/Desktop/cluster/DUD-E-result/pgh1

> <s_m_Source_File>
dock_pv.maegz

> <i_m_Source_File_Index>
145

> <chembl_id>
CHEMBL30011

> <chembl_pref_name>
None

> <i_lp_mmshare_version>
53161

> <r_lp_tautomer_probability>
1

> <s_lp_Force_Field>
OPLS_2005

> <r_lp_Energy>
20.65858

> <b_lp_Chiralities_Consistent>
1

> <s_lp_Variant>
CHEMBL221_lig540-1

> <s_i_glide_gridfile>
glide-grid_2oyu

> <i_i_glide_lignum>
678

> <i_i_glide_rotatable_bonds>
4

> <r_i_docking_score>
-9.17792852769412

> <r_i_glide_ligand_efficiency>
-0.382413688653922

> <r_i_glide_ligand_efficiency_sa>
-1.10307195511304

> <r_i_glide_ligand_efficiency_ln>
-2.19669944437499

> <r_i_glide_gscore>
-9.17792852769412

> <r_i_glide_lipo>
-4.8557641363307

> <r_i_glide_hbond>
0

> <r_i_glide_metal>
0

> <r_i_glide_rewards>
-2.61965125082563

> <r_i_glide_evdw>
-35.5083503723145

> <r_i_glide_ecoul>
-1.5093982219696

> <r_i_glide_erotb>
0.306829510360991

> <r_i_glide_esite>
-0.00751539898762682

> <r_i_glide_emodel>
-54.9029290772554

> <r_i_glide_energy>
-37.0177485942841

> <r_i_glide_einternal>
0.689644038677216

> <i_i_glide_confnum>
14

> <i_i_glide_posenum>
67

> <r_i_glide_eff_state_penalty>
0

> <s_user_duplicate_titles>
CHEMBL221_lig540,38844

> <i_f3d_flags>
0

> <s_m_subgroup_title>
dock_pv

> <s_m_subgroupid>
dock_pv

> <b_m_subgroup_collapsed>
1

$$$$
CHEMBL221_lig134
                    3D
 Schrodinger Suite 2021-1.
 33 35  0  0  1  0            999 V2000
   20.0063   48.9987    6.2302 S   0  0  0  0  0  0
   19.8173   48.9814   12.2253 N   0  0  0  0  0  0
   19.1107   48.2731   14.2456 N   0  0  0  0  0  0
   20.6054   49.5866   13.1859 C   0  0  0  0  0  0
   18.9351   48.2136   12.9538 C   0  0  0  0  0  0
   20.1230   49.1025   14.4037 C   0  0  0  0  0  0
   21.7373   50.5163   12.9200 C   0  0  0  0  0  0
   20.0366   49.0493    8.0211 C   0  0  0  0  0  0
   23.7906   50.9907   11.7283 N   0  0  0  0  0  0
   19.8889   49.0531   10.8147 C   0  0  0  0  0  0
   20.9230   49.9837    5.6720 O   0  0  0  0  0  0
   20.1230   47.6042    5.8375 O   0  0  0  0  0  0
   23.9201   52.1308   12.4491 C   0  0  0  0  0  0
   18.4125   49.4730    5.8000 N   0  0  0  0  0  0
   22.7160   50.2048   11.9721 C   0  0  0  0  0  0
   21.8786   51.7081   13.6387 C   0  0  0  0  0  0
   20.1230   50.2526    8.7337 C   0  0  0  0  0  0
   19.7806   47.8657    8.7104 C   0  0  0  0  0  0
   20.0974   50.2561   10.1310 C   0  0  0  0  0  0
   19.7230   47.8730   10.0951 C   0  0  0  0  0  0
   20.7120   49.4833   15.9702 Cl  0  0  0  0  0  0
   22.9801   52.5310   13.4000 C   0  0  0  0  0  0
   25.3375   53.0730   12.2132 Cl  0  0  0  0  0  0
   18.1827   47.6266   12.4471 H   0  0  0  0  0  0
   18.2699   50.4814    5.9199 H   0  0  0  0  0  0
   18.1721   49.2404    4.8332 H   0  0  0  0  0  0
   22.6594   49.2910   11.4000 H   0  0  0  0  0  0
   21.1490   51.9898   14.3843 H   0  0  0  0  0  0
   20.2285   51.1828    8.1945 H   0  0  0  0  0  0
   19.6472   46.9337    8.1825 H   0  0  0  0  0  0
   20.1927   51.1905   10.6655 H   0  0  0  0  0  0
   19.5871   46.9467   10.6211 H   0  0  0  0  0  0
   23.1152   53.4440   13.9621 H   0  0  0  0  0  0
  1  8  1  0  0  0
  1 11  2  0  0  0
  1 12  2  0  0  0
  1 14  1  0  0  0
  2 10  1  0  0  0
  2  4  1  0  0  0
  2  5  1  0  0  0
  3  5  2  0  0  0
  3  6  1  0  0  0
  4  6  2  0  0  0
  4  7  1  0  0  0
  5 24  1  0  0  0
  6 21  1  0  0  0
  7 15  2  0  0  0
  7 16  1  0  0  0
  8 17  1  0  0  0
  8 18  2  0  0  0
  9 15  1  0  0  0
  9 13  2  0  0  0
 10 20  2  0  0  0
 10 19  1  0  0  0
 13 22  1  0  0  0
 13 23  1  0  0  0
 14 25  1  0  0  0
 14 26  1  0  0  0
 15 27  1  0  0  0
 16 22  2  0  0  0
 16 28  1  0  0  0
 17 19  2  0  0  0
 17 29  1  0  0  0
 18 20  1  0  0  0
 18 30  1  0  0  0
 19 31  1  0  0  0
 20 32  1  0  0  0
 22 33  1  0  0  0
M  END
> <s_m_entry_id>
5155

> <s_m_entry_name>
dock_pv.146

> <s_m_Source_Path>
/home/csk/Desktop/cluster/DUD-E-result/pgh1

> <s_m_Source_File>
dock_pv.maegz

> <i_m_Source_File_Index>
146

> <chembl_id>
CHEMBL117306

> <chembl_pref_name>
None

> <i_lp_mmshare_version>
53161

> <r_lp_tautomer_probability>
1

> <s_lp_Force_Field>
OPLS_2005

> <r_lp_Energy>
21.215293

> <b_lp_Chiralities_Consistent>
1

> <s_lp_Variant>
CHEMBL221_lig134-1

> <s_i_glide_gridfile>
glide-grid_2oyu

> <i_i_glide_lignum>
156

> <i_i_glide_rotatable_bonds>
3

> <r_i_docking_score>
-9.17679148861793

> <r_i_glide_ligand_efficiency>
-0.398990934287736

> <r_i_glide_ligand_efficiency_sa>
-1.13467714209509

> <r_i_glide_ligand_efficiency_ln>
-2.2190313924925

> <r_i_glide_gscore>
-9.17679148861793

> <r_i_glide_lipo>
-4.09678284206958

> <r_i_glide_hbond>
-0.291072833526812

> <r_i_glide_metal>
0

> <r_i_glide_rewards>
-2.64709270776403

> <r_i_glide_evdw>
-27.0241775512695

> <r_i_glide_ecoul>
-6.65981578826904

> <r_i_glide_erotb>
0.282827292293741

> <r_i_glide_esite>
-0.0744891517474208

> <r_i_glide_emodel>
-48.4750940200646

> <r_i_glide_energy>
-33.6839933395386

> <r_i_glide_einternal>
0.578423321247101

> <i_i_glide_confnum>
10

> <i_i_glide_posenum>
282

> <r_i_glide_eff_state_penalty>
0

> <s_user_duplicate_titles>
CHEMBL221_lig134

> <i_f3d_flags>
0

> <s_m_subgroup_title>
dock_pv

> <s_m_subgroupid>
dock_pv

> <b_m_subgroup_collapsed>
1

$$$$
CHEMBL221_lig360
                    3D
 Schrodinger Suite 2021-1.
 43 46  0  0  1  0            999 V2000
   20.4945   49.5902   13.3101 C   0  0  0  0  0  0
   19.7912   48.9319   12.3494 C   0  0  0  0  0  0
   20.0201   48.8958    6.2799 S   0  0  0  0  0  0
   18.9381   48.1901   14.4318 C   0  0  0  0  0  0
   21.5830   50.5823   13.1219 C   0  0  0  0  0  0
   20.1232   49.0897   14.7066 C   0  0  0  0  0  0
   18.7492   47.9927   12.9511 C   0  0  0  0  0  0
   20.0303   49.0153    8.0654 C   0  0  0  0  0  0
   22.5175   50.5059   12.0776 C   0  0  0  0  0  0
   19.8747   49.0519   10.8711 C   0  0  0  0  0  0
   17.7236   48.2509   15.3505 C   0  0  0  0  0  0
   18.6082   47.0476   15.3715 C   0  0  0  0  0  0
   23.4583   51.5212   11.8864 C   0  0  0  0  0  0
   20.1230   47.4805    5.9575 O   0  0  0  0  0  0
   20.9230   49.8730    5.6842 O   0  0  0  0  0  0
   23.5113   52.5992   12.7681 C   0  0  0  0  0  0
   21.6351   51.6896   13.9784 C   0  0  0  0  0  0
   19.7751   47.8453    8.7692 C   0  0  0  0  0  0
   20.1230   50.2269    8.7633 C   0  0  0  0  0  0
   19.7230   47.8730   10.1480 C   0  0  0  0  0  0
   20.0863   50.2434   10.1640 C   0  0  0  0  0  0
   22.5843   52.6910   13.8000 C   0  0  0  0  0  0
   24.5230   51.4730   10.5329 Cl  0  0  0  0  0  0
   18.3235   49.3157    5.7824 C   0  0  0  0  0  0
   24.4557   53.5565   12.6281 F   0  0  0  0  0  0
   20.9230   48.5008   15.1390 H   0  0  0  0  0  0
   19.8872   49.8730   15.4217 H   0  0  0  0  0  0
   17.7373   48.2459   12.6328 H   0  0  0  0  0  0
   18.9331   46.9505   12.6922 H   0  0  0  0  0  0
   22.5025   49.6715   11.3918 H   0  0  0  0  0  0
   17.7375   48.9350   16.1997 H   0  0  0  0  0  0
   16.7294   48.1719   14.9085 H   0  0  0  0  0  0
   18.2271   46.1134   14.9572 H   0  0  0  0  0  0
   19.2881   46.8744   16.2000 H   0  0  0  0  0  0
   20.9218   51.8009   14.7812 H   0  0  0  0  0  0
   19.6508   46.9009    8.2613 H   0  0  0  0  0  0
   20.2358   51.1484    8.2107 H   0  0  0  0  0  0
   19.6074   46.9389   10.6614 H   0  0  0  0  0  0
   20.1755   51.1839   10.6876 H   0  0  0  0  0  0
   22.6000   53.5401   14.4678 H   0  0  0  0  0  0
   18.3044   49.3426    4.6959 H   0  0  0  0  0  0
   18.0146   50.2660    6.2000 H   0  0  0  0  0  0
   17.7230   48.4886    6.1237 H   0  0  0  0  0  0
  1  2  2  0  0  0
  1  5  1  0  0  0
  1  6  1  0  0  0
  2  7  1  0  0  0
  2 10  1  0  0  0
  3  8  1  0  0  0
  3 14  2  0  0  0
  3 15  2  0  0  0
  3 24  1  0  0  0
  4  6  1  0  0  0
  4 11  1  0  0  0
  4 12  1  0  0  0
  4  7  1  0  0  0
  5  9  1  0  0  0
  5 17  2  0  0  0
  6 26  1  0  0  0
  6 27  1  0  0  0
  7 28  1  0  0  0
  7 29  1  0  0  0
  8 19  1  0  0  0
  8 18  2  0  0  0
  9 13  2  0  0  0
  9 30  1  0  0  0
 10 20  2  0  0  0
 10 21  1  0  0  0
 11 12  1  0  0  0
 11 31  1  0  0  0
 11 32  1  0  0  0
 12 33  1  0  0  0
 12 34  1  0  0  0
 13 23  1  0  0  0
 13 16  1  0  0  0
 16 22  2  0  0  0
 16 25  1  0  0  0
 17 22  1  0  0  0
 17 35  1  0  0  0
 18 20  1  0  0  0
 18 36  1  0  0  0
 19 21  2  0  0  0
 19 37  1  0  0  0
 20 38  1  0  0  0
 21 39  1  0  0  0
 22 40  1  0  0  0
 24 41  1  0  0  0
 24 42  1  0  0  0
 24 43  1  0  0  0
M  END
> <s_m_entry_id>
5156

> <s_m_entry_name>
dock_pv.147

> <s_m_Source_Path>
/home/csk/Desktop/cluster/DUD-E-result/pgh1

> <s_m_Source_File>
dock_pv.maegz

> <i_m_Source_File_Index>
147

> <chembl_id>
CHEMBL88286

> <chembl_pref_name>
None

> <i_lp_mmshare_version>
53161

> <r_lp_tautomer_probability>
1

> <s_lp_Force_Field>
OPLS_2005

> <r_lp_Energy>
34.304816

> <b_lp_Chiralities_Consistent>
1

> <s_lp_Variant>
CHEMBL221_lig360-1

> <s_i_glide_gridfile>
glide-grid_2oyu

> <i_i_glide_lignum>
426

> <i_i_glide_rotatable_bonds>
3

> <r_i_docking_score>
-9.15297361478119

> <r_i_glide_ligand_efficiency>
-0.366118944591248

> <r_i_glide_ligand_efficiency_sa>
-1.07053828713194

> <r_i_glide_ligand_efficiency_ln>
-2.16952903918833

> <r_i_glide_gscore>
-9.15297361478119

> <r_i_glide_lipo>
-5.08588078367994

> <r_i_glide_hbond>
0

> <r_i_glide_metal>
0

> <r_i_glide_rewards>
-2.35541505225153

> <r_i_glide_evdw>
-24.0182189941406

> <r_i_glide_ecoul>
-5.12060642242432

> <r_i_glide_erotb>
0.272645721282172

> <r_i_glide_esite>
-0.0153215870612159

> <r_i_glide_emodel>
-33.6086019914575

> <r_i_glide_energy>
-29.1388254165649

> <r_i_glide_einternal>
0.494314074516296

> <i_i_glide_confnum>
16

> <i_i_glide_posenum>
398

> <r_i_glide_eff_state_penalty>
0

> <s_user_duplicate_titles>
CHEMBL221_lig360

> <i_f3d_flags>
0

> <s_m_subgroup_title>
dock_pv

> <s_m_subgroupid>
dock_pv

> <b_m_subgroup_collapsed>
1

$$$$
CHEMBL221_lig358
                    3D
 Schrodinger Suite 2021-1.
 46 49  0  0  1  0            999 V2000
   20.0100   49.0208    6.2020 S   0  0  0  0  0  0
   20.4919   49.5509   13.2476 C   0  0  0  0  0  0
   19.7938   48.8890   12.2825 C   0  0  0  0  0  0
   18.9490   48.1196   14.3664 C   0  0  0  0  0  0
   21.5975   50.5317   13.0702 C   0  0  0  0  0  0
   20.0892   49.0767   14.6460 C   0  0  0  0  0  0
   18.7653   47.9286   12.8791 C   0  0  0  0  0  0
   20.0451   49.0691    7.9935 C   0  0  0  0  0  0
   22.4930   50.4751   11.9926 C   0  0  0  0  0  0
   19.8734   49.0288   10.8025 C   0  0  0  0  0  0
   17.7203   48.1403   15.2706 C   0  0  0  0  0  0
   18.6523   46.9744   15.3234 C   0  0  0  0  0  0
   23.4347   51.4846   11.7897 C   0  0  0  0  0  0
   20.9203   50.0073    5.6333 O   0  0  0  0  0  0
   20.1229   47.6248    5.8138 O   0  0  0  0  0  0
   18.4059   49.4737    5.8002 N   0  0  0  0  0  0
   23.5606   52.5341   12.6996 C   0  0  0  0  0  0
   21.7239   51.5931   13.9756 C   0  0  0  0  0  0
   19.7916   47.8779    8.6656 C   0  0  0  0  0  0
   20.1231   50.2605    8.7269 C   0  0  0  0  0  0
   19.7226   47.8694   10.0458 C   0  0  0  0  0  0
   20.0800   50.2385   10.1265 C   0  0  0  0  0  0
   22.6996   52.5728   13.8037 C   0  0  0  0  0  0
   24.5228   51.4697   10.2277 Br  0  0  0  0  0  0
   24.5344   53.4720   12.4250 O   0  0  0  0  0  0
   24.7961   54.5238   13.3326 C   0  0  0  0  0  0
   20.9035   48.5614   15.1479 H   0  0  0  0  0  0
   19.7515   49.8729   15.3020 H   0  0  0  0  0  0
   18.9665   46.8936   12.6030 H   0  0  0  0  0  0
   17.7482   48.1723   12.5758 H   0  0  0  0  0  0
   22.4435   49.6663   11.2788 H   0  0  0  0  0  0
   17.6944   48.8335   16.1118 H   0  0  0  0  0  0
   16.7331   48.0101   14.8234 H   0  0  0  0  0  0
   18.3165   46.0193   14.9167 H   0  0  0  0  0  0
   19.2923   46.8443   16.1948 H   0  0  0  0  0  0
   18.2463   50.4803    5.9074 H   0  0  0  0  0  0
   18.1636   49.2225    4.8365 H   0  0  0  0  0  0
   21.0517   51.6824   14.8160 H   0  0  0  0  0  0
   19.6667   46.9487    8.1320 H   0  0  0  0  0  0
   20.2292   51.1983    8.2016 H   0  0  0  0  0  0
   19.5999   46.9218   10.5309 H   0  0  0  0  0  0
   20.1583   51.1666   10.6741 H   0  0  0  0  0  0
   22.7553   53.3739   14.5235 H   0  0  0  0  0  0
   25.4722   55.2338   12.8538 H   0  0  0  0  0  0
   25.3038   54.1403   14.2107 H   0  0  0  0  0  0
   23.8995   55.0756   13.6200 H   0  0  0  0  0  0
  1  8  1  0  0  0
  1 14  2  0  0  0
  1 15  2  0  0  0
  1 16  1  0  0  0
  2  3  2  0  0  0
  2  5  1  0  0  0
  2  6  1  0  0  0
  3 10  1  0  0  0
  3  7  1  0  0  0
  4  7  1  0  0  0
  4 11  1  0  0  0
  4 12  1  0  0  0
  4  6  1  0  0  0
  5  9  1  0  0  0
  5 18  2  0  0  0
  6 27  1  0  0  0
  6 28  1  0  0  0
  7 29  1  0  0  0
  7 30  1  0  0  0
  8 19  1  0  0  0
  8 20  2  0  0  0
  9 13  2  0  0  0
  9 31  1  0  0  0
 10 22  2  0  0  0
 10 21  1  0  0  0
 11 12  1  0  0  0
 11 32  1  0  0  0
 11 33  1  0  0  0
 12 34  1  0  0  0
 12 35  1  0  0  0
 13 24  1  0  0  0
 13 17  1  0  0  0
 16 36  1  0  0  0
 16 37  1  0  0  0
 17 23  2  0  0  0
 17 25  1  0  0  0
 18 23  1  0  0  0
 18 38  1  0  0  0
 19 21  2  0  0  0
 19 39  1  0  0  0
 20 22  1  0  0  0
 20 40  1  0  0  0
 21 41  1  0  0  0
 22 42  1  0  0  0
 23 43  1  0  0  0
 25 26  1  0  0  0
 26 44  1  0  0  0
 26 45  1  0  0  0
 26 46  1  0  0  0
M  END
> <s_m_entry_id>
5157

> <s_m_entry_name>
dock_pv.148

> <s_m_Source_Path>
/home/csk/Desktop/cluster/DUD-E-result/pgh1

> <s_m_Source_File>
dock_pv.maegz

> <i_m_Source_File_Index>
148

> <chembl_id>
CHEMBL313313

> <chembl_pref_name>
None

> <i_lp_mmshare_version>
53161

> <r_lp_tautomer_probability>
1

> <s_lp_Force_Field>
OPLS_2005

> <r_lp_Energy>
46.954719

> <b_lp_Chiralities_Consistent>
1

> <s_lp_Variant>
CHEMBL221_lig358-1

> <s_i_glide_gridfile>
glide-grid_2oyu

> <i_i_glide_lignum>
424

> <i_i_glide_rotatable_bonds>
4

> <r_i_docking_score>
-9.14766318332822

> <r_i_glide_ligand_efficiency>
-0.351833199358778

> <r_i_glide_ligand_efficiency_sa>
-1.04230446870359

> <r_i_glide_ligand_efficiency_ln>
-2.14829868267352

> <r_i_glide_gscore>
-9.14766318332822

> <r_i_glide_lipo>
-5.16232419659484

> <r_i_glide_hbond>
-0.283330951894214

> <r_i_glide_metal>
0

> <r_i_glide_rewards>
-1.43008332351261

> <r_i_glide_evdw>
-28.1283855438232

> <r_i_glide_ecoul>
-6.6756329536438

> <r_i_glide_erotb>
0.211122543544749

> <r_i_glide_esite>
-0.0752830346335718

> <r_i_glide_emodel>
-34.1327829855833

> <r_i_glide_energy>
-34.804018497467

> <r_i_glide_einternal>
2.65253973007202

> <i_i_glide_confnum>
1

> <i_i_glide_posenum>
53

> <r_i_glide_eff_state_penalty>
0

> <s_user_duplicate_titles>
CHEMBL221_lig358,144525

> <i_f3d_flags>
0

> <s_m_subgroup_title>
dock_pv

> <s_m_subgroupid>
dock_pv

> <b_m_subgroup_collapsed>
1

$$$$
CHEMBL221_lig518
                    3D
 Schrodinger Suite 2021-1.
 34 36  0  0  1  0            999 V2000
   19.8356   49.0145   12.2491 N   0  0  0  0  0  0
   20.0048   48.9903    6.2400 S   0  0  0  0  0  0
   20.6206   49.6640   13.1886 C   0  0  0  0  0  0
   18.9149   48.2249   12.8356 N   0  0  0  0  0  0
   20.1230   49.2502   14.4207 C   0  0  0  0  0  0
   19.0897   48.3662   14.1226 C   0  0  0  0  0  0
   20.0347   49.0418    8.0317 C   0  0  0  0  0  0
   19.8961   49.0574   10.8309 C   0  0  0  0  0  0
   21.7647   50.5718   12.8956 C   0  0  0  0  0  0
   20.9230   49.9738    5.6829 O   0  0  0  0  0  0
   20.1230   47.5951    5.8494 O   0  0  0  0  0  0
   18.4153   49.4730    5.8000 N   0  0  0  0  0  0
   20.1230   50.2467    8.7398 C   0  0  0  0  0  0
   19.7755   47.8612    8.7265 C   0  0  0  0  0  0
   20.0992   50.2557   10.1364 C   0  0  0  0  0  0
   19.7230   47.8730   10.1128 C   0  0  0  0  0  0
   20.7065   49.7773   16.1527 Br  0  0  0  0  0  0
   22.7072   50.1944   11.9387 C   0  0  0  0  0  0
   21.9296   51.7644   13.6062 C   0  0  0  0  0  0
   23.9905   52.1616   12.4300 C   0  0  0  0  0  0
   23.0482   52.5605   13.3755 C   0  0  0  0  0  0
   23.8105   50.9971   11.6932 C   0  0  0  0  0  0
   25.4287   53.0737   12.2027 Cl  0  0  0  0  0  0
   18.4681   47.8506   14.8402 H   0  0  0  0  0  0
   18.2768   50.4818    5.9207 H   0  0  0  0  0  0
   18.1798   49.2426    4.8315 H   0  0  0  0  0  0
   20.2282   51.1750    8.1976 H   0  0  0  0  0  0
   19.6361   46.9289    8.2002 H   0  0  0  0  0  0
   20.1947   51.1942   10.6634 H   0  0  0  0  0  0
   19.5780   46.9520   10.6453 H   0  0  0  0  0  0
   22.5971   49.2654   11.3997 H   0  0  0  0  0  0
   21.2063   52.0657   14.3501 H   0  0  0  0  0  0
   23.1947   53.4681   13.9437 H   0  0  0  0  0  0
   24.5398   50.6927   10.9585 H   0  0  0  0  0  0
  1  3  1  0  0  0
  1  4  1  0  0  0
  1  8  1  0  0  0
  2  7  1  0  0  0
  2 10  2  0  0  0
  2 11  2  0  0  0
  2 12  1  0  0  0
  3  5  2  0  0  0
  3  9  1  0  0  0
  4  6  2  0  0  0
  5 17  1  0  0  0
  5  6  1  0  0  0
  6 24  1  0  0  0
  7 14  1  0  0  0
  7 13  2  0  0  0
  8 15  2  0  0  0
  8 16  1  0  0  0
  9 18  1  0  0  0
  9 19  2  0  0  0
 12 25  1  0  0  0
 12 26  1  0  0  0
 13 15  1  0  0  0
 13 27  1  0  0  0
 14 16  2  0  0  0
 14 28  1  0  0  0
 15 29  1  0  0  0
 16 30  1  0  0  0
 18 22  2  0  0  0
 18 31  1  0  0  0
 19 21  1  0  0  0
 19 32  1  0  0  0
 20 21  2  0  0  0
 20 23  1  0  0  0
 20 22  1  0  0  0
 21 33  1  0  0  0
 22 34  1  0  0  0
M  END
> <s_m_entry_id>
5158

> <s_m_entry_name>
dock_pv.149

> <s_m_Source_Path>
/home/csk/Desktop/cluster/DUD-E-result/pgh1

> <s_m_Source_File>
dock_pv.maegz

> <i_m_Source_File_Index>
149

> <chembl_id>
CHEMBL27975

> <chembl_pref_name>
None

> <i_lp_mmshare_version>
53161

> <r_lp_tautomer_probability>
1

> <s_lp_Force_Field>
OPLS_2005

> <r_lp_Energy>
24.12345

> <b_lp_Chiralities_Consistent>
1

> <s_lp_Variant>
CHEMBL221_lig518-1

> <s_i_glide_gridfile>
glide-grid_2oyu

> <i_i_glide_lignum>
656

> <i_i_glide_rotatable_bonds>
3

> <r_i_docking_score>
-9.13608167168883

> <r_i_glide_ligand_efficiency>
-0.397220942247341

> <r_i_glide_ligand_efficiency_sa>
-1.12964352018207

> <r_i_glide_ligand_efficiency_ln>
-2.20918738962283

> <r_i_glide_gscore>
-9.13608167168883

> <r_i_glide_lipo>
-4.6604077340979

> <r_i_glide_hbond>
-0.290841490824217

> <r_i_glide_metal>
0

> <r_i_glide_rewards>
-1.99516839705601

> <r_i_glide_evdw>
-26.0668277740479

> <r_i_glide_ecoul>
-6.95866870880127

> <r_i_glide_erotb>
0.231589226172631

> <r_i_glide_esite>
-0.0741115808607514

> <r_i_glide_emodel>
-45.2824537862777

> <r_i_glide_energy>
-33.0254964828491

> <r_i_glide_einternal>
0.569958508014679

> <i_i_glide_confnum>
10

> <i_i_glide_posenum>
257

> <r_i_glide_eff_state_penalty>
0

> <s_user_duplicate_titles>
CHEMBL221_lig518

> <i_f3d_flags>
0

> <s_m_subgroup_title>
dock_pv

> <s_m_subgroupid>
dock_pv

> <b_m_subgroup_collapsed>
1

$$$$
CHEMBL221_lig267
                    3D
 Schrodinger Suite 2021-1.
 30 32  0  0  1  0            999 V2000
   20.5570   49.5317   13.2745 C   0  0  0  0  0  0
   19.7477   48.8782   12.3328 C   0  0  0  0  0  0
   20.1389   49.0730   14.9106 S   0  0  0  0  0  0
   20.1563   49.2037    5.4455 N   0  0  0  0  0  0
   21.6935   50.4788   13.0481 C   0  0  0  0  0  0
   19.8458   49.0038   10.8444 C   0  0  0  0  0  0
   20.1230   49.1566    6.5999 C   0  0  0  0  0  0
   18.8762   48.0476   14.3461 C   0  0  0  0  0  0
   18.8014   48.0512   12.9659 C   0  0  0  0  0  0
   22.6713   50.1622   12.0987 C   0  0  0  0  0  0
   21.7766   51.6879   13.7467 C   0  0  0  0  0  0
   20.0462   50.2278   10.2040 C   0  0  0  0  0  0
   19.7230   47.8497   10.0727 C   0  0  0  0  0  0
   20.0834   49.0967    8.0545 C   0  0  0  0  0  0
   23.7991   52.2358   12.5539 C   0  0  0  0  0  0
   20.1230   50.2730    8.8140 C   0  0  0  0  0  0
   19.8299   47.8815    8.6876 C   0  0  0  0  0  0
   22.8290   52.5661   13.4966 C   0  0  0  0  0  0
   23.7217   51.0400   11.8472 C   0  0  0  0  0  0
   24.8355   53.0730   12.3330 F   0  0  0  0  0  0
   18.2563   47.5042   15.0441 H   0  0  0  0  0  0
   18.0722   47.4730   12.4195 H   0  0  0  0  0  0
   22.6167   49.2313   11.5535 H   0  0  0  0  0  0
   21.0256   51.9519   14.4773 H   0  0  0  0  0  0
   20.1086   51.1434   10.7740 H   0  0  0  0  0  0
   19.6048   46.9019   10.5620 H   0  0  0  0  0  0
   20.2358   51.2267    8.3185 H   0  0  0  0  0  0
   19.7439   46.9648    8.1229 H   0  0  0  0  0  0
   22.9030   53.4963   14.0415 H   0  0  0  0  0  0
   24.4803   50.7912   11.1186 H   0  0  0  0  0  0
  1  2  2  0  0  0
  1  3  1  0  0  0
  1  5  1  0  0  0
  2  6  1  0  0  0
  2  9  1  0  0  0
  3  8  1  0  0  0
  4  7  3  0  0  0
  5 10  2  0  0  0
  5 11  1  0  0  0
  6 12  2  0  0  0
  6 13  1  0  0  0
  7 14  1  0  0  0
  8  9  2  0  0  0
  8 21  1  0  0  0
  9 22  1  0  0  0
 10 19  1  0  0  0
 10 23  1  0  0  0
 11 18  2  0  0  0
 11 24  1  0  0  0
 12 16  1  0  0  0
 12 25  1  0  0  0
 13 17  2  0  0  0
 13 26  1  0  0  0
 14 17  1  0  0  0
 14 16  2  0  0  0
 15 18  1  0  0  0
 15 20  1  0  0  0
 15 19  2  0  0  0
 16 27  1  0  0  0
 17 28  1  0  0  0
 18 29  1  0  0  0
 19 30  1  0  0  0
M  END
> <s_m_entry_id>
5159

> <s_m_entry_name>
dock_pv.150

> <s_m_Source_Path>
/home/csk/Desktop/cluster/DUD-E-result/pgh1

> <s_m_Source_File>
dock_pv.maegz

> <i_m_Source_File_Index>
150

> <chembl_id>
CHEMBL294050

> <chembl_pref_name>
None

> <i_lp_mmshare_version>
53161

> <r_lp_tautomer_probability>
1

> <s_lp_Force_Field>
OPLS_2005

> <r_lp_Energy>
14.80847

> <b_lp_Chiralities_Consistent>
1

> <s_lp_Variant>
CHEMBL221_lig267-1

> <s_i_glide_gridfile>
glide-grid_2oyu

> <i_i_glide_lignum>
300

> <i_i_glide_rotatable_bonds>
2

> <r_i_docking_score>
-9.12676213379878

> <r_i_glide_ligand_efficiency>
-0.456338106689939

> <r_i_glide_ligand_efficiency_sa>
-1.23869219468581

> <r_i_glide_ligand_efficiency_ln>
-2.28412754132824

> <r_i_glide_gscore>
-9.12676213379878

> <r_i_glide_lipo>
-4.63003996383552

> <r_i_glide_hbond>
0

> <r_i_glide_metal>
0

> <r_i_glide_rewards>
-3.22336611646802

> <r_i_glide_evdw>
-30.2315540313721

> <r_i_glide_ecoul>
-1.49478495121002

> <r_i_glide_erotb>
0.462439390754869

> <r_i_glide_esite>
0

> <r_i_glide_emodel>
-47.2235061885322

> <r_i_glide_energy>
-31.7263389825821

> <r_i_glide_einternal>
0.437148958444595

> <i_i_glide_confnum>
13

> <i_i_glide_posenum>
353

> <r_i_glide_eff_state_penalty>
0

> <s_user_duplicate_titles>
CHEMBL221_lig267,104607

> <i_f3d_flags>
0

> <s_m_subgroup_title>
dock_pv

> <s_m_subgroupid>
dock_pv

> <b_m_subgroup_collapsed>
1

$$$$
CHEMBL221_lig381
                    3D
 Schrodinger Suite 2021-1.
 43 44  0  0  1  0            999 V2000
   19.7622   49.0248    6.1845 S   0  0  0  0  0  0
   20.9012   50.0510   12.4823 C   0  0  0  0  0  0
   21.5793   51.0793   13.3282 C   0  0  0  0  0  0
   19.7230   48.4869    7.8932 C   0  0  0  0  0  0
   19.8185   47.8876   12.3596 C   0  0  0  0  0  0
   19.3904   46.6408   13.0015 C   0  0  0  0  0  0
   20.3949   48.9100   13.1054 C   0  0  0  0  0  0
   20.1230   49.3573    8.8509 C   0  0  0  0  0  0
   20.5230   50.2681    6.1029 O   0  0  0  0  0  0
   20.1230   47.8730    5.3630 O   0  0  0  0  0  0
   20.7340   50.1982   11.0971 C   0  0  0  0  0  0
   20.1730   49.1763   10.3212 C   0  0  0  0  0  0
   18.1320   49.4394    5.8000 N   0  0  0  0  0  0
   21.2358   51.2285   14.5052 O   0  0  0  0  0  0
   18.7102   46.4457   14.1518 C   0  0  0  0  0  0
   22.7517   51.8455   12.8076 C   0  0  0  0  0  0
   19.7230   48.0212   10.9713 C   0  0  0  0  0  0
   18.1479   47.5491   15.0375 C   0  0  0  0  0  0
   18.4022   45.0322   14.6145 C   0  0  0  0  0  0
   23.1600   52.9901   13.5008 C   0  0  0  0  0  0
   23.5351   51.3719   11.7450 C   0  0  0  0  0  0
   24.7165   52.0169   11.4117 C   0  0  0  0  0  0
   24.3754   53.5937   13.2136 C   0  0  0  0  0  0
   25.1633   53.0730   12.2000 C   0  0  0  0  0  0
   19.3678   47.4866    8.0782 H   0  0  0  0  0  0
   19.7230   45.7630   12.4773 H   0  0  0  0  0  0
   20.5066   48.7818   14.1738 H   0  0  0  0  0  0
   20.4326   50.3407    8.5257 H   0  0  0  0  0  0
   21.0764   51.1008   10.6089 H   0  0  0  0  0  0
   18.0365   50.2061    5.1176 H   0  0  0  0  0  0
   17.5379   48.6477    5.5502 H   0  0  0  0  0  0
   19.3001   47.2123   10.3949 H   0  0  0  0  0  0
   17.0997   47.3558   15.2688 H   0  0  0  0  0  0
   18.1886   48.5297   14.5645 H   0  0  0  0  0  0
   18.7025   47.6023   15.9745 H   0  0  0  0  0  0
   19.0911   44.7493   15.4000 H   0  0  0  0  0  0
   17.3848   44.9477   15.0000 H   0  0  0  0  0  0
   18.5230   44.3004   13.8132 H   0  0  0  0  0  0
   22.5748   53.3851   14.3211 H   0  0  0  0  0  0
   23.2836   50.4771   11.1959 H   0  0  0  0  0  0
   25.3230   51.6463   10.6000 H   0  0  0  0  0  0
   24.7089   54.4464   13.7881 H   0  0  0  0  0  0
   26.1230   53.5152   11.9903 H   0  0  0  0  0  0
  1  4  1  0  0  0
  1  9  2  0  0  0
  1 10  2  0  0  0
  1 13  1  0  0  0
  2 11  2  0  0  0
  2  3  1  0  0  0
  2  7  1  0  0  0
  3 14  2  0  0  0
  3 16  1  0  0  0
  4  8  2  0  0  0
  4 25  1  0  0  0
  5 17  1  0  0  0
  5  6  1  0  0  0
  5  7  2  0  0  0
  6 15  2  0  0  0
  6 26  1  0  0  0
  7 27  1  0  0  0
  8 12  1  0  0  0
  8 28  1  0  0  0
 11 12  1  0  0  0
 11 29  1  0  0  0
 12 17  2  0  0  0
 13 30  1  0  0  0
 13 31  1  0  0  0
 15 18  1  0  0  0
 15 19  1  0  0  0
 16 20  2  0  0  0
 16 21  1  0  0  0
 17 32  1  0  0  0
 18 33  1  0  0  0
 18 34  1  0  0  0
 18 35  1  0  0  0
 19 36  1  0  0  0
 19 37  1  0  0  0
 19 38  1  0  0  0
 20 23  1  0  0  0
 20 39  1  0  0  0
 21 22  2  0  0  0
 21 40  1  0  0  0
 22 24  1  0  0  0
 22 41  1  0  0  0
 23 24  2  0  0  0
 23 42  1  0  0  0
 24 43  1  0  0  0
M  END
> <s_m_entry_id>
5160

> <s_m_entry_name>
dock_pv.151

> <s_m_Source_Path>
/home/csk/Desktop/cluster/DUD-E-result/pgh1

> <s_m_Source_File>
dock_pv.maegz

> <i_m_Source_File_Index>
151

> <chembl_id>
CHEMBL356596

> <chembl_pref_name>
None

> <i_lp_mmshare_version>
53161

> <r_lp_tautomer_probability>
1

> <s_lp_Force_Field>
OPLS_2005

> <r_lp_Energy>
18.831535

> <b_lp_Chiralities_Consistent>
1

> <s_lp_Variant>
CHEMBL221_lig381-1

> <s_i_glide_gridfile>
glide-grid_2oyu

> <i_i_glide_lignum>
447

> <i_i_glide_rotatable_bonds>
5

> <r_i_docking_score>
-9.12531393418788

> <r_i_glide_ligand_efficiency>
-0.380221413924495

> <r_i_glide_ligand_efficiency_sa>
-1.09674834054672

> <r_i_glide_ligand_efficiency_ln>
-2.18410635782257

> <r_i_glide_gscore>
-9.12531393418788

> <r_i_glide_lipo>
-4.2557072006686

> <r_i_glide_hbond>
-0.331422687450884

> <r_i_glide_metal>
0

> <r_i_glide_rewards>
-2.75909811129048

> <r_i_glide_evdw>
-30.1611824035645

> <r_i_glide_ecoul>
-6.66799116134644

> <r_i_glide_erotb>
0.812800027402761

> <r_i_glide_esite>
-0.0836281678004927

> <r_i_glide_emodel>
-43.2792898092419

> <r_i_glide_energy>
-36.8291735649109

> <r_i_glide_einternal>
6.84384679794312

> <i_i_glide_confnum>
136

> <i_i_glide_posenum>
166

> <r_i_glide_eff_state_penalty>
0

> <s_user_duplicate_titles>
CHEMBL221_lig381

> <i_f3d_flags>
0

> <s_m_subgroup_title>
dock_pv

> <s_m_subgroupid>
dock_pv

> <b_m_subgroup_collapsed>
1

$$$$
CHEMBL221_lig255
                    3D
 Schrodinger Suite 2021-1.
 38 40  0  0  1  0            999 V2000
   20.5230   49.5729   13.2490 N   0  0  0  0  0  0
   20.0078   49.0120    6.2245 S   0  0  0  0  0  0
   19.7920   48.9082   12.3086 C   0  0  0  0  0  0
   20.1303   49.0730   14.5101 C   0  0  0  0  0  0
   21.5832   50.4891   13.0547 C   0  0  0  0  0  0
   19.0097   48.0536   12.9634 C   0  0  0  0  0  0
   19.1780   48.1525   14.2771 O   0  0  0  0  0  0
   22.5107   50.2992   12.0240 C   0  0  0  0  0  0
   20.0385   49.0589    8.0159 C   0  0  0  0  0  0
   23.5122   51.2353   11.7916 C   0  0  0  0  0  0
   19.8974   49.0334   10.8273 C   0  0  0  0  0  0
   20.9230   49.9993    5.6665 O   0  0  0  0  0  0
   20.1230   47.6190    5.8266 O   0  0  0  0  0  0
   20.5230   49.3432   15.6460 O   0  0  0  0  0  0
   18.4100   49.4730    5.8000 N   0  0  0  0  0  0
   21.7230   51.6103   13.8858 C   0  0  0  0  0  0
   23.6687   52.3418   12.6265 C   0  0  0  0  0  0
   19.7816   47.8730    8.6951 C   0  0  0  0  0  0
   20.1230   50.2539    8.7422 C   0  0  0  0  0  0
   19.7230   47.8730   10.0780 C   0  0  0  0  0  0
   20.0926   50.2401   10.1417 C   0  0  0  0  0  0
   22.7560   52.5230   13.6764 C   0  0  0  0  0  0
   24.3251   51.0730   10.7289 F   0  0  0  0  0  0
   24.7294   53.1822   12.3540 O   0  0  0  0  0  0
   25.0051   54.2730   13.2233 C   0  0  0  0  0  0
   18.2828   47.3211   12.6425 H   0  0  0  0  0  0
   22.4532   49.4384   11.3753 H   0  0  0  0  0  0
   18.2498   50.4795    5.9140 H   0  0  0  0  0  0
   18.1793   49.2311    4.8332 H   0  0  0  0  0  0
   21.0260   51.7899   14.6923 H   0  0  0  0  0  0
   19.6447   46.9446    8.1620 H   0  0  0  0  0  0
   20.2253   51.1887    8.2100 H   0  0  0  0  0  0
   19.5821   46.9379   10.5836 H   0  0  0  0  0  0
   20.1744   51.1705   10.6840 H   0  0  0  0  0  0
   22.8277   53.3745   14.3339 H   0  0  0  0  0  0
   25.8247   54.8620   12.8112 H   0  0  0  0  0  0
   25.3229   53.9154   14.2000 H   0  0  0  0  0  0
   24.1504   54.9406   13.3423 H   0  0  0  0  0  0
  1  3  1  0  0  0
  1  4  1  0  0  0
  1  5  1  0  0  0
  2  9  1  0  0  0
  2 12  2  0  0  0
  2 13  2  0  0  0
  2 15  1  0  0  0
  3  6  2  0  0  0
  3 11  1  0  0  0
  4  7  1  0  0  0
  4 14  2  0  0  0
  5  8  1  0  0  0
  5 16  2  0  0  0
  6  7  1  0  0  0
  6 26  1  0  0  0
  8 10  2  0  0  0
  8 27  1  0  0  0
  9 19  2  0  0  0
  9 18  1  0  0  0
 10 23  1  0  0  0
 10 17  1  0  0  0
 11 20  1  0  0  0
 11 21  2  0  0  0
 15 28  1  0  0  0
 15 29  1  0  0  0
 16 22  1  0  0  0
 16 30  1  0  0  0
 17 22  2  0  0  0
 17 24  1  0  0  0
 18 20  2  0  0  0
 18 31  1  0  0  0
 19 21  1  0  0  0
 19 32  1  0  0  0
 20 33  1  0  0  0
 21 34  1  0  0  0
 22 35  1  0  0  0
 24 25  1  0  0  0
 25 36  1  0  0  0
 25 37  1  0  0  0
 25 38  1  0  0  0
M  END
> <s_m_entry_id>
5161

> <s_m_entry_name>
dock_pv.152

> <s_m_Source_Path>
/home/csk/Desktop/cluster/DUD-E-result/pgh1

> <s_m_Source_File>
dock_pv.maegz

> <i_m_Source_File_Index>
152

> <chembl_id>
CHEMBL303728

> <chembl_pref_name>
None

> <i_lp_mmshare_version>
53161

> <r_lp_tautomer_probability>
1

> <s_lp_Force_Field>
OPLS_2005

> <r_lp_Energy>
42.052048

> <b_lp_Chiralities_Consistent>
1

> <s_lp_Variant>
CHEMBL221_lig255-1

> <s_i_glide_gridfile>
glide-grid_2oyu

> <i_i_glide_lignum>
288

> <i_i_glide_rotatable_bonds>
4

> <r_i_docking_score>
-9.12080346926591

> <r_i_glide_ligand_efficiency>
-0.364832138770637

> <r_i_glide_ligand_efficiency_sa>
-1.06677564409087

> <r_i_glide_ligand_efficiency_ln>
-2.16190375063975

> <r_i_glide_gscore>
-9.12080346926591

> <r_i_glide_lipo>
-4.31178335449565

> <r_i_glide_hbond>
-0.287893080531515

> <r_i_glide_metal>
0

> <r_i_glide_rewards>
-2.20950689204753

> <r_i_glide_evdw>
-28.7032222747803

> <r_i_glide_ecoul>
-7.27364015579224

> <r_i_glide_erotb>
0.28962330768533

> <r_i_glide_esite>
-0.075036312768708

> <r_i_glide_emodel>
-47.6426724196513

> <r_i_glide_energy>
-35.9768624305725

> <r_i_glide_einternal>
4.29183578491211

> <i_i_glide_confnum>
1

> <i_i_glide_posenum>
123

> <r_i_glide_eff_state_penalty>
0

> <s_user_duplicate_titles>
CHEMBL221_lig255

> <i_f3d_flags>
0

> <s_m_subgroup_title>
dock_pv

> <s_m_subgroupid>
dock_pv

> <b_m_subgroup_collapsed>
1

$$$$
CHEMBL221_lig374
                    3D
 Schrodinger Suite 2021-1.
 37 38  0  0  1  0            999 V2000
   19.9105   48.9041    6.7935 S   0  0  0  0  0  0
   20.7764   50.0314   12.9495 C   0  0  0  0  0  0
   21.5869   51.1154   13.5954 C   0  0  0  0  0  0
   20.1230   49.4856    8.4935 C   0  0  0  0  0  0
   19.8526   48.6390    9.5156 C   0  0  0  0  0  0
   19.7230   47.4730    6.8752 O   0  0  0  0  0  0
   20.9230   49.4734    5.9135 O   0  0  0  0  0  0
   20.5766   49.9628   11.5591 C   0  0  0  0  0  0
   20.1694   49.0730   13.7684 C   0  0  0  0  0  0
   19.9330   48.8654   10.9796 C   0  0  0  0  0  0
   18.4215   49.4730    6.2000 N   0  0  0  0  0  0
   21.3230   51.4748   14.7469 O   0  0  0  0  0  0
   22.7809   51.6913   12.9030 C   0  0  0  0  0  0
   19.4602   48.0074   13.2170 C   0  0  0  0  0  0
   19.3627   47.9097   11.8277 C   0  0  0  0  0  0
   19.3230   46.8352   15.4000 O   0  0  0  0  0  0
   18.7925   46.9557   14.0951 C   0  0  0  0  0  0
   23.3622   52.8652   13.4000 C   0  0  0  0  0  0
   23.3940   51.0316   11.8301 C   0  0  0  0  0  0
   24.5229   51.5609   11.2394 C   0  0  0  0  0  0
   24.5541   53.3411   12.8722 C   0  0  0  0  0  0
   25.1316   52.6730   11.8000 C   0  0  0  0  0  0
   20.4366   50.5098    8.6184 H   0  0  0  0  0  0
   19.5355   47.6388    9.2547 H   0  0  0  0  0  0
   20.9754   50.7315   10.9128 H   0  0  0  0  0  0
   20.2747   49.1424   14.8422 H   0  0  0  0  0  0
   17.6071   48.9882    6.5999 H   0  0  0  0  0  0
   18.3292   50.4930    6.2751 H   0  0  0  0  0  0
   18.8374   47.0730   11.4002 H   0  0  0  0  0  0
   19.1265   47.6428   15.8820 H   0  0  0  0  0  0
   17.7172   47.1331   14.1410 H   0  0  0  0  0  0
   18.9230   45.9809   13.6232 H   0  0  0  0  0  0
   22.9176   53.4028   14.2245 H   0  0  0  0  0  0
   23.0393   50.0935   11.4346 H   0  0  0  0  0  0
   24.9230   51.0730   10.3686 H   0  0  0  0  0  0
   25.0177   54.2271   13.2822 H   0  0  0  0  0  0
   26.0585   53.0402   11.3855 H   0  0  0  0  0  0
  1  4  1  0  0  0
  1  6  2  0  0  0
  1  7  2  0  0  0
  1 11  1  0  0  0
  2  8  2  0  0  0
  2  3  1  0  0  0
  2  9  1  0  0  0
  3 12  2  0  0  0
  3 13  1  0  0  0
  4  5  2  0  0  0
  4 23  1  0  0  0
  5 10  1  0  0  0
  5 24  1  0  0  0
  8 10  1  0  0  0
  8 25  1  0  0  0
  9 14  2  0  0  0
  9 26  1  0  0  0
 10 15  2  0  0  0
 11 27  1  0  0  0
 11 28  1  0  0  0
 13 18  2  0  0  0
 13 19  1  0  0  0
 14 15  1  0  0  0
 14 17  1  0  0  0
 15 29  1  0  0  0
 16 17  1  0  0  0
 16 30  1  0  0  0
 17 31  1  0  0  0
 17 32  1  0  0  0
 18 21  1  0  0  0
 18 33  1  0  0  0
 19 20  2  0  0  0
 19 34  1  0  0  0
 20 22  1  0  0  0
 20 35  1  0  0  0
 21 22  2  0  0  0
 21 36  1  0  0  0
 22 37  1  0  0  0
M  END
> <s_m_entry_id>
5162

> <s_m_entry_name>
dock_pv.153

> <s_m_Source_Path>
/home/csk/Desktop/cluster/DUD-E-result/pgh1

> <s_m_Source_File>
dock_pv.maegz

> <i_m_Source_File_Index>
153

> <chembl_id>
CHEMBL151535

> <chembl_pref_name>
None

> <i_lp_mmshare_version>
53161

> <r_lp_tautomer_probability>
1

> <s_lp_Force_Field>
OPLS_2005

> <r_lp_Energy>
16.165868

> <b_lp_Chiralities_Consistent>
1

> <s_lp_Variant>
CHEMBL221_lig374-1

> <s_i_glide_gridfile>
glide-grid_2oyu

> <i_i_glide_lignum>
440

> <i_i_glide_rotatable_bonds>
6

> <r_i_docking_score>
-9.11915657674467

> <r_i_glide_ligand_efficiency>
-0.414507117124758

> <r_i_glide_ligand_efficiency_sa>
-1.16146524382344

> <r_i_glide_ligand_efficiency_ln>
-2.22905449667451

> <r_i_glide_gscore>
-9.11915657674467

> <r_i_glide_lipo>
-3.82153495161232

> <r_i_glide_hbond>
-0.591328799416066

> <r_i_glide_metal>
0

> <r_i_glide_rewards>
-2.66564249160016

> <r_i_glide_evdw>
-28.7555923461914

> <r_i_glide_ecoul>
-9.80530261993408

> <r_i_glide_erotb>
0.924850705314792

> <r_i_glide_esite>
-0.0569260291312376

> <r_i_glide_emodel>
-51.2474897794302

> <r_i_glide_energy>
-38.5608949661255

> <r_i_glide_einternal>
7.01439189910889

> <i_i_glide_confnum>
231

> <i_i_glide_posenum>
170

> <r_i_glide_eff_state_penalty>
0

> <s_user_duplicate_titles>
CHEMBL221_lig374

> <i_f3d_flags>
0

> <s_m_subgroup_title>
dock_pv

> <s_m_subgroupid>
dock_pv

> <b_m_subgroup_collapsed>
1

$$$$
CHEMBL221_lig328
                    3D
 Schrodinger Suite 2021-1.
 38 40  0  0  1  0            999 V2000
   20.0002   48.9967    6.2637 S   0  0  0  0  0  0
   19.6997   48.9257   12.3463 C   0  0  0  0  0  0
   20.5011   49.5192   13.2608 C   0  0  0  0  0  0
   20.0157   49.0409    8.0572 C   0  0  0  0  0  0
   19.7880   49.0353   10.8641 C   0  0  0  0  0  0
   21.7038   50.3123   12.9547 C   0  0  0  0  0  0
   20.9227   49.9831    5.7201 O   0  0  0  0  0  0
   20.1230   47.6027    5.8687 O   0  0  0  0  0  0
   18.4184   49.4730    5.8001 N   0  0  0  0  0  0
   19.7239   47.8628    8.7387 C   0  0  0  0  0  0
   20.1230   50.2354    8.7820 C   0  0  0  0  0  0
   19.6352   47.8730   10.1216 C   0  0  0  0  0  0
   20.0508   50.2310   10.1804 C   0  0  0  0  0  0
   22.5754   49.8780   11.9534 C   0  0  0  0  0  0
   21.9639   51.5109   13.6294 C   0  0  0  0  0  0
   23.9133   51.8313   12.2598 C   0  0  0  0  0  0
   18.6498   48.0563   13.0224 C   0  0  0  0  0  0
   20.1647   49.0731   14.6725 C   0  0  0  0  0  0
   23.0773   52.2762   13.2823 C   0  0  0  0  0  0
   23.6649   50.6512   11.5954 C   0  0  0  0  0  0
   25.3229   52.6730   11.8000 Cl  0  0  0  0  0  0
   18.8440   48.3279   14.5114 C   0  0  0  0  0  0
   18.2743   50.4816    5.9113 H   0  0  0  0  0  0
   18.1882   49.2276    4.8336 H   0  0  0  0  0  0
   19.5756   46.9385    8.2021 H   0  0  0  0  0  0
   20.2708   51.1642    8.2510 H   0  0  0  0  0  0
   19.4653   46.9496   10.6374 H   0  0  0  0  0  0
   20.1620   51.1592   10.7225 H   0  0  0  0  0  0
   22.4103   48.9472   11.4354 H   0  0  0  0  0  0
   21.3011   51.8542   14.4087 H   0  0  0  0  0  0
   17.6300   48.2714   12.6975 H   0  0  0  0  0  0
   18.8553   47.0058   12.8142 H   0  0  0  0  0  0
   20.9233   48.3740   15.0153 H   0  0  0  0  0  0
   20.1219   49.8798   15.4029 H   0  0  0  0  0  0
   23.2893   53.2018   13.8011 H   0  0  0  0  0  0
   24.3379   50.3230   10.8186 H   0  0  0  0  0  0
   18.0275   48.9550   14.8757 H   0  0  0  0  0  0
   18.8081   47.4141   15.1038 H   0  0  0  0  0  0
  1  4  1  0  0  0
  1  7  2  0  0  0
  1  8  2  0  0  0
  1  9  1  0  0  0
  2  5  1  0  0  0
  2  3  2  0  0  0
  2 17  1  0  0  0
  3  6  1  0  0  0
  3 18  1  0  0  0
  4 10  2  0  0  0
  4 11  1  0  0  0
  5 13  1  0  0  0
  5 12  2  0  0  0
  6 14  2  0  0  0
  6 15  1  0  0  0
  9 23  1  0  0  0
  9 24  1  0  0  0
 10 12  1  0  0  0
 10 25  1  0  0  0
 11 13  2  0  0  0
 11 26  1  0  0  0
 12 27  1  0  0  0
 13 28  1  0  0  0
 14 20  1  0  0  0
 14 29  1  0  0  0
 15 19  2  0  0  0
 15 30  1  0  0  0
 16 19  1  0  0  0
 16 21  1  0  0  0
 16 20  2  0  0  0
 17 22  1  0  0  0
 17 31  1  0  0  0
 17 32  1  0  0  0
 18 22  1  0  0  0
 18 33  1  0  0  0
 18 34  1  0  0  0
 19 35  1  0  0  0
 20 36  1  0  0  0
 22 37  1  0  0  0
 22 38  1  0  0  0
M  END
> <s_m_entry_id>
5163

> <s_m_entry_name>
dock_pv.154

> <s_m_Source_Path>
/home/csk/Desktop/cluster/DUD-E-result/pgh1

> <s_m_Source_File>
dock_pv.maegz

> <i_m_Source_File_Index>
154

> <chembl_id>
CHEMBL111590

> <chembl_pref_name>
None

> <i_lp_mmshare_version>
53161

> <r_lp_tautomer_probability>
1

> <s_lp_Force_Field>
OPLS_2005

> <r_lp_Energy>
35.341637

> <b_lp_Chiralities_Consistent>
1

> <s_lp_Variant>
CHEMBL221_lig328-1

> <s_i_glide_gridfile>
glide-grid_2oyu

> <i_i_glide_lignum>
393

> <i_i_glide_rotatable_bonds>
3

> <r_i_docking_score>
-9.11722888993824

> <r_i_glide_ligand_efficiency>
-0.414419494997193

> <r_i_glide_ligand_efficiency_sa>
-1.16121972317602

> <r_i_glide_ligand_efficiency_ln>
-2.22858329970493

> <r_i_glide_gscore>
-9.11722888993824

> <r_i_glide_lipo>
-4.89892175016569

> <r_i_glide_hbond>
-0.282321040519324

> <r_i_glide_metal>
0

> <r_i_glide_rewards>
-2.3532546782048

> <r_i_glide_evdw>
-18.3988914489746

> <r_i_glide_ecoul>
-6.18036794662476

> <r_i_glide_erotb>
0.338332648491218

> <r_i_glide_esite>
-0.0740643050971963

> <r_i_glide_emodel>
-30.582026100166

> <r_i_glide_energy>
-24.5792593955994

> <r_i_glide_einternal>
0.980965435504913

> <i_i_glide_confnum>
16

> <i_i_glide_posenum>
78

> <r_i_glide_eff_state_penalty>
0

> <s_user_duplicate_titles>
CHEMBL221_lig328

> <i_f3d_flags>
0

> <s_m_subgroup_title>
dock_pv

> <s_m_subgroupid>
dock_pv

> <b_m_subgroup_collapsed>
1

$$$$
CHEMBL221_lig148
                    3D
 Schrodinger Suite 2021-1.
 39 41  0  0  1  0            999 V2000
   19.8358   49.0104   12.2048 N   0  0  0  0  0  0
   19.1160   48.3084   14.2244 N   0  0  0  0  0  0
   20.6128   49.6285   13.1668 C   0  0  0  0  0  0
   18.9486   48.2463   12.9329 C   0  0  0  0  0  0
   19.9986   48.9032    6.2134 S   0  0  0  0  0  0
   20.1235   49.1416   14.3840 C   0  0  0  0  0  0
   19.9071   49.0641   10.7929 C   0  0  0  0  0  0
   19.9869   49.0084    7.9984 C   0  0  0  0  0  0
   21.7379   50.5743   12.9098 C   0  0  0  0  0  0
   20.9230   49.8730    5.6430 O   0  0  0  0  0  0
   20.1230   47.4909    5.8887 O   0  0  0  0  0  0
   19.7391   47.8392    8.7134 C   0  0  0  0  0  0
   20.1230   50.2216    8.6856 C   0  0  0  0  0  0
   19.7230   47.8730   10.0973 C   0  0  0  0  0  0
   20.1209   50.2516   10.0839 C   0  0  0  0  0  0
   20.7037   49.5220   15.9543 Cl  0  0  0  0  0  0
   21.8221   51.7567   13.6463 C   0  0  0  0  0  0
   22.7242   50.2730   11.9698 C   0  0  0  0  0  0
   18.3050   49.3636    5.6936 C   0  0  0  0  0  0
   23.9007   52.3083   12.5317 C   0  0  0  0  0  0
   22.8943   52.6225   13.4562 C   0  0  0  0  0  0
   23.7920   51.1418   11.7769 C   0  0  0  0  0  0
   25.0297   53.0730   12.3212 O   0  0  0  0  0  0
   25.2461   54.2304   13.1246 C   0  0  0  0  0  0
   18.1994   47.6551   12.4263 H   0  0  0  0  0  0
   19.5942   46.8968    8.2069 H   0  0  0  0  0  0
   20.2439   51.1382    8.1265 H   0  0  0  0  0  0
   19.5903   46.9566   10.6418 H   0  0  0  0  0  0
   20.2401   51.1934   10.6008 H   0  0  0  0  0  0
   21.0638   52.0025   14.3757 H   0  0  0  0  0  0
   22.6730   49.3578   11.3997 H   0  0  0  0  0  0
   18.3325   49.4730    4.6135 H   0  0  0  0  0  0
   17.7209   48.4943    5.9394 H   0  0  0  0  0  0
   17.9779   50.2717    6.1995 H   0  0  0  0  0  0
   22.9379   53.5195   14.0556 H   0  0  0  0  0  0
   24.5571   50.8957   11.0553 H   0  0  0  0  0  0
   26.1821   54.7053   12.8321 H   0  0  0  0  0  0
   25.3230   53.9731   14.1814 H   0  0  0  0  0  0
   24.4541   54.9692   13.0005 H   0  0  0  0  0  0
  1  3  1  0  0  0
  1  4  1  0  0  0
  1  7  1  0  0  0
  2  4  2  0  0  0
  2  6  1  0  0  0
  3  6  2  0  0  0
  3  9  1  0  0  0
  4 25  1  0  0  0
  5  8  1  0  0  0
  5 10  2  0  0  0
  5 11  2  0  0  0
  5 19  1  0  0  0
  6 16  1  0  0  0
  7 14  1  0  0  0
  7 15  2  0  0  0
  8 13  2  0  0  0
  8 12  1  0  0  0
  9 17  2  0  0  0
  9 18  1  0  0  0
 12 14  2  0  0  0
 12 26  1  0  0  0
 13 15  1  0  0  0
 13 27  1  0  0  0
 14 28  1  0  0  0
 15 29  1  0  0  0
 17 21  1  0  0  0
 17 30  1  0  0  0
 18 22  2  0  0  0
 18 31  1  0  0  0
 19 32  1  0  0  0
 19 33  1  0  0  0
 19 34  1  0  0  0
 20 22  1  0  0  0
 20 23  1  0  0  0
 20 21  2  0  0  0
 21 35  1  0  0  0
 22 36  1  0  0  0
 23 24  1  0  0  0
 24 37  1  0  0  0
 24 38  1  0  0  0
 24 39  1  0  0  0
M  END
> <s_m_entry_id>
5164

> <s_m_entry_name>
dock_pv.155

> <s_m_Source_Path>
/home/csk/Desktop/cluster/DUD-E-result/pgh1

> <s_m_Source_File>
dock_pv.maegz

> <i_m_Source_File_Index>
155

> <chembl_id>
CHEMBL333651

> <chembl_pref_name>
None

> <i_lp_mmshare_version>
53161

> <r_lp_tautomer_probability>
1

> <s_lp_Force_Field>
OPLS_2005

> <r_lp_Energy>
15.618911

> <b_lp_Chiralities_Consistent>
1

> <s_lp_Variant>
CHEMBL221_lig148-1

> <s_i_glide_gridfile>
glide-grid_2oyu

> <i_i_glide_lignum>
170

> <i_i_glide_rotatable_bonds>
4

> <r_i_docking_score>
-9.111323702911

> <r_i_glide_ligand_efficiency>
-0.379638487621291

> <r_i_glide_ligand_efficiency_sa>
-1.09506689012786

> <r_i_glide_ligand_efficiency_ln>
-2.18075785350813

> <r_i_glide_gscore>
-9.111323702911

> <r_i_glide_lipo>
-4.38620954843767

> <r_i_glide_hbond>
0

> <r_i_glide_metal>
0

> <r_i_glide_rewards>
-2.56786951910098

> <r_i_glide_evdw>
-27.9058723449707

> <r_i_glide_ecoul>
-6.91274452209473

> <r_i_glide_erotb>
0.291788797195634

> <r_i_glide_esite>
-0.0168281370052385

> <r_i_glide_emodel>
-45.7576828877031

> <r_i_glide_energy>
-34.8186168670654

> <r_i_glide_einternal>
1.19095957279205

> <i_i_glide_confnum>
3

> <i_i_glide_posenum>
118

> <r_i_glide_eff_state_penalty>
0

> <s_user_duplicate_titles>
CHEMBL221_lig148

> <i_f3d_flags>
0

> <s_m_subgroup_title>
dock_pv

> <s_m_subgroupid>
dock_pv

> <b_m_subgroup_collapsed>
1

$$$$
CHEMBL221_lig68
                    3D
 Schrodinger Suite 2021-1.
 38 40  0  0  1  0            999 V2000
   20.6005   49.7022   13.2294 N   0  0  0  0  0  0
   19.8146   49.0379   12.3041 C   0  0  0  0  0  0
   20.0223   48.8890    6.2561 S   0  0  0  0  0  0
   19.1366   48.4059   14.3559 N   0  0  0  0  0  0
   18.9386   48.2730   13.0665 C   0  0  0  0  0  0
   20.1236   49.2609   14.4551 C   0  0  0  0  0  0
   21.6810   50.5831   12.9817 C   0  0  0  0  0  0
   20.0309   49.0097    8.0358 C   0  0  0  0  0  0
   19.9141   49.1083   10.8206 C   0  0  0  0  0  0
   20.1230   47.4731    5.9363 O   0  0  0  0  0  0
   20.9230   49.8730    5.6608 O   0  0  0  0  0  0
   19.7674   47.8516    8.7644 C   0  0  0  0  0  0
   20.1230   50.2366    8.7005 C   0  0  0  0  0  0
   19.7230   47.9088   10.1464 C   0  0  0  0  0  0
   20.1230   50.2825   10.0951 C   0  0  0  0  0  0
   21.7587   51.8180   13.6366 C   0  0  0  0  0  0
   22.6775   50.2087   12.0736 C   0  0  0  0  0  0
   18.3154   49.3100    5.7979 C   0  0  0  0  0  0
   23.8348   52.2730   12.4999 C   0  0  0  0  0  0
   22.8439   52.6586   13.4000 C   0  0  0  0  0  0
   23.7475   51.0602   11.8235 C   0  0  0  0  0  0
   24.9019   53.0731   12.2900 F   0  0  0  0  0  0
   20.6644   49.6865   15.8000 C   0  0  0  0  0  0
   18.1662   47.6206   12.6837 H   0  0  0  0  0  0
   19.6199   46.9030    8.2709 H   0  0  0  0  0  0
   20.2290   51.1472    8.1287 H   0  0  0  0  0  0
   19.5493   47.0141   10.7126 H   0  0  0  0  0  0
   20.2287   51.2303   10.6023 H   0  0  0  0  0  0
   20.9875   52.1372   14.3219 H   0  0  0  0  0  0
   22.6293   49.2568   11.5643 H   0  0  0  0  0  0
   18.2581   49.3038    4.7123 H   0  0  0  0  0  0
   18.0270   50.2730    6.2000 H   0  0  0  0  0  0
   17.7230   48.4979    6.1856 H   0  0  0  0  0  0
   22.9230   53.6051   13.9157 H   0  0  0  0  0  0
   24.5229   50.7725   11.1275 H   0  0  0  0  0  0
   20.1588   49.1518   16.6000 H   0  0  0  0  0  0
   21.7230   49.4728   15.9084 H   0  0  0  0  0  0
   20.5230   50.7471   16.0013 H   0  0  0  0  0  0
  1  2  1  0  0  0
  1  6  1  0  0  0
  1  7  1  0  0  0
  2  5  2  0  0  0
  2  9  1  0  0  0
  3  8  1  0  0  0
  3 10  2  0  0  0
  3 11  2  0  0  0
  3 18  1  0  0  0
  4  6  2  0  0  0
  4  5  1  0  0  0
  5 24  1  0  0  0
  6 23  1  0  0  0
  7 16  1  0  0  0
  7 17  2  0  0  0
  8 13  2  0  0  0
  8 12  1  0  0  0
  9 14  1  0  0  0
  9 15  2  0  0  0
 12 14  2  0  0  0
 12 25  1  0  0  0
 13 15  1  0  0  0
 13 26  1  0  0  0
 14 27  1  0  0  0
 15 28  1  0  0  0
 16 20  2  0  0  0
 16 29  1  0  0  0
 17 21  1  0  0  0
 17 30  1  0  0  0
 18 31  1  0  0  0
 18 32  1  0  0  0
 18 33  1  0  0  0
 19 21  2  0  0  0
 19 22  1  0  0  0
 19 20  1  0  0  0
 20 34  1  0  0  0
 21 35  1  0  0  0
 23 36  1  0  0  0
 23 37  1  0  0  0
 23 38  1  0  0  0
M  END
> <s_m_entry_id>
5165

> <s_m_entry_name>
dock_pv.156

> <s_m_Source_Path>
/home/csk/Desktop/cluster/DUD-E-result/pgh1

> <s_m_Source_File>
dock_pv.maegz

> <i_m_Source_File_Index>
156

> <chembl_id>
CHEMBL116343

> <chembl_pref_name>
None

> <i_lp_mmshare_version>
53161

> <r_lp_tautomer_probability>
1

> <s_lp_Force_Field>
OPLS_2005

> <r_lp_Energy>
12.090314

> <b_lp_Chiralities_Consistent>
1

> <s_lp_Variant>
CHEMBL221_lig68-1

> <s_i_glide_gridfile>
glide-grid_2oyu

> <i_i_glide_lignum>
85

> <i_i_glide_rotatable_bonds>
3

> <r_i_docking_score>
-9.10477149208375

> <r_i_glide_ligand_efficiency>
-0.395859630090598

> <r_i_glide_ligand_efficiency_sa>
-1.12577212949429

> <r_i_glide_ligand_efficiency_ln>
-2.20161630428931

> <r_i_glide_gscore>
-9.10477149208375

> <r_i_glide_lipo>
-4.20859069848068

> <r_i_glide_hbond>
0

> <r_i_glide_metal>
0

> <r_i_glide_rewards>
-3.30117407261979

> <r_i_glide_evdw>
-20.4644660949707

> <r_i_glide_ecoul>
-6.00594329833984

> <r_i_glide_erotb>
0.344616303517805

> <r_i_glide_esite>
-0.015508225001567

> <r_i_glide_emodel>
-30.5932938911772

> <r_i_glide_energy>
-26.4704093933105

> <r_i_glide_einternal>
0.818770051002502

> <i_i_glide_confnum>
5

> <i_i_glide_posenum>
249

> <r_i_glide_eff_state_penalty>
0

> <s_user_duplicate_titles>
CHEMBL221_lig68

> <i_f3d_flags>
0

> <s_m_subgroup_title>
dock_pv

> <s_m_subgroupid>
dock_pv

> <b_m_subgroup_collapsed>
1

$$$$
CHEMBL221_lig74
                    3D
 Schrodinger Suite 2021-1.
 41 43  0  0  1  0            999 V2000
   19.8740   49.1214    6.1252 S   0  0  0  0  0  0
   19.7229   48.6373   12.0535 N   0  0  0  0  0  0
   18.8691   47.9293   14.0137 N   0  0  0  0  0  0
   20.4951   49.1670   13.0645 C   0  0  0  0  0  0
   18.7531   47.9265   12.7147 C   0  0  0  0  0  0
   19.9321   48.6717   14.2448 C   0  0  0  0  0  0
   19.9539   48.9634    7.8858 C   0  0  0  0  0  0
   19.8411   48.7765   10.6554 C   0  0  0  0  0  0
   21.6550   50.0714   12.8645 C   0  0  0  0  0  0
   20.6767   50.2718    5.7541 O   0  0  0  0  0  0
   20.1230   47.8366    5.5018 O   0  0  0  0  0  0
   18.2306   49.4730    5.8000 N   0  0  0  0  0  0
   19.7249   47.7281    8.4761 C   0  0  0  0  0  0
   20.1230   50.1066    8.6773 C   0  0  0  0  0  0
   19.7181   47.6392    9.8588 C   0  0  0  0  0  0
   20.0740   50.0200   10.0640 C   0  0  0  0  0  0
   20.4835   48.9339   15.8491 Cl  0  0  0  0  0  0
   21.8212   51.1204   13.7612 C   0  0  0  0  0  0
   22.5674   49.8888   11.8224 C   0  0  0  0  0  0
   23.8083   51.8063   12.5650 C   0  0  0  0  0  0
   23.6206   50.7758   11.6563 C   0  0  0  0  0  0
   22.9067   51.9654   13.6294 C   0  0  0  0  0  0
   24.9230   52.5897   12.3570 O   0  0  0  0  0  0
   25.3231   53.4733   13.3888 C   0  0  0  0  0  0
   24.4037   54.6730   13.4000 C   0  0  0  0  0  0
   17.9578   47.4730   12.1493 H   0  0  0  0  0  0
   18.0133   50.4508    6.0190 H   0  0  0  0  0  0
   18.0025   49.3330    4.8122 H   0  0  0  0  0  0
   19.5861   46.8464    7.8712 H   0  0  0  0  0  0
   20.2409   51.0734    8.2099 H   0  0  0  0  0  0
   19.6394   46.6738   10.3189 H   0  0  0  0  0  0
   20.1660   50.9174   10.6596 H   0  0  0  0  0  0
   21.1226   51.2826   14.5687 H   0  0  0  0  0  0
   22.4607   49.0730   11.1272 H   0  0  0  0  0  0
   24.3185   50.6560   10.8403 H   0  0  0  0  0  0
   23.0134   52.7407   14.3687 H   0  0  0  0  0  0
   26.3440   53.8090   13.2278 H   0  0  0  0  0  0
   25.3319   52.9673   14.3506 H   0  0  0  0  0  0
   24.2877   55.0729   14.4051 H   0  0  0  0  0  0
   23.4080   54.4781   13.0056 H   0  0  0  0  0  0
   24.8328   55.4687   12.7890 H   0  0  0  0  0  0
  1  7  1  0  0  0
  1 10  2  0  0  0
  1 11  2  0  0  0
  1 12  1  0  0  0
  2  8  1  0  0  0
  2  4  1  0  0  0
  2  5  1  0  0  0
  3  5  2  0  0  0
  3  6  1  0  0  0
  4  6  2  0  0  0
  4  9  1  0  0  0
  5 26  1  0  0  0
  6 17  1  0  0  0
  7 13  1  0  0  0
  7 14  2  0  0  0
  8 16  2  0  0  0
  8 15  1  0  0  0
  9 18  2  0  0  0
  9 19  1  0  0  0
 12 27  1  0  0  0
 12 28  1  0  0  0
 13 15  2  0  0  0
 13 29  1  0  0  0
 14 16  1  0  0  0
 14 30  1  0  0  0
 15 31  1  0  0  0
 16 32  1  0  0  0
 18 22  1  0  0  0
 18 33  1  0  0  0
 19 21  2  0  0  0
 19 34  1  0  0  0
 20 21  1  0  0  0
 20 23  1  0  0  0
 20 22  2  0  0  0
 21 35  1  0  0  0
 22 36  1  0  0  0
 23 24  1  0  0  0
 24 25  1  0  0  0
 24 37  1  0  0  0
 24 38  1  0  0  0
 25 39  1  0  0  0
 25 40  1  0  0  0
 25 41  1  0  0  0
M  END
> <s_m_entry_id>
5166

> <s_m_entry_name>
dock_pv.157

> <s_m_Source_Path>
/home/csk/Desktop/cluster/DUD-E-result/pgh1

> <s_m_Source_File>
dock_pv.maegz

> <i_m_Source_File_Index>
157

> <chembl_id>
CHEMBL324312

> <chembl_pref_name>
None

> <i_lp_mmshare_version>
53161

> <r_lp_tautomer_probability>
1

> <s_lp_Force_Field>
OPLS_2005

> <r_lp_Energy>
25.368738

> <b_lp_Chiralities_Consistent>
1

> <s_lp_Variant>
CHEMBL221_lig74-1

> <s_i_glide_gridfile>
glide-grid_2oyu

> <i_i_glide_lignum>
91

> <i_i_glide_rotatable_bonds>
5

> <r_i_docking_score>
-9.10240915812983

> <r_i_glide_ligand_efficiency>
-0.364096366325193

> <r_i_glide_ligand_efficiency_sa>
-1.06462423241142

> <r_i_glide_ligand_efficiency_ln>
-2.15754374766747

> <r_i_glide_gscore>
-9.10240915812983

> <r_i_glide_lipo>
-4.38666519486461

> <r_i_glide_hbond>
-0.357392512525447

> <r_i_glide_metal>
0

> <r_i_glide_rewards>
-2.61750090650621

> <r_i_glide_evdw>
-21.0695686340332

> <r_i_glide_ecoul>
-6.74985694885254

> <r_i_glide_erotb>
0.407084604983783

> <r_i_glide_esite>
-0.0819781751878004

> <r_i_glide_emodel>
-32.5763063537336

> <r_i_glide_energy>
-27.8194255828857

> <r_i_glide_einternal>
6.69919061660767

> <i_i_glide_confnum>
20

> <i_i_glide_posenum>
22

> <r_i_glide_eff_state_penalty>
0

> <s_user_duplicate_titles>
CHEMBL221_lig74

> <i_f3d_flags>
0

> <s_m_subgroup_title>
dock_pv

> <s_m_subgroupid>
dock_pv

> <b_m_subgroup_collapsed>
1

$$$$
CHEMBL221_lig903
                    3D
 Schrodinger Suite 2021-1.
 37 39  0  0  1  0            999 V2000
   20.1518   49.7222    9.9978 C   0  0  0  0  0  0
   19.7230   48.4129   10.1677 C   0  0  0  0  0  0
   19.5802   47.8730   11.4416 C   0  0  0  0  0  0
   20.5203   50.5130   11.0823 C   0  0  0  0  0  0
   19.8525   48.4016   13.9608 C   0  0  0  0  0  0
   20.4846   49.4730   14.5612 C   0  0  0  0  0  0
   20.9230   50.3780   13.6031 N   0  0  0  0  0  0
   20.4744   49.9281   12.3620 C   0  0  0  0  0  0
   19.9377   48.6306   12.5573 C   0  0  0  0  0  0
   20.6820   49.6956   16.0396 C   0  0  0  0  0  0
   19.1705   47.2359   14.6527 C   0  0  0  0  0  0
   17.8147   47.6718   15.2060 C   0  0  0  0  0  0
   17.5986   47.8730   16.3981 O   0  0  0  0  0  0
   16.9230   47.8730   14.2000 O   0  0  0  0  0  0
   21.6631   51.5598   13.9178 C   0  0  0  0  0  0
   22.8886   51.8681   13.0988 C   0  0  0  0  0  0
   21.3230   52.2783   14.8597 O   0  0  0  0  0  0
   23.3230   50.9827   12.1066 C   0  0  0  0  0  0
   24.3453   51.3287   11.2630 C   0  0  0  0  0  0
   25.0938   52.4554   11.5293 C   0  0  0  0  0  0
   24.7628   53.3060   12.5884 C   0  0  0  0  0  0
   23.6195   53.0395   13.3358 C   0  0  0  0  0  0
   26.5257   52.6730   10.6000 Cl  0  0  0  0  0  0
   20.2102   50.1321    8.9988 H   0  0  0  0  0  0
   19.4539   47.8250    9.3012 H   0  0  0  0  0  0
   19.2112   46.8764   11.5823 H   0  0  0  0  0  0
   20.8911   51.5127   10.9198 H   0  0  0  0  0  0
   20.3665   48.8220   16.6000 H   0  0  0  0  0  0
   21.7230   49.8729   16.2853 H   0  0  0  0  0  0
   20.1230   50.5460   16.4250 H   0  0  0  0  0  0
   19.0181   46.3893   13.9829 H   0  0  0  0  0  0
   19.7723   46.8525   15.4768 H   0  0  0  0  0  0
   17.3151   47.7516   13.3342 H   0  0  0  0  0  0
   22.8818   50.0175   11.9263 H   0  0  0  0  0  0
   24.5848   50.6731   10.4439 H   0  0  0  0  0  0
   25.3616   54.1806   12.7991 H   0  0  0  0  0  0
   23.3230   53.7307   14.1141 H   0  0  0  0  0  0
  1  2  2  0  0  0
  1  4  1  0  0  0
  1 24  1  0  0  0
  2  3  1  0  0  0
  2 25  1  0  0  0
  3  9  2  0  0  0
  3 26  1  0  0  0
  4  8  2  0  0  0
  4 27  1  0  0  0
  5 11  1  0  0  0
  5  6  2  0  0  0
  5  9  1  0  0  0
  6  7  1  0  0  0
  6 10  1  0  0  0
  7 15  1  0  0  0
  7  8  1  0  0  0
  8  9  1  0  0  0
 10 28  1  0  0  0
 10 29  1  0  0  0
 10 30  1  0  0  0
 11 12  1  0  0  0
 11 31  1  0  0  0
 11 32  1  0  0  0
 12 13  2  0  0  0
 12 14  1  0  0  0
 14 33  1  0  0  0
 15 16  1  0  0  0
 15 17  2  0  0  0
 16 18  2  0  0  0
 16 22  1  0  0  0
 18 19  1  0  0  0
 18 34  1  0  0  0
 19 20  2  0  0  0
 19 35  1  0  0  0
 20 21  1  0  0  0
 20 23  1  0  0  0
 21 22  2  0  0  0
 21 36  1  0  0  0
 22 37  1  0  0  0
M  END
> <s_m_entry_id>
5167

> <s_m_entry_name>
dock_pv.158

> <s_m_Source_Path>
/home/csk/Desktop/cluster/DUD-E-result/pgh1

> <s_m_Source_File>
dock_pv.maegz

> <i_m_Source_File_Index>
158

> <chembl_id>
CHEMBL1241992

> <chembl_pref_name>
None

> <i_lp_mmshare_version>
53161

> <r_lp_tautomer_probability>
1

> <s_lp_Force_Field>
OPLS_2005

> <r_lp_Energy>
25.31638

> <b_lp_Chiralities_Consistent>
1

> <s_lp_Variant>
CHEMBL221_lig903-1

> <s_i_glide_gridfile>
glide-grid_2oyu

> <i_i_glide_lignum>
1111

> <i_i_glide_rotatable_bonds>
5

> <r_i_docking_score>
-9.09184348799035

> <r_i_glide_ligand_efficiency>
-0.395297542956102

> <r_i_glide_ligand_efficiency_sa>
-1.12417362845437

> <r_i_glide_ligand_efficiency_ln>
-2.19849019567487

> <r_i_glide_gscore>
-9.09184348799035

> <r_i_glide_lipo>
-4.42218372939299

> <r_i_glide_hbond>
0

> <r_i_glide_metal>
0

> <r_i_glide_rewards>
-3.12871634003793

> <r_i_glide_evdw>
-38.1285591125488

> <r_i_glide_ecoul>
-2.2233247756958

> <r_i_glide_erotb>
0.698983253422378

> <r_i_glide_esite>
0

> <r_i_glide_emodel>
-54.2857707101169

> <r_i_glide_energy>
-40.3518838882446

> <r_i_glide_einternal>
9.6402759552002

> <i_i_glide_confnum>
21

> <i_i_glide_posenum>
175

> <r_i_glide_eff_state_penalty>
0

> <s_user_duplicate_titles>
CHEMBL221_lig903

> <i_f3d_flags>
0

> <s_m_subgroup_title>
dock_pv

> <s_m_subgroupid>
dock_pv

> <b_m_subgroup_collapsed>
1

$$$$
CHEMBL221_lig82
                    3D
 Schrodinger Suite 2021-1.
 40 43  0  0  1  0            999 V2000
   19.7657   48.9417   12.2902 N   0  0  0  0  0  0
   20.5258   49.5497   13.2647 C   0  0  0  0  0  0
   19.0217   48.2361   14.2989 N   0  0  0  0  0  0
   18.8768   48.1674   13.0032 C   0  0  0  0  0  0
   20.0190   48.8867    6.3050 S   0  0  0  0  0  0
   20.0236   49.0728   14.4755 C   0  0  0  0  0  0
   21.6356   50.4957   13.0024 C   0  0  0  0  0  0
   21.5981   51.7635   13.5915 C   0  0  0  0  0  0
   19.8668   49.0178   10.8823 C   0  0  0  0  0  0
   20.0150   48.9869    8.0909 C   0  0  0  0  0  0
   22.6411   52.6511   13.3609 C   0  0  0  0  0  0
   20.1229   47.4748    5.9695 O   0  0  0  0  0  0
   20.9231   49.8731    5.7260 O   0  0  0  0  0  0
   23.6945   52.2769   12.5470 C   0  0  0  0  0  0
   22.7021   50.1390   12.1650 C   0  0  0  0  0  0
   24.6375   53.2570   12.4037 O   0  0  0  0  0  0
   23.7375   51.0394   11.9165 C   0  0  0  0  0  0
   19.7656   47.8108    8.7918 C   0  0  0  0  0  0
   20.1230   50.1968    8.7900 C   0  0  0  0  0  0
   19.7228   47.8335   10.1735 C   0  0  0  0  0  0
   20.0845   50.2150   10.1892 C   0  0  0  0  0  0
   20.5676   49.4810   16.0510 Cl  0  0  0  0  0  0
   18.3291   49.3181    5.7949 C   0  0  0  0  0  0
   24.3039   54.2733   13.3492 C   0  0  0  0  0  0
   22.8144   54.0925   13.6862 C   0  0  0  0  0  0
   18.1393   47.5731   12.4830 H   0  0  0  0  0  0
   20.7596   52.0554   14.2071 H   0  0  0  0  0  0
   22.7265   49.1608   11.7077 H   0  0  0  0  0  0
   24.5553   50.7657   11.2664 H   0  0  0  0  0  0
   19.6397   46.8700    8.2775 H   0  0  0  0  0  0
   20.2431   51.1172    8.2371 H   0  0  0  0  0  0
   19.5994   46.9109   10.7074 H   0  0  0  0  0  0
   20.1798   51.1533   10.7166 H   0  0  0  0  0  0
   18.3190   49.3443    4.7083 H   0  0  0  0  0  0
   18.0184   50.2730    6.2000 H   0  0  0  0  0  0
   17.7230   48.4912    6.1243 H   0  0  0  0  0  0
   24.9402   54.0933   14.2061 H   0  0  0  0  0  0
   24.5530   55.2736   13.0002 H   0  0  0  0  0  0
   22.1986   54.7001   13.0225 H   0  0  0  0  0  0
   22.5235   54.3758   14.6982 H   0  0  0  0  0  0
  1  2  1  0  0  0
  1  4  1  0  0  0
  1  9  1  0  0  0
  2  6  2  0  0  0
  2  7  1  0  0  0
  3  4  2  0  0  0
  3  6  1  0  0  0
  4 26  1  0  0  0
  5 10  1  0  0  0
  5 12  2  0  0  0
  5 13  2  0  0  0
  5 23  1  0  0  0
  6 22  1  0  0  0
  7  8  2  0  0  0
  7 15  1  0  0  0
  8 11  1  0  0  0
  8 27  1  0  0  0
  9 20  2  0  0  0
  9 21  1  0  0  0
 10 19  1  0  0  0
 10 18  2  0  0  0
 11 25  1  0  0  0
 11 14  2  0  0  0
 14 17  1  0  0  0
 14 16  1  0  0  0
 15 17  2  0  0  0
 15 28  1  0  0  0
 16 24  1  0  0  0
 17 29  1  0  0  0
 18 20  1  0  0  0
 18 30  1  0  0  0
 19 21  2  0  0  0
 19 31  1  0  0  0
 20 32  1  0  0  0
 21 33  1  0  0  0
 23 34  1  0  0  0
 23 35  1  0  0  0
 23 36  1  0  0  0
 24 25  1  0  0  0
 24 37  1  0  0  0
 24 38  1  0  0  0
 25 39  1  0  0  0
 25 40  1  0  0  0
M  END
> <s_m_entry_id>
5168

> <s_m_entry_name>
dock_pv.159

> <s_m_Source_Path>
/home/csk/Desktop/cluster/DUD-E-result/pgh1

> <s_m_Source_File>
dock_pv.maegz

> <i_m_Source_File_Index>
159

> <chembl_id>
CHEMBL325894

> <chembl_pref_name>
None

> <i_lp_mmshare_version>
53161

> <r_lp_tautomer_probability>
1

> <s_lp_Force_Field>
OPLS_2005

> <r_lp_Energy>
23.944356

> <b_lp_Chiralities_Consistent>
1

> <s_lp_Variant>
CHEMBL221_lig82-1

> <s_i_glide_gridfile>
glide-grid_2oyu

> <i_i_glide_lignum>
99

> <i_i_glide_rotatable_bonds>
3

> <r_i_docking_score>
-9.09106084985048

> <r_i_glide_ligand_efficiency>
-0.363642433994019

> <r_i_glide_ligand_efficiency_sa>
-1.06329692622454

> <r_i_glide_ligand_efficiency_ln>
-2.15485385852391

> <r_i_glide_gscore>
-9.09106084985048

> <r_i_glide_lipo>
-4.30091754584012

> <r_i_glide_hbond>
0

> <r_i_glide_metal>
0

> <r_i_glide_rewards>
-2.92183683191493

> <r_i_glide_evdw>
-21.7762928009033

> <r_i_glide_ecoul>
-6.93211555480957

> <r_i_glide_erotb>
0.2752952436702

> <r_i_glide_esite>
-0.0149697424990188

> <r_i_glide_emodel>
-35.9939555765977

> <r_i_glide_energy>
-28.7084083557129

> <r_i_glide_einternal>
0.469336837530136

> <i_i_glide_confnum>
16

> <i_i_glide_posenum>
19

> <r_i_glide_eff_state_penalty>
0

> <s_user_duplicate_titles>
CHEMBL221_lig82,192418

> <i_f3d_flags>
0

> <s_m_subgroup_title>
dock_pv

> <s_m_subgroupid>
dock_pv

> <b_m_subgroup_collapsed>
1

$$$$
CHEMBL221_lig350
                    3D
 Schrodinger Suite 2021-1.
 39 41  0  0  1  0            999 V2000
   19.9966   48.9046    6.3211 S   0  0  0  0  0  0
   20.7938   49.7636   13.3120 C   0  0  0  0  0  0
   19.9314   49.0731   12.4206 C   0  0  0  0  0  0
   19.2615   48.2730   14.8372 S   0  0  0  0  0  0
   19.9988   49.0256    8.1122 C   0  0  0  0  0  0
   20.5230   49.4355   14.6428 C   0  0  0  0  0  0
   19.0334   48.2646   13.1273 C   0  0  0  0  0  0
   19.9368   49.1260   10.9203 C   0  0  0  0  0  0
   21.9040   50.6927   12.9605 C   0  0  0  0  0  0
   20.9230   49.8730    5.7479 O   0  0  0  0  0  0
   20.1230   47.4858    6.0204 O   0  0  0  0  0  0
   20.1230   50.2485    8.7818 C   0  0  0  0  0  0
   19.7350   47.8730    8.8526 C   0  0  0  0  0  0
   20.1230   50.2969   10.1795 C   0  0  0  0  0  0
   19.7230   47.9293   10.2398 C   0  0  0  0  0  0
   22.0414   51.8971   13.6534 C   0  0  0  0  0  0
   22.8413   50.3424   11.9873 C   0  0  0  0  0  0
   18.3169   49.3530    5.7321 C   0  0  0  0  0  0
   24.0953   52.3553   12.4568 C   0  0  0  0  0  0
   23.1277   52.7267   13.4000 C   0  0  0  0  0  0
   23.9250   51.1762   11.7345 C   0  0  0  0  0  0
   25.2447   53.0730   12.2011 O   0  0  0  0  0  0
   25.5384   54.2179   13.0000 C   0  0  0  0  0  0
   21.0350   49.8054   15.5187 H   0  0  0  0  0  0
   18.2577   47.6386   12.7100 H   0  0  0  0  0  0
   20.2420   51.1557    8.2071 H   0  0  0  0  0  0
   19.5743   46.9248    8.3619 H   0  0  0  0  0  0
   20.2529   51.2451   10.6806 H   0  0  0  0  0  0
   19.5673   47.0281   10.8014 H   0  0  0  0  0  0
   21.3197   52.1854   14.4043 H   0  0  0  0  0  0
   22.7482   49.4120   11.4473 H   0  0  0  0  0  0
   18.3924   49.4730    4.6546 H   0  0  0  0  0  0
   17.7230   48.4811    5.9444 H   0  0  0  0  0  0
   17.9559   50.2633    6.2000 H   0  0  0  0  0  0
   23.2164   53.6384   13.9708 H   0  0  0  0  0  0
   24.6618   50.8901   10.9997 H   0  0  0  0  0  0
   26.4537   54.6903   12.6445 H   0  0  0  0  0  0
   25.6957   53.9353   14.0407 H   0  0  0  0  0  0
   24.7502   54.9705   12.9592 H   0  0  0  0  0  0
  1  5  1  0  0  0
  1 10  2  0  0  0
  1 11  2  0  0  0
  1 18  1  0  0  0
  2  3  1  0  0  0
  2  6  2  0  0  0
  2  9  1  0  0  0
  3  8  1  0  0  0
  3  7  2  0  0  0
  4  7  1  0  0  0
  4  6  1  0  0  0
  5 12  2  0  0  0
  5 13  1  0  0  0
  6 24  1  0  0  0
  7 25  1  0  0  0
  8 15  1  0  0  0
  8 14  2  0  0  0
  9 16  1  0  0  0
  9 17  2  0  0  0
 12 14  1  0  0  0
 12 26  1  0  0  0
 13 15  2  0  0  0
 13 27  1  0  0  0
 14 28  1  0  0  0
 15 29  1  0  0  0
 16 20  2  0  0  0
 16 30  1  0  0  0
 17 21  1  0  0  0
 17 31  1  0  0  0
 18 32  1  0  0  0
 18 33  1  0  0  0
 18 34  1  0  0  0
 19 21  2  0  0  0
 19 22  1  0  0  0
 19 20  1  0  0  0
 20 35  1  0  0  0
 21 36  1  0  0  0
 22 23  1  0  0  0
 23 37  1  0  0  0
 23 38  1  0  0  0
 23 39  1  0  0  0
M  END
> <s_m_entry_id>
5169

> <s_m_entry_name>
dock_pv.160

> <s_m_Source_Path>
/home/csk/Desktop/cluster/DUD-E-result/pgh1

> <s_m_Source_File>
dock_pv.maegz

> <i_m_Source_File_Index>
160

> <chembl_id>
CHEMBL98903

> <chembl_pref_name>
None

> <i_lp_mmshare_version>
53161

> <r_lp_tautomer_probability>
1

> <s_lp_Force_Field>
OPLS_2005

> <r_lp_Energy>
16.461688

> <b_lp_Chiralities_Consistent>
1

> <s_lp_Variant>
CHEMBL221_lig350-1

> <s_i_glide_gridfile>
glide-grid_2oyu

> <i_i_glide_lignum>
416

> <i_i_glide_rotatable_bonds>
4

> <r_i_docking_score>
-9.08774337035912

> <r_i_glide_ligand_efficiency>
-0.395119276972136

> <r_i_glide_ligand_efficiency_sa>
-1.12366666370946

> <r_i_glide_ligand_efficiency_ln>
-2.19749875005382

> <r_i_glide_gscore>
-9.08774337035912

> <r_i_glide_lipo>
-4.96466410217051

> <r_i_glide_hbond>
0

> <r_i_glide_metal>
0

> <r_i_glide_rewards>
-2.10149937046078

> <r_i_glide_evdw>
-27.779354095459

> <r_i_glide_ecoul>
-6.25570011138916

> <r_i_glide_erotb>
0.320071745660408

> <r_i_glide_esite>
-0.0143289219069122

> <r_i_glide_emodel>
-34.890347843407

> <r_i_glide_energy>
-34.0350542068481

> <r_i_glide_einternal>
3.08824324607849

> <i_i_glide_confnum>
12

> <i_i_glide_posenum>
93

> <r_i_glide_eff_state_penalty>
0

> <s_user_duplicate_titles>
CHEMBL221_lig350,161754

> <i_f3d_flags>
0

> <s_m_subgroup_title>
dock_pv

> <s_m_subgroupid>
dock_pv

> <b_m_subgroup_collapsed>
1

$$$$
CHEMBL221_lig818
                    3D
 Schrodinger Suite 2021-1.
 39 41  0  0  1  0            999 V2000
   19.9141   48.6762   13.9010 C   0  0  0  0  0  0
   19.7005   48.5012   12.5323 C   0  0  0  0  0  0
   20.3091   49.3360   11.5807 C   0  0  0  0  0  0
   20.7181   49.7174   14.3589 C   0  0  0  0  0  0
   21.3213   50.5812   13.4457 C   0  0  0  0  0  0
   21.1597   50.3610   12.0710 C   0  0  0  0  0  0
   21.7621   51.2252   11.1662 O   0  0  0  0  0  0
   22.9384   51.9730   11.5427 C   0  0  1  0  0  0
   22.9188   52.3859   13.0198 C   0  0  0  0  0  0
   22.1420   51.7120   13.8865 C   0  0  0  0  0  0
   23.6349   53.5792   13.3995 C   0  0  0  0  0  0
   22.7994   54.5796   13.7992 O   0  0  0  0  0  0
   24.8538   53.7063   13.3340 O   0  0  0  0  0  0
   24.2254   51.2921   11.0684 C   0  0  0  0  0  0
   24.1227   50.8037    9.8382 F   0  0  0  0  0  0
   25.2518   52.1439   11.0339 F   0  0  0  0  0  0
   24.5233   50.2689   11.8497 F   0  0  0  0  0  0
   19.1703   47.6067   15.0340 Cl  0  0  0  0  0  0
   20.0521   49.1231   10.1085 C   0  0  0  0  0  0
   19.7232   47.8710    9.5540 C   0  0  0  0  0  0
   19.6736   47.6697    8.1655 C   0  0  0  0  0  0
   19.9047   48.7479    7.3015 C   0  0  0  0  0  0
   20.1221   50.0014    7.8502 C   0  0  0  0  0  0
   20.1229   50.1943    9.2213 C   0  0  0  0  0  0
   19.9093   48.6776    5.5018 S   0  0  0  0  0  0
   18.2459   48.6733    5.0001 N   0  0  0  0  0  0
   20.5366   49.8759    5.0002 O   0  0  0  0  0  0
   20.5229   47.4725    5.0003 O   0  0  0  0  0  0
   19.0423   47.7044   12.2182 H   0  0  0  0  0  0
   20.8574   49.8579   15.4217 H   0  0  0  0  0  0
   22.9233   52.8836   10.9560 H   0  0  0  0  0  0
   22.0819   52.0381   14.9169 H   0  0  0  0  0  0
   23.3100   55.3510   14.0655 H   0  0  0  0  0  0
   19.6071   47.0199   10.2005 H   0  0  0  0  0  0
   19.4781   46.6748    7.8009 H   0  0  0  0  0  0
   20.2170   50.8702    7.2134 H   0  0  0  0  0  0
   20.2280   51.2024    9.5697 H   0  0  0  0  0  0
   17.8676   49.6279    4.9688 H   0  0  0  0  0  0
   18.1652   48.2912    4.0499 H   0  0  0  0  0  0
  1  2  2  0  0  0
  1  4  1  0  0  0
  1 18  1  0  0  0
  2  3  1  0  0  0
  2 29  1  0  0  0
  3  6  2  0  0  0
  3 19  1  0  0  0
  4  5  2  0  0  0
  4 30  1  0  0  0
  5 10  1  0  0  0
  5  6  1  0  0  0
  6  7  1  0  0  0
  7  8  1  0  0  0
  8 14  1  0  0  0
  8  9  1  0  0  0
  8 31  1  0  0  0
  9 10  2  0  0  0
  9 11  1  0  0  0
 10 32  1  0  0  0
 11 12  1  0  0  0
 11 13  2  0  0  0
 12 33  1  0  0  0
 14 15  1  0  0  0
 14 16  1  0  0  0
 14 17  1  0  0  0
 19 20  2  0  0  0
 19 24  1  0  0  0
 20 21  1  0  0  0
 20 34  1  0  0  0
 21 22  2  0  0  0
 21 35  1  0  0  0
 22 23  1  0  0  0
 22 25  1  0  0  0
 23 24  2  0  0  0
 23 36  1  0  0  0
 24 37  1  0  0  0
 25 26  1  0  0  0
 25 27  2  0  0  0
 25 28  2  0  0  0
 26 38  1  0  0  0
 26 39  1  0  0  0
M  END
> <s_m_entry_id>
5170

> <s_m_entry_name>
dock_pv.161

> <s_m_Source_Path>
/home/csk/Desktop/cluster/DUD-E-result/pgh1

> <s_m_Source_File>
dock_pv.maegz

> <i_m_Source_File_Index>
161

> <chembl_id>
CHEMBL1290433

> <chembl_pref_name>
None

> <i_lp_mmshare_version>
53161

> <r_lp_tautomer_probability>
1

> <s_lp_Force_Field>
OPLS_2005

> <r_lp_Energy>
25.289507

> <b_lp_Chiralities_Consistent>
1

> <s_lp_Variant>
CHEMBL221_lig818-2

> <s_i_glide_gridfile>
glide-grid_2oyu

> <i_i_glide_lignum>
991

> <i_i_glide_rotatable_bonds>
5

> <r_i_docking_score>
-9.07677599466678

> <r_i_glide_ligand_efficiency>
-0.324170571238099

> <r_i_glide_ligand_efficiency_sa>
-0.984372780534869

> <r_i_glide_ligand_efficiency_ln>
-2.09518640529269

> <r_i_glide_gscore>
-9.07677599466678

> <r_i_glide_lipo>
-4.32471783059766

> <r_i_glide_hbond>
-0.579064942142463

> <r_i_glide_metal>
0

> <r_i_glide_rewards>
-1.92188344987724

> <r_i_glide_evdw>
-18.248556137085

> <r_i_glide_ecoul>
-9.55590438842773

> <r_i_glide_erotb>
0.211617621485077

> <r_i_glide_esite>
-0.116913928416092

> <r_i_glide_emodel>
-25.5584594947916

> <r_i_glide_energy>
-27.8044605255127

> <r_i_glide_einternal>
6.30208158493042

> <i_i_glide_confnum>
2

> <i_i_glide_posenum>
386

> <r_i_glide_eff_state_penalty>
0

> <s_user_duplicate_titles>
CHEMBL221_lig818

> <i_f3d_flags>
0

> <s_m_subgroup_title>
dock_pv

> <s_m_subgroupid>
dock_pv

> <b_m_subgroup_collapsed>
1

$$$$
CHEMBL221_lig98
                    3D
 Schrodinger Suite 2021-1.
 42 44  0  0  1  0            999 V2000
   19.7792   48.9821   12.4590 N   0  0  0  0  0  0
   20.5663   49.6000   13.4145 C   0  0  0  0  0  0
   19.1247   48.2174   14.4715 N   0  0  0  0  0  0
   18.9308   48.1752   13.1832 C   0  0  0  0  0  0
   20.0102   48.9554    6.4823 S   0  0  0  0  0  0
   20.1142   49.0731   14.6295 C   0  0  0  0  0  0
   21.6372   50.6131   13.1533 C   0  0  0  0  0  0
   22.5359   50.5097   12.0844 C   0  0  0  0  0  0
   19.8319   49.0638   11.0516 C   0  0  0  0  0  0
   20.1230   49.0643    8.2753 C   0  0  0  0  0  0
   23.4745   51.5169   11.8490 C   0  0  0  0  0  0
   21.3230   49.0730    5.8653 O   0  0  0  0  0  0
   19.0966   47.8730    6.2000 O   0  0  0  0  0  0
   21.7227   51.7193   14.0008 C   0  0  0  0  0  0
   23.5990   52.5866   12.7375 C   0  0  0  0  0  0
   20.1230   50.2730    8.9816 C   0  0  0  0  0  0
   19.8678   47.8736    8.9582 C   0  0  0  0  0  0
   20.0052   50.2750   10.3721 C   0  0  0  0  0  0
   19.7230   47.8768   10.3347 C   0  0  0  0  0  0
   22.6933   52.6928   13.7999 C   0  0  0  0  0  0
   20.6900   49.4470   16.2000 Cl  0  0  0  0  0  0
   19.1179   50.3134    5.8000 C   0  0  0  0  0  0
   24.6257   53.4730   12.4914 O   0  0  0  0  0  0
   24.3490   51.4913   10.6116 C   0  0  0  0  0  0
   24.8879   54.5233   13.4000 C   0  0  0  0  0  0
   18.1897   47.5745   12.6759 H   0  0  0  0  0  0
   22.4836   49.6661   11.4119 H   0  0  0  0  0  0
   21.0290   51.8383   14.8200 H   0  0  0  0  0  0
   20.2176   51.2039    8.4472 H   0  0  0  0  0  0
   19.7889   46.9393    8.4220 H   0  0  0  0  0  0
   20.0395   51.2125   10.9090 H   0  0  0  0  0  0
   19.6043   46.9433   10.8535 H   0  0  0  0  0  0
   22.7210   53.5247   14.4852 H   0  0  0  0  0  0
   19.3230   50.2730    4.7307 H   0  0  0  0  0  0
   18.0613   50.2650    6.0568 H   0  0  0  0  0  0
   19.6543   51.0991    6.2722 H   0  0  0  0  0  0
   24.1232   50.6730    9.9319 H   0  0  0  0  0  0
   25.3925   51.4730   10.9121 H   0  0  0  0  0  0
   24.2201   52.4235   10.0638 H   0  0  0  0  0  0
   25.6188   55.1925   12.9496 H   0  0  0  0  0  0
   23.9924   55.0967   13.6297 H   0  0  0  0  0  0
   25.3230   54.1364   14.3171 H   0  0  0  0  0  0
  1  2  1  0  0  0
  1  4  1  0  0  0
  1  9  1  0  0  0
  2  6  2  0  0  0
  2  7  1  0  0  0
  3  4  2  0  0  0
  3  6  1  0  0  0
  4 26  1  0  0  0
  5 10  1  0  0  0
  5 12  2  0  0  0
  5 13  2  0  0  0
  5 22  1  0  0  0
  6 21  1  0  0  0
  7  8  2  0  0  0
  7 14  1  0  0  0
  8 11  1  0  0  0
  8 27  1  0  0  0
  9 18  1  0  0  0
  9 19  2  0  0  0
 10 17  2  0  0  0
 10 16  1  0  0  0
 11 24  1  0  0  0
 11 15  2  0  0  0
 14 20  2  0  0  0
 14 28  1  0  0  0
 15 20  1  0  0  0
 15 23  1  0  0  0
 16 18  2  0  0  0
 16 29  1  0  0  0
 17 19  1  0  0  0
 17 30  1  0  0  0
 18 31  1  0  0  0
 19 32  1  0  0  0
 20 33  1  0  0  0
 22 34  1  0  0  0
 22 35  1  0  0  0
 22 36  1  0  0  0
 23 25  1  0  0  0
 24 37  1  0  0  0
 24 38  1  0  0  0
 24 39  1  0  0  0
 25 40  1  0  0  0
 25 41  1  0  0  0
 25 42  1  0  0  0
M  END
> <s_m_entry_id>
5171

> <s_m_entry_name>
dock_pv.162

> <s_m_Source_Path>
/home/csk/Desktop/cluster/DUD-E-result/pgh1

> <s_m_Source_File>
dock_pv.maegz

> <i_m_Source_File_Index>
162

> <chembl_id>
CHEMBL118081

> <chembl_pref_name>
None

> <i_lp_mmshare_version>
53161

> <r_lp_tautomer_probability>
1

> <s_lp_Force_Field>
OPLS_2005

> <r_lp_Energy>
14.609228

> <b_lp_Chiralities_Consistent>
1

> <s_lp_Variant>
CHEMBL221_lig98-1

> <s_i_glide_gridfile>
glide-grid_2oyu

> <i_i_glide_lignum>
117

> <i_i_glide_rotatable_bonds>
4

> <r_i_docking_score>
-9.06155651630665

> <r_i_glide_ligand_efficiency>
-0.362462260652266

> <r_i_glide_ligand_efficiency_sa>
-1.05984607844279

> <r_i_glide_ligand_efficiency_ln>
-2.14786044730049

> <r_i_glide_gscore>
-9.06155651630665

> <r_i_glide_lipo>
-4.31962356318646

> <r_i_glide_hbond>
0

> <r_i_glide_metal>
0

> <r_i_glide_rewards>
-2.468067179082

> <r_i_glide_evdw>
-28.550760269165

> <r_i_glide_ecoul>
-6.98324728012085

> <r_i_glide_erotb>
0.272665076177145

> <r_i_glide_esite>
-0.0715057447389641

> <r_i_glide_emodel>
-43.8000214542921

> <r_i_glide_energy>
-35.5340075492859

> <r_i_glide_einternal>
2.92175245285034

> <i_i_glide_confnum>
15

> <i_i_glide_posenum>
399

> <r_i_glide_eff_state_penalty>
0

> <s_user_duplicate_titles>
CHEMBL221_lig98

> <i_f3d_flags>
0

> <s_m_subgroup_title>
dock_pv

> <s_m_subgroupid>
dock_pv

> <b_m_subgroup_collapsed>
1

$$$$
CHEMBL221_lig466
                    3D
 Schrodinger Suite 2021-1.
 43 46  0  0  1  0            999 V2000
   20.5108   49.4742   13.9046 C   0  0  0  0  0  0
   19.4923   48.5308   13.7357 N   0  0  0  0  0  0
   20.9368   49.8411   12.6118 C   0  0  0  0  0  0
   19.3084   48.2382   12.4443 N   0  0  0  0  0  0
   20.1141   49.0455   11.7797 C   0  0  0  0  0  0
   20.0417   49.1276    5.7752 S   0  0  0  0  0  0
   20.8691   49.9015   15.1148 N   0  0  0  0  0  0
   18.7785   48.0437   14.8011 C   0  0  0  0  0  0
   22.0056   50.8599   12.3423 C   0  0  0  0  0  0
   20.0125   49.0457   10.3048 C   0  0  0  0  0  0
   19.9893   49.0711    7.5400 C   0  0  0  0  0  0
   19.0837   48.5476   16.0553 C   0  0  0  0  0  0
   20.3765   47.8256    5.2374 O   0  0  0  0  0  0
   20.8594   50.2710    5.3756 O   0  0  0  0  0  0
   20.1243   49.4730   16.1520 C   0  0  0  0  0  0
   19.7230   47.8780    8.2050 C   0  0  0  0  0  0
   20.1230   50.2610    8.2512 C   0  0  0  0  0  0
   19.7230   47.8731    9.5933 C   0  0  0  0  0  0
   20.1516   50.2533    9.6337 C   0  0  0  0  0  0
   22.1573   51.9403   13.2220 C   0  0  0  0  0  0
   22.9470   50.6730   11.3295 C   0  0  0  0  0  0
   18.2449   49.3270    5.4000 C   0  0  0  0  0  0
   24.2493   52.5034   12.1928 C   0  0  0  0  0  0
   23.2759   52.7605   13.1480 C   0  0  0  0  0  0
   24.0735   51.4894   11.2569 C   0  0  0  0  0  0
   25.3894   53.2238   12.2000 F   0  0  0  0  0  0
   17.6763   47.0300   14.5986 C   0  0  0  0  0  0
   18.5174   48.2408   16.9223 H   0  0  0  0  0  0
   20.3862   49.9814   17.0515 H   0  0  0  0  0  0
   19.5507   46.9711    7.6529 H   0  0  0  0  0  0
   20.2297   51.1987    7.7234 H   0  0  0  0  0  0
   19.5704   46.9489   10.1226 H   0  0  0  0  0  0
   20.2975   51.1775   10.1736 H   0  0  0  0  0  0
   21.4333   52.1310   13.9994 H   0  0  0  0  0  0
   22.8359   49.8677   10.6255 H   0  0  0  0  0  0
   18.1267   49.2282    4.3239 H   0  0  0  0  0  0
   17.8903   50.2730    5.8000 H   0  0  0  0  0  0
   17.7230   48.4952    5.8569 H   0  0  0  0  0  0
   23.4101   53.5658   13.8552 H   0  0  0  0  0  0
   24.8276   51.3160   10.5038 H   0  0  0  0  0  0
   17.1570   46.7954   15.5271 H   0  0  0  0  0  0
   16.9438   47.4148   13.8872 H   0  0  0  0  0  0
   18.1231   46.1173   14.2047 H   0  0  0  0  0  0
  1  2  1  0  0  0
  1  3  2  0  0  0
  1  7  1  0  0  0
  2  4  1  0  0  0
  2  8  1  0  0  0
  3  5  1  0  0  0
  3  9  1  0  0  0
  4  5  2  0  0  0
  5 10  1  0  0  0
  6 11  1  0  0  0
  6 13  2  0  0  0
  6 14  2  0  0  0
  6 22  1  0  0  0
  7 15  2  0  0  0
  8 27  1  0  0  0
  8 12  2  0  0  0
  9 20  1  0  0  0
  9 21  2  0  0  0
 10 18  1  0  0  0
 10 19  2  0  0  0
 11 17  2  0  0  0
 11 16  1  0  0  0
 12 15  1  0  0  0
 12 28  1  0  0  0
 15 29  1  0  0  0
 16 18  2  0  0  0
 16 30  1  0  0  0
 17 19  1  0  0  0
 17 31  1  0  0  0
 18 32  1  0  0  0
 19 33  1  0  0  0
 20 24  2  0  0  0
 20 34  1  0  0  0
 21 25  1  0  0  0
 21 35  1  0  0  0
 22 36  1  0  0  0
 22 37  1  0  0  0
 22 38  1  0  0  0
 23 25  2  0  0  0
 23 26  1  0  0  0
 23 24  1  0  0  0
 24 39  1  0  0  0
 25 40  1  0  0  0
 27 41  1  0  0  0
 27 42  1  0  0  0
 27 43  1  0  0  0
M  END
> <s_m_entry_id>
5172

> <s_m_entry_name>
dock_pv.163

> <s_m_Source_Path>
/home/csk/Desktop/cluster/DUD-E-result/pgh1

> <s_m_Source_File>
dock_pv.maegz

> <i_m_Source_File_Index>
163

> <chembl_id>
CHEMBL120608

> <chembl_pref_name>
None

> <i_lp_mmshare_version>
53161

> <r_lp_tautomer_probability>
1

> <s_lp_Force_Field>
OPLS_2005

> <r_lp_Energy>
16.367271

> <b_lp_Chiralities_Consistent>
1

> <s_lp_Variant>
CHEMBL221_lig466-1

> <s_i_glide_gridfile>
glide-grid_2oyu

> <i_i_glide_lignum>
577

> <i_i_glide_rotatable_bonds>
3

> <r_i_docking_score>
-9.06114043582982

> <r_i_glide_ligand_efficiency>
-0.335597793919623

> <r_i_glide_ligand_efficiency_sa>
-1.00679338065279

> <r_i_glide_ligand_efficiency_ln>
-2.10928410888606

> <r_i_glide_gscore>
-9.06114043582982

> <r_i_glide_lipo>
-4.72224517831644

> <r_i_glide_hbond>
0

> <r_i_glide_metal>
0

> <r_i_glide_rewards>
-2.90222318498085

> <r_i_glide_evdw>
-18.892333984375

> <r_i_glide_ecoul>
-4.8774242401123

> <r_i_glide_erotb>
0.266845342339007

> <r_i_glide_esite>
-0.0272870796359394

> <r_i_glide_emodel>
-26.8966911352962

> <r_i_glide_energy>
-23.7697582244873

> <r_i_glide_einternal>
0.0676536113023758

> <i_i_glide_confnum>
14

> <i_i_glide_posenum>
47

> <r_i_glide_eff_state_penalty>
0

> <s_user_duplicate_titles>
CHEMBL221_lig466

> <i_f3d_flags>
0

> <s_m_subgroup_title>
dock_pv

> <s_m_subgroupid>
dock_pv

> <b_m_subgroup_collapsed>
1

$$$$
CHEMBL221_lig141
                    3D
 Schrodinger Suite 2021-1.
 39 41  0  0  1  0            999 V2000
   19.8729   49.0311   12.0732 N   0  0  0  0  0  0
   20.6565   49.6766   13.0112 C   0  0  0  0  0  0
   19.1930   48.3743   14.1225 N   0  0  0  0  0  0
   19.0092   48.2728   12.8340 C   0  0  0  0  0  0
   19.9637   48.8954    6.0709 S   0  0  0  0  0  0
   20.1938   49.2221   14.2486 C   0  0  0  0  0  0
   21.7743   50.6116   12.7206 C   0  0  0  0  0  0
   21.7974   51.8730   13.3188 C   0  0  0  0  0  0
   19.9186   49.0679   10.6584 C   0  0  0  0  0  0
   19.9376   49.0087    7.8567 C   0  0  0  0  0  0
   22.8797   52.7451   13.1139 C   0  0  0  0  0  0
   20.9040   49.8730    5.5240 O   0  0  0  0  0  0
   20.1230   47.4809    5.7812 O   0  0  0  0  0  0
   23.9546   52.3069   12.3337 C   0  0  0  0  0  0
   22.8271   50.2221   11.8938 C   0  0  0  0  0  0
   19.7230   47.8390    8.5842 C   0  0  0  0  0  0
   20.1230   50.2162    8.5409 C   0  0  0  0  0  0
   19.7230   47.8730    9.9693 C   0  0  0  0  0  0
   20.1230   50.2512    9.9396 C   0  0  0  0  0  0
   23.9156   51.0667   11.7040 C   0  0  0  0  0  0
   20.8050   49.6457   15.8000 Cl  0  0  0  0  0  0
   18.2603   49.2846    5.4610 C   0  0  0  0  0  0
   25.0586   53.0730   12.2000 F   0  0  0  0  0  0
   22.9527   54.0221   13.6351 O   0  0  0  0  0  0
   21.8690   54.5193   14.4106 C   0  0  0  0  0  0
   18.2599   47.6605   12.3535 H   0  0  0  0  0  0
   20.9640   52.1609   13.9412 H   0  0  0  0  0  0
   22.8170   49.2481   11.4285 H   0  0  0  0  0  0
   19.5731   46.8940    8.0861 H   0  0  0  0  0  0
   20.2497   51.1311    7.9795 H   0  0  0  0  0  0
   19.5979   46.9552   10.5136 H   0  0  0  0  0  0
   20.2575   51.1938   10.4504 H   0  0  0  0  0  0
   24.7449   50.7502   11.0901 H   0  0  0  0  0  0
   18.3034   49.2286    4.3757 H   0  0  0  0  0  0
   17.5818   48.5133    5.8000 H   0  0  0  0  0  0
   17.9649   50.2730    5.8000 H   0  0  0  0  0  0
   22.1232   55.5015   14.8022 H   0  0  0  0  0  0
   20.9705   54.6247   13.8000 H   0  0  0  0  0  0
   21.6583   53.8810   15.2699 H   0  0  0  0  0  0
  1  2  1  0  0  0
  1  4  1  0  0  0
  1  9  1  0  0  0
  2  6  2  0  0  0
  2  7  1  0  0  0
  3  4  2  0  0  0
  3  6  1  0  0  0
  4 26  1  0  0  0
  5 10  1  0  0  0
  5 12  2  0  0  0
  5 13  2  0  0  0
  5 22  1  0  0  0
  6 21  1  0  0  0
  7  8  2  0  0  0
  7 15  1  0  0  0
  8 11  1  0  0  0
  8 27  1  0  0  0
  9 18  1  0  0  0
  9 19  2  0  0  0
 10 17  2  0  0  0
 10 16  1  0  0  0
 11 24  1  0  0  0
 11 14  2  0  0  0
 14 20  1  0  0  0
 14 23  1  0  0  0
 15 20  2  0  0  0
 15 28  1  0  0  0
 16 18  2  0  0  0
 16 29  1  0  0  0
 17 19  1  0  0  0
 17 30  1  0  0  0
 18 31  1  0  0  0
 19 32  1  0  0  0
 20 33  1  0  0  0
 22 34  1  0  0  0
 22 35  1  0  0  0
 22 36  1  0  0  0
 24 25  1  0  0  0
 25 37  1  0  0  0
 25 38  1  0  0  0
 25 39  1  0  0  0
M  END
> <s_m_entry_id>
5173

> <s_m_entry_name>
dock_pv.164

> <s_m_Source_Path>
/home/csk/Desktop/cluster/DUD-E-result/pgh1

> <s_m_Source_File>
dock_pv.maegz

> <i_m_Source_File_Index>
164

> <chembl_id>
CHEMBL324923

> <chembl_pref_name>
None

> <i_lp_mmshare_version>
53161

> <r_lp_tautomer_probability>
1

> <s_lp_Force_Field>
OPLS_2005

> <r_lp_Energy>
16.241958

> <b_lp_Chiralities_Consistent>
1

> <s_lp_Variant>
CHEMBL221_lig141-1

> <s_i_glide_gridfile>
glide-grid_2oyu

> <i_i_glide_lignum>
163

> <i_i_glide_rotatable_bonds>
4

> <r_i_docking_score>
-9.05775626572788

> <r_i_glide_ligand_efficiency>
-0.362310250629115

> <r_i_glide_ligand_efficiency_sa>
-1.05940159843919

> <r_i_glide_ligand_efficiency_ln>
-2.146959674029

> <r_i_glide_gscore>
-9.05775626572788

> <r_i_glide_lipo>
-4.09015642303927

> <r_i_glide_hbond>
0

> <r_i_glide_metal>
0

> <r_i_glide_rewards>
-3.01238095058045

> <r_i_glide_evdw>
-26.2535591125488

> <r_i_glide_ecoul>
-5.94450664520264

> <r_i_glide_erotb>
0.267602523335837

> <r_i_glide_esite>
-0.018467463036158

> <r_i_glide_emodel>
-42.155952612984

> <r_i_glide_energy>
-32.1980657577515

> <r_i_glide_einternal>
1.00148391723633

> <i_i_glide_confnum>
1

> <i_i_glide_posenum>
331

> <r_i_glide_eff_state_penalty>
0

> <s_user_duplicate_titles>
CHEMBL221_lig141

> <i_f3d_flags>
0

> <s_m_subgroup_title>
dock_pv

> <s_m_subgroupid>
dock_pv

> <b_m_subgroup_collapsed>
1

$$$$
CHEMBL221_lig92
                    3D
 Schrodinger Suite 2021-1.
 44 46  0  0  1  0            999 V2000
   19.7563   48.7699   12.0180 N   0  0  0  0  0  0
   18.9661   48.0942   14.0244 N   0  0  0  0  0  0
   20.4994   49.3757   13.0105 C   0  0  0  0  0  0
   18.8555   48.0080   12.7247 C   0  0  0  0  0  0
   19.8709   48.8519    6.0098 S   0  0  0  0  0  0
   19.9732   48.9213   14.2172 C   0  0  0  0  0  0
   19.8710   48.8509   10.6033 C   0  0  0  0  0  0
   19.8943   48.8972    7.7999 C   0  0  0  0  0  0
   21.6363   50.2731   12.7519 C   0  0  0  0  0  0
   20.7552   49.8766    5.4708 O   0  0  0  0  0  0
   20.1230   47.4733    5.6620 O   0  0  0  0  0  0
   19.7230   47.6963    8.4838 C   0  0  0  0  0  0
   20.1230   50.0731    8.5257 C   0  0  0  0  0  0
   19.7230   47.6784    9.8680 C   0  0  0  0  0  0
   20.1230   50.0538    9.9258 C   0  0  0  0  0  0
   20.5200   49.3128   15.8000 Cl  0  0  0  0  0  0
   22.6114   49.8438   11.8593 C   0  0  0  0  0  0
   21.7245   51.5212   13.3631 C   0  0  0  0  0  0
   18.1230   49.1256    5.4399 C   0  0  0  0  0  0
   23.6659   50.6730   11.5429 C   0  0  0  0  0  0
   22.7812   52.3598   13.0350 C   0  0  0  0  0  0
   23.7508   51.9242   12.1225 C   0  0  0  0  0  0
   24.8918   52.7867   11.6514 C   0  0  0  0  0  0
   25.2869   53.9440   12.6000 C   0  0  0  0  0  0
   25.7230   53.4730   13.9595 C   0  0  0  0  0  0
   18.1228   47.4256   12.1921 H   0  0  0  0  0  0
   19.5907   46.7687    7.9508 H   0  0  0  0  0  0
   20.2481   51.0112    8.0018 H   0  0  0  0  0  0
   19.6499   46.7313   10.3725 H   0  0  0  0  0  0
   20.2541   50.9794   10.4684 H   0  0  0  0  0  0
   22.5441   48.8698   11.4003 H   0  0  0  0  0  0
   20.9664   51.8509   14.0589 H   0  0  0  0  0  0
   18.1207   49.0730    4.3517 H   0  0  0  0  0  0
   17.5161   48.3051    5.8000 H   0  0  0  0  0  0
   17.7625   50.0849    5.8020 H   0  0  0  0  0  0
   24.4179   50.3454   10.8418 H   0  0  0  0  0  0
   22.8278   53.3393   13.4868 H   0  0  0  0  0  0
   24.5230   53.0859   10.6742 H   0  0  0  0  0  0
   25.7723   52.1958   11.4015 H   0  0  0  0  0  0
   24.4728   54.6567   12.7071 H   0  0  0  0  0  0
   26.1229   54.5167   12.2000 H   0  0  0  0  0  0
   25.7229   54.3506   14.6000 H   0  0  0  0  0  0
   26.7237   53.0551   13.9122 H   0  0  0  0  0  0
   25.0560   52.7179   14.3704 H   0  0  0  0  0  0
  1  3  1  0  0  0
  1  4  1  0  0  0
  1  7  1  0  0  0
  2  4  2  0  0  0
  2  6  1  0  0  0
  3  6  2  0  0  0
  3  9  1  0  0  0
  4 26  1  0  0  0
  5  8  1  0  0  0
  5 10  2  0  0  0
  5 11  2  0  0  0
  5 19  1  0  0  0
  6 16  1  0  0  0
  7 14  1  0  0  0
  7 15  2  0  0  0
  8 13  2  0  0  0
  8 12  1  0  0  0
  9 17  2  0  0  0
  9 18  1  0  0  0
 12 14  2  0  0  0
 12 27  1  0  0  0
 13 15  1  0  0  0
 13 28  1  0  0  0
 14 29  1  0  0  0
 15 30  1  0  0  0
 17 20  1  0  0  0
 17 31  1  0  0  0
 18 21  2  0  0  0
 18 32  1  0  0  0
 19 33  1  0  0  0
 19 34  1  0  0  0
 19 35  1  0  0  0
 20 22  2  0  0  0
 20 36  1  0  0  0
 21 22  1  0  0  0
 21 37  1  0  0  0
 22 23  1  0  0  0
 23 24  1  0  0  0
 23 38  1  0  0  0
 23 39  1  0  0  0
 24 25  1  0  0  0
 24 40  1  0  0  0
 24 41  1  0  0  0
 25 42  1  0  0  0
 25 43  1  0  0  0
 25 44  1  0  0  0
M  END
> <s_m_entry_id>
5174

> <s_m_entry_name>
dock_pv.165

> <s_m_Source_Path>
/home/csk/Desktop/cluster/DUD-E-result/pgh1

> <s_m_Source_File>
dock_pv.maegz

> <i_m_Source_File_Index>
165

> <chembl_id>
CHEMBL117852

> <chembl_pref_name>
None

> <i_lp_mmshare_version>
53161

> <r_lp_tautomer_probability>
1

> <s_lp_Force_Field>
OPLS_2005

> <r_lp_Energy>
12.212939

> <b_lp_Chiralities_Consistent>
1

> <s_lp_Variant>
CHEMBL221_lig92-1

> <s_i_glide_gridfile>
glide-grid_2oyu

> <i_i_glide_lignum>
110

> <i_i_glide_rotatable_bonds>
5

> <r_i_docking_score>
-9.04204156051767

> <r_i_glide_ligand_efficiency>
-0.361681662420707

> <r_i_glide_ligand_efficiency_sa>
-1.05756359536974

> <r_i_glide_ligand_efficiency_ln>
-2.14323481796247

> <r_i_glide_gscore>
-9.04204156051767

> <r_i_glide_lipo>
-4.68762463408416

> <r_i_glide_hbond>
0

> <r_i_glide_metal>
0

> <r_i_glide_rewards>
-2.88690269371702

> <r_i_glide_evdw>
-19.1991634368896

> <r_i_glide_ecoul>
-6.00057172775269

> <r_i_glide_erotb>
0.412857994997345

> <r_i_glide_esite>
-0.020328296706448

> <r_i_glide_emodel>
-27.6258221653114

> <r_i_glide_energy>
-25.1997351646423

> <r_i_glide_einternal>
1.96988844871521

> <i_i_glide_confnum>
44

> <i_i_glide_posenum>
177

> <r_i_glide_eff_state_penalty>
0

> <s_user_duplicate_titles>
CHEMBL221_lig92

> <i_f3d_flags>
0

> <s_m_subgroup_title>
dock_pv

> <s_m_subgroupid>
dock_pv

> <b_m_subgroup_collapsed>
1

$$$$
CHEMBL221_lig62
                    3D
 Schrodinger Suite 2021-1.
 38 40  0  0  1  0            999 V2000
   19.8989   49.0428   12.1839 N   0  0  0  0  0  0
   19.2415   48.3718   14.2352 N   0  0  0  0  0  0
   20.6794   49.7043   13.1162 C   0  0  0  0  0  0
   19.0501   48.2718   12.9493 C   0  0  0  0  0  0
   19.9790   48.8991    6.1890 S   0  0  0  0  0  0
   20.2288   49.2353   14.3539 C   0  0  0  0  0  0
   19.9286   49.0722   10.7700 C   0  0  0  0  0  0
   19.9592   49.0001    7.9737 C   0  0  0  0  0  0
   21.7805   50.6734   12.8434 C   0  0  0  0  0  0
   20.9230   49.8730    5.6482 O   0  0  0  0  0  0
   20.1230   47.4878    5.8707 O   0  0  0  0  0  0
   20.1230   50.2139    8.6525 C   0  0  0  0  0  0
   19.7230   47.8338    8.7000 C   0  0  0  0  0  0
   20.1230   50.2545   10.0492 C   0  0  0  0  0  0
   19.7229   47.8736   10.0860 C   0  0  0  0  0  0
   20.8382   49.6625   15.9023 Cl  0  0  0  0  0  0
   22.8124   50.3710   11.9522 C   0  0  0  0  0  0
   21.8129   51.8687   13.5643 C   0  0  0  0  0  0
   18.2839   49.3526    5.6089 C   0  0  0  0  0  0
   23.8978   51.2349   11.8225 C   0  0  0  0  0  0
   22.8984   52.7275   13.4415 C   0  0  0  0  0  0
   23.9604   52.3901   12.6055 C   0  0  0  0  0  0
   25.2002   53.2634   12.6000 C   0  0  0  0  0  0
   18.3058   47.6490   12.4740 H   0  0  0  0  0  0
   20.2471   51.1264    8.0873 H   0  0  0  0  0  0
   19.5710   46.8895    8.2001 H   0  0  0  0  0  0
   20.2551   51.1995   10.5570 H   0  0  0  0  0  0
   19.5985   46.9610   10.6391 H   0  0  0  0  0  0
   22.7962   49.4444   11.4000 H   0  0  0  0  0  0
   21.0175   52.1160   14.2527 H   0  0  0  0  0  0
   18.3727   49.4730    4.5341 H   0  0  0  0  0  0
   17.6146   48.5229    5.8000 H   0  0  0  0  0  0
   17.9548   50.2729    6.0823 H   0  0  0  0  0  0
   24.7122   50.9754   11.1617 H   0  0  0  0  0  0
   22.9359   53.6263   14.0412 H   0  0  0  0  0  0
   24.9285   54.3196   12.6000 H   0  0  0  0  0  0
   25.8233   53.0730   11.7265 H   0  0  0  0  0  0
   25.7897   53.0778   13.4981 H   0  0  0  0  0  0
  1  3  1  0  0  0
  1  4  1  0  0  0
  1  7  1  0  0  0
  2  4  2  0  0  0
  2  6  1  0  0  0
  3  6  2  0  0  0
  3  9  1  0  0  0
  4 24  1  0  0  0
  5  8  1  0  0  0
  5 10  2  0  0  0
  5 11  2  0  0  0
  5 19  1  0  0  0
  6 16  1  0  0  0
  7 14  1  0  0  0
  7 15  2  0  0  0
  8 13  2  0  0  0
  8 12  1  0  0  0
  9 17  2  0  0  0
  9 18  1  0  0  0
 12 14  2  0  0  0
 12 25  1  0  0  0
 13 15  1  0  0  0
 13 26  1  0  0  0
 14 27  1  0  0  0
 15 28  1  0  0  0
 17 20  1  0  0  0
 17 29  1  0  0  0
 18 21  2  0  0  0
 18 30  1  0  0  0
 19 31  1  0  0  0
 19 32  1  0  0  0
 19 33  1  0  0  0
 20 22  2  0  0  0
 20 34  1  0  0  0
 21 22  1  0  0  0
 21 35  1  0  0  0
 22 23  1  0  0  0
 23 36  1  0  0  0
 23 37  1  0  0  0
 23 38  1  0  0  0
M  END
> <s_m_entry_id>
5175

> <s_m_entry_name>
dock_pv.166

> <s_m_Source_Path>
/home/csk/Desktop/cluster/DUD-E-result/pgh1

> <s_m_Source_File>
dock_pv.maegz

> <i_m_Source_File_Index>
166

> <chembl_id>
CHEMBL331148

> <chembl_pref_name>
None

> <i_lp_mmshare_version>
53161

> <r_lp_tautomer_probability>
1

> <s_lp_Force_Field>
OPLS_2005

> <r_lp_Energy>
11.710717

> <b_lp_Chiralities_Consistent>
1

> <s_lp_Variant>
CHEMBL221_lig62-1

> <s_i_glide_gridfile>
glide-grid_2oyu

> <i_i_glide_lignum>
79

> <i_i_glide_rotatable_bonds>
3

> <r_i_docking_score>
-9.03777785261556

> <r_i_glide_ligand_efficiency>
-0.392946863157198

> <r_i_glide_ligand_efficiency_sa>
-1.11748860780105

> <r_i_glide_ligand_efficiency_ln>
-2.18541663480116

> <r_i_glide_gscore>
-9.03777785261556

> <r_i_glide_lipo>
-4.38214356559883

> <r_i_glide_hbond>
0

> <r_i_glide_metal>
0

> <r_i_glide_rewards>
-2.76018999629346

> <r_i_glide_evdw>
-24.7689723968506

> <r_i_glide_ecoul>
-6.37405681610107

> <r_i_glide_erotb>
0.316178892940005

> <r_i_glide_esite>
-0.017066041405587

> <r_i_glide_emodel>
-39.2204231274591

> <r_i_glide_energy>
-31.1430292129517

> <r_i_glide_einternal>
0.38334858417511

> <i_i_glide_confnum>
2

> <i_i_glide_posenum>
18

> <r_i_glide_eff_state_penalty>
0

> <s_user_duplicate_titles>
CHEMBL221_lig62

> <i_f3d_flags>
0

> <s_m_subgroup_title>
dock_pv

> <s_m_subgroupid>
dock_pv

> <b_m_subgroup_collapsed>
1

$$$$
CHEMBL221_lig933
                    3D
 Schrodinger Suite 2021-1.
 42 44  0  0  1  0            999 V2000
   19.9306   48.8418   10.3592 C   0  0  0  0  0  0
   21.5915   50.4374   12.8505 C   0  0  0  0  0  0
   19.9068   48.7046   11.8392 C   0  0  0  0  0  0
   20.5509   49.3649   12.8955 C   0  0  0  0  0  0
   20.1540   48.8855   14.0695 N   0  0  0  0  0  0
   19.3178   47.9137   13.8111 C   0  0  0  0  0  0
   19.1198   47.7802   12.4721 N   0  0  0  0  0  0
   18.5230   46.9241   15.0157 S   0  0  0  0  0  0
   17.5923   48.2730   15.7889 C   0  0  0  0  0  0
   19.7230   47.7141    9.5607 C   0  0  0  0  0  0
   19.7230   47.8103    8.1780 C   0  0  0  0  0  0
   19.9881   49.0335    7.5780 C   0  0  0  0  0  0
   20.1230   50.1777    8.3680 C   0  0  0  0  0  0
   20.1230   50.0842    9.7577 C   0  0  0  0  0  0
   21.5735   51.4680   13.7950 C   0  0  0  0  0  0
   22.5745   52.4300   13.8000 C   0  0  0  0  0  0
   23.6220   52.3456   12.8887 C   0  0  0  0  0  0
   23.6400   51.3389   11.9237 C   0  0  0  0  0  0
   22.6193   50.3893   11.9027 C   0  0  0  0  0  0
   20.0469   49.1311    5.8000 S   0  0  0  0  0  0
   18.2560   49.3335    5.4000 C   0  0  0  0  0  0
   20.3819   47.8384    5.2398 O   0  0  0  0  0  0
   20.8676   50.2730    5.4081 O   0  0  0  0  0  0
   24.9230   53.4730   13.0000 Cl  0  0  0  0  0  0
   16.8177   47.8913   17.0503 C   0  0  0  0  0  0
   18.5107   47.1078   12.0264 H   0  0  0  0  0  0
   18.2857   49.0730   16.0450 H   0  0  0  0  0  0
   16.9126   48.6730   15.0378 H   0  0  0  0  0  0
   19.5958   46.7445   10.0085 H   0  0  0  0  0  0
   19.5724   46.9350    7.5733 H   0  0  0  0  0  0
   20.2434   51.1428    7.8963 H   0  0  0  0  0  0
   20.2456   50.9760   10.3553 H   0  0  0  0  0  0
   20.7916   51.5210   14.5383 H   0  0  0  0  0  0
   22.5544   53.2162   14.5413 H   0  0  0  0  0  0
   24.4525   51.2761   11.2134 H   0  0  0  0  0  0
   22.6448   49.5938   11.1734 H   0  0  0  0  0  0
   18.1612   49.2538    4.3204 H   0  0  0  0  0  0
   17.8914   50.2730    5.8000 H   0  0  0  0  0  0
   17.7230   48.4953    5.8325 H   0  0  0  0  0  0
   16.2326   48.7409   17.4000 H   0  0  0  0  0  0
   16.1231   47.0730   16.8702 H   0  0  0  0  0  0
   17.4903   47.5879   17.8528 H   0  0  0  0  0  0
  1  3  1  0  0  0
  1 10  2  0  0  0
  1 14  1  0  0  0
  2  4  1  0  0  0
  2 15  2  0  0  0
  2 19  1  0  0  0
  3  4  2  0  0  0
  3  7  1  0  0  0
  4  5  1  0  0  0
  5  6  2  0  0  0
  6  7  1  0  0  0
  6  8  1  0  0  0
  7 26  1  0  0  0
  8  9  1  0  0  0
  9 25  1  0  0  0
  9 27  1  0  0  0
  9 28  1  0  0  0
 10 11  1  0  0  0
 10 29  1  0  0  0
 11 12  2  0  0  0
 11 30  1  0  0  0
 12 13  1  0  0  0
 12 20  1  0  0  0
 13 14  2  0  0  0
 13 31  1  0  0  0
 14 32  1  0  0  0
 15 16  1  0  0  0
 15 33  1  0  0  0
 16 17  2  0  0  0
 16 34  1  0  0  0
 17 18  1  0  0  0
 17 24  1  0  0  0
 18 19  2  0  0  0
 18 35  1  0  0  0
 19 36  1  0  0  0
 20 21  1  0  0  0
 20 22  2  0  0  0
 20 23  2  0  0  0
 21 37  1  0  0  0
 21 38  1  0  0  0
 21 39  1  0  0  0
 25 40  1  0  0  0
 25 41  1  0  0  0
 25 42  1  0  0  0
M  END
> <s_m_entry_id>
5176

> <s_m_entry_name>
dock_pv.167

> <s_m_Source_Path>
/home/csk/Desktop/cluster/DUD-E-result/pgh1

> <s_m_Source_File>
dock_pv.maegz

> <i_m_Source_File_Index>
167

> <chembl_id>
CHEMBL2347673

> <chembl_pref_name>
None

> <i_lp_mmshare_version>
53161

> <r_lp_tautomer_probability>
0.999999999976373

> <s_lp_Force_Field>
OPLS_2005

> <r_lp_Energy>
11.329109

> <b_lp_Chiralities_Consistent>
1

> <s_lp_Variant>
CHEMBL221_lig933-1

> <s_i_glide_gridfile>
glide-grid_2oyu

> <i_i_glide_lignum>
1158

> <i_i_glide_rotatable_bonds>
5

> <r_i_docking_score>
-9.03085843193101

> <r_i_glide_ligand_efficiency>
-0.36123433727724

> <r_i_glide_ligand_efficiency_sa>
-1.0562556087169

> <r_i_glide_ligand_efficiency_ln>
-2.14058408135611

> <r_i_glide_gscore>
-9.03085843193101

> <r_i_glide_lipo>
-4.92080664259532

> <r_i_glide_hbond>
-0.0204037146140568

> <r_i_glide_metal>
0

> <r_i_glide_rewards>
-2.13793795708755

> <r_i_glide_evdw>
-28.9855842590332

> <r_i_glide_ecoul>
-5.69788646697998

> <r_i_glide_erotb>
0.379487840661516

> <r_i_glide_esite>
-0.0272357752969463

> <r_i_glide_emodel>
-45.6929538410124

> <r_i_glide_energy>
-34.6834707260132

> <r_i_glide_einternal>
3.91144895553589

> <i_i_glide_confnum>
4

> <i_i_glide_posenum>
394

> <r_i_glide_eff_state_penalty>
0

> <s_user_duplicate_titles>
CHEMBL221_lig933

> <i_f3d_flags>
0

> <s_m_subgroup_title>
dock_pv

> <s_m_subgroupid>
dock_pv

> <b_m_subgroup_collapsed>
1

$$$$
CHEMBL221_lig265
                    3D
 Schrodinger Suite 2021-1.
 45 47  0  0  1  0            999 V2000
   20.5127   49.5585   13.4240 C   0  0  0  0  0  0
   19.7650   48.9301   12.4890 C   0  0  0  0  0  0
   20.0155   48.8920    6.3870 S   0  0  0  0  0  0
   20.0088   49.0053    8.1854 C   0  0  0  0  0  0
   18.9857   48.1018   14.6484 C   0  0  0  0  0  0
   18.6387   48.1442   13.1503 C   0  0  0  0  0  0
   20.1105   49.1363   14.8377 C   0  0  0  0  0  0
   19.8354   49.0522   11.0045 C   0  0  0  0  0  0
   21.6358   50.4882   13.1793 C   0  0  0  0  0  0
   20.1230   47.4730    6.0771 O   0  0  0  0  0  0
   20.9230   49.8727    5.8001 O   0  0  0  0  0  0
   20.1230   50.2136    8.8874 C   0  0  0  0  0  0
   19.7242   47.8433    8.8993 C   0  0  0  0  0  0
   20.0752   50.2352   10.2894 C   0  0  0  0  0  0
   19.6776   47.8732   10.2841 C   0  0  0  0  0  0
   22.6145   50.2218   12.2117 C   0  0  0  0  0  0
   21.7054   51.6732   13.9163 C   0  0  0  0  0  0
   18.3440   49.3179    5.8000 C   0  0  0  0  0  0
   23.7331   52.2736   12.7739 C   0  0  0  0  0  0
   23.6674   51.1101   12.0118 C   0  0  0  0  0  0
   22.7443   52.5702   13.7047 C   0  0  0  0  0  0
   25.0691   53.3447   12.6001 Cl  0  0  0  0  0  0
   17.7513   48.3345   15.5482 C   0  0  0  0  0  0
   19.5547   46.7320   14.9993 C   0  0  0  0  0  0
   17.6953   48.6713   13.0000 H   0  0  0  0  0  0
   18.5026   47.1486   12.7286 H   0  0  0  0  0  0
   19.7483   49.9405   15.4592 H   0  0  0  0  0  0
   20.9608   48.7438   15.3927 H   0  0  0  0  0  0
   20.2671   51.1296    8.3349 H   0  0  0  0  0  0
   19.5827   46.9009    8.3918 H   0  0  0  0  0  0
   20.1910   51.1736   10.8119 H   0  0  0  0  0  0
   19.5390   46.9522   10.8138 H   0  0  0  0  0  0
   22.5744   49.3120   11.6305 H   0  0  0  0  0  0
   20.9499   51.9103   14.6511 H   0  0  0  0  0  0
   18.3855   49.3487    4.7136 H   0  0  0  0  0  0
   18.0158   50.2707    6.2000 H   0  0  0  0  0  0
   17.7230   48.4905    6.1008 H   0  0  0  0  0  0
   24.4365   50.8869   11.2855 H   0  0  0  0  0  0
   22.7952   53.4863   14.2742 H   0  0  0  0  0  0
   18.0049   48.2565   16.6060 H   0  0  0  0  0  0
   17.3231   49.3222   15.4001 H   0  0  0  0  0  0
   16.9641   47.6064   15.3452 H   0  0  0  0  0  0
   19.7197   46.6087   16.0689 H   0  0  0  0  0  0
   18.9234   45.9089   14.6606 H   0  0  0  0  0  0
   20.5230   46.6730   14.5070 H   0  0  0  0  0  0
  1  2  2  0  0  0
  1  7  1  0  0  0
  1  9  1  0  0  0
  2  6  1  0  0  0
  2  8  1  0  0  0
  3  4  1  0  0  0
  3 10  2  0  0  0
  3 11  2  0  0  0
  3 18  1  0  0  0
  4 13  2  0  0  0
  4 12  1  0  0  0
  5  7  1  0  0  0
  5 23  1  0  0  0
  5 24  1  0  0  0
  5  6  1  0  0  0
  6 25  1  0  0  0
  6 26  1  0  0  0
  7 27  1  0  0  0
  7 28  1  0  0  0
  8 14  1  0  0  0
  8 15  2  0  0  0
  9 16  1  0  0  0
  9 17  2  0  0  0
 12 14  2  0  0  0
 12 29  1  0  0  0
 13 15  1  0  0  0
 13 30  1  0  0  0
 14 31  1  0  0  0
 15 32  1  0  0  0
 16 20  2  0  0  0
 16 33  1  0  0  0
 17 21  1  0  0  0
 17 34  1  0  0  0
 18 35  1  0  0  0
 18 36  1  0  0  0
 18 37  1  0  0  0
 19 21  2  0  0  0
 19 22  1  0  0  0
 19 20  1  0  0  0
 20 38  1  0  0  0
 21 39  1  0  0  0
 23 40  1  0  0  0
 23 41  1  0  0  0
 23 42  1  0  0  0
 24 43  1  0  0  0
 24 44  1  0  0  0
 24 45  1  0  0  0
M  END
> <s_m_entry_id>
5177

> <s_m_entry_name>
dock_pv.168

> <s_m_Source_Path>
/home/csk/Desktop/cluster/DUD-E-result/pgh1

> <s_m_Source_File>
dock_pv.maegz

> <i_m_Source_File_Index>
168

> <chembl_id>
CHEMBL320784

> <chembl_pref_name>
None

> <i_lp_mmshare_version>
53161

> <r_lp_tautomer_probability>
1

> <s_lp_Force_Field>
OPLS_2005

> <r_lp_Energy>
27.537096

> <b_lp_Chiralities_Consistent>
1

> <s_lp_Variant>
CHEMBL221_lig265-1

> <s_i_glide_gridfile>
glide-grid_2oyu

> <i_i_glide_lignum>
298

> <i_i_glide_rotatable_bonds>
3

> <r_i_docking_score>
-9.02655390437631

> <r_i_glide_ligand_efficiency>
-0.376106412682346

> <r_i_glide_ligand_efficiency_sa>
-1.08487862301268

> <r_i_glide_ligand_efficiency_ln>
-2.16046855088619

> <r_i_glide_gscore>
-9.02655390437631

> <r_i_glide_lipo>
-5.15764205861244

> <r_i_glide_hbond>
0

> <r_i_glide_metal>
0

> <r_i_glide_rewards>
-2.27952018574159

> <r_i_glide_evdw>
-20.681339263916

> <r_i_glide_ecoul>
-5.57915496826172

> <r_i_glide_erotb>
0.294582040554001

> <r_i_glide_esite>
-0.0130334921412211

> <r_i_glide_emodel>
-36.9998276675503

> <r_i_glide_energy>
-26.2604942321777

> <r_i_glide_einternal>
0.201708376407623

> <i_i_glide_confnum>
1

> <i_i_glide_posenum>
38

> <r_i_glide_eff_state_penalty>
0

> <s_user_duplicate_titles>
CHEMBL221_lig265

> <i_f3d_flags>
0

> <s_m_subgroup_title>
dock_pv

> <s_m_subgroupid>
dock_pv

> <b_m_subgroup_collapsed>
1

$$$$
CHEMBL221_lig931
                    3D
 Schrodinger Suite 2021-1.
 44 46  0  0  1  0            999 V2000
   19.9196   49.0484   10.4345 C   0  0  0  0  0  0
   21.8177   50.5716   12.7147 C   0  0  0  0  0  0
   19.9013   49.0020   11.9094 C   0  0  0  0  0  0
   20.6761   49.6248   12.8977 C   0  0  0  0  0  0
   20.3133   49.2205   14.1085 N   0  0  0  0  0  0
   19.3477   48.3624   13.9021 C   0  0  0  0  0  0
   19.0271   48.2015   12.5972 N   0  0  0  0  0  0
   18.5528   47.3933   15.1713 S   0  0  0  0  0  0
   17.8662   48.7662   16.2300 C   0  0  0  0  0  0
   17.4194   46.6735   14.6000 O   0  0  0  0  0  0
   19.6589   46.6730   15.8000 O   0  0  0  0  0  0
   19.7230   47.8474    9.7635 C   0  0  0  0  0  0
   19.7230   47.8008    8.3846 C   0  0  0  0  0  0
   19.9228   48.9699    7.6606 C   0  0  0  0  0  0
   20.1230   50.1819    8.3244 C   0  0  0  0  0  0
   20.1231   50.2259    9.7177 C   0  0  0  0  0  0
   22.0219   51.6442   13.5894 C   0  0  0  0  0  0
   23.1047   52.4997   13.4001 C   0  0  0  0  0  0
   23.9928   52.2734   12.3528 C   0  0  0  0  0  0
   23.7941   51.2146   11.4734 C   0  0  0  0  0  0
   22.7082   50.3650   11.6578 C   0  0  0  0  0  0
   19.8820   48.8581    5.8928 S   0  0  0  0  0  0
   18.1230   49.0730    5.3999 C   0  0  0  0  0  0
   20.1230   47.4730    5.5813 O   0  0  0  0  0  0
   20.7488   49.8731    5.3112 O   0  0  0  0  0  0
   25.0697   53.0730   12.2010 F   0  0  0  0  0  0
   16.9232   48.2641   17.3252 C   0  0  0  0  0  0
   18.3259   47.5814   12.2132 H   0  0  0  0  0  0
   18.7087   49.3447   16.6000 H   0  0  0  0  0  0
   17.3226   49.4123   15.5466 H   0  0  0  0  0  0
   19.6031   46.9323   10.3152 H   0  0  0  0  0  0
   19.5665   46.8562    7.8893 H   0  0  0  0  0  0
   20.2368   51.0938    7.7548 H   0  0  0  0  0  0
   20.2641   51.1652   10.2319 H   0  0  0  0  0  0
   21.3428   51.8197   14.4111 H   0  0  0  0  0  0
   23.2678   53.3271   14.0750 H   0  0  0  0  0  0
   24.4907   51.0468   10.6643 H   0  0  0  0  0  0
   22.5629   49.5340   10.9845 H   0  0  0  0  0  0
   18.0710   49.0730    4.3120 H   0  0  0  0  0  0
   17.7480   50.0111    5.8000 H   0  0  0  0  0  0
   17.5629   48.2302    5.7915 H   0  0  0  0  0  0
   16.4292   49.1112   17.8000 H   0  0  0  0  0  0
   16.1478   47.6066   16.9363 H   0  0  0  0  0  0
   17.4663   47.7103   18.0914 H   0  0  0  0  0  0
  1  3  1  0  0  0
  1 12  2  0  0  0
  1 16  1  0  0  0
  2  4  1  0  0  0
  2 17  2  0  0  0
  2 21  1  0  0  0
  3  4  2  0  0  0
  3  7  1  0  0  0
  4  5  1  0  0  0
  5  6  2  0  0  0
  6  7  1  0  0  0
  6  8  1  0  0  0
  7 28  1  0  0  0
  8  9  1  0  0  0
  8 10  2  0  0  0
  8 11  2  0  0  0
  9 27  1  0  0  0
  9 29  1  0  0  0
  9 30  1  0  0  0
 12 13  1  0  0  0
 12 31  1  0  0  0
 13 14  2  0  0  0
 13 32  1  0  0  0
 14 15  1  0  0  0
 14 22  1  0  0  0
 15 16  2  0  0  0
 15 33  1  0  0  0
 16 34  1  0  0  0
 17 18  1  0  0  0
 17 35  1  0  0  0
 18 19  2  0  0  0
 18 36  1  0  0  0
 19 20  1  0  0  0
 19 26  1  0  0  0
 20 21  2  0  0  0
 20 37  1  0  0  0
 21 38  1  0  0  0
 22 23  1  0  0  0
 22 24  2  0  0  0
 22 25  2  0  0  0
 23 39  1  0  0  0
 23 40  1  0  0  0
 23 41  1  0  0  0
 27 42  1  0  0  0
 27 43  1  0  0  0
 27 44  1  0  0  0
M  END
> <s_m_entry_id>
5178

> <s_m_entry_name>
dock_pv.169

> <s_m_Source_Path>
/home/csk/Desktop/cluster/DUD-E-result/pgh1

> <s_m_Source_File>
dock_pv.maegz

> <i_m_Source_File_Index>
169

> <chembl_id>
CHEMBL2347675

> <chembl_pref_name>
None

> <i_lp_mmshare_version>
53161

> <r_lp_tautomer_probability>
0.499999999999999

> <s_lp_Force_Field>
OPLS_2005

> <r_lp_Energy>
11.474707

> <b_lp_Chiralities_Consistent>
1

> <s_lp_Variant>
CHEMBL221_lig931-1

> <s_i_glide_gridfile>
glide-grid_2oyu

> <i_i_glide_lignum>
1154

> <i_i_glide_rotatable_bonds>
5

> <r_i_docking_score>
-9.02601136023259

> <r_i_glide_ligand_efficiency>
-0.334296717045651

> <r_i_glide_ligand_efficiency_sa>
-1.00289015003517

> <r_i_glide_ligand_efficiency_ln>
-2.1011066392351

> <r_i_glide_gscore>
-9.02601136023259

> <r_i_glide_lipo>
-4.40430066962147

> <r_i_glide_hbond>
0

> <r_i_glide_metal>
0

> <r_i_glide_rewards>
-2.71691576181668

> <r_i_glide_evdw>
-21.4125862121582

> <r_i_glide_ecoul>
-7.65426206588745

> <r_i_glide_erotb>
0.353886331883236

> <r_i_glide_esite>
-0.0399126401866416

> <r_i_glide_emodel>
-35.1354267093063

> <r_i_glide_energy>
-29.0668482780457

> <r_i_glide_einternal>
2.92682790756226

> <i_i_glide_confnum>
13

> <i_i_glide_posenum>
189

> <r_i_glide_eff_state_penalty>
0

> <s_user_duplicate_titles>
CHEMBL221_lig931,CHEMBL221_lig931

> <i_f3d_flags>
0

> <s_m_subgroup_title>
dock_pv

> <s_m_subgroupid>
dock_pv

> <b_m_subgroup_collapsed>
1

$$$$
CHEMBL221_lig480
                    3D
 Schrodinger Suite 2021-1.
 41 43  0  0  1  0            999 V2000
   19.3257   48.0745   13.4322 C   0  0  1  0  0  0
   20.5230   49.4730   14.7158 C   0  0  0  0  0  0
   19.6632   48.4487   14.7188 O   0  0  0  0  0  0
   20.0454   49.0592   12.5196 C   0  0  0  0  0  0
   20.7569   49.8722   13.3294 C   0  0  0  0  0  0
   20.0141   48.8953    6.3924 S   0  0  0  0  0  0
   20.0125   49.0230    8.1886 C   0  0  0  0  0  0
   19.9552   49.0992   11.0201 C   0  0  0  0  0  0
   21.7803   50.8891   12.9933 C   0  0  0  0  0  0
   20.9886   49.9710   15.7396 O   0  0  0  0  0  0
   20.1230   47.4734    6.0973 O   0  0  0  0  0  0
   20.9230   49.8724    5.8000 O   0  0  0  0  0  0
   19.7230   46.7849   13.1882 O   0  0  0  0  0  0
   20.1230   50.2398    8.8703 C   0  0  0  0  0  0
   19.7329   47.8730    8.9240 C   0  0  0  0  0  0
   20.1281   50.2733   10.2705 C   0  0  0  0  0  0
   19.7228   47.9191   10.3115 C   0  0  0  0  0  0
   22.8365   50.5663   12.1331 C   0  0  0  0  0  0
   21.7569   52.1451   13.6107 C   0  0  0  0  0  0
   17.8050   48.0991   13.3997 C   0  0  0  0  0  0
   18.3434   49.3188    5.8000 C   0  0  0  0  0  0
   23.8992   52.6624   12.6501 C   0  0  0  0  0  0
   22.8130   53.0326   13.4345 C   0  0  0  0  0  0
   23.8953   51.4537   11.9594 C   0  0  0  0  0  0
   24.9980   53.4731   12.6000 O   0  0  0  0  0  0
   19.0943   46.4062   12.5656 H   0  0  0  0  0  0
   20.2456   51.1503    8.3029 H   0  0  0  0  0  0
   19.5701   46.9273    8.4291 H   0  0  0  0  0  0
   20.2673   51.2227   10.7664 H   0  0  0  0  0  0
   19.5784   46.9940   10.8238 H   0  0  0  0  0  0
   22.8710   49.6015   11.6478 H   0  0  0  0  0  0
   20.9489   52.4143   14.2760 H   0  0  0  0  0  0
   17.3919   47.3696   14.0986 H   0  0  0  0  0  0
   17.4247   49.0730   13.6798 H   0  0  0  0  0  0
   17.4431   47.8729   12.3984 H   0  0  0  0  0  0
   18.3922   49.3611    4.7143 H   0  0  0  0  0  0
   18.0080   50.2683    6.2000 H   0  0  0  0  0  0
   17.7230   48.4871    6.0903 H   0  0  0  0  0  0
   22.8120   53.9740   13.9652 H   0  0  0  0  0  0
   24.7360   51.1788   11.3383 H   0  0  0  0  0  0
   24.8871   54.2800   13.1089 H   0  0  0  0  0  0
  1  3  1  0  0  0
  1  4  1  0  0  0
  1 13  1  0  0  0
  1 20  1  0  0  0
  2  3  1  0  0  0
  2 10  2  0  0  0
  2  5  1  0  0  0
  4  5  2  0  0  0
  4  8  1  0  0  0
  5  9  1  0  0  0
  6  7  1  0  0  0
  6 11  2  0  0  0
  6 12  2  0  0  0
  6 21  1  0  0  0
  7 15  1  0  0  0
  7 14  2  0  0  0
  8 16  2  0  0  0
  8 17  1  0  0  0
  9 18  2  0  0  0
  9 19  1  0  0  0
 13 26  1  0  0  0
 14 16  1  0  0  0
 14 27  1  0  0  0
 15 17  2  0  0  0
 15 28  1  0  0  0
 16 29  1  0  0  0
 17 30  1  0  0  0
 18 24  1  0  0  0
 18 31  1  0  0  0
 19 23  2  0  0  0
 19 32  1  0  0  0
 20 33  1  0  0  0
 20 34  1  0  0  0
 20 35  1  0  0  0
 21 36  1  0  0  0
 21 37  1  0  0  0
 21 38  1  0  0  0
 22 23  1  0  0  0
 22 25  1  0  0  0
 22 24  2  0  0  0
 23 39  1  0  0  0
 24 40  1  0  0  0
 25 41  1  0  0  0
M  END
> <s_m_entry_id>
5179

> <s_m_entry_name>
dock_pv.170

> <s_m_Source_Path>
/home/csk/Desktop/cluster/DUD-E-result/pgh1

> <s_m_Source_File>
dock_pv.maegz

> <i_m_Source_File_Index>
170

> <chembl_id>
CHEMBL278738

> <chembl_pref_name>
None

> <i_lp_mmshare_version>
53161

> <r_lp_tautomer_probability>
1

> <s_lp_Force_Field>
OPLS_2005

> <r_lp_Energy>
13.043642

> <b_lp_Chiralities_Consistent>
1

> <s_lp_Variant>
CHEMBL221_lig480-2

> <s_i_glide_gridfile>
glide-grid_2oyu

> <i_i_glide_lignum>
608

> <i_i_glide_rotatable_bonds>
5

> <r_i_docking_score>
-9.00970649745908

> <r_i_glide_ligand_efficiency>
-0.360388259898363

> <r_i_glide_ligand_efficiency_sa>
-1.05378166345582

> <r_i_glide_ligand_efficiency_ln>
-2.13557043901394

> <r_i_glide_gscore>
-9.00970649745908

> <r_i_glide_lipo>
-3.99931979956081

> <r_i_glide_hbond>
0

> <r_i_glide_metal>
0

> <r_i_glide_rewards>
-2.64017360663096

> <r_i_glide_evdw>
-25.4436683654785

> <r_i_glide_ecoul>
-9.20450782775879

> <r_i_glide_erotb>
0.295334761755988

> <r_i_glide_esite>
-0.0126882605855516

> <r_i_glide_emodel>
-39.5488451091557

> <r_i_glide_energy>
-34.6481761932373

> <r_i_glide_einternal>
0.877154350280762

> <i_i_glide_confnum>
6

> <i_i_glide_posenum>
141

> <r_i_glide_eff_state_penalty>
0

> <s_user_duplicate_titles>
CHEMBL221_lig480

> <i_f3d_flags>
0

> <s_m_subgroup_title>
dock_pv

> <s_m_subgroupid>
dock_pv

> <b_m_subgroup_collapsed>
1

$$$$
CHEMBL221_lig879
                    3D
 Schrodinger Suite 2021-1.
 37 39  0  0  1  0            999 V2000
   21.0070   49.9485   11.2042 C   0  0  0  0  0  0
   20.0836   49.0448   11.7556 C   0  0  0  0  0  0
   20.9479   49.8730    9.8821 N   0  0  0  0  0  0
   19.5587   48.3506   10.7094 O   0  0  0  0  0  0
   20.1230   48.9010    9.6081 C   0  0  0  0  0  0
   20.0095   48.9826    5.7579 C   0  0  0  0  0  0
   21.9631   50.9129   11.8474 C   0  0  0  0  0  0
   19.5824   48.6823   13.1217 C   0  0  0  0  0  0
   18.9855   48.5010    5.0000 O   0  0  0  0  0  0
   21.1736   49.0730    5.4000 O   0  0  0  0  0  0
   19.7230   48.3514    8.2391 C   0  0  0  0  0  0
   19.5319   49.4274    7.1227 C   0  0  0  0  0  0
   20.3384   48.9432   14.2667 C   0  0  0  0  0  0
   21.6218   51.6280   13.0000 C   0  0  0  0  0  0
   23.2236   51.1201   11.2704 C   0  0  0  0  0  0
   18.3197   48.0954   13.2646 C   0  0  0  0  0  0
   22.5222   52.5225   13.5725 C   0  0  0  0  0  0
   24.1230   52.0196   11.8338 C   0  0  0  0  0  0
   17.8098   47.8027   14.5271 C   0  0  0  0  0  0
   19.8344   48.6537   15.5309 C   0  0  0  0  0  0
   23.7702   52.7142   12.9872 C   0  0  0  0  0  0
   18.5697   48.0858   15.6576 C   0  0  0  0  0  0
   19.2508   48.2730    4.0972 H   0  0  0  0  0  0
   20.4307   47.5765    7.9396 H   0  0  0  0  0  0
   18.7811   47.8076    8.3254 H   0  0  0  0  0  0
   18.5230   49.8179    7.0000 H   0  0  0  0  0  0
   20.1582   50.2938    7.3316 H   0  0  0  0  0  0
   21.3230   49.3715   14.1885 H   0  0  0  0  0  0
   20.6490   51.5075   13.4470 H   0  0  0  0  0  0
   23.5095   50.5971   10.3701 H   0  0  0  0  0  0
   17.7181   47.8730   12.3955 H   0  0  0  0  0  0
   22.2533   53.0732   14.4626 H   0  0  0  0  0  0
   25.0893   52.1752   11.3761 H   0  0  0  0  0  0
   16.8277   47.3633   14.6264 H   0  0  0  0  0  0
   20.4240   48.8704   16.4092 H   0  0  0  0  0  0
   24.4659   53.4132   13.4285 H   0  0  0  0  0  0
   18.1750   47.8635   16.6384 H   0  0  0  0  0  0
  1  2  2  0  0  0
  1  3  1  0  0  0
  1  7  1  0  0  0
  2  4  1  0  0  0
  2  8  1  0  0  0
  3  5  2  0  0  0
  4  5  1  0  0  0
  5 11  1  0  0  0
  6 12  1  0  0  0
  6  9  1  0  0  0
  6 10  2  0  0  0
  7 14  2  0  0  0
  7 15  1  0  0  0
  8 13  1  0  0  0
  8 16  2  0  0  0
  9 23  1  0  0  0
 11 12  1  0  0  0
 11 24  1  0  0  0
 11 25  1  0  0  0
 12 26  1  0  0  0
 12 27  1  0  0  0
 13 20  2  0  0  0
 13 28  1  0  0  0
 14 17  1  0  0  0
 14 29  1  0  0  0
 15 18  2  0  0  0
 15 30  1  0  0  0
 16 19  1  0  0  0
 16 31  1  0  0  0
 17 21  2  0  0  0
 17 32  1  0  0  0
 18 21  1  0  0  0
 18 33  1  0  0  0
 19 22  2  0  0  0
 19 34  1  0  0  0
 20 22  1  0  0  0
 20 35  1  0  0  0
 21 36  1  0  0  0
 22 37  1  0  0  0
M  END
> <s_m_entry_id>
5180

> <s_m_entry_name>
dock_pv.171

> <s_m_Source_Path>
/home/csk/Desktop/cluster/DUD-E-result/pgh1

> <s_m_Source_File>
dock_pv.maegz

> <i_m_Source_File_Index>
171

> <chembl_id>
CHEMBL1071

> <chembl_pref_name>
OXAPROZIN

> <i_lp_mmshare_version>
53161

> <r_lp_tautomer_probability>
1

> <s_lp_Force_Field>
OPLS_2005

> <r_lp_Energy>
12.779703

> <b_lp_Chiralities_Consistent>
1

> <s_lp_Variant>
CHEMBL221_lig879-1

> <s_i_glide_gridfile>
glide-grid_2oyu

> <i_i_glide_lignum>
1085

> <i_i_glide_rotatable_bonds>
6

> <r_i_docking_score>
-9.00758537089133

> <r_i_glide_ligand_efficiency>
-0.409435698676879

> <r_i_glide_ligand_efficiency_sa>
-1.14725492988491

> <r_i_glide_ligand_efficiency_ln>
-2.20178242430534

> <r_i_glide_gscore>
-9.00758537089133

> <r_i_glide_lipo>
-4.64344729513571

> <r_i_glide_hbond>
0

> <r_i_glide_metal>
0

> <r_i_glide_rewards>
-2.61963199334415

> <r_i_glide_evdw>
-40.2563934326172

> <r_i_glide_ecoul>
-5.29014492034912

> <r_i_glide_erotb>
1.06183532727176

> <r_i_glide_esite>
0

> <r_i_glide_emodel>
-66.8281376054473

> <r_i_glide_energy>
-45.5465383529663

> <r_i_glide_einternal>
4.51655673980713

> <i_i_glide_confnum>
82

> <i_i_glide_posenum>
314

> <r_i_glide_eff_state_penalty>
0

> <s_user_duplicate_titles>
CHEMBL221_lig879

> <i_f3d_flags>
0

> <s_m_subgroup_title>
dock_pv

> <s_m_subgroupid>
dock_pv

> <b_m_subgroup_collapsed>
1

$$$$
CHEMBL221_lig151
                    3D
 Schrodinger Suite 2021-1.
 38 40  0  0  1  0            999 V2000
   19.8547   49.0012   12.2075 N   0  0  0  0  0  0
   20.5904   49.6500   13.1872 C   0  0  0  0  0  0
   19.1548   48.2355   14.2134 N   0  0  0  0  0  0
   18.9991   48.1879   12.9218 C   0  0  0  0  0  0
   19.9973   48.9027    6.2086 S   0  0  0  0  0  0
   20.1230   49.1070   14.3933 C   0  0  0  0  0  0
   21.6413   50.6955   12.9801 C   0  0  0  0  0  0
   22.6004   50.6254   11.9629 C   0  0  0  0  0  0
   19.9168   49.0629   10.7925 C   0  0  0  0  0  0
   19.9823   49.0100    7.9937 C   0  0  0  0  0  0
   23.5618   51.6317   11.8158 C   0  0  0  0  0  0
   20.9230   49.8732    5.6404 O   0  0  0  0  0  0
   20.1230   47.4898    5.8875 O   0  0  0  0  0  0
   23.6088   52.6819   12.7430 C   0  0  0  0  0  0
   21.6631   51.7876   13.8523 C   0  0  0  0  0  0
   20.1230   50.2219    8.6823 C   0  0  0  0  0  0
   19.7340   47.8414    8.7090 C   0  0  0  0  0  0
   20.1211   50.2512   10.0810 C   0  0  0  0  0  0
   19.7230   47.8730   10.0925 C   0  0  0  0  0  0
   22.6389   52.7697   13.7376 C   0  0  0  0  0  0
   20.6703   49.4693   15.9810 Cl  0  0  0  0  0  0
   18.3051   49.3524    5.6750 C   0  0  0  0  0  0
   24.8620   53.8730   12.7052 Cl  0  0  0  0  0  0
   24.5230   51.5889   10.6424 C   0  0  0  0  0  0
   18.2778   47.5711   12.4055 H   0  0  0  0  0  0
   22.5901   49.7926   11.2754 H   0  0  0  0  0  0
   20.9233   51.8819   14.6333 H   0  0  0  0  0  0
   20.2421   51.1391    8.1236 H   0  0  0  0  0  0
   19.5873   46.8991    8.2032 H   0  0  0  0  0  0
   20.2338   51.1950   10.5952 H   0  0  0  0  0  0
   19.5983   46.9520   10.6309 H   0  0  0  0  0  0
   22.6465   53.5961   14.4333 H   0  0  0  0  0  0
   18.3452   49.4729    4.5987 H   0  0  0  0  0  0
   17.7230   48.4777    5.9073 H   0  0  0  0  0  0
   17.9621   50.2559    6.1727 H   0  0  0  0  0  0
   24.3259   50.7563    9.9662 H   0  0  0  0  0  0
   25.5468   51.5237   11.0000 H   0  0  0  0  0  0
   24.4571   52.5125   10.0677 H   0  0  0  0  0  0
  1  2  1  0  0  0
  1  4  1  0  0  0
  1  9  1  0  0  0
  2  6  2  0  0  0
  2  7  1  0  0  0
  3  4  2  0  0  0
  3  6  1  0  0  0
  4 25  1  0  0  0
  5 10  1  0  0  0
  5 12  2  0  0  0
  5 13  2  0  0  0
  5 22  1  0  0  0
  6 21  1  0  0  0
  7  8  2  0  0  0
  7 15  1  0  0  0
  8 11  1  0  0  0
  8 26  1  0  0  0
  9 18  1  0  0  0
  9 19  2  0  0  0
 10 17  2  0  0  0
 10 16  1  0  0  0
 11 24  1  0  0  0
 11 14  2  0  0  0
 14 20  1  0  0  0
 14 23  1  0  0  0
 15 20  2  0  0  0
 15 27  1  0  0  0
 16 18  2  0  0  0
 16 28  1  0  0  0
 17 19  1  0  0  0
 17 29  1  0  0  0
 18 30  1  0  0  0
 19 31  1  0  0  0
 20 32  1  0  0  0
 22 33  1  0  0  0
 22 34  1  0  0  0
 22 35  1  0  0  0
 24 36  1  0  0  0
 24 37  1  0  0  0
 24 38  1  0  0  0
M  END
> <s_m_entry_id>
5181

> <s_m_entry_name>
dock_pv.172

> <s_m_Source_Path>
/home/csk/Desktop/cluster/DUD-E-result/pgh1

> <s_m_Source_File>
dock_pv.maegz

> <i_m_Source_File_Index>
172

> <chembl_id>
CHEMBL326291

> <chembl_pref_name>
None

> <i_lp_mmshare_version>
53161

> <r_lp_tautomer_probability>
1

> <s_lp_Force_Field>
OPLS_2005

> <r_lp_Energy>
12.025593

> <b_lp_Chiralities_Consistent>
1

> <s_lp_Variant>
CHEMBL221_lig151-1

> <s_i_glide_gridfile>
glide-grid_2oyu

> <i_i_glide_lignum>
173

> <i_i_glide_rotatable_bonds>
3

> <r_i_docking_score>
-8.98642102976232

> <r_i_glide_ligand_efficiency>
-0.37443420957343

> <r_i_glide_ligand_efficiency_sa>
-1.08005515458719

> <r_i_glide_ligand_efficiency_ln>
-2.15086291241344

> <r_i_glide_gscore>
-8.98642102976232

> <r_i_glide_lipo>
-4.44674983155451

> <r_i_glide_hbond>
0

> <r_i_glide_metal>
0

> <r_i_glide_rewards>
-2.49675860237445

> <r_i_glide_evdw>
-26.2680072784424

> <r_i_glide_ecoul>
-6.53147792816162

> <r_i_glide_erotb>
0.267030616738568

> <r_i_glide_esite>
-0.0168211594255738

> <r_i_glide_emodel>
-39.8935458836512

> <r_i_glide_energy>
-32.799485206604

> <r_i_glide_einternal>
0.555324375629425

> <i_i_glide_confnum>
16

> <i_i_glide_posenum>
221

> <r_i_glide_eff_state_penalty>
0

> <s_user_duplicate_titles>
CHEMBL221_lig151

> <i_f3d_flags>
0

> <s_m_subgroup_title>
dock_pv

> <s_m_subgroupid>
dock_pv

> <b_m_subgroup_collapsed>
1

$$$$
CHEMBL221_lig275
                    3D
 Schrodinger Suite 2021-1.
 43 45  0  0  1  0            999 V2000
   20.5851   49.7665   13.1955 C   0  0  0  0  0  0
   19.8443   49.0506   12.3146 C   0  0  0  0  0  0
   18.8538   48.1476   13.0391 C   0  0  0  0  0  0
   19.0232   48.5122   14.5092 C   0  0  0  0  0  0
   20.2674   49.3815   14.6300 C   0  0  0  0  0  0
   21.7309   50.6537   12.9086 C   0  0  0  0  0  0
   19.8998   49.0794   10.8285 C   0  0  0  0  0  0
   23.9321   52.3311   12.4612 C   0  0  0  0  0  0
   22.9529   52.6820   13.3999 C   0  0  0  0  0  0
   21.8622   51.8491   13.6191 C   0  0  0  0  0  0
   22.6949   50.3166   11.9548 C   0  0  0  0  0  0
   23.7803   51.1557   11.7279 C   0  0  0  0  0  0
   20.1230   50.2061    8.6928 C   0  0  0  0  0  0
   19.9718   48.9908    8.0162 C   0  0  0  0  0  0
   19.7241   47.8322    8.7498 C   0  0  0  0  0  0
   19.7084   47.8842   10.1369 C   0  0  0  0  0  0
   20.1230   50.2477   10.0896 C   0  0  0  0  0  0
   25.0687   53.0730   12.2138 O   0  0  0  0  0  0
   25.3391   54.2175   13.0207 C   0  0  0  0  0  0
   19.9815   48.8889    6.2274 S   0  0  0  0  0  0
   18.2819   49.3321    5.6443 C   0  0  0  0  0  0
   20.9223   49.8718    5.6885 O   0  0  0  0  0  0
   20.1230   47.4734    5.9142 O   0  0  0  0  0  0
   17.8235   48.2730   12.7037 H   0  0  0  0  0  0
   19.1232   47.1017   12.8892 H   0  0  0  0  0  0
   19.0799   47.6288   15.1470 H   0  0  0  0  0  0
   18.1505   49.0729   14.8473 H   0  0  0  0  0  0
   21.0893   48.7968   15.0373 H   0  0  0  0  0  0
   20.1231   50.2281   15.2996 H   0  0  0  0  0  0
   23.0272   53.5863   13.9840 H   0  0  0  0  0  0
   21.1245   52.1378   14.3535 H   0  0  0  0  0  0
   22.6163   49.3937   11.3997 H   0  0  0  0  0  0
   24.5234   50.8787   10.9951 H   0  0  0  0  0  0
   20.2508   51.1176    8.1273 H   0  0  0  0  0  0
   19.5703   46.8858    8.2541 H   0  0  0  0  0  0
   19.5588   46.9789   10.6907 H   0  0  0  0  0  0
   20.2527   51.1957   10.5913 H   0  0  0  0  0  0
   26.2359   54.7172   12.6560 H   0  0  0  0  0  0
   25.5187   53.9293   14.0563 H   0  0  0  0  0  0
   24.5309   54.9497   13.0000 H   0  0  0  0  0  0
   18.3755   49.4730    4.5728 H   0  0  0  0  0  0
   17.6247   48.4856    5.8000 H   0  0  0  0  0  0
   17.9317   50.2343    6.1384 H   0  0  0  0  0  0
  1  2  2  0  0  0
  1  5  1  0  0  0
  1  6  1  0  0  0
  2  3  1  0  0  0
  2  7  1  0  0  0
  3  4  1  0  0  0
  3 24  1  0  0  0
  3 25  1  0  0  0
  4  5  1  0  0  0
  4 26  1  0  0  0
  4 27  1  0  0  0
  5 28  1  0  0  0
  5 29  1  0  0  0
  6 10  2  0  0  0
  6 11  1  0  0  0
  7 16  2  0  0  0
  7 17  1  0  0  0
  8  9  2  0  0  0
  8 12  1  0  0  0
  8 18  1  0  0  0
  9 10  1  0  0  0
  9 30  1  0  0  0
 10 31  1  0  0  0
 11 12  2  0  0  0
 11 32  1  0  0  0
 12 33  1  0  0  0
 13 14  1  0  0  0
 13 17  2  0  0  0
 13 34  1  0  0  0
 14 15  2  0  0  0
 14 20  1  0  0  0
 15 16  1  0  0  0
 15 35  1  0  0  0
 16 36  1  0  0  0
 17 37  1  0  0  0
 18 19  1  0  0  0
 19 38  1  0  0  0
 19 39  1  0  0  0
 19 40  1  0  0  0
 20 21  1  0  0  0
 20 22  2  0  0  0
 20 23  2  0  0  0
 21 41  1  0  0  0
 21 42  1  0  0  0
 21 43  1  0  0  0
M  END
> <s_m_entry_id>
5182

> <s_m_entry_name>
dock_pv.173

> <s_m_Source_Path>
/home/csk/Desktop/cluster/DUD-E-result/pgh1

> <s_m_Source_File>
dock_pv.maegz

> <i_m_Source_File_Index>
173

> <chembl_id>
CHEMBL108201

> <chembl_pref_name>
None

> <i_lp_mmshare_version>
53161

> <r_lp_tautomer_probability>
1

> <s_lp_Force_Field>
OPLS_2005

> <r_lp_Energy>
28.937147

> <b_lp_Chiralities_Consistent>
1

> <s_lp_Variant>
CHEMBL221_lig275-1

> <s_i_glide_gridfile>
glide-grid_2oyu

> <i_i_glide_lignum>
308

> <i_i_glide_rotatable_bonds>
4

> <r_i_docking_score>
-8.98615644349218

> <r_i_glide_ligand_efficiency>
-0.390702454064878

> <r_i_glide_ligand_efficiency_sa>
-1.11110580690079

> <r_i_glide_ligand_efficiency_ln>
-2.17293410999807

> <r_i_glide_gscore>
-8.98615644349218

> <r_i_glide_lipo>
-4.91980897864006

> <r_i_glide_hbond>
0

> <r_i_glide_metal>
0

> <r_i_glide_rewards>
-2.30062519597511

> <r_i_glide_evdw>
-23.6404819488525

> <r_i_glide_ecoul>
-6.10692453384399

> <r_i_glide_erotb>
0.348242706282796

> <r_i_glide_esite>
-0.0159021976405793

> <r_i_glide_emodel>
-30.9904829875868

> <r_i_glide_energy>
-29.7474064826965

> <r_i_glide_einternal>
2.20411229133606

> <i_i_glide_confnum>
8

> <i_i_glide_posenum>
333

> <r_i_glide_eff_state_penalty>
0

> <s_user_duplicate_titles>
CHEMBL221_lig275,179646

> <i_f3d_flags>
0

> <s_m_subgroup_title>
dock_pv

> <s_m_subgroupid>
dock_pv

> <b_m_subgroup_collapsed>
1

$$$$
CHEMBL221_lig72
                    3D
 Schrodinger Suite 2021-1.
 38 40  0  0  1  0            999 V2000
   20.0763   49.2267   12.7915 N   0  0  0  0  0  0
   20.9230   49.9682   13.5964 C   0  0  0  0  0  0
   20.0566   48.7548    6.8065 S   0  0  0  0  0  0
   19.3260   48.4933   13.6812 C   0  0  0  0  0  0
   19.6086   48.7303   14.9335 N   0  0  0  0  0  0
   20.5230   49.6856   14.9047 C   0  0  0  0  0  0
   19.9987   49.1800   11.3821 C   0  0  0  0  0  0
   20.1230   48.9773    8.5981 C   0  0  0  0  0  0
   22.0174   50.8569   13.1134 C   0  0  0  0  0  0
   21.3230   49.0730    6.1795 O   0  0  0  0  0  0
   19.4334   47.4730    6.6023 O   0  0  0  0  0  0
   20.2385   50.2230    9.2147 C   0  0  0  0  0  0
   19.7551   47.8730    9.3778 C   0  0  0  0  0  0
   20.1936   50.3274   10.6027 C   0  0  0  0  0  0
   19.7230   47.9636   10.7617 C   0  0  0  0  0  0
   22.9510   50.3574   12.2000 C   0  0  0  0  0  0
   22.1516   52.1540   13.6142 C   0  0  0  0  0  0
   18.9100   49.8730    6.0169 C   0  0  0  0  0  0
   24.2142   52.3877   12.4060 C   0  0  0  0  0  0
   24.0430   51.1330   11.8313 C   0  0  0  0  0  0
   23.2602   52.9177   13.2678 C   0  0  0  0  0  0
   25.3485   53.0730   12.1667 F   0  0  0  0  0  0
   20.9568   50.3309   16.2000 C   0  0  0  0  0  0
   18.5725   47.8077   13.3229 H   0  0  0  0  0  0
   20.3967   51.0994    8.6074 H   0  0  0  0  0  0
   19.5535   46.9142    8.9244 H   0  0  0  0  0  0
   20.3364   51.2951   11.0612 H   0  0  0  0  0  0
   19.5202   47.0730   11.3380 H   0  0  0  0  0  0
   22.8547   49.3567   11.8039 H   0  0  0  0  0  0
   21.4210   52.5656   14.2932 H   0  0  0  0  0  0
   18.9164   49.6574    4.9506 H   0  0  0  0  0  0
   17.9137   49.7662    6.4329 H   0  0  0  0  0  0
   19.3230   50.8594    6.2000 H   0  0  0  0  0  0
   24.7881   50.7411   11.1565 H   0  0  0  0  0  0
   23.4002   53.8998   13.6964 H   0  0  0  0  0  0
   21.1751   51.3899   16.0909 H   0  0  0  0  0  0
   20.1877   50.2730   16.9699 H   0  0  0  0  0  0
   21.8583   49.8730   16.6000 H   0  0  0  0  0  0
  1  2  1  0  0  0
  1  4  1  0  0  0
  1  7  1  0  0  0
  2  6  2  0  0  0
  2  9  1  0  0  0
  3  8  1  0  0  0
  3 10  2  0  0  0
  3 11  2  0  0  0
  3 18  1  0  0  0
  4  5  2  0  0  0
  4 24  1  0  0  0
  5  6  1  0  0  0
  6 23  1  0  0  0
  7 14  1  0  0  0
  7 15  2  0  0  0
  8 13  2  0  0  0
  8 12  1  0  0  0
  9 16  1  0  0  0
  9 17  2  0  0  0
 12 14  2  0  0  0
 12 25  1  0  0  0
 13 15  1  0  0  0
 13 26  1  0  0  0
 14 27  1  0  0  0
 15 28  1  0  0  0
 16 20  2  0  0  0
 16 29  1  0  0  0
 17 21  1  0  0  0
 17 30  1  0  0  0
 18 31  1  0  0  0
 18 32  1  0  0  0
 18 33  1  0  0  0
 19 21  2  0  0  0
 19 22  1  0  0  0
 19 20  1  0  0  0
 20 34  1  0  0  0
 21 35  1  0  0  0
 23 36  1  0  0  0
 23 37  1  0  0  0
 23 38  1  0  0  0
M  END
> <s_m_entry_id>
5183

> <s_m_entry_name>
dock_pv.174

> <s_m_Source_Path>
/home/csk/Desktop/cluster/DUD-E-result/pgh1

> <s_m_Source_File>
dock_pv.maegz

> <i_m_Source_File_Index>
174

> <chembl_id>
CHEMBL324957

> <chembl_pref_name>
None

> <i_lp_mmshare_version>
53161

> <r_lp_tautomer_probability>
1

> <s_lp_Force_Field>
OPLS_2005

> <r_lp_Energy>
10.531786

> <b_lp_Chiralities_Consistent>
1

> <s_lp_Variant>
CHEMBL221_lig72-1

> <s_i_glide_gridfile>
glide-grid_2oyu

> <i_i_glide_lignum>
89

> <i_i_glide_rotatable_bonds>
3

> <r_i_docking_score>
-8.98593616488237

> <r_i_glide_ligand_efficiency>
-0.390692876734016

> <r_i_glide_ligand_efficiency_sa>
-1.11107857024583

> <r_i_glide_ligand_efficiency_ln>
-2.17288084463284

> <r_i_glide_gscore>
-8.98593616488237

> <r_i_glide_lipo>
-4.2446256994759

> <r_i_glide_hbond>
0

> <r_i_glide_metal>
0

> <r_i_glide_rewards>
-3.19241173043399

> <r_i_glide_evdw>
-20.4746875762939

> <r_i_glide_ecoul>
-5.79853773117065

> <r_i_glide_erotb>
0.344616303517806

> <r_i_glide_esite>
0

> <r_i_glide_emodel>
-32.8404886508623

> <r_i_glide_energy>
-26.2732253074646

> <r_i_glide_einternal>
0.950352370738983

> <i_i_glide_confnum>
4

> <i_i_glide_posenum>
385

> <r_i_glide_eff_state_penalty>
0

> <s_user_duplicate_titles>
CHEMBL221_lig72

> <i_f3d_flags>
0

> <s_m_subgroup_title>
dock_pv

> <s_m_subgroupid>
dock_pv

> <b_m_subgroup_collapsed>
1

$$$$
CHEMBL221_lig851
                    3D
 Schrodinger Suite 2021-1.
 38 40  0  0  1  0            999 V2000
   19.7872   48.2443   13.7651 C   0  0  0  0  0  0
   19.6392   48.1370   12.3784 C   0  0  0  0  0  0
   20.1821   49.0921   11.4980 C   0  0  0  0  0  0
   20.4660   49.3290   14.3204 C   0  0  0  0  0  0
   19.1205   47.0330   14.7985 Cl  0  0  0  0  0  0
   20.9931   50.3091   13.4839 C   0  0  0  0  0  0
   20.8878   50.1548   12.0947 C   0  0  0  0  0  0
   21.4323   51.1107   11.2677 O   0  0  0  0  0  0
   22.5832   51.8263   11.7131 C   0  0  1  0  0  0
   22.4206   52.2682   13.1628 C   0  0  0  0  0  0
   21.6799   51.5076   13.9938 C   0  0  0  0  0  0
   23.8910   51.1158   11.3931 C   0  0  0  0  0  0
   24.9230   51.9489   11.4308 F   0  0  0  0  0  0
   24.1223   50.0875   12.2000 F   0  0  0  0  0  0
   23.8265   50.6730   10.1499 F   0  0  0  0  0  0
   22.9876   53.5424   13.5171 C   0  0  0  0  0  0
   22.1230   54.3423   14.1986 O   0  0  0  0  0  0
   24.1276   53.8891   13.2248 O   0  0  0  0  0  0
   20.0209   48.9645    9.9968 C   0  0  0  0  0  0
   20.1230   50.0608    9.1223 C   0  0  0  0  0  0
   20.1230   49.9050    7.7388 C   0  0  0  0  0  0
   19.8151   48.6808    7.1801 C   0  0  0  0  0  0
   19.5687   47.6036    8.0235 C   0  0  0  0  0  0
   19.7230   47.7317    9.4009 C   0  0  0  0  0  0
   19.7230   48.5594    5.6736 C   0  0  0  0  0  0
   18.4035   48.6730    5.1926 O   0  0  0  0  0  0
   19.0745   47.2981   12.0006 H   0  0  0  0  0  0
   20.5586   49.4148   15.3938 H   0  0  0  0  0  0
   22.5954   52.6730   11.0502 H   0  0  0  0  0  0
   21.5146   51.8230   15.0155 H   0  0  0  0  0  0
   22.5791   55.1530   14.4434 H   0  0  0  0  0  0
   20.2193   51.0729    9.4633 H   0  0  0  0  0  0
   20.2404   50.7746    7.1071 H   0  0  0  0  0  0
   19.2487   46.6730    7.6133 H   0  0  0  0  0  0
   19.6083   46.8460    9.9989 H   0  0  0  0  0  0
   20.3721   49.2851    5.1805 H   0  0  0  0  0  0
   20.1230   47.5902    5.3752 H   0  0  0  0  0  0
   18.1024   49.5837    5.2909 H   0  0  0  0  0  0
  1  2  2  0  0  0
  1  4  1  0  0  0
  1  5  1  0  0  0
  2  3  1  0  0  0
  2 27  1  0  0  0
  3  7  2  0  0  0
  3 19  1  0  0  0
  4  6  2  0  0  0
  4 28  1  0  0  0
  6 11  1  0  0  0
  6  7  1  0  0  0
  7  8  1  0  0  0
  8  9  1  0  0  0
  9 12  1  0  0  0
  9 10  1  0  0  0
  9 29  1  0  0  0
 10 16  1  0  0  0
 10 11  2  0  0  0
 11 30  1  0  0  0
 12 13  1  0  0  0
 12 14  1  0  0  0
 12 15  1  0  0  0
 16 17  1  0  0  0
 16 18  2  0  0  0
 17 31  1  0  0  0
 19 20  2  0  0  0
 19 24  1  0  0  0
 20 21  1  0  0  0
 20 32  1  0  0  0
 21 22  2  0  0  0
 21 33  1  0  0  0
 22 23  1  0  0  0
 22 25  1  0  0  0
 23 24  2  0  0  0
 23 34  1  0  0  0
 24 35  1  0  0  0
 25 26  1  0  0  0
 25 36  1  0  0  0
 25 37  1  0  0  0
 26 38  1  0  0  0
M  END
> <s_m_entry_id>
5184

> <s_m_entry_name>
dock_pv.175

> <s_m_Source_Path>
/home/csk/Desktop/cluster/DUD-E-result/pgh1

> <s_m_Source_File>
dock_pv.maegz

> <i_m_Source_File_Index>
175

> <chembl_id>
CHEMBL1669029

> <chembl_pref_name>
None

> <i_lp_mmshare_version>
53161

> <r_lp_tautomer_probability>
1

> <s_lp_Force_Field>
OPLS_2005

> <r_lp_Energy>
18.263938

> <b_lp_Chiralities_Consistent>
1

> <s_lp_Variant>
CHEMBL221_lig851-2

> <s_i_glide_gridfile>
glide-grid_2oyu

> <i_i_glide_lignum>
1046

> <i_i_glide_rotatable_bonds>
6

> <r_i_docking_score>
-8.97833329802634

> <r_i_glide_ligand_efficiency>
-0.345320511462552

> <r_i_glide_ligand_efficiency_sa>
-1.02301065643721

> <r_i_glide_ligand_efficiency_ln>
-2.10853211472704

> <r_i_glide_gscore>
-8.97833329802634

> <r_i_glide_lipo>
-4.5118143445891

> <r_i_glide_hbond>
-0.47731717537582

> <r_i_glide_metal>
0

> <r_i_glide_rewards>
-2.21746107042719

> <r_i_glide_evdw>
-28.6411018371582

> <r_i_glide_ecoul>
-4.89201354980469

> <r_i_glide_erotb>
0.394116416694381

> <r_i_glide_esite>
0

> <r_i_glide_emodel>
-46.3152971158352

> <r_i_glide_energy>
-33.5331153869629

> <r_i_glide_einternal>
5.89732217788696

> <i_i_glide_confnum>
6

> <i_i_glide_posenum>
325

> <r_i_glide_eff_state_penalty>
0

> <s_user_duplicate_titles>
CHEMBL221_lig851

> <i_f3d_flags>
0

> <s_m_subgroup_title>
dock_pv

> <s_m_subgroupid>
dock_pv

> <b_m_subgroup_collapsed>
1

$$$$
CHEMBL221_lig976
                    3D
 Schrodinger Suite 2021-1.
 33 35  0  0  1  0            999 V2000
   20.8484   49.8730   13.7826 C   0  0  0  0  0  0
   20.0503   49.1183   13.0095 C   0  0  0  0  0  0
   19.1231   48.3311   13.8943 C   0  0  0  0  0  0
   19.5360   48.6730   15.2020 O   0  0  0  0  0  0
   20.5230   49.5902   15.1757 C   0  0  0  0  0  0
   19.9802   49.1117   11.5345 C   0  0  0  0  0  0
   19.6837   47.9231   10.8711 C   0  0  0  0  0  0
   19.7230   47.8558    9.4815 C   0  0  0  0  0  0
   20.1230   48.9701    8.7463 C   0  0  0  0  0  0
   20.3320   50.1827    9.4000 C   0  0  0  0  0  0
   20.2550   50.2577   10.7818 C   0  0  0  0  0  0
   21.9672   50.7467   13.3437 C   0  0  0  0  0  0
   22.0936   52.0549   13.8233 C   0  0  0  0  0  0
   23.1511   52.8569   13.4000 C   0  0  0  0  0  0
   24.0932   52.3488   12.5138 C   0  0  0  0  0  0
   23.9484   51.0734   11.9825 C   0  0  0  0  0  0
   22.8949   50.2730   12.4054 C   0  0  0  0  0  0
   21.0239   50.0992   16.1761 O   0  0  0  0  0  0
   20.1218   48.8967    7.2278 C   0  0  0  0  0  0
   25.1802   53.0822   12.2000 F   0  0  0  0  0  0
   18.0757   48.5970   13.7442 H   0  0  0  0  0  0
   19.2195   47.2553   13.7478 H   0  0  0  0  0  0
   19.4284   47.0448   11.4369 H   0  0  0  0  0  0
   19.4823   46.9292    8.9825 H   0  0  0  0  0  0
   20.5230   51.0730    8.8235 H   0  0  0  0  0  0
   20.4287   51.2106   11.2588 H   0  0  0  0  0  0
   21.3827   52.4484   14.5359 H   0  0  0  0  0  0
   23.2699   53.8536   13.8000 H   0  0  0  0  0  0
   24.6766   50.6910   11.2833 H   0  0  0  0  0  0
   22.8101   49.2711   12.0095 H   0  0  0  0  0  0
   20.9230   49.4828    6.7878 H   0  0  0  0  0  0
   19.1798   49.2816    6.8346 H   0  0  0  0  0  0
   20.2542   47.8729    6.8770 H   0  0  0  0  0  0
  1  2  2  0  0  0
  1  5  1  0  0  0
  1 12  1  0  0  0
  2  3  1  0  0  0
  2  6  1  0  0  0
  3  4  1  0  0  0
  3 21  1  0  0  0
  3 22  1  0  0  0
  4  5  1  0  0  0
  5 18  2  0  0  0
  6  7  2  0  0  0
  6 11  1  0  0  0
  7  8  1  0  0  0
  7 23  1  0  0  0
  8  9  2  0  0  0
  8 24  1  0  0  0
  9 10  1  0  0  0
  9 19  1  0  0  0
 10 11  2  0  0  0
 10 25  1  0  0  0
 11 26  1  0  0  0
 12 13  2  0  0  0
 12 17  1  0  0  0
 13 14  1  0  0  0
 13 27  1  0  0  0
 14 15  2  0  0  0
 14 28  1  0  0  0
 15 16  1  0  0  0
 15 20  1  0  0  0
 16 17  2  0  0  0
 16 29  1  0  0  0
 17 30  1  0  0  0
 19 31  1  0  0  0
 19 32  1  0  0  0
 19 33  1  0  0  0
M  END
> <s_m_entry_id>
5185

> <s_m_entry_name>
dock_pv.176

> <s_m_Source_Path>
/home/csk/Desktop/cluster/DUD-E-result/pgh1

> <s_m_Source_File>
dock_pv.maegz

> <i_m_Source_File_Index>
176

> <chembl_id>
CHEMBL3357099

> <chembl_pref_name>
None

> <i_lp_mmshare_version>
53161

> <r_lp_tautomer_probability>
0.999841193423406

> <s_lp_Force_Field>
OPLS_2005

> <r_lp_Energy>
20.753844

> <b_lp_Chiralities_Consistent>
1

> <s_lp_Variant>
CHEMBL221_lig976-1

> <s_i_glide_gridfile>
glide-grid_2oyu

> <i_i_glide_lignum>
1213

> <i_i_glide_rotatable_bonds>
2

> <r_i_docking_score>
-8.9767864748779

> <r_i_glide_ligand_efficiency>
-0.448839323743895

> <r_i_glide_ligand_efficiency_sa>
-1.21833736617437

> <r_i_glide_ligand_efficiency_ln>
-2.24659358042863

> <r_i_glide_gscore>
-8.9767864748779

> <r_i_glide_lipo>
-4.31521192032216

> <r_i_glide_hbond>
0

> <r_i_glide_metal>
0

> <r_i_glide_rewards>
-3.21302712867084

> <r_i_glide_evdw>
-31.1104488372803

> <r_i_glide_ecoul>
-2.59305429458618

> <r_i_glide_erotb>
0.495933160167048

> <r_i_glide_esite>
0

> <r_i_glide_emodel>
-47.8056243891178

> <r_i_glide_energy>
-33.7035031318665

> <r_i_glide_einternal>
2.81656384468079

> <i_i_glide_confnum>
9

> <i_i_glide_posenum>
394

> <r_i_glide_eff_state_penalty>
0

> <s_user_duplicate_titles>
CHEMBL221_lig976

> <i_f3d_flags>
0

> <s_m_subgroup_title>
dock_pv

> <s_m_subgroupid>
dock_pv

> <b_m_subgroup_collapsed>
1

$$$$
CHEMBL221_lig214
                    3D
 Schrodinger Suite 2021-1.
 40 42  0  0  1  0            999 V2000
   20.7391   49.8730   12.9207 C   0  0  0  0  0  0
   20.6314   49.7412   14.3921 C   0  0  0  0  0  0
   19.9274   49.1133   12.0947 C   0  0  0  0  0  0
   19.9582   48.9020    5.9963 S   0  0  0  0  0  0
   18.8678   48.0731   13.9573 N   0  0  0  0  0  0
   19.6784   48.8214   14.7785 N   0  0  0  0  0  0
   18.9486   48.2179   12.6971 C   0  0  0  0  0  0
   19.9492   49.0310    7.7773 C   0  0  0  0  0  0
   19.9424   49.1194   10.5946 C   0  0  0  0  0  0
   20.1230   47.4874    5.7141 O   0  0  0  0  0  0
   20.8914   49.8730    5.4269 O   0  0  0  0  0  0
   21.3069   50.3805   15.2091 O   0  0  0  0  0  0
   21.8663   50.7489   12.4428 C   0  0  0  0  0  0
   20.1230   50.2433    8.4467 C   0  0  0  0  0  0
   19.7230   47.8728    8.5118 C   0  0  0  0  0  0
   20.1230   50.2863    9.8423 C   0  0  0  0  0  0
   19.7230   47.9241    9.8937 C   0  0  0  0  0  0
   18.2379   49.2833    5.4362 C   0  0  0  0  0  0
   19.4200   48.6649   16.2000 C   0  0  0  0  0  0
   22.1096   52.0175   13.0012 C   0  0  0  0  0  0
   22.7353   50.2978   11.4455 C   0  0  0  0  0  0
   23.8142   51.0730   11.0263 C   0  0  0  0  0  0
   23.2090   52.7779   12.6159 C   0  0  0  0  0  0
   24.0610   52.2985   11.6290 C   0  0  0  0  0  0
   18.2436   47.6400   12.1061 H   0  0  0  0  0  0
   20.2400   51.1556    7.8788 H   0  0  0  0  0  0
   19.5655   46.9243    8.0230 H   0  0  0  0  0  0
   20.2480   51.2387   10.3354 H   0  0  0  0  0  0
   19.5981   46.9998   10.4261 H   0  0  0  0  0  0
   18.2445   49.2230    4.3505 H   0  0  0  0  0  0
   17.9506   50.2681    5.8000 H   0  0  0  0  0  0
   17.5779   48.5072    5.8000 H   0  0  0  0  0  0
   18.7954   49.4730   16.5852 H   0  0  0  0  0  0
   18.9229   47.7205   16.4286 H   0  0  0  0  0  0
   20.3599   48.6731   16.7432 H   0  0  0  0  0  0
   21.4557   52.4169   13.7629 H   0  0  0  0  0  0
   22.5640   49.3309   10.9998 H   0  0  0  0  0  0
   24.4779   50.7091   10.2552 H   0  0  0  0  0  0
   23.3948   53.7362   13.0797 H   0  0  0  0  0  0
   24.9172   52.8806   11.3256 H   0  0  0  0  0  0
  1  2  1  0  0  0
  1  3  2  0  0  0
  1 13  1  0  0  0
  2  6  1  0  0  0
  2 12  2  0  0  0
  3  7  1  0  0  0
  3  9  1  0  0  0
  4  8  1  0  0  0
  4 10  2  0  0  0
  4 11  2  0  0  0
  4 18  1  0  0  0
  5  7  2  0  0  0
  5  6  1  0  0  0
  6 19  1  0  0  0
  7 25  1  0  0  0
  8 15  1  0  0  0
  8 14  2  0  0  0
  9 16  2  0  0  0
  9 17  1  0  0  0
 13 20  1  0  0  0
 13 21  2  0  0  0
 14 16  1  0  0  0
 14 26  1  0  0  0
 15 17  2  0  0  0
 15 27  1  0  0  0
 16 28  1  0  0  0
 17 29  1  0  0  0
 18 30  1  0  0  0
 18 31  1  0  0  0
 18 32  1  0  0  0
 19 33  1  0  0  0
 19 34  1  0  0  0
 19 35  1  0  0  0
 20 23  2  0  0  0
 20 36  1  0  0  0
 21 22  1  0  0  0
 21 37  1  0  0  0
 22 24  2  0  0  0
 22 38  1  0  0  0
 23 24  1  0  0  0
 23 39  1  0  0  0
 24 40  1  0  0  0
M  END
> <s_m_entry_id>
5186

> <s_m_entry_name>
dock_pv.177

> <s_m_Source_Path>
/home/csk/Desktop/cluster/DUD-E-result/pgh1

> <s_m_Source_File>
dock_pv.maegz

> <i_m_Source_File_Index>
177

> <chembl_id>
CHEMBL154907

> <chembl_pref_name>
None

> <i_lp_mmshare_version>
53161

> <r_lp_tautomer_probability>
1

> <s_lp_Force_Field>
OPLS_2005

> <r_lp_Energy>
39.386604

> <b_lp_Chiralities_Consistent>
1

> <s_lp_Variant>
CHEMBL221_lig214-1

> <s_i_glide_gridfile>
glide-grid_2oyu

> <i_i_glide_lignum>
242

> <i_i_glide_rotatable_bonds>
3

> <r_i_docking_score>
-8.96548046628379

> <r_i_glide_ligand_efficiency>
-0.373561686095158

> <r_i_glide_ligand_efficiency_sa>
-1.07753836136661

> <r_i_glide_ligand_efficiency_ln>
-2.14585087467319

> <r_i_glide_gscore>
-8.96548046628379

> <r_i_glide_lipo>
-4.54845936519003

> <r_i_glide_hbond>
0

> <r_i_glide_metal>
0

> <r_i_glide_rewards>
-2.70768222364899

> <r_i_glide_evdw>
-21.0480136871338

> <r_i_glide_ecoul>
-6.42621660232544

> <r_i_glide_erotb>
0.326862773436136

> <r_i_glide_esite>
-0.0198684761754039

> <r_i_glide_emodel>
-32.2578662424016

> <r_i_glide_energy>
-27.4742302894592

> <r_i_glide_einternal>
1.14029002189636

> <i_i_glide_confnum>
1

> <i_i_glide_posenum>
247

> <r_i_glide_eff_state_penalty>
0

> <s_user_duplicate_titles>
CHEMBL221_lig214

> <i_f3d_flags>
0

> <s_m_subgroup_title>
dock_pv

> <s_m_subgroupid>
dock_pv

> <b_m_subgroup_collapsed>
1

$$$$
CHEMBL221_lig257
                    3D
 Schrodinger Suite 2021-1.
 38 40  0  0  1  0            999 V2000
   20.5422   49.5936   13.2641 N   0  0  0  0  0  0
   20.0053   49.0093    6.2302 S   0  0  0  0  0  0
   19.8440   48.8938   12.3204 C   0  0  0  0  0  0
   20.1656   49.0735   14.5241 C   0  0  0  0  0  0
   21.5692   50.5572   13.0813 C   0  0  0  0  0  0
   19.1169   47.9899   12.9742 C   0  0  0  0  0  0
   19.2790   48.0927   14.2870 O   0  0  0  0  0  0
   22.4873   50.4467   12.0283 C   0  0  0  0  0  0
   20.0333   49.0567    8.0215 C   0  0  0  0  0  0
   23.4401   51.4394   11.8077 C   0  0  0  0  0  0
   19.9194   49.0298   10.8361 C   0  0  0  0  0  0
   20.9230   49.9953    5.6744 O   0  0  0  0  0  0
   20.1230   47.6155    5.8346 O   0  0  0  0  0  0
   20.5256   49.3689   15.6647 O   0  0  0  0  0  0
   18.4096   49.4731    5.8005 N   0  0  0  0  0  0
   21.6871   51.6503   13.9537 C   0  0  0  0  0  0
   23.5595   52.5230   12.6796 C   0  0  0  0  0  0
   19.7714   47.8726    8.7021 C   0  0  0  0  0  0
   20.1230   50.2515    8.7480 C   0  0  0  0  0  0
   19.7230   47.8728   10.0849 C   0  0  0  0  0  0
   20.1014   50.2373   10.1477 C   0  0  0  0  0  0
   22.6690   52.6191   13.7584 C   0  0  0  0  0  0
   24.4563   51.3403   10.4190 Cl  0  0  0  0  0  0
   24.5644   53.4284   12.4083 O   0  0  0  0  0  0
   24.8904   54.4375   13.3474 C   0  0  0  0  0  0
   18.4341   47.2157   12.6530 H   0  0  0  0  0  0
   22.4535   49.6045   11.3528 H   0  0  0  0  0  0
   18.2524   50.4802    5.9106 H   0  0  0  0  0  0
   18.1805   49.2283    4.8337 H   0  0  0  0  0  0
   21.0022   51.7734   14.7808 H   0  0  0  0  0  0
   19.6255   46.9438    8.1724 H   0  0  0  0  0  0
   20.2245   51.1857    8.2150 H   0  0  0  0  0  0
   19.5879   46.9354   10.5875 H   0  0  0  0  0  0
   20.1864   51.1691   10.6880 H   0  0  0  0  0  0
   22.7069   53.4494   14.4458 H   0  0  0  0  0  0
   25.6570   55.0764   12.9119 H   0  0  0  0  0  0
   25.3245   53.9877   14.2345 H   0  0  0  0  0  0
   24.0409   55.0665   13.6196 H   0  0  0  0  0  0
  1  3  1  0  0  0
  1  4  1  0  0  0
  1  5  1  0  0  0
  2  9  1  0  0  0
  2 12  2  0  0  0
  2 13  2  0  0  0
  2 15  1  0  0  0
  3  6  2  0  0  0
  3 11  1  0  0  0
  4  7  1  0  0  0
  4 14  2  0  0  0
  5  8  1  0  0  0
  5 16  2  0  0  0
  6  7  1  0  0  0
  6 26  1  0  0  0
  8 10  2  0  0  0
  8 27  1  0  0  0
  9 19  2  0  0  0
  9 18  1  0  0  0
 10 23  1  0  0  0
 10 17  1  0  0  0
 11 20  1  0  0  0
 11 21  2  0  0  0
 15 28  1  0  0  0
 15 29  1  0  0  0
 16 22  1  0  0  0
 16 30  1  0  0  0
 17 22  2  0  0  0
 17 24  1  0  0  0
 18 20  2  0  0  0
 18 31  1  0  0  0
 19 21  1  0  0  0
 19 32  1  0  0  0
 20 33  1  0  0  0
 21 34  1  0  0  0
 22 35  1  0  0  0
 24 25  1  0  0  0
 25 36  1  0  0  0
 25 37  1  0  0  0
 25 38  1  0  0  0
M  END
> <s_m_entry_id>
5187

> <s_m_entry_name>
dock_pv.178

> <s_m_Source_Path>
/home/csk/Desktop/cluster/DUD-E-result/pgh1

> <s_m_Source_File>
dock_pv.maegz

> <i_m_Source_File_Index>
178

> <chembl_id>
CHEMBL72515

> <chembl_pref_name>
None

> <i_lp_mmshare_version>
53161

> <r_lp_tautomer_probability>
1

> <s_lp_Force_Field>
OPLS_2005

> <r_lp_Energy>
41.130499

> <b_lp_Chiralities_Consistent>
1

> <s_lp_Variant>
CHEMBL221_lig257-1

> <s_i_glide_gridfile>
glide-grid_2oyu

> <i_i_glide_lignum>
290

> <i_i_glide_rotatable_bonds>
4

> <r_i_docking_score>
-8.9596242981314

> <r_i_glide_ligand_efficiency>
-0.358384971925256

> <r_i_glide_ligand_efficiency_sa>
-1.04792401389399

> <r_i_glide_ligand_efficiency_ln>
-2.12369945693088

> <r_i_glide_gscore>
-8.9596242981314

> <r_i_glide_lipo>
-4.20925778989061

> <r_i_glide_hbond>
-0.285010472457389

> <r_i_glide_metal>
0

> <r_i_glide_rewards>
-2.08233831580396

> <r_i_glide_evdw>
-29.0059013366699

> <r_i_glide_ecoul>
-7.50403738021851

> <r_i_glide_erotb>
0.267625497319286

> <r_i_glide_esite>
-0.0747425434324608

> <r_i_glide_emodel>
-47.5874010954883

> <r_i_glide_energy>
-36.5099387168884

> <r_i_glide_einternal>
3.83410668373108

> <i_i_glide_confnum>
16

> <i_i_glide_posenum>
130

> <r_i_glide_eff_state_penalty>
0

> <s_user_duplicate_titles>
CHEMBL221_lig257

> <i_f3d_flags>
0

> <s_m_subgroup_title>
dock_pv

> <s_m_subgroupid>
dock_pv

> <b_m_subgroup_collapsed>
1

$$$$
CHEMBL221_lig895
                    3D
 Schrodinger Suite 2021-1.
 30 32  0  0  1  0            999 V2000
   19.7230   48.4076   14.2572 N   0  0  0  0  0  0
   20.9626   50.2225   13.6673 C   0  0  0  0  0  0
   20.3941   49.4730   14.7817 C   0  0  0  0  0  0
   19.8450   48.4218   12.8615 C   0  0  0  0  0  0
   20.5382   49.5425   12.4614 C   0  0  0  0  0  0
   21.7510   51.3051   13.8634 C   0  0  0  0  0  0
   19.0091   47.4725   14.9622 C   0  0  0  0  0  0
   22.7879   51.8548   12.9777 C   0  0  0  0  0  0
   19.3230   47.5594   11.9000 C   0  0  0  0  0  0
   23.6217   50.8632   11.8000 S   0  0  0  0  0  0
   20.5230   49.7287   15.9838 O   0  0  0  0  0  0
   20.6377   49.8788   11.1055 C   0  0  0  0  0  0
   21.7244   52.0492   15.0000 O   0  0  0  0  0  0
   18.8696   46.3068   14.6000 O   0  0  0  0  0  0
   23.4030   53.1070   13.0477 C   0  0  0  0  0  0
   24.7112   52.1324   11.4000 C   0  0  0  0  0  0
   24.5229   53.2204   12.2255 C   0  0  0  0  0  0
   18.4094   47.8597   16.0951 N   0  0  0  0  0  0
   20.0816   49.0403   10.1452 C   0  0  0  0  0  0
   19.4358   47.8730   10.5436 C   0  0  0  0  0  0
   20.1230   49.4610    8.4728 Cl  0  0  0  0  0  0
   18.7880   46.6730   12.2000 H   0  0  0  0  0  0
   21.0906   50.8029   10.7820 H   0  0  0  0  0  0
   22.4661   52.6598   15.0000 H   0  0  0  0  0  0
   23.1032   53.8993   13.7195 H   0  0  0  0  0  0
   25.4738   51.9794   10.6486 H   0  0  0  0  0  0
   25.1441   54.1020   12.2005 H   0  0  0  0  0  0
   17.8419   47.2005   16.6046 H   0  0  0  0  0  0
   18.5704   48.7869   16.4630 H   0  0  0  0  0  0
   18.9950   47.2231    9.8021 H   0  0  0  0  0  0
  1  3  1  0  0  0
  1  4  1  0  0  0
  1  7  1  0  0  0
  2  3  1  0  0  0
  2  6  2  0  0  0
  2  5  1  0  0  0
  3 11  2  0  0  0
  4  5  2  0  0  0
  4  9  1  0  0  0
  5 12  1  0  0  0
  6  8  1  0  0  0
  6 13  1  0  0  0
  7 14  2  0  0  0
  7 18  1  0  0  0
  8 10  1  0  0  0
  8 15  2  0  0  0
  9 20  2  0  0  0
  9 22  1  0  0  0
 10 16  1  0  0  0
 12 19  2  0  0  0
 12 23  1  0  0  0
 13 24  1  0  0  0
 15 17  1  0  0  0
 15 25  1  0  0  0
 16 17  2  0  0  0
 16 26  1  0  0  0
 17 27  1  0  0  0
 18 28  1  0  0  0
 18 29  1  0  0  0
 19 20  1  0  0  0
 19 21  1  0  0  0
 20 30  1  0  0  0
M  END
> <s_m_entry_id>
5188

> <s_m_entry_name>
dock_pv.179

> <s_m_Source_Path>
/home/csk/Desktop/cluster/DUD-E-result/pgh1

> <s_m_Source_File>
dock_pv.maegz

> <i_m_Source_File_Index>
179

> <chembl_id>
CHEMBL1908355

> <chembl_pref_name>
TENIDAP

> <i_lp_mmshare_version>
53161

> <r_lp_tautomer_probability>
1

> <s_lp_Force_Field>
OPLS_2005

> <r_lp_Energy>
41.274881

> <b_lp_Chiralities_Consistent>
1

> <s_lp_Variant>
CHEMBL221_lig895-1

> <s_i_glide_gridfile>
glide-grid_2oyu

> <i_i_glide_lignum>
1102

> <i_i_glide_rotatable_bonds>
3

> <r_i_docking_score>
-8.94181078609715

> <r_i_glide_ligand_efficiency>
-0.425800513623674

> <r_i_glide_ligand_efficiency_sa>
-1.17475133015967

> <r_i_glide_ligand_efficiency_ln>
-2.21084464823251

> <r_i_glide_gscore>
-8.94181078609715

> <r_i_glide_lipo>
-3.90137161080047

> <r_i_glide_hbond>
0

> <r_i_glide_metal>
0

> <r_i_glide_rewards>
-2.88796930607249

> <r_i_glide_evdw>
-34.9600677490234

> <r_i_glide_ecoul>
-3.90670776367188

> <r_i_glide_erotb>
0.18153968277777

> <r_i_glide_esite>
0

> <r_i_glide_emodel>
-44.6425101751464

> <r_i_glide_energy>
-38.8667755126953

> <r_i_glide_einternal>
2.4265923500061

> <i_i_glide_confnum>
1

> <i_i_glide_posenum>
51

> <r_i_glide_eff_state_penalty>
0

> <s_user_duplicate_titles>
CHEMBL221_lig895

> <i_f3d_flags>
0

> <s_m_subgroup_title>
dock_pv

> <s_m_subgroupid>
dock_pv

> <b_m_subgroup_collapsed>
1

$$$$
CHEMBL221_lig363
                    3D
 Schrodinger Suite 2021-1.
 43 46  0  0  1  0            999 V2000
   20.4874   49.4541   13.2163 C   0  0  0  0  0  0
   19.7227   48.8269   12.2855 C   0  0  0  0  0  0
   19.9301   49.1281    6.2278 S   0  0  0  0  0  0
   18.8958   48.1748   14.4022 C   0  0  0  0  0  0
   18.6472   47.9613   12.9221 C   0  0  0  0  0  0
   20.1241   49.0371   14.6325 C   0  0  0  0  0  0
   19.9992   49.0630    8.0095 C   0  0  0  0  0  0
   19.8211   48.9561   10.8082 C   0  0  0  0  0  0
   21.6726   50.2831   12.9267 C   0  0  0  0  0  0
   17.7176   48.2740   15.3625 C   0  0  0  0  0  0
   18.5734   47.0517   15.3720 C   0  0  0  0  0  0
   20.1414   47.7934    5.7023 O   0  0  0  0  0  0
   20.7147   50.2650    5.7687 O   0  0  0  0  0  0
   19.7659   47.8493    8.6452 C   0  0  0  0  0  0
   20.1264   50.2302    8.7726 C   0  0  0  0  0  0
   19.7095   47.8055   10.0308 C   0  0  0  0  0  0
   20.0507   50.1783   10.1650 C   0  0  0  0  0  0
   22.5531   49.8739   11.9228 C   0  0  0  0  0  0
   21.9143   51.4833   13.6070 C   0  0  0  0  0  0
   18.1854   49.3610    5.8002 C   0  0  0  0  0  0
   23.8676   51.8311   12.2494 C   0  0  0  0  0  0
   23.6305   50.6597   11.5701 C   0  0  0  0  0  0
   23.0231   52.2625   13.2713 C   0  0  0  0  0  0
   25.2765   52.6725   11.8000 Cl  0  0  0  0  0  0
   17.6439   48.2723   12.6293 H   0  0  0  0  0  0
   18.7761   46.9134   12.6523 H   0  0  0  0  0  0
   19.9263   49.8744   15.2961 H   0  0  0  0  0  0
   20.9233   48.4511   15.0785 H   0  0  0  0  0  0
   17.7770   48.9690   16.1999 H   0  0  0  0  0  0
   16.7068   48.2098   14.9570 H   0  0  0  0  0  0
   18.1590   46.1202   14.9844 H   0  0  0  0  0  0
   19.2575   46.8786   16.1990 H   0  0  0  0  0  0
   19.6517   46.9418    8.0729 H   0  0  0  0  0  0
   20.2438   51.1788    8.2709 H   0  0  0  0  0  0
   19.6319   46.8477   10.5101 H   0  0  0  0  0  0
   20.1335   51.0929   10.7341 H   0  0  0  0  0  0
   22.4063   48.9416   11.4000 H   0  0  0  0  0  0
   21.2446   51.8185   14.3858 H   0  0  0  0  0  0
   18.1227   49.3427    4.7157 H   0  0  0  0  0  0
   17.7719   50.2728    6.2012 H   0  0  0  0  0  0
   17.7237   48.4682    6.1881 H   0  0  0  0  0  0
   24.3098   50.3423   10.7944 H   0  0  0  0  0  0
   23.2268   53.1834   13.7989 H   0  0  0  0  0  0
  1  2  2  0  0  0
  1  6  1  0  0  0
  1  9  1  0  0  0
  2  5  1  0  0  0
  2  8  1  0  0  0
  3  7  1  0  0  0
  3 12  2  0  0  0
  3 13  2  0  0  0
  3 20  1  0  0  0
  4  6  1  0  0  0
  4 10  1  0  0  0
  4 11  1  0  0  0
  4  5  1  0  0  0
  5 25  1  0  0  0
  5 26  1  0  0  0
  6 27  1  0  0  0
  6 28  1  0  0  0
  7 15  1  0  0  0
  7 14  2  0  0  0
  8 16  2  0  0  0
  8 17  1  0  0  0
  9 18  1  0  0  0
  9 19  2  0  0  0
 10 11  1  0  0  0
 10 29  1  0  0  0
 10 30  1  0  0  0
 11 31  1  0  0  0
 11 32  1  0  0  0
 14 16  1  0  0  0
 14 33  1  0  0  0
 15 17  2  0  0  0
 15 34  1  0  0  0
 16 35  1  0  0  0
 17 36  1  0  0  0
 18 22  2  0  0  0
 18 37  1  0  0  0
 19 23  1  0  0  0
 19 38  1  0  0  0
 20 39  1  0  0  0
 20 40  1  0  0  0
 20 41  1  0  0  0
 21 23  2  0  0  0
 21 24  1  0  0  0
 21 22  1  0  0  0
 22 42  1  0  0  0
 23 43  1  0  0  0
M  END
> <s_m_entry_id>
5189

> <s_m_entry_name>
dock_pv.180

> <s_m_Source_Path>
/home/csk/Desktop/cluster/DUD-E-result/pgh1

> <s_m_Source_File>
dock_pv.maegz

> <i_m_Source_File_Index>
180

> <chembl_id>
CHEMBL327384

> <chembl_pref_name>
None

> <i_lp_mmshare_version>
53161

> <r_lp_tautomer_probability>
1

> <s_lp_Force_Field>
OPLS_2005

> <r_lp_Energy>
34.262817

> <b_lp_Chiralities_Consistent>
1

> <s_lp_Variant>
CHEMBL221_lig363-1

> <s_i_glide_gridfile>
glide-grid_2oyu

> <i_i_glide_lignum>
429

> <i_i_glide_rotatable_bonds>
3

> <r_i_docking_score>
-8.93997553612633

> <r_i_glide_ligand_efficiency>
-0.37249898067193

> <r_i_glide_ligand_efficiency_sa>
-1.07447298848983

> <r_i_glide_ligand_efficiency_ln>
-2.13974637454152

> <r_i_glide_gscore>
-8.93997553612633

> <r_i_glide_lipo>
-5.36691608399127

> <r_i_glide_hbond>
0

> <r_i_glide_metal>
0

> <r_i_glide_rewards>
-2.27891825180601

> <r_i_glide_evdw>
-15.7203340530396

> <r_i_glide_ecoul>
-5.17704677581787

> <r_i_glide_erotb>
0.297538113205619

> <r_i_glide_esite>
-0.0291055945100147

> <r_i_glide_emodel>
-21.234306231006

> <r_i_glide_energy>
-20.8973808288574

> <r_i_glide_einternal>
1.09605228900909

> <i_i_glide_confnum>
1

> <i_i_glide_posenum>
395

> <r_i_glide_eff_state_penalty>
0

> <s_user_duplicate_titles>
CHEMBL221_lig363

> <i_f3d_flags>
0

> <s_m_subgroup_title>
dock_pv

> <s_m_subgroupid>
dock_pv

> <b_m_subgroup_collapsed>
1

$$$$
CHEMBL221_lig454
                    3D
 Schrodinger Suite 2021-1.
 38 40  0  0  1  0            999 V2000
   20.7900   49.8729   13.7818 C   0  0  0  0  0  0
   20.0604   48.7522    6.8360 S   0  0  0  0  0  0
   20.0745   49.0740   12.9529 C   0  0  0  0  0  0
   21.7797   50.9191   13.4055 C   0  0  0  0  0  0
   20.5230   49.5444   15.1851 C   0  0  0  0  0  0
   19.1828   48.1314   13.7407 C   0  0  0  0  0  0
   20.1230   48.9614    8.6446 C   0  0  0  0  0  0
   20.0198   49.1076   11.4625 C   0  0  0  0  0  0
   19.4388   47.4731    6.6024 O   0  0  0  0  0  0
   21.3230   49.0730    6.2000 O   0  0  0  0  0  0
   22.7668   50.6766   12.4387 C   0  0  0  0  0  0
   19.5163   48.4089   15.1984 C   0  0  0  0  0  0
   21.0141   50.1158   16.1574 O   0  0  0  0  0  0
   20.3253   50.1803    9.3009 C   0  0  0  0  0  0
   19.7230   47.8570    9.4046 C   0  0  0  0  0  0
   20.2714   50.2532   10.6926 C   0  0  0  0  0  0
   19.7198   47.9238   10.7906 C   0  0  0  0  0  0
   23.6297   51.6944   12.0329 C   0  0  0  0  0  0
   18.9036   49.8730    6.0589 C   0  0  0  0  0  0
   24.5184   51.4746   11.0428 F   0  0  0  0  0  0
   21.7144   52.1959   13.9835 C   0  0  0  0  0  0
   22.5984   53.2033   13.6032 C   0  0  0  0  0  0
   23.5601   52.9503   12.6283 C   0  0  0  0  0  0
   18.1275   48.3231   13.5380 H   0  0  0  0  0  0
   19.3720   47.0822   13.5152 H   0  0  0  0  0  0
   22.8447   49.7075   11.9667 H   0  0  0  0  0  0
   18.6316   48.7024   15.7640 H   0  0  0  0  0  0
   19.9510   47.5394   15.6910 H   0  0  0  0  0  0
   20.5231   51.0732    8.7257 H   0  0  0  0  0  0
   19.4758   46.9168    8.9348 H   0  0  0  0  0  0
   20.4378   51.2105   11.1628 H   0  0  0  0  0  0
   19.4810   47.0304   11.3402 H   0  0  0  0  0  0
   18.8632   49.6293    4.9992 H   0  0  0  0  0  0
   19.3311   50.8599    6.1971 H   0  0  0  0  0  0
   17.9229   49.7930    6.5133 H   0  0  0  0  0  0
   20.9661   52.4174   14.7317 H   0  0  0  0  0  0
   22.5414   54.1777   14.0677 H   0  0  0  0  0  0
   24.2447   53.7286   12.3256 H   0  0  0  0  0  0
  1  3  2  0  0  0
  1  4  1  0  0  0
  1  5  1  0  0  0
  2  7  1  0  0  0
  2  9  2  0  0  0
  2 10  2  0  0  0
  2 19  1  0  0  0
  3  6  1  0  0  0
  3  8  1  0  0  0
  4 11  1  0  0  0
  4 21  2  0  0  0
  5 12  1  0  0  0
  5 13  2  0  0  0
  6 12  1  0  0  0
  6 24  1  0  0  0
  6 25  1  0  0  0
  7 15  1  0  0  0
  7 14  2  0  0  0
  8 16  2  0  0  0
  8 17  1  0  0  0
 11 18  2  0  0  0
 11 26  1  0  0  0
 12 27  1  0  0  0
 12 28  1  0  0  0
 14 16  1  0  0  0
 14 29  1  0  0  0
 15 17  2  0  0  0
 15 30  1  0  0  0
 16 31  1  0  0  0
 17 32  1  0  0  0
 18 20  1  0  0  0
 18 23  1  0  0  0
 19 33  1  0  0  0
 19 34  1  0  0  0
 19 35  1  0  0  0
 21 22  1  0  0  0
 21 36  1  0  0  0
 22 23  2  0  0  0
 22 37  1  0  0  0
 23 38  1  0  0  0
M  END
> <s_m_entry_id>
5190

> <s_m_entry_name>
dock_pv.181

> <s_m_Source_Path>
/home/csk/Desktop/cluster/DUD-E-result/pgh1

> <s_m_Source_File>
dock_pv.maegz

> <i_m_Source_File_Index>
181

> <chembl_id>
CHEMBL23245

> <chembl_pref_name>
None

> <i_lp_mmshare_version>
53161

> <r_lp_tautomer_probability>
0.499977396165832

> <s_lp_Force_Field>
OPLS_2005

> <r_lp_Energy>
20.507722

> <b_lp_Chiralities_Consistent>
1

> <s_lp_Variant>
CHEMBL221_lig454-1

> <s_i_glide_gridfile>
glide-grid_2oyu

> <i_i_glide_lignum>
545

> <i_i_glide_rotatable_bonds>
3

> <r_i_docking_score>
-8.93375568949169

> <r_i_glide_ligand_efficiency>
-0.388424160412682

> <r_i_glide_ligand_efficiency_sa>
-1.10462664281968

> <r_i_glide_ligand_efficiency_ln>
-2.16026313253699

> <r_i_glide_gscore>
-8.93375568949169

> <r_i_glide_lipo>
-4.39011168965579

> <r_i_glide_hbond>
0

> <r_i_glide_metal>
0

> <r_i_glide_rewards>
-3.08674184430615

> <r_i_glide_evdw>
-21.9642086029053

> <r_i_glide_ecoul>
-4.68876075744629

> <r_i_glide_erotb>
0.344622388232458

> <r_i_glide_esite>
0

> <r_i_glide_emodel>
-32.6969150599666

> <r_i_glide_energy>
-26.6529693603516

> <r_i_glide_einternal>
0.836233019828796

> <i_i_glide_confnum>
7

> <i_i_glide_posenum>
399

> <r_i_glide_eff_state_penalty>
0

> <s_user_duplicate_titles>
CHEMBL221_lig454

> <i_f3d_flags>
0

> <s_m_subgroup_title>
dock_pv

> <s_m_subgroupid>
dock_pv

> <b_m_subgroup_collapsed>
1

$$$$
CHEMBL221_lig750
                    3D
 Schrodinger Suite 2021-1.
 46 48  0  0  1  0            999 V2000
   19.1876   47.8950   12.3938 C   0  0  0  0  0  0
   19.9222   48.7906   11.5974 C   0  0  0  0  0  0
   20.6481   49.7837   12.1650 N   0  0  0  0  0  0
   20.6581   49.8729   13.5164 C   0  0  0  0  0  0
   20.0022   49.0402   14.3571 N   0  0  0  0  0  0
   19.2340   48.0735   13.7862 C   0  0  0  0  0  0
   19.9235   48.7826   10.1023 C   0  0  0  0  0  0
   20.1230   49.9586    9.3629 C   0  0  0  0  0  0
   20.1230   49.9323    7.9665 C   0  0  0  0  0  0
   19.9264   48.7399    7.2799 C   0  0  0  0  0  0
   19.7108   47.5801    8.0041 C   0  0  0  0  0  0
   19.7229   47.5974    9.3933 C   0  0  0  0  0  0
   18.3501   47.2569   14.7324 C   0  0  0  0  0  0
   17.0701   47.4730   14.4298 F   0  0  0  0  0  0
   18.6084   45.9568   14.5991 F   0  0  0  0  0  0
   18.5230   47.5791   16.0167 F   0  0  0  0  0  0
   21.3230   50.9421   14.1179 N   0  0  0  0  0  0
   19.9447   48.7096    5.4874 S   0  0  0  0  0  0
   18.2792   48.6730    5.0000 N   0  0  0  0  0  0
   20.5647   49.9295    5.0106 O   0  0  0  0  0  0
   20.5230   47.4730    4.9998 O   0  0  0  0  0  0
   21.9508   52.0026   13.3329 C   0  0  0  0  0  0
   21.9318   53.2711   14.2002 C   0  0  0  0  0  0
   22.9040   54.3816   13.7690 C   0  0  0  0  0  0
   24.2887   53.8730   13.3012 C   0  0  0  0  0  0
   24.1779   52.6995   12.3134 C   0  0  0  0  0  0
   23.3639   51.5512   12.9274 C   0  0  0  0  0  0
   18.5598   47.1333   11.9562 H   0  0  0  0  0  0
   20.2645   50.9068    9.8609 H   0  0  0  0  0  0
   20.2422   50.8575    7.4188 H   0  0  0  0  0  0
   19.5330   46.6730    7.4788 H   0  0  0  0  0  0
   19.5956   46.6731    9.9228 H   0  0  0  0  0  0
   21.4740   50.9169   15.1148 H   0  0  0  0  0  0
   17.8805   49.6202    4.9800 H   0  0  0  0  0  0
   18.2017   48.2965    4.0462 H   0  0  0  0  0  0
   21.3752   52.1699   12.4239 H   0  0  0  0  0  0
   20.9230   53.6762   14.1804 H   0  0  0  0  0  0
   22.1228   53.0252   15.2434 H   0  0  0  0  0  0
   22.4299   54.9813   13.0000 H   0  0  0  0  0  0
   23.0424   55.0730   14.6000 H   0  0  0  0  0  0
   24.8506   54.6922   12.8511 H   0  0  0  0  0  0
   24.8808   53.5548   14.1594 H   0  0  0  0  0  0
   23.7072   53.0360   11.3882 H   0  0  0  0  0  0
   25.1726   52.3493   12.0362 H   0  0  0  0  0  0
   23.8848   51.1658   13.8002 H   0  0  0  0  0  0
   23.3099   50.7264   12.2151 H   0  0  0  0  0  0
  1  2  2  0  0  0
  1  6  1  0  0  0
  1 28  1  0  0  0
  2  7  1  0  0  0
  2  3  1  0  0  0
  3  4  2  0  0  0
  4 17  1  0  0  0
  4  5  1  0  0  0
  5  6  2  0  0  0
  6 13  1  0  0  0
  7  8  2  0  0  0
  7 12  1  0  0  0
  8  9  1  0  0  0
  8 29  1  0  0  0
  9 10  2  0  0  0
  9 30  1  0  0  0
 10 18  1  0  0  0
 10 11  1  0  0  0
 11 12  2  0  0  0
 11 31  1  0  0  0
 12 32  1  0  0  0
 13 14  1  0  0  0
 13 15  1  0  0  0
 13 16  1  0  0  0
 17 22  1  0  0  0
 17 33  1  0  0  0
 18 19  1  0  0  0
 18 20  2  0  0  0
 18 21  2  0  0  0
 19 34  1  0  0  0
 19 35  1  0  0  0
 22 23  1  0  0  0
 22 27  1  0  0  0
 22 36  1  0  0  0
 23 24  1  0  0  0
 23 37  1  0  0  0
 23 38  1  0  0  0
 24 25  1  0  0  0
 24 39  1  0  0  0
 24 40  1  0  0  0
 25 26  1  0  0  0
 25 41  1  0  0  0
 25 42  1  0  0  0
 26 27  1  0  0  0
 26 43  1  0  0  0
 26 44  1  0  0  0
 27 45  1  0  0  0
 27 46  1  0  0  0
M  END
> <s_m_entry_id>
5191

> <s_m_entry_name>
dock_pv.182

> <s_m_Source_Path>
/home/csk/Desktop/cluster/DUD-E-result/pgh1

> <s_m_Source_File>
dock_pv.maegz

> <i_m_Source_File_Index>
182

> <chembl_id>
CHEMBL561609

> <chembl_pref_name>
None

> <i_lp_mmshare_version>
53161

> <r_lp_tautomer_probability>
0.999999987636

> <s_lp_Force_Field>
OPLS_2005

> <r_lp_Energy>
12.821527

> <b_lp_Chiralities_Consistent>
1

> <s_lp_Variant>
CHEMBL221_lig750-1

> <s_i_glide_gridfile>
glide-grid_2oyu

> <i_i_glide_lignum>
919

> <i_i_glide_rotatable_bonds>
5

> <r_i_docking_score>
-8.91601684734546

> <r_i_glide_ligand_efficiency>
-0.33022284619798

> <r_i_glide_ligand_efficiency_sa>
-0.99066853750558

> <r_i_glide_ligand_efficiency_ln>
-2.07550173003624

> <r_i_glide_gscore>
-8.91601684734546

> <r_i_glide_lipo>
-3.77712541579738

> <r_i_glide_hbond>
-0.599786225612916

> <r_i_glide_metal>
0

> <r_i_glide_rewards>
-2.86662460415757

> <r_i_glide_evdw>
-18.2804336547852

> <r_i_glide_ecoul>
-6.74737977981567

> <r_i_glide_erotb>
0.366807123099528

> <r_i_glide_esite>
-0.113159075165513

> <r_i_glide_emodel>
-30.4613097199163

> <r_i_glide_energy>
-25.0278134346008

> <r_i_glide_einternal>
1.73170447349548

> <i_i_glide_confnum>
9

> <i_i_glide_posenum>
269

> <r_i_glide_eff_state_penalty>
0

> <s_user_duplicate_titles>
CHEMBL221_lig750,559361

> <i_f3d_flags>
0

> <s_m_subgroup_title>
dock_pv

> <s_m_subgroupid>
dock_pv

> <b_m_subgroup_collapsed>
1

$$$$
CHEMBL221_lig1056 
                    3D
 Schrodinger Suite 2021-1.
 42 44  0  0  1  0            999 V2000
   20.8418   50.0998    5.3030 O   0  0  0  0  0  0
   20.0678   48.8958    5.5819 S   0  0  0  0  0  0
   20.5230   47.6390    5.0000 O   0  0  0  0  0  0
   19.3308   47.5251    9.3367 C   0  0  0  0  0  0
   19.4002   47.5991    7.9529 C   0  0  0  0  0  0
   19.8590   48.7656    7.3593 C   0  0  0  0  0  0
   20.1230   49.8730    8.1661 C   0  0  0  0  0  0
   20.1230   49.7701    9.5610 C   0  0  0  0  0  0
   19.7230   48.5718   10.1662 C   0  0  0  0  0  0
   19.5712   48.4308   11.5842 N   0  0  0  0  0  0
   20.3239   48.9460   12.6039 C   0  0  0  0  0  0
   19.7133   48.6013   13.8084 C   0  0  0  0  0  0
   18.6041   47.8730   13.4154 C   0  0  0  0  0  0
   18.5230   47.7836   12.1144 N   0  0  0  0  0  0
   20.1230   48.9715   15.1460 C   0  0  0  0  0  0
   20.4590   49.2866   16.2000 N   0  0  0  0  0  0
   21.4158   49.6680   12.3272 N   0  0  0  0  0  0
   21.3673   50.8563   12.7494 C   0  0  0  0  0  0
   22.4689   51.7343   12.5726 C   0  0  0  0  0  0
   18.4568   49.0730    5.0000 N   0  0  0  0  0  0
   23.4741   51.4269   11.6515 C   0  0  0  0  0  0
   24.6287   52.1640   11.6585 C   0  0  0  0  0  0
   24.7668   53.1859   12.5780 C   0  0  0  0  0  0
   23.7124   53.5871   13.4000 C   0  0  0  0  0  0
   22.5504   52.8498   13.4000 C   0  0  0  0  0  0
   25.9928   53.7523   12.6000 O   0  0  0  0  0  0
   26.0665   55.0730   13.0000 C   0  0  0  0  0  0
   18.9230   46.6730    9.7971 H   0  0  0  0  0  0
   19.0544   46.7743    7.3609 H   0  0  0  0  0  0
   20.3760   50.8205    7.7103 H   0  0  0  0  0  0
   20.3589   50.6471   10.1430 H   0  0  0  0  0  0
   17.8544   47.4400   14.0630 H   0  0  0  0  0  0
   20.5230   51.2752   13.2894 H   0  0  0  0  0  0
   18.1559   50.0510    4.8654 H   0  0  0  0  0  0
   18.3308   48.5708    4.1138 H   0  0  0  0  0  0
   23.4035   50.5812   10.9811 H   0  0  0  0  0  0
   25.4440   51.8989   11.0000 H   0  0  0  0  0  0
   23.8053   54.4153   14.0876 H   0  0  0  0  0  0
   21.7660   53.1090   14.0987 H   0  0  0  0  0  0
   26.9622   55.5129   12.6000 H   0  0  0  0  0  0
   25.2422   55.6629   12.6000 H   0  0  0  0  0  0
   26.0919   55.0730   14.0846 H   0  0  0  0  0  0
  1  2  2  0  0  0
  2  3  2  0  0  0
  2  6  1  0  0  0
  2 20  1  0  0  0
  4  5  2  0  0  0
  4  9  1  0  0  0
  4 28  1  0  0  0
  5  6  1  0  0  0
  5 29  1  0  0  0
  6  7  2  0  0  0
  7  8  1  0  0  0
  7 30  1  0  0  0
  8  9  2  0  0  0
  8 31  1  0  0  0
  9 10  1  0  0  0
 10 11  1  0  0  0
 10 14  1  0  0  0
 11 12  2  0  0  0
 11 17  1  0  0  0
 12 13  1  0  0  0
 12 15  1  0  0  0
 13 14  2  0  0  0
 13 32  1  0  0  0
 15 16  3  0  0  0
 17 18  2  0  0  0
 18 19  1  0  0  0
 18 33  1  0  0  0
 19 21  2  0  0  0
 19 25  1  0  0  0
 20 34  1  0  0  0
 20 35  1  0  0  0
 21 22  1  0  0  0
 21 36  1  0  0  0
 22 23  2  0  0  0
 22 37  1  0  0  0
 23 24  1  0  0  0
 23 26  1  0  0  0
 24 25  2  0  0  0
 24 38  1  0  0  0
 25 39  1  0  0  0
 26 27  1  0  0  0
 27 40  1  0  0  0
 27 41  1  0  0  0
 27 42  1  0  0  0
M  END
> <s_m_entry_id>
5192

> <s_m_entry_name>
dock_pv.183

> <s_m_Source_Path>
/home/csk/Desktop/cluster/DUD-E-result/pgh1

> <s_m_Source_File>
dock_pv.maegz

> <i_m_Source_File_Index>
183

> <chembl_id>
CHEMBL4588711

> <chembl_pref_name>
None

> <i_lp_mmshare_version>
53161

> <r_lp_tautomer_probability>
1

> <s_lp_Force_Field>
OPLS_2005

> <r_lp_Energy>
30.782556

> <b_lp_Chiralities_Consistent>
1

> <s_lp_Variant>
CHEMBL221_lig1056 -1

> <s_i_glide_gridfile>
glide-grid_2oyu

> <i_i_glide_lignum>
1314

> <i_i_glide_rotatable_bonds>
5

> <r_i_docking_score>
-8.90864529157782

> <r_i_glide_ligand_efficiency>
-0.329949825613993

> <r_i_glide_ligand_efficiency_sa>
-0.98984947575452

> <r_i_glide_ligand_efficiency_ln>
-2.07378575338313

> <r_i_glide_gscore>
-8.90864529157782

> <r_i_glide_lipo>
-3.99808042414061

> <r_i_glide_hbond>
-0.6001785384517

> <r_i_glide_metal>
0

> <r_i_glide_rewards>
-2.90991177444065

> <r_i_glide_evdw>
-7.10104084014893

> <r_i_glide_ecoul>
-9.14609909057617

> <r_i_glide_erotb>
0.400296120207645

> <r_i_glide_esite>
-0.0738037691586425

> <r_i_glide_emodel>
-26.7561147706233

> <r_i_glide_energy>
-16.2471399307251

> <r_i_glide_einternal>
2.14549612998962

> <i_i_glide_confnum>
17

> <i_i_glide_posenum>
272

> <r_i_glide_eff_state_penalty>
0

> <s_user_duplicate_titles>
CHEMBL221_lig1056 

> <i_f3d_flags>
0

> <s_m_subgroup_title>
dock_pv

> <s_m_subgroupid>
dock_pv

> <b_m_subgroup_collapsed>
1

$$$$
CHEMBL221_lig724
                    3D
 Schrodinger Suite 2021-1.
 34 35  0  0  1  0            999 V2000
   21.2418   50.1693   12.7809 C   0  0  0  0  0  0
   20.9227   49.6754   14.0048 C   0  0  0  0  0  0
   22.2100   51.2827   12.6998 C   0  0  0  0  0  0
   19.9978   48.5814   14.3555 C   0  0  0  0  0  0
   23.3357   51.2289   11.8661 C   0  0  0  0  0  0
   24.2305   52.2988   11.8259 C   0  0  0  0  0  0
   24.0175   53.4180   12.6281 C   0  0  0  0  0  0
   22.8791   53.4941   13.4257 C   0  0  0  0  0  0
   21.9920   52.4266   13.4720 C   0  0  0  0  0  0
   19.2243   48.6732   15.5184 C   0  0  0  0  0  0
   18.9424   46.4592   13.8825 C   0  0  0  0  0  0
   19.8670   47.4451   13.5575 C   0  0  0  0  0  0
   18.1211   46.5986   14.9993 C   0  0  0  0  0  0
   18.2606   47.7152   15.8181 C   0  0  0  0  0  0
   20.6188   49.7090   11.4552 C   0  0  0  0  0  0
   20.1526   50.8302   10.5115 C   0  0  0  0  0  0
   22.6266   54.5931   14.1999 O   0  0  0  0  0  0
   25.3219   52.2724   10.9995 O   0  0  0  0  0  0
   17.4707   47.8735   16.9030 F   0  0  0  0  0  0
   21.4180   50.1080   14.8591 H   0  0  0  0  0  0
   23.5119   50.3572   11.2537 H   0  0  0  0  0  0
   24.7149   54.2430   12.6025 H   0  0  0  0  0  0
   21.1179   52.5054   14.1001 H   0  0  0  0  0  0
   19.3302   49.5134   16.1860 H   0  0  0  0  0  0
   18.9179   45.5745   13.2634 H   0  0  0  0  0  0
   20.4908   47.3058   12.6867 H   0  0  0  0  0  0
   17.3884   45.8395   15.2341 H   0  0  0  0  0  0
   21.3423   49.0757   10.9385 H   0  0  0  0  0  0
   19.7390   49.0939   11.6318 H   0  0  0  0  0  0
   19.7245   50.4152    9.5973 H   0  0  0  0  0  0
   19.3895   51.4557   10.9775 H   0  0  0  0  0  0
   20.9759   51.4726   10.2064 H   0  0  0  0  0  0
   23.1395   54.5494   15.0228 H   0  0  0  0  0  0
   25.4998   51.4110   10.6005 H   0  0  0  0  0  0
  1  3  1  0  0  0
  1  2  2  0  0  0
  1 15  1  0  0  0
  2  4  1  0  0  0
  2 20  1  0  0  0
  3  5  2  0  0  0
  3  9  1  0  0  0
  4 10  2  0  0  0
  4 12  1  0  0  0
  5  6  1  0  0  0
  5 21  1  0  0  0
  6  7  2  0  0  0
  6 18  1  0  0  0
  7  8  1  0  0  0
  7 22  1  0  0  0
  8 17  1  0  0  0
  8  9  2  0  0  0
  9 23  1  0  0  0
 10 14  1  0  0  0
 10 24  1  0  0  0
 11 13  1  0  0  0
 11 12  2  0  0  0
 11 25  1  0  0  0
 12 26  1  0  0  0
 13 14  2  0  0  0
 13 27  1  0  0  0
 14 19  1  0  0  0
 15 16  1  0  0  0
 15 28  1  0  0  0
 15 29  1  0  0  0
 16 30  1  0  0  0
 16 31  1  0  0  0
 16 32  1  0  0  0
 17 33  1  0  0  0
 18 34  1  0  0  0
M  END
> <s_m_entry_id>
5193

> <s_m_entry_name>
dock_pv.184

> <s_m_Source_Path>
/home/csk/Desktop/cluster/DUD-E-result/pgh1

> <s_m_Source_File>
dock_pv.maegz

> <i_m_Source_File_Index>
184

> <chembl_id>
CHEMBL489283

> <chembl_pref_name>
None

> <i_lp_mmshare_version>
53161

> <r_lp_tautomer_probability>
1

> <s_lp_Force_Field>
OPLS_2005

> <r_lp_Energy>
19.303248

> <b_lp_Chiralities_Consistent>
1

> <s_lp_Variant>
CHEMBL221_lig724-1

> <s_i_glide_gridfile>
glide-grid_2oyu

> <i_i_glide_lignum>
893

> <i_i_glide_rotatable_bonds>
5

> <r_i_docking_score>
-8.87827615876258

> <r_i_glide_ligand_efficiency>
-0.467277692566452

> <r_i_glide_ligand_efficiency_sa>
-1.24688456403151

> <r_i_glide_ligand_efficiency_ln>
-2.25083369413381

> <r_i_glide_gscore>
-8.87827615876258

> <r_i_glide_lipo>
-3.77851949985955

> <r_i_glide_hbond>
-0.608

> <r_i_glide_metal>
0

> <r_i_glide_rewards>
-2.69976131730963

> <r_i_glide_evdw>
-28.7832145690918

> <r_i_glide_ecoul>
-7.64717054367065

> <r_i_glide_erotb>
0.794240968411792

> <r_i_glide_esite>
0

> <r_i_glide_emodel>
-47.5319886722494

> <r_i_glide_energy>
-36.4303851127625

> <r_i_glide_einternal>
11.4851446151733

> <i_i_glide_confnum>
20

> <i_i_glide_posenum>
225

> <r_i_glide_eff_state_penalty>
0

> <s_user_duplicate_titles>
CHEMBL221_lig724

> <i_f3d_flags>
0

> <s_m_subgroup_title>
dock_pv

> <s_m_subgroupid>
dock_pv

> <b_m_subgroup_collapsed>
1

$$$$
CHEMBL221_lig940
                    3D
 Schrodinger Suite 2021-1.
 39 41  0  0  1  0            999 V2000
   19.9867   49.0996   10.5595 C   0  0  0  0  0  0
   21.8515   50.8012   12.8183 C   0  0  0  0  0  0
   20.0437   49.0812   12.0460 C   0  0  0  0  0  0
   20.7902   49.7726   13.0092 C   0  0  0  0  0  0
   20.4833   49.3676   14.2382 N   0  0  0  0  0  0
   19.5672   48.4421   14.1054 C   0  0  0  0  0  0
   19.2614   48.2410   12.7933 N   0  0  0  0  0  0
   18.8878   47.5155   15.4289 S   0  0  0  0  0  0
   17.1339   47.7292   15.0184 C   0  0  0  0  0  0
   20.1752   50.2652    9.8165 C   0  0  0  0  0  0
   20.1230   50.2131    8.4228 C   0  0  0  0  0  0
   19.9111   48.9972    7.7683 C   0  0  0  0  0  0
   19.7132   47.8390    8.5164 C   0  0  0  0  0  0
   19.7230   47.9001    9.9001 C   0  0  0  0  0  0
   22.8330   50.6311   11.8371 C   0  0  0  0  0  0
   23.8802   51.5430   11.7315 C   0  0  0  0  0  0
   23.9344   52.6304   12.6000 C   0  0  0  0  0  0
   22.9275   52.8385   13.5369 C   0  0  0  0  0  0
   21.8943   51.9174   13.6588 C   0  0  0  0  0  0
   19.8728   48.8691    5.9875 S   0  0  0  0  0  0
   18.1202   49.1228    5.4291 C   0  0  0  0  0  0
   20.1230   47.4730    5.7100 O   0  0  0  0  0  0
   20.7526   49.8730    5.4000 O   0  0  0  0  0  0
   24.9871   53.4751   12.5597 F   0  0  0  0  0  0
   18.5921   47.5747   12.4354 H   0  0  0  0  0  0
   16.5231   47.4882   15.8876 H   0  0  0  0  0  0
   16.9231   48.7572   14.7289 H   0  0  0  0  0  0
   16.8417   47.0730   14.2001 H   0  0  0  0  0  0
   20.3511   51.2076   10.3141 H   0  0  0  0  0  0
   20.2351   51.1194    7.8445 H   0  0  0  0  0  0
   19.5369   46.8905    8.0341 H   0  0  0  0  0  0
   19.5851   46.9988   10.4671 H   0  0  0  0  0  0
   22.8059   49.7724   11.1839 H   0  0  0  0  0  0
   24.6618   51.3930   11.0002 H   0  0  0  0  0  0
   22.9733   53.6904   14.2000 H   0  0  0  0  0  0
   21.1380   52.0652   14.4164 H   0  0  0  0  0  0
   18.1074   49.0730    4.3408 H   0  0  0  0  0  0
   17.7532   50.0766    5.8001 H   0  0  0  0  0  0
   17.5268   48.2969    5.7999 H   0  0  0  0  0  0
  1  3  1  0  0  0
  1 10  2  0  0  0
  1 14  1  0  0  0
  2  4  1  0  0  0
  2 15  2  0  0  0
  2 19  1  0  0  0
  3  4  2  0  0  0
  3  7  1  0  0  0
  4  5  1  0  0  0
  5  6  2  0  0  0
  6  7  1  0  0  0
  6  8  1  0  0  0
  7 25  1  0  0  0
  8  9  1  0  0  0
  9 26  1  0  0  0
  9 27  1  0  0  0
  9 28  1  0  0  0
 10 11  1  0  0  0
 10 29  1  0  0  0
 11 12  2  0  0  0
 11 30  1  0  0  0
 12 13  1  0  0  0
 12 20  1  0  0  0
 13 14  2  0  0  0
 13 31  1  0  0  0
 14 32  1  0  0  0
 15 16  1  0  0  0
 15 33  1  0  0  0
 16 17  2  0  0  0
 16 34  1  0  0  0
 17 18  1  0  0  0
 17 24  1  0  0  0
 18 19  2  0  0  0
 18 35  1  0  0  0
 19 36  1  0  0  0
 20 21  1  0  0  0
 20 22  2  0  0  0
 20 23  2  0  0  0
 21 37  1  0  0  0
 21 38  1  0  0  0
 21 39  1  0  0  0
M  END
> <s_m_entry_id>
5194

> <s_m_entry_name>
dock_pv.185

> <s_m_Source_Path>
/home/csk/Desktop/cluster/DUD-E-result/pgh1

> <s_m_Source_File>
dock_pv.maegz

> <i_m_Source_File_Index>
185

> <chembl_id>
CHEMBL2347667

> <chembl_pref_name>
None

> <i_lp_mmshare_version>
53161

> <r_lp_tautomer_probability>
0.999999999976373

> <s_lp_Force_Field>
OPLS_2005

> <r_lp_Energy>
9.119183

> <b_lp_Chiralities_Consistent>
1

> <s_lp_Variant>
CHEMBL221_lig940-1

> <s_i_glide_gridfile>
glide-grid_2oyu

> <i_i_glide_lignum>
1168

> <i_i_glide_rotatable_bonds>
4

> <r_i_docking_score>
-8.87799117948457

> <r_i_glide_ligand_efficiency>
-0.36991629914519

> <r_i_glide_ligand_efficiency_sa>
-1.06702324585336

> <r_i_glide_ligand_efficiency_ln>
-2.12491067372036

> <r_i_glide_gscore>
-8.87799117948457

> <r_i_glide_lipo>
-4.2001916783241

> <r_i_glide_hbond>
0

> <r_i_glide_metal>
0

> <r_i_glide_rewards>
-2.48003021571022

> <r_i_glide_evdw>
-28.3080234527588

> <r_i_glide_ecoul>
-7.03491926193237

> <r_i_glide_erotb>
0.292345803970096

> <r_i_glide_esite>
-0.019476027492549

> <r_i_glide_emodel>
-45.9893459916268

> <r_i_glide_energy>
-35.3429427146912

> <r_i_glide_einternal>
2.54637980461121

> <i_i_glide_confnum>
7

> <i_i_glide_posenum>
146

> <r_i_glide_eff_state_penalty>
0

> <s_user_duplicate_titles>
CHEMBL221_lig940

> <i_f3d_flags>
0

> <s_m_subgroup_title>
dock_pv

> <s_m_subgroupid>
dock_pv

> <b_m_subgroup_collapsed>
1

$$$$
CHEMBL221_lig67
                    3D
 Schrodinger Suite 2021-1.
 41 43  0  0  1  0            999 V2000
   20.0276   49.2757   12.2826 N   0  0  0  0  0  0
   20.9229   49.9733   13.0833 C   0  0  0  0  0  0
   19.9800   48.8888    6.2899 S   0  0  0  0  0  0
   19.2372   48.5965   13.1795 C   0  0  0  0  0  0
   19.5563   48.7987   14.4309 N   0  0  0  0  0  0
   20.5656   49.6531   14.3991 C   0  0  0  0  0  0
   19.9494   49.2018   10.8698 C   0  0  0  0  0  0
   19.9676   49.0106    8.0768 C   0  0  0  0  0  0
   22.0708   50.8063   12.5991 C   0  0  0  0  0  0
   20.9230   49.8648    5.7418 O   0  0  0  0  0  0
   20.1230   47.4730    5.9990 O   0  0  0  0  0  0
   19.7230   47.8730    8.8554 C   0  0  0  0  0  0
   20.1230   50.2498    8.7017 C   0  0  0  0  0  0
   19.7230   47.9700   10.2468 C   0  0  0  0  0  0
   20.1230   50.3484   10.0899 C   0  0  0  0  0  0
   22.8234   50.3425   11.5210 C   0  0  0  0  0  0
   22.4480   51.9953   13.2375 C   0  0  0  0  0  0
   18.2825   49.3142    5.6822 C   0  0  0  0  0  0
   24.3713   52.1463   11.8000 C   0  0  0  0  0  0
   23.9434   51.0371   11.0969 C   0  0  0  0  0  0
   23.6151   52.6562   12.8530 C   0  0  0  0  0  0
   25.5662   52.6730   11.4761 F   0  0  0  0  0  0
   21.2505   50.0739   15.6878 C   0  0  0  0  0  0
   20.4266   50.9529   16.6306 C   0  0  0  0  0  0
   18.4402   47.9598   12.8238 H   0  0  0  0  0  0
   19.5623   46.9130    8.3879 H   0  0  0  0  0  0
   20.2442   51.1392    8.0999 H   0  0  0  0  0  0
   19.5768   47.0753   10.8345 H   0  0  0  0  0  0
   20.2627   51.3157   10.5516 H   0  0  0  0  0  0
   22.5492   49.4314   11.0125 H   0  0  0  0  0  0
   21.8668   52.3867   14.0594 H   0  0  0  0  0  0
   18.3902   49.4730    4.6133 H   0  0  0  0  0  0
   17.6400   48.4498    5.8000 H   0  0  0  0  0  0
   17.9018   50.1936    6.1959 H   0  0  0  0  0  0
   24.5222   50.6730   10.2635 H   0  0  0  0  0  0
   23.9458   53.5363   13.3852 H   0  0  0  0  0  0
   21.6154   49.1867   16.2000 H   0  0  0  0  0  0
   22.1230   50.6730   15.4651 H   0  0  0  0  0  0
   21.0162   51.2405   17.5004 H   0  0  0  0  0  0
   20.1230   51.8730   16.1351 H   0  0  0  0  0  0
   19.5340   50.4514   17.0000 H   0  0  0  0  0  0
  1  2  1  0  0  0
  1  4  1  0  0  0
  1  7  1  0  0  0
  2  6  2  0  0  0
  2  9  1  0  0  0
  3  8  1  0  0  0
  3 10  2  0  0  0
  3 11  2  0  0  0
  3 18  1  0  0  0
  4  5  2  0  0  0
  4 25  1  0  0  0
  5  6  1  0  0  0
  6 23  1  0  0  0
  7 14  1  0  0  0
  7 15  2  0  0  0
  8 13  2  0  0  0
  8 12  1  0  0  0
  9 16  1  0  0  0
  9 17  2  0  0  0
 12 14  2  0  0  0
 12 26  1  0  0  0
 13 15  1  0  0  0
 13 27  1  0  0  0
 14 28  1  0  0  0
 15 29  1  0  0  0
 16 20  2  0  0  0
 16 30  1  0  0  0
 17 21  1  0  0  0
 17 31  1  0  0  0
 18 32  1  0  0  0
 18 33  1  0  0  0
 18 34  1  0  0  0
 19 21  2  0  0  0
 19 22  1  0  0  0
 19 20  1  0  0  0
 20 35  1  0  0  0
 21 36  1  0  0  0
 23 24  1  0  0  0
 23 37  1  0  0  0
 23 38  1  0  0  0
 24 39  1  0  0  0
 24 40  1  0  0  0
 24 41  1  0  0  0
M  END
> <s_m_entry_id>
5195

> <s_m_entry_name>
dock_pv.186

> <s_m_Source_Path>
/home/csk/Desktop/cluster/DUD-E-result/pgh1

> <s_m_Source_File>
dock_pv.maegz

> <i_m_Source_File_Index>
186

> <chembl_id>
CHEMBL333170

> <chembl_pref_name>
None

> <i_lp_mmshare_version>
53161

> <r_lp_tautomer_probability>
1

> <s_lp_Force_Field>
OPLS_2005

> <r_lp_Energy>
9.355078

> <b_lp_Chiralities_Consistent>
1

> <s_lp_Variant>
CHEMBL221_lig67-1

> <s_i_glide_gridfile>
glide-grid_2oyu

> <i_i_glide_lignum>
84

> <i_i_glide_rotatable_bonds>
4

> <r_i_docking_score>
-8.8728542915228

> <r_i_glide_ligand_efficiency>
-0.369702262146784

> <r_i_glide_ligand_efficiency_sa>
-1.06640585631605

> <r_i_glide_ligand_efficiency_ln>
-2.12368118071468

> <r_i_glide_gscore>
-8.8728542915228

> <r_i_glide_lipo>
-4.13508410063893

> <r_i_glide_hbond>
0

> <r_i_glide_metal>
0

> <r_i_glide_rewards>
-3.14180072255829

> <r_i_glide_evdw>
-21.5709819793701

> <r_i_glide_ecoul>
-5.4877462387085

> <r_i_glide_erotb>
0.320147064704442

> <r_i_glide_esite>
-0.0144054982552458

> <r_i_glide_emodel>
-28.6493059153084

> <r_i_glide_energy>
-27.0587282180786

> <r_i_glide_einternal>
0.623095691204071

> <i_i_glide_confnum>
14

> <i_i_glide_posenum>
262

> <r_i_glide_eff_state_penalty>
0

> <s_user_duplicate_titles>
CHEMBL221_lig67

> <i_f3d_flags>
0

> <s_m_subgroup_title>
dock_pv

> <s_m_subgroupid>
dock_pv

> <b_m_subgroup_collapsed>
1

$$$$
CHEMBL221_lig941
                    3D
 Schrodinger Suite 2021-1.
 39 41  0  0  1  0            999 V2000
   19.9991   49.1528   10.5947 C   0  0  0  0  0  0
   21.9449   50.8368   12.7785 C   0  0  0  0  0  0
   20.0720   49.1558   12.0783 C   0  0  0  0  0  0
   20.8536   49.8408   13.0195 C   0  0  0  0  0  0
   20.5295   49.4733   14.2557 N   0  0  0  0  0  0
   19.5904   48.5717   14.1497 C   0  0  0  0  0  0
   19.2785   48.3429   12.8424 N   0  0  0  0  0  0
   18.8914   47.7172   15.5094 S   0  0  0  0  0  0
   17.1613   47.8096   14.9781 C   0  0  0  0  0  0
   20.1814   50.3086    9.8366 C   0  0  0  0  0  0
   20.1219   50.2397    8.4439 C   0  0  0  0  0  0
   19.9195   49.0144    7.7991 C   0  0  0  0  0  0
   19.7214   47.8684    8.5639 C   0  0  0  0  0  0
   19.7226   47.9484    9.9506 C   0  0  0  0  0  0
   22.8286   50.6622   11.7103 C   0  0  0  0  0  0
   23.8511   51.5779   11.4832 C   0  0  0  0  0  0
   23.9951   52.6711   12.3309 C   0  0  0  0  0  0
   23.1242   52.8563   13.3998 C   0  0  0  0  0  0
   22.1078   51.9348   13.6327 C   0  0  0  0  0  0
   19.8724   48.8683    6.0180 S   0  0  0  0  0  0
   18.1203   49.0934    5.4753 C   0  0  0  0  0  0
   20.1233   47.4730    5.7543 O   0  0  0  0  0  0
   20.7304   49.8786    5.4020 O   0  0  0  0  0  0
   18.5843   47.6945   12.5036 H   0  0  0  0  0  0
   16.5220   47.6156   15.8413 H   0  0  0  0  0  0
   16.9214   48.7981   14.5811 H   0  0  0  0  0  0
   16.9463   47.0718   14.2015 H   0  0  0  0  0  0
   20.3538   51.2572   10.3186 H   0  0  0  0  0  0
   20.2368   51.1386    7.8515 H   0  0  0  0  0  0
   19.5424   46.9143    8.0936 H   0  0  0  0  0  0
   19.5739   47.0550   10.5295 H   0  0  0  0  0  0
   22.7257   49.8135   11.0519 H   0  0  0  0  0  0
   24.5306   51.4359   10.6555 H   0  0  0  0  0  0
   24.7849   53.3839   12.1605 H   0  0  0  0  0  0
   23.2386   53.7128   14.0541 H   0  0  0  0  0  0
   21.4353   52.0858   14.4670 H   0  0  0  0  0  0
   18.1049   49.0868    4.3882 H   0  0  0  0  0  0
   17.7201   50.0095    5.8988 H   0  0  0  0  0  0
   17.5544   48.2307    5.7987 H   0  0  0  0  0  0
  1  3  1  0  0  0
  1 10  2  0  0  0
  1 14  1  0  0  0
  2  4  1  0  0  0
  2 15  2  0  0  0
  2 19  1  0  0  0
  3  4  2  0  0  0
  3  7  1  0  0  0
  4  5  1  0  0  0
  5  6  2  0  0  0
  6  7  1  0  0  0
  6  8  1  0  0  0
  7 24  1  0  0  0
  8  9  1  0  0  0
  9 25  1  0  0  0
  9 26  1  0  0  0
  9 27  1  0  0  0
 10 11  1  0  0  0
 10 28  1  0  0  0
 11 12  2  0  0  0
 11 29  1  0  0  0
 12 13  1  0  0  0
 12 20  1  0  0  0
 13 14  2  0  0  0
 13 30  1  0  0  0
 14 31  1  0  0  0
 15 16  1  0  0  0
 15 32  1  0  0  0
 16 17  2  0  0  0
 16 33  1  0  0  0
 17 18  1  0  0  0
 17 34  1  0  0  0
 18 19  2  0  0  0
 18 35  1  0  0  0
 19 36  1  0  0  0
 20 21  1  0  0  0
 20 22  2  0  0  0
 20 23  2  0  0  0
 21 37  1  0  0  0
 21 38  1  0  0  0
 21 39  1  0  0  0
M  END
> <s_m_entry_id>
5196

> <s_m_entry_name>
dock_pv.187

> <s_m_Source_Path>
/home/csk/Desktop/cluster/DUD-E-result/pgh1

> <s_m_Source_File>
dock_pv.maegz

> <i_m_Source_File_Index>
187

> <chembl_id>
CHEMBL2347677

> <chembl_pref_name>
None

> <i_lp_mmshare_version>
53161

> <r_lp_tautomer_probability>
0.999999999976373

> <s_lp_Force_Field>
OPLS_2005

> <r_lp_Energy>
9.767249

> <b_lp_Chiralities_Consistent>
1

> <s_lp_Variant>
CHEMBL221_lig941-1

> <s_i_glide_gridfile>
glide-grid_2oyu

> <i_i_glide_lignum>
1169

> <i_i_glide_rotatable_bonds>
4

> <r_i_docking_score>
-8.85929525019607

> <r_i_glide_ligand_efficiency>
-0.385186750008525

> <r_i_glide_ligand_efficiency_sa>
-1.09541987828069

> <r_i_glide_ligand_efficiency_ln>
-2.14225792314537

> <r_i_glide_gscore>
-8.85929525019607

> <r_i_glide_lipo>
-4.31312239799546

> <r_i_glide_hbond>
0

> <r_i_glide_metal>
0

> <r_i_glide_rewards>
-2.42367598021528

> <r_i_glide_evdw>
-28.6647205352783

> <r_i_glide_ecoul>
-6.60425424575806

> <r_i_glide_erotb>
0.320066302780551

> <r_i_glide_esite>
-0.0186890111382619

> <r_i_glide_emodel>
-46.6907344335456

> <r_i_glide_energy>
-35.2689747810364

> <r_i_glide_einternal>
2.21025633811951

> <i_i_glide_confnum>
2

> <i_i_glide_posenum>
371

> <r_i_glide_eff_state_penalty>
0

> <s_user_duplicate_titles>
CHEMBL221_lig941

> <i_f3d_flags>
0

> <s_m_subgroup_title>
dock_pv

> <s_m_subgroupid>
dock_pv

> <b_m_subgroup_collapsed>
1

$$$$
CHEMBL221_lig509
                    3D
 Schrodinger Suite 2021-1.
 36 39  0  0  1  0            999 V2000
   18.9230   47.8730   12.2355 N   0  0  0  0  0  0
   18.9359   48.0159   13.5256 C   0  0  0  0  0  0
   19.8341   48.6953   11.7713 C   0  0  0  0  0  0
   19.9168   48.8840   13.9599 N   0  0  0  0  0  0
   20.5336   49.3508   12.8022 C   0  0  0  0  0  0
   17.9863   47.3735   14.8420 S   0  0  0  0  0  0
   19.9264   48.8505   10.2947 C   0  0  0  0  0  0
   19.9819   49.0086   15.3393 C   0  0  0  0  0  0
   18.9838   48.2730   15.9511 C   0  0  0  0  0  0
   21.6486   50.3517   12.7679 C   0  0  0  0  0  0
   19.7230   47.7524    9.4474 C   0  0  0  0  0  0
   20.1230   50.1173    9.7497 C   0  0  0  0  0  0
   19.9506   49.1685    7.5347 C   0  0  0  0  0  0
   19.9300   49.3833    5.8000 S   0  0  0  0  0  0
   19.7230   47.9091    8.0691 C   0  0  0  0  0  0
   20.1230   50.2709    8.3698 C   0  0  0  0  0  0
   22.6215   50.2434   11.7709 C   0  0  0  0  0  0
   21.7224   51.4075   13.6826 C   0  0  0  0  0  0
   18.1997   49.0730    5.3725 C   0  0  0  0  0  0
   22.7497   52.3435   13.5902 C   0  0  0  0  0  0
   23.6587   51.1678   11.6845 C   0  0  0  0  0  0
   23.7163   52.2186   12.5954 C   0  0  0  0  0  0
   20.7240   49.6396   15.8057 H   0  0  0  0  0  0
   18.7559   48.1884   17.0000 H   0  0  0  0  0  0
   19.5634   46.7698    9.8577 H   0  0  0  0  0  0
   20.2365   50.9851   10.3831 H   0  0  0  0  0  0
   19.5571   47.0730    7.4136 H   0  0  0  0  0  0
   20.2366   51.2550    7.9392 H   0  0  0  0  0  0
   22.5647   49.4401   11.0529 H   0  0  0  0  0  0
   20.9674   51.5306   14.4442 H   0  0  0  0  0  0
   18.0733   49.0730    4.2904 H   0  0  0  0  0  0
   17.5689   49.8532    5.8000 H   0  0  0  0  0  0
   17.8656   48.1119    5.7601 H   0  0  0  0  0  0
   22.7947   53.1710   14.2825 H   0  0  0  0  0  0
   24.4083   51.0731   10.9112 H   0  0  0  0  0  0
   24.5130   52.9451   12.5275 H   0  0  0  0  0  0
  1  2  2  0  0  0
  1  3  1  0  0  0
  2  4  1  0  0  0
  2  6  1  0  0  0
  3  5  2  0  0  0
  3  7  1  0  0  0
  4  8  1  0  0  0
  4  5  1  0  0  0
  5 10  1  0  0  0
  6  9  1  0  0  0
  7 11  2  0  0  0
  7 12  1  0  0  0
  8  9  2  0  0  0
  8 23  1  0  0  0
  9 24  1  0  0  0
 10 17  2  0  0  0
 10 18  1  0  0  0
 11 15  1  0  0  0
 11 25  1  0  0  0
 12 16  2  0  0  0
 12 26  1  0  0  0
 13 16  1  0  0  0
 13 14  1  0  0  0
 13 15  2  0  0  0
 14 19  1  0  0  0
 15 27  1  0  0  0
 16 28  1  0  0  0
 17 21  1  0  0  0
 17 29  1  0  0  0
 18 20  2  0  0  0
 18 30  1  0  0  0
 19 31  1  0  0  0
 19 32  1  0  0  0
 19 33  1  0  0  0
 20 22  1  0  0  0
 20 34  1  0  0  0
 21 22  2  0  0  0
 21 35  1  0  0  0
 22 36  1  0  0  0
M  END
> <s_m_entry_id>
5197

> <s_m_entry_name>
dock_pv.188

> <s_m_Source_Path>
/home/csk/Desktop/cluster/DUD-E-result/pgh1

> <s_m_Source_File>
dock_pv.maegz

> <i_m_Source_File_Index>
188

> <chembl_id>
CHEMBL148666

> <chembl_pref_name>
None

> <i_lp_mmshare_version>
53161

> <r_lp_tautomer_probability>
1

> <s_lp_Force_Field>
OPLS_2005

> <r_lp_Energy>
18.885132

> <b_lp_Chiralities_Consistent>
1

> <s_lp_Variant>
CHEMBL221_lig509-1

> <s_i_glide_gridfile>
glide-grid_2oyu

> <i_i_glide_lignum>
647

> <i_i_glide_rotatable_bonds>
3

> <r_i_docking_score>
-8.8525739285628

> <r_i_glide_ligand_efficiency>
-0.402389724025582

> <r_i_glide_ligand_efficiency_sa>
-1.12751183180952

> <r_i_glide_ligand_efficiency_ln>
-2.16389197362051

> <r_i_glide_gscore>
-8.8525739285628

> <r_i_glide_lipo>
-4.8548938458422

> <r_i_glide_hbond>
0

> <r_i_glide_metal>
0

> <r_i_glide_rewards>
-2.42706387014498

> <r_i_glide_evdw>
-35.933406829834

> <r_i_glide_ecoul>
-0.891082584857941

> <r_i_glide_erotb>
0.359716516644776

> <r_i_glide_esite>
0

> <r_i_glide_emodel>
-49.7557220242675

> <r_i_glide_energy>
-36.8244894146919

> <r_i_glide_einternal>
2.76964497566223

> <i_i_glide_confnum>
15

> <i_i_glide_posenum>
281

> <r_i_glide_eff_state_penalty>
0

> <s_user_duplicate_titles>
CHEMBL221_lig509,247946

> <i_f3d_flags>
0

> <s_m_subgroup_title>
dock_pv

> <s_m_subgroupid>
dock_pv

> <b_m_subgroup_collapsed>
1

$$$$
CHEMBL221_lig61
                    3D
 Schrodinger Suite 2021-1.
 39 41  0  0  1  0            999 V2000
   20.8401   49.9135   13.2162 N   0  0  0  0  0  0
   19.9831   49.1819   12.4124 C   0  0  0  0  0  0
   20.0030   48.8939    6.3368 S   0  0  0  0  0  0
   19.5429   48.6730   14.5707 N   0  0  0  0  0  0
   19.2094   48.4568   13.3149 C   0  0  0  0  0  0
   20.5230   49.5425   14.5115 C   0  0  0  0  0  0
   21.8926   50.7736   12.8375 C   0  0  0  0  0  0
   20.0075   49.0149    8.1256 C   0  0  0  0  0  0
   19.9552   49.1744   10.9200 C   0  0  0  0  0  0
   20.1230   47.4738    6.0386 O   0  0  0  0  0  0
   20.9229   49.8729    5.7617 O   0  0  0  0  0  0
   19.7362   47.8730    8.8880 C   0  0  0  0  0  0
   20.1230   50.2519    8.7660 C   0  0  0  0  0  0
   19.7230   47.9598   10.2772 C   0  0  0  0  0  0
   20.1243   50.3307   10.1576 C   0  0  0  0  0  0
   21.9494   52.0759   13.3486 C   0  0  0  0  0  0
   22.9226   50.2830   12.0322 C   0  0  0  0  0  0
   18.3068   49.3260    5.7851 C   0  0  0  0  0  0
   24.1230   52.3468   12.3549 C   0  0  0  0  0  0
   23.0738   52.8598   13.1114 C   0  0  0  0  0  0
   24.0383   51.0775   11.7896 C   0  0  0  0  0  0
   21.3046   50.0131   15.7278 C   0  0  0  0  0  0
   25.2501   53.0730   12.2000 F   0  0  0  0  0  0
   20.5230   50.7852   16.6000 O   0  0  0  0  0  0
   18.4150   47.7700   13.0581 H   0  0  0  0  0  0
   19.5693   46.9181    8.4127 H   0  0  0  0  0  0
   20.2358   51.1491    8.1746 H   0  0  0  0  0  0
   19.5511   47.0730   10.8637 H   0  0  0  0  0  0
   20.2526   51.2907   10.6355 H   0  0  0  0  0  0
   21.1531   52.4659   13.9664 H   0  0  0  0  0  0
   22.8862   49.2763   11.6413 H   0  0  0  0  0  0
   18.3165   49.3529    4.6984 H   0  0  0  0  0  0
   17.9813   50.2730    6.2000 H   0  0  0  0  0  0
   17.7230   48.4854    6.1153 H   0  0  0  0  0  0
   23.1519   53.8476   13.5430 H   0  0  0  0  0  0
   24.8603   50.6970   11.2036 H   0  0  0  0  0  0
   21.7230   49.1553   16.2457 H   0  0  0  0  0  0
   22.1230   50.6730   15.4768 H   0  0  0  0  0  0
   20.1403   51.5174   16.1109 H   0  0  0  0  0  0
  1  2  1  0  0  0
  1  6  1  0  0  0
  1  7  1  0  0  0
  2  5  2  0  0  0
  2  9  1  0  0  0
  3  8  1  0  0  0
  3 10  2  0  0  0
  3 11  2  0  0  0
  3 18  1  0  0  0
  4  6  2  0  0  0
  4  5  1  0  0  0
  5 25  1  0  0  0
  6 22  1  0  0  0
  7 16  1  0  0  0
  7 17  2  0  0  0
  8 13  2  0  0  0
  8 12  1  0  0  0
  9 14  1  0  0  0
  9 15  2  0  0  0
 12 14  2  0  0  0
 12 26  1  0  0  0
 13 15  1  0  0  0
 13 27  1  0  0  0
 14 28  1  0  0  0
 15 29  1  0  0  0
 16 20  2  0  0  0
 16 30  1  0  0  0
 17 21  1  0  0  0
 17 31  1  0  0  0
 18 32  1  0  0  0
 18 33  1  0  0  0
 18 34  1  0  0  0
 19 21  2  0  0  0
 19 23  1  0  0  0
 19 20  1  0  0  0
 20 35  1  0  0  0
 21 36  1  0  0  0
 22 24  1  0  0  0
 22 37  1  0  0  0
 22 38  1  0  0  0
 24 39  1  0  0  0
M  END
> <s_m_entry_id>
5198

> <s_m_entry_name>
dock_pv.189

> <s_m_Source_Path>
/home/csk/Desktop/cluster/DUD-E-result/pgh1

> <s_m_Source_File>
dock_pv.maegz

> <i_m_Source_File_Index>
189

> <chembl_id>
CHEMBL119002

> <chembl_pref_name>
None

> <i_lp_mmshare_version>
53161

> <r_lp_tautomer_probability>
1

> <s_lp_Force_Field>
OPLS_2005

> <r_lp_Energy>
12.12524

> <b_lp_Chiralities_Consistent>
1

> <s_lp_Variant>
CHEMBL221_lig61-1

> <s_i_glide_gridfile>
glide-grid_2oyu

> <i_i_glide_lignum>
78

> <i_i_glide_rotatable_bonds>
5

> <r_i_docking_score>
-8.85040432872401

> <r_i_glide_ligand_efficiency>
-0.368766847030167

> <r_i_glide_ligand_efficiency_sa>
-1.06370765221891

> <r_i_glide_ligand_efficiency_ln>
-2.11830787445526

> <r_i_glide_gscore>
-8.85040432872401

> <r_i_glide_lipo>
-3.95137077634563

> <r_i_glide_hbond>
0

> <r_i_glide_metal>
0

> <r_i_glide_rewards>
-3.2735861648931

> <r_i_glide_evdw>
-23.603385925293

> <r_i_glide_ecoul>
-6.04617643356323

> <r_i_glide_erotb>
0.475375151575859

> <r_i_glide_esite>
-0.0137267777620026

> <r_i_glide_emodel>
-33.3866867590414

> <r_i_glide_energy>
-29.6495623588562

> <r_i_glide_einternal>
2.05644798278809

> <i_i_glide_confnum>
34

> <i_i_glide_posenum>
286

> <r_i_glide_eff_state_penalty>
0

> <s_user_duplicate_titles>
CHEMBL221_lig61

> <i_f3d_flags>
0

> <s_m_subgroup_title>
dock_pv

> <s_m_subgroupid>
dock_pv

> <b_m_subgroup_collapsed>
1

$$$$
CHEMBL221_lig191
                    3D
 Schrodinger Suite 2021-1.
 50 53  0  0  1  0            999 V2000
   19.7809   48.0622   14.4913 N   0  0  0  0  0  0
   20.4759   49.2375   14.2751 C   0  0  0  0  0  0
   20.6026   49.5567   12.8259 C   0  0  0  0  0  0
   19.9525   48.7777   11.8789 C   0  0  0  0  0  0
   19.3236   47.2123   13.5267 N   0  0  0  0  0  0
   20.0612   49.1494    5.8000 S   0  0  0  0  0  0
   17.9874   47.3550   16.2328 C   0  0  1  0  0  0
   19.2136   47.6304   12.3441 C   0  0  0  0  0  0
   16.8626   48.2689   15.8933 C   0  0  0  0  0  0
   16.9100   46.8973   15.2562 C   0  0  2  0  0  0
   19.4708   47.6048   15.8441 C   0  0  0  0  0  0
   19.9957   49.0896    7.5701 C   0  0  0  0  0  0
   21.6468   50.5833   12.5065 C   0  0  0  0  0  0
   19.9546   48.9260   10.3777 C   0  0  0  0  0  0
   20.9009   50.2729    5.4001 O   0  0  0  0  0  0
   20.3878   47.8454    5.2637 O   0  0  0  0  0  0
   20.9229   49.9285   15.1981 O   0  0  0  0  0  0
   19.7233   47.8777    8.1696 C   0  0  0  0  0  0
   20.1230   50.2407    8.3523 C   0  0  0  0  0  0
   19.7230   47.8041    9.5458 C   0  0  0  0  0  0
   20.1230   50.1616    9.7451 C   0  0  0  0  0  0
   21.7235   51.8130   13.1834 C   0  0  0  0  0  0
   22.6486   50.2731   11.5837 C   0  0  0  0  0  0
   18.2693   49.3507    5.4000 C   0  0  0  0  0  0
   23.8322   52.2903   12.1375 C   0  0  0  0  0  0
   23.7382   51.1165   11.3998 C   0  0  0  0  0  0
   22.8163   52.6567   13.0114 C   0  0  0  0  0  0
   24.9259   53.0725   12.0202 F   0  0  0  0  0  0
   15.8518   45.8095   15.5029 C   0  0  0  0  0  0
   17.9494   47.0730   17.2814 H   0  0  0  0  0  0
   18.5296   47.0732   11.7175 H   0  0  0  0  0  0
   17.0432   49.0851   15.2103 H   0  0  0  0  0  0
   16.1246   48.4847   16.6702 H   0  0  0  0  0  0
   17.0528   46.9695   14.1973 H   0  0  0  0  0  0
   19.8781   48.2744   16.5999 H   0  0  0  0  0  0
   20.0048   46.6623   15.9684 H   0  0  0  0  0  0
   19.5734   46.9962    7.5718 H   0  0  0  0  0  0
   20.2393   51.2025    7.8719 H   0  0  0  0  0  0
   19.6180   46.8099    9.9418 H   0  0  0  0  0  0
   20.2342   51.0696   10.3184 H   0  0  0  0  0  0
   20.9594   52.0970   13.8926 H   0  0  0  0  0  0
   22.5951   49.3416   11.0427 H   0  0  0  0  0  0
   18.1854   49.2845    4.3191 H   0  0  0  0  0  0
   17.7229   48.5109    5.8154 H   0  0  0  0  0  0
   17.8958   50.2824    5.8002 H   0  0  0  0  0  0
   24.5217   50.8465   10.7087 H   0  0  0  0  0  0
   22.8916   53.5745   13.5769 H   0  0  0  0  0  0
   15.3372   45.8680   16.4670 H   0  0  0  0  0  0
   16.3039   44.8241   15.3995 H   0  0  0  0  0  0
   15.0895   45.8702   14.7314 H   0  0  0  0  0  0
  1  2  1  0  0  0
  1  5  1  0  0  0
  1 11  1  0  0  0
  2  3  1  0  0  0
  2 17  2  0  0  0
  3 13  1  0  0  0
  3  4  2  0  0  0
  4  8  1  0  0  0
  4 14  1  0  0  0
  5  8  2  0  0  0
  6 12  1  0  0  0
  6 15  2  0  0  0
  6 16  2  0  0  0
  6 24  1  0  0  0
  7 11  1  0  0  0
  7  9  1  0  0  0
  7 10  1  0  0  0
  7 30  1  0  0  0
  8 31  1  0  0  0
  9 10  1  0  0  0
  9 32  1  0  0  0
  9 33  1  0  0  0
 10 29  1  0  0  0
 10 34  1  0  0  0
 11 35  1  0  0  0
 11 36  1  0  0  0
 12 19  1  0  0  0
 12 18  2  0  0  0
 13 22  2  0  0  0
 13 23  1  0  0  0
 14 20  2  0  0  0
 14 21  1  0  0  0
 18 20  1  0  0  0
 18 37  1  0  0  0
 19 21  2  0  0  0
 19 38  1  0  0  0
 20 39  1  0  0  0
 21 40  1  0  0  0
 22 27  1  0  0  0
 22 41  1  0  0  0
 23 26  2  0  0  0
 23 42  1  0  0  0
 24 43  1  0  0  0
 24 44  1  0  0  0
 24 45  1  0  0  0
 25 26  1  0  0  0
 25 28  1  0  0  0
 25 27  2  0  0  0
 26 46  1  0  0  0
 27 47  1  0  0  0
 29 48  1  0  0  0
 29 49  1  0  0  0
 29 50  1  0  0  0
M  END
> <s_m_entry_id>
5199

> <s_m_entry_name>
dock_pv.190

> <s_m_Source_Path>
/home/csk/Desktop/cluster/DUD-E-result/pgh1

> <s_m_Source_File>
dock_pv.maegz

> <i_m_Source_File_Index>
190

> <chembl_id>
CHEMBL262744

> <chembl_pref_name>
None

> <i_lp_mmshare_version>
53161

> <r_lp_tautomer_probability>
1

> <s_lp_Force_Field>
OPLS_2005

> <r_lp_Energy>
51.879839

> <b_lp_Chiralities_Consistent>
1

> <s_lp_Variant>
CHEMBL221_lig191-1

> <s_i_glide_gridfile>
glide-grid_2oyu

> <i_i_glide_lignum>
218

> <i_i_glide_rotatable_bonds>
5

> <r_i_docking_score>
-8.84853316591722

> <r_i_glide_ligand_efficiency>
-0.30512183330749

> <r_i_glide_ligand_efficiency_sa>
-0.937430941302512

> <r_i_glide_ligand_efficiency_ln>
-2.02608971555394

> <r_i_glide_gscore>
-8.84853316591722

> <r_i_glide_lipo>
-4.93786736199343

> <r_i_glide_hbond>
0

> <r_i_glide_metal>
0

> <r_i_glide_rewards>
-2.61429657116326

> <r_i_glide_evdw>
-17.8509254455566

> <r_i_glide_ecoul>
-5.60612726211548

> <r_i_glide_erotb>
0.463606789549037

> <r_i_glide_esite>
-0.0265106607144198

> <r_i_glide_emodel>
-37.8187560956922

> <r_i_glide_energy>
-23.4570527076721

> <r_i_glide_einternal>
4.54669380187988

> <i_i_glide_confnum>
11

> <i_i_glide_posenum>
379

> <r_i_glide_eff_state_penalty>
0

> <s_user_duplicate_titles>
CHEMBL221_lig191

> <i_f3d_flags>
0

> <s_m_subgroup_title>
dock_pv

> <s_m_subgroupid>
dock_pv

> <b_m_subgroup_collapsed>
1

$$$$
CHEMBL221_lig85
                    3D
 Schrodinger Suite 2021-1.
 49 51  0  0  1  0            999 V2000
   19.5104   48.9306   12.4247 N   0  0  0  0  0  0
   18.6482   48.1878   14.3663 N   0  0  0  0  0  0
   20.2752   49.4324   13.4485 C   0  0  0  0  0  0
   18.5389   48.1952   13.0637 C   0  0  0  0  0  0
   20.0119   48.9569    6.4804 S   0  0  0  0  0  0
   19.7174   48.9206   14.6110 C   0  0  0  0  0  0
   19.7230   49.0404   11.0347 C   0  0  0  0  0  0
   20.1230   49.0722    8.2741 C   0  0  0  0  0  0
   21.4663   50.2729   13.2480 C   0  0  0  0  0  0
   21.3230   49.0730    5.8611 O   0  0  0  0  0  0
   19.0992   47.8730    6.2000 O   0  0  0  0  0  0
   23.7393   51.7945   12.7896 C   0  0  0  0  0  0
   24.9029   52.5418   12.4958 N   0  0  0  0  0  0
   19.9023   47.8728    8.9426 C   0  0  0  0  0  0
   20.1230   50.2730    8.9960 C   0  0  0  0  0  0
   19.7230   47.8610   10.3116 C   0  0  0  0  0  0
   19.9433   50.2617   10.3834 C   0  0  0  0  0  0
   21.6737   51.4221   14.0008 C   0  0  0  0  0  0
   22.3951   49.8730   12.2971 C   0  0  0  0  0  0
   23.5287   50.6122   12.0892 C   0  0  0  0  0  0
   22.8093   52.1819   13.7689 C   0  0  0  0  0  0
   20.2939   49.1630   16.2000 Cl  0  0  0  0  0  0
   19.1194   50.3095    5.8000 C   0  0  0  0  0  0
   25.5314   52.4536   11.1767 C   0  0  0  0  0  0
   25.4257   53.4511   13.4893 C   0  0  0  0  0  0
   24.5255   52.6730   10.0580 C   0  0  0  0  0  0
   24.6705   54.7535   13.4465 C   0  0  0  0  0  0
   17.7850   47.6813   12.4869 H   0  0  0  0  0  0
   19.8615   46.9402    8.3990 H   0  0  0  0  0  0
   20.2277   51.2091    8.4727 H   0  0  0  0  0  0
   19.6076   46.9214   10.8211 H   0  0  0  0  0  0
   19.9391   51.1912   10.9349 H   0  0  0  0  0  0
   20.9561   51.7331   14.7465 H   0  0  0  0  0  0
   22.2716   48.9530   11.7463 H   0  0  0  0  0  0
   24.2561   50.2340   11.3929 H   0  0  0  0  0  0
   22.9234   53.0787   14.3525 H   0  0  0  0  0  0
   19.3230   50.2730    4.7304 H   0  0  0  0  0  0
   18.0644   50.2564    6.0628 H   0  0  0  0  0  0
   19.6670   51.0807    6.2817 H   0  0  0  0  0  0
   25.9366   51.4730   11.0000 H   0  0  0  0  0  0
   26.4166   53.0732   11.0923 H   0  0  0  0  0  0
   25.3228   52.9969   14.4720 H   0  0  0  0  0  0
   26.4975   53.6145   13.3883 H   0  0  0  0  0  0
   24.9924   53.0730    9.1646 H   0  0  0  0  0  0
   23.7232   53.3576   10.3401 H   0  0  0  0  0  0
   24.0843   51.7160    9.8000 H   0  0  0  0  0  0
   24.5231   55.0807   14.4693 H   0  0  0  0  0  0
   25.2401   55.4730   12.8681 H   0  0  0  0  0  0
   23.6796   54.6835   13.0000 H   0  0  0  0  0  0
  1  3  1  0  0  0
  1  4  1  0  0  0
  1  7  1  0  0  0
  2  4  2  0  0  0
  2  6  1  0  0  0
  3  6  2  0  0  0
  3  9  1  0  0  0
  4 28  1  0  0  0
  5  8  1  0  0  0
  5 10  2  0  0  0
  5 11  2  0  0  0
  5 23  1  0  0  0
  6 22  1  0  0  0
  7 16  2  0  0  0
  7 17  1  0  0  0
  8 15  1  0  0  0
  8 14  2  0  0  0
  9 18  2  0  0  0
  9 19  1  0  0  0
 12 20  1  0  0  0
 12 13  1  0  0  0
 12 21  2  0  0  0
 13 24  1  0  0  0
 13 25  1  0  0  0
 14 16  1  0  0  0
 14 29  1  0  0  0
 15 17  2  0  0  0
 15 30  1  0  0  0
 16 31  1  0  0  0
 17 32  1  0  0  0
 18 21  1  0  0  0
 18 33  1  0  0  0
 19 20  2  0  0  0
 19 34  1  0  0  0
 20 35  1  0  0  0
 21 36  1  0  0  0
 23 37  1  0  0  0
 23 38  1  0  0  0
 23 39  1  0  0  0
 24 26  1  0  0  0
 24 40  1  0  0  0
 24 41  1  0  0  0
 25 27  1  0  0  0
 25 42  1  0  0  0
 25 43  1  0  0  0
 26 44  1  0  0  0
 26 45  1  0  0  0
 26 46  1  0  0  0
 27 47  1  0  0  0
 27 48  1  0  0  0
 27 49  1  0  0  0
M  END
> <s_m_entry_id>
5200

> <s_m_entry_name>
dock_pv.191

> <s_m_Source_Path>
/home/csk/Desktop/cluster/DUD-E-result/pgh1

> <s_m_Source_File>
dock_pv.maegz

> <i_m_Source_File_Index>
191

> <chembl_id>
CHEMBL420869

> <chembl_pref_name>
None

> <i_lp_mmshare_version>
53161

> <r_lp_tautomer_probability>
1

> <s_lp_Force_Field>
OPLS_2005

> <r_lp_Energy>
18.597802

> <b_lp_Chiralities_Consistent>
1

> <s_lp_Variant>
CHEMBL221_lig85-1

> <s_i_glide_gridfile>
glide-grid_2oyu

> <i_i_glide_lignum>
102

> <i_i_glide_rotatable_bonds>
6

> <r_i_docking_score>
-8.84742494473903

> <r_i_glide_ligand_efficiency>
-0.327682405360705

> <r_i_glide_ligand_efficiency_sa>
-0.983047215002126

> <r_i_glide_ligand_efficiency_ln>
-2.05953466593536

> <r_i_glide_gscore>
-8.84742494473903

> <r_i_glide_lipo>
-4.46386859354628

> <r_i_glide_hbond>
0

> <r_i_glide_metal>
0

> <r_i_glide_rewards>
-2.81260138049546

> <r_i_glide_evdw>
-18.0245170593262

> <r_i_glide_ecoul>
-6.39647436141968

> <r_i_glide_erotb>
0.361092295040553

> <r_i_glide_esite>
-0.0713502585585728

> <r_i_glide_emodel>
-43.9099566868858

> <r_i_glide_energy>
-24.4209914207458

> <r_i_glide_einternal>
4.69483709335327

> <i_i_glide_confnum>
13

> <i_i_glide_posenum>
363

> <r_i_glide_eff_state_penalty>
0

> <s_user_duplicate_titles>
CHEMBL221_lig85

> <i_f3d_flags>
0

> <s_m_subgroup_title>
dock_pv

> <s_m_subgroupid>
dock_pv

> <b_m_subgroup_collapsed>
1

$$$$
CHEMBL221_lig446
                    3D
 Schrodinger Suite 2021-1.
 38 40  0  0  1  0            999 V2000
   20.5230   49.6131   13.4069 C   0  0  0  0  0  0
   20.0165   48.8950    6.3690 S   0  0  0  0  0  0
   19.8353   48.9190   12.4685 C   0  0  0  0  0  0
   21.5648   50.6557   13.1909 C   0  0  0  0  0  0
   20.2102   49.1084   14.7541 C   0  0  0  0  0  0
   22.5201   50.5482   12.1698 C   0  0  0  0  0  0
   18.8687   47.9412   13.1173 C   0  0  0  0  0  0
   20.0245   49.0136    8.1624 C   0  0  0  0  0  0
   23.4484   51.5667   11.9501 C   0  0  0  0  0  0
   19.8775   49.0485   10.9818 C   0  0  0  0  0  0
   20.1230   47.4769    6.0560 O   0  0  0  0  0  0
   20.9230   49.8730    5.7813 O   0  0  0  0  0  0
   23.4789   52.6767   12.7933 C   0  0  0  0  0  0
   21.5799   51.8055   13.9943 C   0  0  0  0  0  0
   19.0997   48.0883   14.6103 C   0  0  0  0  0  0
   20.7467   49.4730   15.7999 O   0  0  0  0  0  0
   20.1230   50.2228    8.8639 C   0  0  0  0  0  0
   19.7660   47.8466    8.8725 C   0  0  0  0  0  0
   20.0822   50.2389   10.2658 C   0  0  0  0  0  0
   19.7230   47.8730   10.2546 C   0  0  0  0  0  0
   22.5271   52.8054   13.8000 C   0  0  0  0  0  0
   24.5230   51.4730   10.6068 Cl  0  0  0  0  0  0
   18.3403   49.3215    5.8000 C   0  0  0  0  0  0
   24.4265   53.6289   12.6406 F   0  0  0  0  0  0
   22.5299   49.6837   11.5219 H   0  0  0  0  0  0
   17.8335   48.1743   12.8614 H   0  0  0  0  0  0
   19.0452   46.9062   12.8255 H   0  0  0  0  0  0
   20.8527   51.9334   14.7831 H   0  0  0  0  0  0
   18.2065   48.4422   15.1261 H   0  0  0  0  0  0
   19.3980   47.1467   15.0708 H   0  0  0  0  0  0
   20.2442   51.1424    8.3114 H   0  0  0  0  0  0
   19.6384   46.9022    8.3652 H   0  0  0  0  0  0
   20.1781   51.1808   10.7856 H   0  0  0  0  0  0
   19.6126   46.9361   10.7643 H   0  0  0  0  0  0
   22.5256   53.6761   14.4404 H   0  0  0  0  0  0
   18.3728   49.3574    4.7136 H   0  0  0  0  0  0
   18.0130   50.2730    6.2000 H   0  0  0  0  0  0
   17.7230   48.4926    6.1038 H   0  0  0  0  0  0
  1  3  2  0  0  0
  1  4  1  0  0  0
  1  5  1  0  0  0
  2  8  1  0  0  0
  2 11  2  0  0  0
  2 12  2  0  0  0
  2 23  1  0  0  0
  3  7  1  0  0  0
  3 10  1  0  0  0
  4  6  1  0  0  0
  4 14  2  0  0  0
  5 15  1  0  0  0
  5 16  2  0  0  0
  6  9  2  0  0  0
  6 25  1  0  0  0
  7 15  1  0  0  0
  7 26  1  0  0  0
  7 27  1  0  0  0
  8 18  2  0  0  0
  8 17  1  0  0  0
  9 22  1  0  0  0
  9 13  1  0  0  0
 10 19  1  0  0  0
 10 20  2  0  0  0
 13 21  2  0  0  0
 13 24  1  0  0  0
 14 21  1  0  0  0
 14 28  1  0  0  0
 15 29  1  0  0  0
 15 30  1  0  0  0
 17 19  2  0  0  0
 17 31  1  0  0  0
 18 20  1  0  0  0
 18 32  1  0  0  0
 19 33  1  0  0  0
 20 34  1  0  0  0
 21 35  1  0  0  0
 23 36  1  0  0  0
 23 37  1  0  0  0
 23 38  1  0  0  0
M  END
> <s_m_entry_id>
5201

> <s_m_entry_name>
dock_pv.192

> <s_m_Source_Path>
/home/csk/Desktop/cluster/DUD-E-result/pgh1

> <s_m_Source_File>
dock_pv.maegz

> <i_m_Source_File_Index>
192

> <chembl_id>
CHEMBL23808

> <chembl_pref_name>
None

> <i_lp_mmshare_version>
53161

> <r_lp_tautomer_probability>
0.499977396165832

> <s_lp_Force_Field>
OPLS_2005

> <r_lp_Energy>
19.832014

> <b_lp_Chiralities_Consistent>
1

> <s_lp_Variant>
CHEMBL221_lig446-1

> <s_i_glide_gridfile>
glide-grid_2oyu

> <i_i_glide_lignum>
525

> <i_i_glide_rotatable_bonds>
3

> <r_i_docking_score>
-8.82943309677018

> <r_i_glide_ligand_efficiency>
-0.367893045698757

> <r_i_glide_ligand_efficiency_sa>
-1.06118717303206

> <r_i_glide_ligand_efficiency_ln>
-2.11328849634158

> <r_i_glide_gscore>
-8.82943309677018

> <r_i_glide_lipo>
-4.36956598723613

> <r_i_glide_hbond>
0

> <r_i_glide_metal>
0

> <r_i_glide_rewards>
-2.73381403157788

> <r_i_glide_evdw>
-23.4163208007812

> <r_i_glide_ecoul>
-5.53802251815796

> <r_i_glide_erotb>
0.288957935372269

> <r_i_glide_esite>
-0.0134915955656861

> <r_i_glide_emodel>
-35.1763973055539

> <r_i_glide_energy>
-28.9543433189392

> <r_i_glide_einternal>
0.11138267070055

> <i_i_glide_confnum>
6

> <i_i_glide_posenum>
390

> <r_i_glide_eff_state_penalty>
0

> <s_user_duplicate_titles>
CHEMBL221_lig446,30478

> <i_f3d_flags>
0

> <s_m_subgroup_title>
dock_pv

> <s_m_subgroupid>
dock_pv

> <b_m_subgroup_collapsed>
1

$$$$
CHEMBL221_lig376
                    3D
 Schrodinger Suite 2021-1.
 37 39  0  0  1  0            999 V2000
   20.0443   48.9433    6.4574 S   0  0  0  0  0  0
   20.5873   49.6705   13.4225 C   0  0  0  0  0  0
   19.6623   49.0456   12.5588 C   0  0  0  0  0  0
   20.1230   49.0492    8.2625 C   0  0  0  0  0  0
   20.9230   49.8956    5.8001 O   0  0  0  0  0  0
   20.1230   47.5300    6.1139 O   0  0  0  0  0  0
   19.7893   49.1006   11.0651 C   0  0  0  0  0  0
   21.7490   50.4150   12.8942 C   0  0  0  0  0  0
   18.4752   49.4730    6.0300 N   0  0  0  0  0  0
   20.1230   50.2653    8.9545 C   0  0  0  0  0  0
   19.8769   47.8731    8.9735 C   0  0  0  0  0  0
   19.9900   50.2892   10.3472 C   0  0  0  0  0  0
   19.7230   47.9069   10.3521 C   0  0  0  0  0  0
   21.9249   51.7933   13.0845 C   0  0  0  0  0  0
   22.7081   49.6857   12.2000 C   0  0  0  0  0  0
   23.9849   51.6559   11.8582 C   0  0  0  0  0  0
   23.8683   50.2949   11.8000 C   0  0  0  0  0  0
   23.0360   52.4316   12.5236 C   0  0  0  0  0  0
   25.3230   52.2730   11.0000 Cl  0  0  0  0  0  0
   18.6371   48.2730   13.1290 C   0  0  0  0  0  0
   20.4947   49.4730   14.8062 C   0  0  0  0  0  0
   19.4888   48.6730   15.3450 C   0  0  0  0  0  0
   18.5484   48.0855   14.5061 C   0  0  0  0  0  0
   18.3901   50.4937    6.0880 H   0  0  0  0  0  0
   18.1954   49.1832    5.0904 H   0  0  0  0  0  0
   20.2153   51.1845    8.3971 H   0  0  0  0  0  0
   19.7992   46.9241    8.4645 H   0  0  0  0  0  0
   20.0118   51.2378   10.8629 H   0  0  0  0  0  0
   19.5825   46.9877   10.8894 H   0  0  0  0  0  0
   21.1847   52.3699   13.6204 H   0  0  0  0  0  0
   22.5976   48.6235   12.0530 H   0  0  0  0  0  0
   24.6997   49.7487   11.4000 H   0  0  0  0  0  0
   23.1533   53.5021   12.6004 H   0  0  0  0  0  0
   17.9048   47.7946   12.4950 H   0  0  0  0  0  0
   21.2216   49.9230   15.4675 H   0  0  0  0  0  0
   19.4281   48.5250   16.4124 H   0  0  0  0  0  0
   17.7543   47.4806   14.9194 H   0  0  0  0  0  0
  1  4  1  0  0  0
  1  5  2  0  0  0
  1  6  2  0  0  0
  1  9  1  0  0  0
  2  3  1  0  0  0
  2  8  1  0  0  0
  2 21  2  0  0  0
  3  7  1  0  0  0
  3 20  2  0  0  0
  4 10  2  0  0  0
  4 11  1  0  0  0
  7 13  1  0  0  0
  7 12  2  0  0  0
  8 14  2  0  0  0
  8 15  1  0  0  0
  9 24  1  0  0  0
  9 25  1  0  0  0
 10 12  1  0  0  0
 10 26  1  0  0  0
 11 13  2  0  0  0
 11 27  1  0  0  0
 12 28  1  0  0  0
 13 29  1  0  0  0
 14 18  1  0  0  0
 14 30  1  0  0  0
 15 17  2  0  0  0
 15 31  1  0  0  0
 16 17  1  0  0  0
 16 19  1  0  0  0
 16 18  2  0  0  0
 17 32  1  0  0  0
 18 33  1  0  0  0
 20 23  1  0  0  0
 20 34  1  0  0  0
 21 22  1  0  0  0
 21 35  1  0  0  0
 22 23  2  0  0  0
 22 36  1  0  0  0
 23 37  1  0  0  0
M  END
> <s_m_entry_id>
5202

> <s_m_entry_name>
dock_pv.193

> <s_m_Source_Path>
/home/csk/Desktop/cluster/DUD-E-result/pgh1

> <s_m_Source_File>
dock_pv.maegz

> <i_m_Source_File_Index>
193

> <chembl_id>
CHEMBL52402

> <chembl_pref_name>
None

> <i_lp_mmshare_version>
53161

> <r_lp_tautomer_probability>
1

> <s_lp_Force_Field>
OPLS_2005

> <r_lp_Energy>
28.445941

> <b_lp_Chiralities_Consistent>
1

> <s_lp_Variant>
CHEMBL221_lig376-1

> <s_i_glide_gridfile>
glide-grid_2oyu

> <i_i_glide_lignum>
442

> <i_i_glide_rotatable_bonds>
3

> <r_i_docking_score>
-8.82202064509099

> <r_i_glide_ligand_efficiency>
-0.383566115003956

> <r_i_glide_ligand_efficiency_sa>
-1.09081100790962

> <r_i_glide_ligand_efficiency_ln>
-2.13324458564353

> <r_i_glide_gscore>
-8.82202064509099

> <r_i_glide_lipo>
-4.94301033548421

> <r_i_glide_hbond>
-0.274117093210175

> <r_i_glide_metal>
0

> <r_i_glide_rewards>
-2.17694791284164

> <r_i_glide_evdw>
-18.6158962249756

> <r_i_glide_ecoul>
-4.97333478927612

> <r_i_glide_erotb>
0.321099945130118

> <r_i_glide_esite>
-0.0722502190448803

> <r_i_glide_emodel>
-24.8733026196327

> <r_i_glide_energy>
-23.5892310142517

> <r_i_glide_einternal>
2.17924094200134

> <i_i_glide_confnum>
13

> <i_i_glide_posenum>
394

> <r_i_glide_eff_state_penalty>
0

> <s_user_duplicate_titles>
CHEMBL221_lig376

> <i_f3d_flags>
0

> <s_m_subgroup_title>
dock_pv

> <s_m_subgroupid>
dock_pv

> <b_m_subgroup_collapsed>
1

$$$$
CHEMBL221_lig463
                    3D
 Schrodinger Suite 2021-1.
 40 42  0  0  1  0            999 V2000
   20.8079   49.8729   13.2718 C   0  0  0  0  0  0
   19.9785   48.8929    6.3467 S   0  0  0  0  0  0
   19.9828   49.1756   12.4457 C   0  0  0  0  0  0
   21.9839   50.7117   12.8672 C   0  0  0  0  0  0
   20.5230   49.5253   14.6730 C   0  0  0  0  0  0
   18.9551   48.3764   13.2213 C   0  0  0  0  0  0
   19.9783   49.0190    8.1404 C   0  0  0  0  0  0
   19.9443   49.1766   10.9563 C   0  0  0  0  0  0
   20.9230   49.8647    5.7968 O   0  0  0  0  0  0
   20.1230   47.4730    6.0619 O   0  0  0  0  0  0
   19.3136   48.6083   14.6783 C   0  0  0  0  0  0
   22.3028   51.9954   13.3808 C   0  0  0  0  0  0
   23.9175   50.8773   11.3907 N   0  0  0  0  0  0
   21.1410   49.9254   15.6576 O   0  0  0  0  0  0
   19.7241   47.8778    8.9056 C   0  0  0  0  0  0
   20.1230   50.2509    8.7891 C   0  0  0  0  0  0
   19.7230   47.9665   10.2948 C   0  0  0  0  0  0
   20.1299   50.3279   10.1847 C   0  0  0  0  0  0
   18.2960   49.3316    5.6985 C   0  0  0  0  0  0
   22.8457   50.2110   11.8812 C   0  0  0  0  0  0
   24.1814   52.1051   11.8855 C   0  0  0  0  0  0
   23.4110   52.6894   12.8831 C   0  0  0  0  0  0
   21.4905   52.7124   14.4412 C   0  0  0  0  0  0
   18.9894   47.3110   12.9929 H   0  0  0  0  0  0
   17.9402   48.7173   13.0108 H   0  0  0  0  0  0
   19.5630   47.6767   15.1858 H   0  0  0  0  0  0
   18.4948   49.0728   15.2278 H   0  0  0  0  0  0
   19.5575   46.9217    8.4324 H   0  0  0  0  0  0
   20.2470   51.1474    8.1991 H   0  0  0  0  0  0
   19.5605   47.0728   10.8674 H   0  0  0  0  0  0
   20.2750   51.2870   10.6607 H   0  0  0  0  0  0
   18.4358   49.4730    4.6301 H   0  0  0  0  0  0
   17.6333   48.4807    5.8000 H   0  0  0  0  0  0
   17.9187   50.2345    6.1731 H   0  0  0  0  0  0
   22.6784   49.2351   11.4509 H   0  0  0  0  0  0
   25.0411   52.6142   11.4747 H   0  0  0  0  0  0
   23.6667   53.6700   13.2600 H   0  0  0  0  0  0
   22.0196   52.7102   15.3912 H   0  0  0  0  0  0
   21.3248   53.7523   14.1564 H   0  0  0  0  0  0
   20.5222   52.2663   14.5926 H   0  0  0  0  0  0
  1  3  2  0  0  0
  1  4  1  0  0  0
  1  5  1  0  0  0
  2  7  1  0  0  0
  2  9  2  0  0  0
  2 10  2  0  0  0
  2 19  1  0  0  0
  3  6  1  0  0  0
  3  8  1  0  0  0
  4 12  1  0  0  0
  4 20  2  0  0  0
  5 11  1  0  0  0
  5 14  2  0  0  0
  6 11  1  0  0  0
  6 24  1  0  0  0
  6 25  1  0  0  0
  7 16  2  0  0  0
  7 15  1  0  0  0
  8 17  1  0  0  0
  8 18  2  0  0  0
 11 26  1  0  0  0
 11 27  1  0  0  0
 12 22  2  0  0  0
 12 23  1  0  0  0
 13 20  1  0  0  0
 13 21  2  0  0  0
 15 17  2  0  0  0
 15 28  1  0  0  0
 16 18  1  0  0  0
 16 29  1  0  0  0
 17 30  1  0  0  0
 18 31  1  0  0  0
 19 32  1  0  0  0
 19 33  1  0  0  0
 19 34  1  0  0  0
 20 35  1  0  0  0
 21 22  1  0  0  0
 21 36  1  0  0  0
 22 37  1  0  0  0
 23 38  1  0  0  0
 23 39  1  0  0  0
 23 40  1  0  0  0
M  END
> <s_m_entry_id>
5203

> <s_m_entry_name>
dock_pv.194

> <s_m_Source_Path>
/home/csk/Desktop/cluster/DUD-E-result/pgh1

> <s_m_Source_File>
dock_pv.maegz

> <i_m_Source_File_Index>
194

> <chembl_id>
CHEMBL276976

> <chembl_pref_name>
None

> <i_lp_mmshare_version>
53161

> <r_lp_tautomer_probability>
0.499977396165832

> <s_lp_Force_Field>
OPLS_2005

> <r_lp_Energy>
17.721919

> <b_lp_Chiralities_Consistent>
1

> <s_lp_Variant>
CHEMBL221_lig463-1

> <s_i_glide_gridfile>
glide-grid_2oyu

> <i_i_glide_lignum>
570

> <i_i_glide_rotatable_bonds>
3

> <r_i_docking_score>
-8.8213558592165

> <r_i_glide_ligand_efficiency>
-0.383537211270283

> <r_i_glide_ligand_efficiency_sa>
-1.09072880953592

> <r_i_glide_ligand_efficiency_ln>
-2.13308383439113

> <r_i_glide_gscore>
-8.8213558592165

> <r_i_glide_lipo>
-4.38408844575718

> <r_i_glide_hbond>
0

> <r_i_glide_metal>
0

> <r_i_glide_rewards>
-2.81814601425622

> <r_i_glide_evdw>
-23.8484764099121

> <r_i_glide_ecoul>
-5.09047508239746

> <r_i_glide_erotb>
0.350176056749639

> <r_i_glide_esite>
-0.0133023730975179

> <r_i_glide_emodel>
-35.7433467805349

> <r_i_glide_energy>
-28.9389514923096

> <r_i_glide_einternal>
2.95854616165161

> <i_i_glide_confnum>
11

> <i_i_glide_posenum>
200

> <r_i_glide_eff_state_penalty>
0

> <s_user_duplicate_titles>
CHEMBL221_lig463

> <i_f3d_flags>
0

> <s_m_subgroup_title>
dock_pv

> <s_m_subgroupid>
dock_pv

> <b_m_subgroup_collapsed>
1

$$$$
CHEMBL221_lig199
                    3D
 Schrodinger Suite 2021-1.
 50 53  0  0  1  0            999 V2000
   19.3844   48.6253   14.5011 N   0  0  0  0  0  0
   20.4356   49.4730   14.2299 C   0  0  0  0  0  0
   20.6264   49.6870   12.7733 C   0  0  0  0  0  0
   18.6958   47.8672   13.5765 N   0  0  0  0  0  0
   19.9078   48.9348   11.8586 C   0  0  0  0  0  0
   20.0656   49.1579    5.8000 S   0  0  0  0  0  0
   18.9230   48.0052   12.3474 C   0  0  0  0  0  0
   18.9235   48.4408   15.8811 C   0  0  1  0  0  0
   17.5274   49.0730   16.0902 C   0  0  0  0  0  0
   16.8120   48.9083   17.4027 C   0  0  0  0  0  0
   17.3230   50.2730   17.0017 C   0  0  0  0  0  0
   19.9968   49.1022    7.5673 C   0  0  0  0  0  0
   21.7309   50.6367   12.4188 C   0  0  0  0  0  0
   19.9536   49.0141   10.3653 C   0  0  0  0  0  0
   21.1153   49.9962   15.1198 O   0  0  0  0  0  0
   20.9174   50.2730    5.3949 O   0  0  0  0  0  0
   20.3622   47.8439    5.2711 O   0  0  0  0  0  0
   20.1230   50.2730    8.3164 C   0  0  0  0  0  0
   19.7230   47.9012    8.1975 C   0  0  0  0  0  0
   20.1230   50.2316    9.7059 C   0  0  0  0  0  0
   19.7230   47.8648    9.5794 C   0  0  0  0  0  0
   21.8996   51.8621   13.0898 C   0  0  0  0  0  0
   22.6675   50.2792   11.4476 C   0  0  0  0  0  0
   18.2841   49.3940    5.4000 C   0  0  0  0  0  0
   23.9806   52.2299   11.9546 C   0  0  0  0  0  0
   23.7858   51.0730   11.2099 C   0  0  0  0  0  0
   23.0284   52.6452   12.8761 C   0  0  0  0  0  0
   25.1144   52.9419   11.8002 F   0  0  0  0  0  0
   18.8673   46.9496   16.2000 C   0  0  0  0  0  0
   18.2895   47.4231   11.6912 H   0  0  0  0  0  0
   19.6145   48.8819   16.6000 H   0  0  0  0  0  0
   16.9230   48.9924   15.1892 H   0  0  0  0  0  0
   17.3230   48.3871   18.2103 H   0  0  0  0  0  0
   15.7400   48.7074   17.4000 H   0  0  0  0  0  0
   16.6139   51.0692   16.7512 H   0  0  0  0  0  0
   18.1929   50.6904   17.5031 H   0  0  0  0  0  0
   20.2370   51.2222    7.8111 H   0  0  0  0  0  0
   19.5695   47.0057    7.6217 H   0  0  0  0  0  0
   20.2274   51.1525   10.2594 H   0  0  0  0  0  0
   19.5967   46.8987   10.0353 H   0  0  0  0  0  0
   21.1823   52.1877   13.8293 H   0  0  0  0  0  0
   22.5248   49.3591   10.9021 H   0  0  0  0  0  0
   18.2090   49.3363    4.3187 H   0  0  0  0  0  0
   17.7230   48.5627    5.8121 H   0  0  0  0  0  0
   17.9333   50.3338    5.8001 H   0  0  0  0  0  0
   24.5229   50.7715   10.4807 H   0  0  0  0  0  0
   23.1790   53.5531   13.4423 H   0  0  0  0  0  0
   18.5230   46.8858   17.2222 H   0  0  0  0  0  0
   18.1321   46.4080   15.6027 H   0  0  0  0  0  0
   19.8347   46.4548   16.1157 H   0  0  0  0  0  0
  1  2  1  0  0  0
  1  4  1  0  0  0
  1  8  1  0  0  0
  2  3  1  0  0  0
  2 15  2  0  0  0
  3 13  1  0  0  0
  3  5  2  0  0  0
  4  7  2  0  0  0
  5  7  1  0  0  0
  5 14  1  0  0  0
  6 12  1  0  0  0
  6 16  2  0  0  0
  6 17  2  0  0  0
  6 24  1  0  0  0
  7 30  1  0  0  0
  8  9  1  0  0  0
  8 29  1  0  0  0
  8 31  1  0  0  0
  9 10  1  0  0  0
  9 11  1  0  0  0
  9 32  1  0  0  0
 10 11  1  0  0  0
 10 33  1  0  0  0
 10 34  1  0  0  0
 11 35  1  0  0  0
 11 36  1  0  0  0
 12 19  1  0  0  0
 12 18  2  0  0  0
 13 22  2  0  0  0
 13 23  1  0  0  0
 14 20  2  0  0  0
 14 21  1  0  0  0
 18 20  1  0  0  0
 18 37  1  0  0  0
 19 21  2  0  0  0
 19 38  1  0  0  0
 20 39  1  0  0  0
 21 40  1  0  0  0
 22 27  1  0  0  0
 22 41  1  0  0  0
 23 26  2  0  0  0
 23 42  1  0  0  0
 24 43  1  0  0  0
 24 44  1  0  0  0
 24 45  1  0  0  0
 25 26  1  0  0  0
 25 28  1  0  0  0
 25 27  2  0  0  0
 26 46  1  0  0  0
 27 47  1  0  0  0
 29 48  1  0  0  0
 29 49  1  0  0  0
 29 50  1  0  0  0
M  END
> <s_m_entry_id>
5204

> <s_m_entry_name>
dock_pv.195

> <s_m_Source_Path>
/home/csk/Desktop/cluster/DUD-E-result/pgh1

> <s_m_Source_File>
dock_pv.maegz

> <i_m_Source_File_Index>
195

> <chembl_id>
CHEMBL155247

> <chembl_pref_name>
None

> <i_lp_mmshare_version>
53161

> <r_lp_tautomer_probability>
1

> <s_lp_Force_Field>
OPLS_2005

> <r_lp_Energy>
51.852243

> <b_lp_Chiralities_Consistent>
1

> <s_lp_Variant>
CHEMBL221_lig199-2

> <s_i_glide_gridfile>
glide-grid_2oyu

> <i_i_glide_lignum>
227

> <i_i_glide_rotatable_bonds>
5

> <r_i_docking_score>
-8.81757027627518

> <r_i_glide_ligand_efficiency>
-0.304054147457765

> <r_i_glide_ligand_efficiency_sa>
-0.934150672105536

> <r_i_glide_ligand_efficiency_ln>
-2.01899999897705

> <r_i_glide_gscore>
-8.81757027627518

> <r_i_glide_lipo>
-4.93605919949688

> <r_i_glide_hbond>
0

> <r_i_glide_metal>
0

> <r_i_glide_rewards>
-2.63827059088968

> <r_i_glide_evdw>
-16.5622653961182

> <r_i_glide_ecoul>
-5.67144298553467

> <r_i_glide_erotb>
0.463606789549037

> <r_i_glide_esite>
-0.028017557801544

> <r_i_glide_emodel>
-37.5365813557396

> <r_i_glide_energy>
-22.2337083816528

> <r_i_glide_einternal>
7.2053074836731

> <i_i_glide_confnum>
15

> <i_i_glide_posenum>
63

> <r_i_glide_eff_state_penalty>
0

> <s_user_duplicate_titles>
CHEMBL221_lig199

> <i_f3d_flags>
0

> <s_m_subgroup_title>
dock_pv

> <s_m_subgroupid>
dock_pv

> <b_m_subgroup_collapsed>
1

$$$$
CHEMBL221_lig573
                    3D
 Schrodinger Suite 2021-1.
 45 47  0  0  1  0            999 V2000
   18.9232   47.6774    7.0406 N   0  0  0  0  0  0
   18.9669   48.6083    6.2000 C   0  0  0  0  0  0
   20.1230   49.2697    8.1988 C   0  0  0  0  0  0
   19.6380   47.9008    8.1929 C   0  0  0  0  0  0
   20.5328   49.9509   13.5106 C   0  0  0  0  0  0
   20.0936   49.8729    6.5351 S   0  0  0  0  0  0
   21.2817   50.8677   12.7967 C   0  0  0  0  0  0
   19.7152   48.9965   12.9022 C   0  0  0  0  0  0
   20.6787   50.1075   14.8570 O   0  0  0  0  0  0
   20.4699   50.0310    9.2649 C   0  0  0  0  0  0
   21.9961   51.7893   13.7391 C   0  0  0  0  0  0
   20.4922   49.8819   10.7361 C   0  0  0  0  0  0
   18.8405   47.9776   13.6818 C   0  0  0  0  0  0
   18.1620   48.6731    5.0949 N   0  0  0  0  0  0
   21.2856   50.8118   11.4125 C   0  0  0  0  0  0
   19.7230   48.9807   11.4909 C   0  0  0  0  0  0
   21.3996   51.3013   15.0808 C   0  0  0  0  0  0
   19.7231   47.0729    9.0903 O   0  0  0  0  0  0
   21.6734   53.2787   13.5066 C   0  0  0  0  0  0
   23.5108   51.5647   13.6139 C   0  0  0  0  0  0
   18.8519   48.1098   15.2294 C   0  0  0  0  0  0
   19.4135   46.5963   13.3688 C   0  0  0  0  0  0
   17.3612   48.0811   13.2556 C   0  0  0  0  0  0
   20.7412   51.0389    8.9860 H   0  0  0  0  0  0
   17.2831   48.1819    5.1692 H   0  0  0  0  0  0
   18.1154   49.5599    4.6034 H   0  0  0  0  0  0
   21.8814   51.5267   10.8635 H   0  0  0  0  0  0
   19.0699   48.2880   10.9900 H   0  0  0  0  0  0
   22.1230   51.0731   15.8430 H   0  0  0  0  0  0
   20.7091   52.0393   15.4940 H   0  0  0  0  0  0
   22.0276   53.8969   14.3328 H   0  0  0  0  0  0
   20.5999   53.4389   13.4001 H   0  0  0  0  0  0
   22.1461   53.6550   12.6000 H   0  0  0  0  0  0
   24.0430   51.8735   14.5129 H   0  0  0  0  0  0
   23.7231   50.5185   13.3998 H   0  0  0  0  0  0
   23.9345   52.1259   12.7798 H   0  0  0  0  0  0
   18.4683   49.0731   15.5606 H   0  0  0  0  0  0
   18.2217   47.3532   15.7001 H   0  0  0  0  0  0
   19.8488   47.9737   15.6507 H   0  0  0  0  0  0
   19.3451   46.3579   12.3113 H   0  0  0  0  0  0
   20.4739   46.6340   13.6173 H   0  0  0  0  0  0
   18.9246   45.7966   13.9277 H   0  0  0  0  0  0
   17.2311   47.8732   12.2000 H   0  0  0  0  0  0
   16.7242   47.3841   13.7998 H   0  0  0  0  0  0
   16.9559   49.0731   13.4315 H   0  0  0  0  0  0
  1  2  2  0  0  0
  1  4  1  0  0  0
  2  6  1  0  0  0
  2 14  1  0  0  0
  3  4  1  0  0  0
  3 10  2  0  0  0
  3  6  1  0  0  0
  4 18  2  0  0  0
  5  8  2  0  0  0
  5  9  1  0  0  0
  5  7  1  0  0  0
  7 15  2  0  0  0
  7 11  1  0  0  0
  8 16  1  0  0  0
  8 13  1  0  0  0
  9 17  1  0  0  0
 10 12  1  0  0  0
 10 24  1  0  0  0
 11 17  1  0  0  0
 11 19  1  0  0  0
 11 20  1  0  0  0
 12 15  1  0  0  0
 12 16  2  0  0  0
 13 21  1  0  0  0
 13 22  1  0  0  0
 13 23  1  0  0  0
 14 25  1  0  0  0
 14 26  1  0  0  0
 15 27  1  0  0  0
 16 28  1  0  0  0
 17 29  1  0  0  0
 17 30  1  0  0  0
 19 31  1  0  0  0
 19 32  1  0  0  0
 19 33  1  0  0  0
 20 34  1  0  0  0
 20 35  1  0  0  0
 20 36  1  0  0  0
 21 37  1  0  0  0
 21 38  1  0  0  0
 21 39  1  0  0  0
 22 40  1  0  0  0
 22 41  1  0  0  0
 22 42  1  0  0  0
 23 43  1  0  0  0
 23 44  1  0  0  0
 23 45  1  0  0  0
M  END
> <s_m_entry_id>
5205

> <s_m_entry_name>
dock_pv.196

> <s_m_Source_Path>
/home/csk/Desktop/cluster/DUD-E-result/pgh1

> <s_m_Source_File>
dock_pv.maegz

> <i_m_Source_File_Index>
196

> <chembl_id>
CHEMBL326362

> <chembl_pref_name>
None

> <i_lp_mmshare_version>
53161

> <r_lp_tautomer_probability>
1

> <s_lp_Force_Field>
OPLS_2005

> <r_lp_Energy>
33.284345

> <b_lp_Chiralities_Consistent>
1

> <s_lp_Variant>
CHEMBL221_lig573-1

> <s_i_glide_gridfile>
glide-grid_2oyu

> <i_i_glide_lignum>
711

> <i_i_glide_rotatable_bonds>
2

> <r_i_docking_score>
-8.81096264061719

> <r_i_glide_ligand_efficiency>
-0.383085332200748

> <r_i_glide_ligand_efficiency_sa>
-1.08944372557253

> <r_i_glide_ligand_efficiency_ln>
-2.13057065989332

> <r_i_glide_gscore>
-8.81096264061719

> <r_i_glide_lipo>
-3.91813680614881

> <r_i_glide_hbond>
-0.389992804685093

> <r_i_glide_metal>
0

> <r_i_glide_rewards>
-2.25384968916289

> <r_i_glide_evdw>
-29.0965118408203

> <r_i_glide_ecoul>
-5.81264877319336

> <r_i_glide_erotb>
0.172245592128216

> <r_i_glide_esite>
-0.094506024728598

> <r_i_glide_emodel>
-59.0295313543533

> <r_i_glide_energy>
-34.9091606140137

> <r_i_glide_einternal>
2.82862567901611

> <i_i_glide_confnum>
1

> <i_i_glide_posenum>
98

> <r_i_glide_eff_state_penalty>
0

> <s_user_duplicate_titles>
CHEMBL221_lig573

> <i_f3d_flags>
0

> <s_m_subgroup_title>
dock_pv

> <s_m_subgroupid>
dock_pv

> <b_m_subgroup_collapsed>
1

$$$$
CHEMBL221_lig975
                    3D
 Schrodinger Suite 2021-1.
 30 32  0  0  1  0            999 V2000
   20.8306   49.8730   13.7654 C   0  0  0  0  0  0
   20.0226   49.1219   12.9979 C   0  0  0  0  0  0
   19.1104   48.3254   13.8897 C   0  0  0  0  0  0
   19.5319   48.6730   15.1942 O   0  0  0  0  0  0
   20.5230   49.5844   15.1604 C   0  0  0  0  0  0
   19.9389   49.1229   11.5233 C   0  0  0  0  0  0
   19.6592   47.9344   10.8498 C   0  0  0  0  0  0
   19.7230   47.8730    9.4596 C   0  0  0  0  0  0
   20.1230   48.9980    8.7463 C   0  0  0  0  0  0
   20.2986   50.2114    9.4000 C   0  0  0  0  0  0
   20.2007   50.2786   10.7806 C   0  0  0  0  0  0
   21.9496   50.7438   13.3233 C   0  0  0  0  0  0
   22.8709   50.2730   12.3770 C   0  0  0  0  0  0
   23.9283   51.0730   11.9604 C   0  0  0  0  0  0
   24.0832   52.3414   12.5063 C   0  0  0  0  0  0
   23.1465   52.8458   13.4000 C   0  0  0  0  0  0
   22.0848   52.0465   13.8158 C   0  0  0  0  0  0
   21.0404   50.0838   16.1571 O   0  0  0  0  0  0
   25.1736   53.0730   12.1994 F   0  0  0  0  0  0
   19.2136   47.2505   13.7416 H   0  0  0  0  0  0
   18.0598   48.5836   13.7490 H   0  0  0  0  0  0
   19.4135   47.0506   11.4102 H   0  0  0  0  0  0
   19.5206   46.9471    8.9428 H   0  0  0  0  0  0
   20.2037   48.9525    7.6696 H   0  0  0  0  0  0
   20.5230   51.0927    8.8232 H   0  0  0  0  0  0
   20.3676   51.2283   11.2663 H   0  0  0  0  0  0
   22.7788   49.2757   11.9713 H   0  0  0  0  0  0
   24.6515   50.6945   11.2540 H   0  0  0  0  0  0
   23.2718   53.8387   13.8070 H   0  0  0  0  0  0
   21.3783   52.4370   14.5344 H   0  0  0  0  0  0
  1  2  2  0  0  0
  1  5  1  0  0  0
  1 12  1  0  0  0
  2  3  1  0  0  0
  2  6  1  0  0  0
  3  4  1  0  0  0
  3 20  1  0  0  0
  3 21  1  0  0  0
  4  5  1  0  0  0
  5 18  2  0  0  0
  6  7  2  0  0  0
  6 11  1  0  0  0
  7  8  1  0  0  0
  7 22  1  0  0  0
  8  9  2  0  0  0
  8 23  1  0  0  0
  9 10  1  0  0  0
  9 24  1  0  0  0
 10 11  2  0  0  0
 10 25  1  0  0  0
 11 26  1  0  0  0
 12 13  2  0  0  0
 12 17  1  0  0  0
 13 14  1  0  0  0
 13 27  1  0  0  0
 14 15  2  0  0  0
 14 28  1  0  0  0
 15 16  1  0  0  0
 15 19  1  0  0  0
 16 17  2  0  0  0
 16 29  1  0  0  0
 17 30  1  0  0  0
M  END
> <s_m_entry_id>
5206

> <s_m_entry_name>
dock_pv.197

> <s_m_Source_Path>
/home/csk/Desktop/cluster/DUD-E-result/pgh1

> <s_m_Source_File>
dock_pv.maegz

> <i_m_Source_File_Index>
197

> <chembl_id>
CHEMBL3357095

> <chembl_pref_name>
None

> <i_lp_mmshare_version>
53161

> <r_lp_tautomer_probability>
0.999841193423406

> <s_lp_Force_Field>
OPLS_2005

> <r_lp_Energy>
20.748884

> <b_lp_Chiralities_Consistent>
1

> <s_lp_Variant>
CHEMBL221_lig975-1

> <s_i_glide_gridfile>
glide-grid_2oyu

> <i_i_glide_lignum>
1212

> <i_i_glide_rotatable_bonds>
2

> <r_i_docking_score>
-8.81022156711618

> <r_i_glide_ligand_efficiency>
-0.463695871953483

> <r_i_glide_ligand_efficiency_sa>
-1.23732682801182

> <r_i_glide_ligand_efficiency_ln>
-2.23358039347284

> <r_i_glide_gscore>
-8.81022156711618

> <r_i_glide_lipo>
-4.19400698264728

> <r_i_glide_hbond>
0

> <r_i_glide_metal>
0

> <r_i_glide_rewards>
-3.30825174666882

> <r_i_glide_evdw>
-29.6599140167236

> <r_i_glide_ecoul>
-2.45986032485962

> <r_i_glide_erotb>
0.544011911765043

> <r_i_glide_esite>
0

> <r_i_glide_emodel>
-47.388709157254

> <r_i_glide_energy>
-32.1197743415833

> <r_i_glide_einternal>
2.94676303863525

> <i_i_glide_confnum>
9

> <i_i_glide_posenum>
174

> <r_i_glide_eff_state_penalty>
0

> <s_user_duplicate_titles>
CHEMBL221_lig975

> <i_f3d_flags>
0

> <s_m_subgroup_title>
dock_pv

> <s_m_subgroupid>
dock_pv

> <b_m_subgroup_collapsed>
1

$$$$
CHEMBL221_lig40
                    3D
 Schrodinger Suite 2021-1.
 41 43  0  0  1  0            999 V2000
   19.9816   49.1240   12.3233 C   0  0  0  0  0  0
   20.6616   49.8630   13.2391 C   0  0  0  0  0  0
   19.3361   48.2053   13.3938 C   0  0  0  0  0  0
   20.1221   49.0731   14.3981 C   0  0  0  0  0  0
   20.0179   48.8907    6.2831 S   0  0  0  0  0  0
   19.9042   49.1276   10.8531 C   0  0  0  0  0  0
   21.6947   50.9047   13.1487 C   0  0  0  0  0  0
   20.0124   49.0178    8.0604 C   0  0  0  0  0  0
   20.2597   49.0735   15.6207 O   0  0  0  0  0  0
   20.1230   47.4732    5.9719 O   0  0  0  0  0  0
   20.9230   49.8725    5.6922 O   0  0  0  0  0  0
   19.6926   47.9327   10.1785 C   0  0  0  0  0  0
   20.1229   50.2922   10.1135 C   0  0  0  0  0  0
   20.1230   50.2445    8.7198 C   0  0  0  0  0  0
   19.7244   47.8701    8.7953 C   0  0  0  0  0  0
   22.7411   50.7596   12.2300 C   0  0  0  0  0  0
   21.6195   52.0533   13.9368 C   0  0  0  0  0  0
   17.7985   48.1543   13.5422 C   0  0  0  0  0  0
   19.7598   46.7433   13.3521 C   0  0  0  0  0  0
   18.3211   49.3145    5.7990 C   0  0  0  0  0  0
   23.6432   52.8790   12.9202 C   0  0  0  0  0  0
   22.5786   53.0510   13.8001 C   0  0  0  0  0  0
   23.7225   51.7410   12.1230 C   0  0  0  0  0  0
   24.6127   53.8178   12.8494 F   0  0  0  0  0  0
   19.5121   47.0389   10.7329 H   0  0  0  0  0  0
   20.2732   51.2394   10.6111 H   0  0  0  0  0  0
   20.2530   51.1509    8.1463 H   0  0  0  0  0  0
   19.5609   46.9218    8.3059 H   0  0  0  0  0  0
   22.8066   49.8778   11.6085 H   0  0  0  0  0  0
   20.8130   52.1842   14.6436 H   0  0  0  0  0  0
   17.3532   49.0730   13.8766 H   0  0  0  0  0  0
   17.3218   47.8831   12.5999 H   0  0  0  0  0  0
   17.4857   47.4123   14.2793 H   0  0  0  0  0  0
   20.8142   46.6735   13.0795 H   0  0  0  0  0  0
   19.6250   46.2732   14.3277 H   0  0  0  0  0  0
   19.1908   46.1588   12.6349 H   0  0  0  0  0  0
   18.2955   49.3298    4.7124 H   0  0  0  0  0  0
   18.0159   50.2730    6.1987 H   0  0  0  0  0  0
   17.7230   48.4889    6.1441 H   0  0  0  0  0  0
   22.5225   53.9417   14.4093 H   0  0  0  0  0  0
   24.5441   51.6176   11.4323 H   0  0  0  0  0  0
  1  2  2  0  0  0
  1  3  1  0  0  0
  1  6  1  0  0  0
  2  7  1  0  0  0
  2  4  1  0  0  0
  3  4  1  0  0  0
  3 18  1  0  0  0
  3 19  1  0  0  0
  4  9  2  0  0  0
  5  8  1  0  0  0
  5 10  2  0  0  0
  5 11  2  0  0  0
  5 20  1  0  0  0
  6 12  2  0  0  0
  6 13  1  0  0  0
  7 16  1  0  0  0
  7 17  2  0  0  0
  8 14  1  0  0  0
  8 15  2  0  0  0
 12 15  1  0  0  0
 12 25  1  0  0  0
 13 14  2  0  0  0
 13 26  1  0  0  0
 14 27  1  0  0  0
 15 28  1  0  0  0
 16 23  2  0  0  0
 16 29  1  0  0  0
 17 22  1  0  0  0
 17 30  1  0  0  0
 18 31  1  0  0  0
 18 32  1  0  0  0
 18 33  1  0  0  0
 19 34  1  0  0  0
 19 35  1  0  0  0
 19 36  1  0  0  0
 20 37  1  0  0  0
 20 38  1  0  0  0
 20 39  1  0  0  0
 21 22  2  0  0  0
 21 24  1  0  0  0
 21 23  1  0  0  0
 22 40  1  0  0  0
 23 41  1  0  0  0
M  END
> <s_m_entry_id>
5207

> <s_m_entry_name>
dock_pv.198

> <s_m_Source_Path>
/home/csk/Desktop/cluster/DUD-E-result/pgh1

> <s_m_Source_File>
dock_pv.maegz

> <i_m_Source_File_Index>
198

> <chembl_id>
CHEMBL91832

> <chembl_pref_name>
None

> <i_lp_mmshare_version>
53161

> <r_lp_tautomer_probability>
1

> <s_lp_Force_Field>
OPLS_2005

> <r_lp_Energy>
20.098435

> <b_lp_Chiralities_Consistent>
1

> <s_lp_Variant>
CHEMBL221_lig40-1

> <s_i_glide_gridfile>
glide-grid_2oyu

> <i_i_glide_lignum>
47

> <i_i_glide_rotatable_bonds>
3

> <r_i_docking_score>
-8.80972717855144

> <r_i_glide_ligand_efficiency>
-0.367071965772977

> <r_i_glide_ligand_efficiency_sa>
-1.05881876869428

> <r_i_glide_ligand_efficiency_ln>
-2.10857196586617

> <r_i_glide_gscore>
-8.80972717855144

> <r_i_glide_lipo>
-4.13367284845558

> <r_i_glide_hbond>
0

> <r_i_glide_metal>
0

> <r_i_glide_rewards>
-3.1164338961573

> <r_i_glide_evdw>
-18.7996139526367

> <r_i_glide_ecoul>
-6.16604328155518

> <r_i_glide_erotb>
0.320152509655568

> <r_i_glide_esite>
-0.0148857537290178

> <r_i_glide_emodel>
-22.1820192901179

> <r_i_glide_energy>
-24.9656572341919

> <r_i_glide_einternal>
6.28369140625

> <i_i_glide_confnum>
1

> <i_i_glide_posenum>
226

> <r_i_glide_eff_state_penalty>
0

> <s_user_duplicate_titles>
CHEMBL221_lig40,146233

> <i_f3d_flags>
0

> <s_m_subgroup_title>
dock_pv

> <s_m_subgroupid>
dock_pv

> <b_m_subgroup_collapsed>
1

$$$$
CHEMBL221_lig135
                    3D
 Schrodinger Suite 2021-1.
 35 37  0  0  1  0            999 V2000
   19.5024   48.7921   14.6386 N   0  0  0  0  0  0
   20.5230   49.6010   14.5872 C   0  0  0  0  0  0
   19.1220   48.6546   13.3870 C   0  0  0  0  0  0
   20.8918   49.9351   13.2978 N   0  0  0  0  0  0
   20.0051   49.2458   12.4827 C   0  0  0  0  0  0
   19.9246   48.8769    6.3709 S   0  0  0  0  0  0
   21.9572   50.7797   12.9349 C   0  0  0  0  0  0
   19.9525   49.0202    8.1682 C   0  0  0  0  0  0
   19.9808   49.2107   10.9803 C   0  0  0  0  0  0
   20.1230   47.4730    6.1252 O   0  0  0  0  0  0
   20.8088   49.8730    5.7725 O   0  0  0  0  0  0
   21.3228   50.2148   15.9864 Cl  0  0  0  0  0  0
   17.6489   47.8731   13.0223 Cl  0  0  0  0  0  0
   20.1230   50.2572    8.8009 C   0  0  0  0  0  0
   19.7229   47.8860    8.9569 C   0  0  0  0  0  0
   20.1625   50.3510   10.1952 C   0  0  0  0  0  0
   19.7230   47.9899   10.3481 C   0  0  0  0  0  0
   22.9852   50.2731   12.1418 C   0  0  0  0  0  0
   22.0143   52.0917   13.4244 C   0  0  0  0  0  0
   18.2442   49.0447    5.6501 C   0  0  0  0  0  0
   24.1704   52.3514   12.3925 C   0  0  0  0  0  0
   24.0930   51.0665   11.8677 C   0  0  0  0  0  0
   23.1296   52.8769   13.1517 C   0  0  0  0  0  0
   25.2932   53.0735   12.1996 F   0  0  0  0  0  0
   20.2389   51.1467    8.1988 H   0  0  0  0  0  0
   19.5457   46.9250    8.4977 H   0  0  0  0  0  0
   20.3201   51.3139   10.6585 H   0  0  0  0  0  0
   19.5566   47.1009   10.9390 H   0  0  0  0  0  0
   22.9548   49.2499   11.7964 H   0  0  0  0  0  0
   21.2220   52.5027   14.0360 H   0  0  0  0  0  0
   18.3620   49.0805    4.5740 H   0  0  0  0  0  0
   17.7231   49.8738    6.0892 H   0  0  0  0  0  0
   17.7231   48.1100    5.7999 H   0  0  0  0  0  0
   24.9222   50.6724   11.3008 H   0  0  0  0  0  0
   23.2059   53.8757   13.5566 H   0  0  0  0  0  0
  1  2  2  0  0  0
  1  3  1  0  0  0
  2  4  1  0  0  0
  2 12  1  0  0  0
  3  5  2  0  0  0
  3 13  1  0  0  0
  4  7  1  0  0  0
  4  5  1  0  0  0
  5  9  1  0  0  0
  6  8  1  0  0  0
  6 10  2  0  0  0
  6 11  2  0  0  0
  6 20  1  0  0  0
  7 18  1  0  0  0
  7 19  2  0  0  0
  8 15  2  0  0  0
  8 14  1  0  0  0
  9 16  1  0  0  0
  9 17  2  0  0  0
 14 16  2  0  0  0
 14 25  1  0  0  0
 15 17  1  0  0  0
 15 26  1  0  0  0
 16 27  1  0  0  0
 17 28  1  0  0  0
 18 22  2  0  0  0
 18 29  1  0  0  0
 19 23  1  0  0  0
 19 30  1  0  0  0
 20 31  1  0  0  0
 20 32  1  0  0  0
 20 33  1  0  0  0
 21 23  2  0  0  0
 21 24  1  0  0  0
 21 22  1  0  0  0
 22 34  1  0  0  0
 23 35  1  0  0  0
M  END
> <s_m_entry_id>
5208

> <s_m_entry_name>
dock_pv.199

> <s_m_Source_Path>
/home/csk/Desktop/cluster/DUD-E-result/pgh1

> <s_m_Source_File>
dock_pv.maegz

> <i_m_Source_File_Index>
199

> <chembl_id>
CHEMBL333755

> <chembl_pref_name>
None

> <i_lp_mmshare_version>
53161

> <r_lp_tautomer_probability>
1

> <s_lp_Force_Field>
OPLS_2005

> <r_lp_Energy>
12.02096

> <b_lp_Chiralities_Consistent>
1

> <s_lp_Variant>
CHEMBL221_lig135-1

> <s_i_glide_gridfile>
glide-grid_2oyu

> <i_i_glide_lignum>
157

> <i_i_glide_rotatable_bonds>
3

> <r_i_docking_score>
-8.79285021267228

> <r_i_glide_ligand_efficiency>
-0.366368758861345

> <r_i_glide_ligand_efficiency_sa>
-1.05679036896415

> <r_i_glide_ligand_efficiency_ln>
-2.10453253349778

> <r_i_glide_gscore>
-8.79285021267228

> <r_i_glide_lipo>
-4.15731949542956

> <r_i_glide_hbond>
0

> <r_i_glide_metal>
0

> <r_i_glide_rewards>
-3.09509492233681

> <r_i_glide_evdw>
-21.7647399902344

> <r_i_glide_ecoul>
-4.68088150024414

> <r_i_glide_erotb>
0.26212413701101

> <r_i_glide_esite>
-0.0121907073685786

> <r_i_glide_emodel>
-32.5082986068043

> <r_i_glide_energy>
-26.4456214904785

> <r_i_glide_einternal>
2.3059561252594

> <i_i_glide_confnum>
15

> <i_i_glide_posenum>
152

> <r_i_glide_eff_state_penalty>
0

> <s_user_duplicate_titles>
CHEMBL221_lig135

> <i_f3d_flags>
0

> <s_m_subgroup_title>
dock_pv

> <s_m_subgroupid>
dock_pv

> <b_m_subgroup_collapsed>
1

$$$$
CHEMBL221_lig170
                    3D
 Schrodinger Suite 2021-1.
 37 39  0  0  1  0            999 V2000
   19.0385   47.9132   12.6465 N   0  0  0  0  0  0
   19.0794   47.9666   13.9581 C   0  0  0  0  0  0
   19.8857   48.7366   12.0382 C   0  0  0  0  0  0
   20.6704   49.5048   12.9232 C   0  0  0  0  0  0
   20.2496   49.0730   14.5579 S   0  0  0  0  0  0
   19.9450   49.0068    5.9275 S   0  0  0  0  0  0
   18.2140   47.1292   14.8770 C   0  0  0  0  0  0
   19.9345   48.8715    7.7176 C   0  0  0  0  0  0
   19.9116   48.7803   10.5316 C   0  0  0  0  0  0
   21.7658   50.5017   12.7122 C   0  0  0  0  0  0
   20.5787   50.2730    5.6377 O   0  0  0  0  0  0
   20.5124   47.8343    5.2973 O   0  0  0  0  0  0
   19.7230   47.6605    8.3670 C   0  0  0  0  0  0
   20.1230   50.0317    8.4783 C   0  0  0  0  0  0
   16.9230   47.2775   14.6000 F   0  0  0  0  0  0
   18.5230   45.8380   14.7669 F   0  0  0  0  0  0
   18.3731   47.4730   16.1565 F   0  0  0  0  0  0
   19.7230   47.6246    9.7616 C   0  0  0  0  0  0
   20.1230   49.9896    9.8684 C   0  0  0  0  0  0
   22.7027   50.2730   11.7037 C   0  0  0  0  0  0
   21.8909   51.6371   13.5230 C   0  0  0  0  0  0
   18.1725   49.0174    5.4000 C   0  0  0  0  0  0
   23.9004   52.2543   12.3490 C   0  0  0  0  0  0
   23.7680   51.1473   11.5175 C   0  0  0  0  0  0
   22.9601   52.5111   13.3433 C   0  0  0  0  0  0
   24.9629   53.0730   12.2000 F   0  0  0  0  0  0
   19.5865   46.7547    7.8000 H   0  0  0  0  0  0
   20.2349   50.9902    7.9899 H   0  0  0  0  0  0
   19.6418   46.6730   10.2541 H   0  0  0  0  0  0
   20.2474   50.9090   10.4218 H   0  0  0  0  0  0
   22.6051   49.4066   11.0693 H   0  0  0  0  0  0
   21.1721   51.8401   14.3034 H   0  0  0  0  0  0
   18.1302   49.0730    4.3175 H   0  0  0  0  0  0
   17.7230   48.0900    5.7325 H   0  0  0  0  0  0
   17.6860   49.8730    5.8439 H   0  0  0  0  0  0
   24.5023   50.9601   10.7469 H   0  0  0  0  0  0
   23.0699   53.3763   13.9811 H   0  0  0  0  0  0
  1  2  2  0  0  0
  1  3  1  0  0  0
  2  5  1  0  0  0
  2  7  1  0  0  0
  3  4  2  0  0  0
  3  9  1  0  0  0
  4 10  1  0  0  0
  4  5  1  0  0  0
  6  8  1  0  0  0
  6 11  2  0  0  0
  6 12  2  0  0  0
  6 22  1  0  0  0
  7 15  1  0  0  0
  7 16  1  0  0  0
  7 17  1  0  0  0
  8 14  2  0  0  0
  8 13  1  0  0  0
  9 18  1  0  0  0
  9 19  2  0  0  0
 10 20  1  0  0  0
 10 21  2  0  0  0
 13 18  2  0  0  0
 13 27  1  0  0  0
 14 19  1  0  0  0
 14 28  1  0  0  0
 18 29  1  0  0  0
 19 30  1  0  0  0
 20 24  2  0  0  0
 20 31  1  0  0  0
 21 25  1  0  0  0
 21 32  1  0  0  0
 22 33  1  0  0  0
 22 34  1  0  0  0
 22 35  1  0  0  0
 23 25  2  0  0  0
 23 26  1  0  0  0
 23 24  1  0  0  0
 24 36  1  0  0  0
 25 37  1  0  0  0
M  END
> <s_m_entry_id>
5209

> <s_m_entry_name>
dock_pv.200

> <s_m_Source_Path>
/home/csk/Desktop/cluster/DUD-E-result/pgh1

> <s_m_Source_File>
dock_pv.maegz

> <i_m_Source_File_Index>
200

> <chembl_id>
CHEMBL17047

> <chembl_pref_name>
None

> <i_lp_mmshare_version>
53161

> <r_lp_tautomer_probability>
1

> <s_lp_Force_Field>
OPLS_2005

> <r_lp_Energy>
14.577229

> <b_lp_Chiralities_Consistent>
1

> <s_lp_Variant>
CHEMBL221_lig170-1

> <s_i_glide_gridfile>
glide-grid_2oyu

> <i_i_glide_lignum>
194

> <i_i_glide_rotatable_bonds>
4

> <r_i_docking_score>
-8.7919506180643

> <r_i_glide_ligand_efficiency>
-0.338151946848627

> <r_i_glide_ligand_efficiency_sa>
-1.0017738119754

> <r_i_glide_ligand_efficiency_ln>
-2.06476075390941

> <r_i_glide_gscore>
-8.7919506180643

> <r_i_glide_lipo>
-4.62449718420131

> <r_i_glide_hbond>
0

> <r_i_glide_metal>
0

> <r_i_glide_rewards>
-2.9671711253831

> <r_i_glide_evdw>
-18.474702835083

> <r_i_glide_ecoul>
-3.17618131637573

> <r_i_glide_erotb>
0.243463407743841

> <r_i_glide_esite>
-0.0435833770132205

> <r_i_glide_emodel>
-27.05790333391

> <r_i_glide_energy>
-21.6508841514587

> <r_i_glide_einternal>
0.74060994386673

> <i_i_glide_confnum>
6

> <i_i_glide_posenum>
328

> <r_i_glide_eff_state_penalty>
0

> <s_user_duplicate_titles>
CHEMBL221_lig170

> <i_f3d_flags>
0

> <s_m_subgroup_title>
dock_pv

> <s_m_subgroupid>
dock_pv

> <b_m_subgroup_collapsed>
1

$$$$
CHEMBL221_lig200
                    3D
 Schrodinger Suite 2021-1.
 43 45  0  0  1  0            999 V2000
   19.3968   48.4295   14.6220 N   0  0  0  0  0  0
   20.3364   49.4109   14.3503 C   0  0  0  0  0  0
   20.5443   49.6298   12.8942 C   0  0  0  0  0  0
   19.8576   48.8618   11.9684 C   0  0  0  0  0  0
   18.7581   47.6498   13.6945 N   0  0  0  0  0  0
   19.9782   49.0693    5.8524 S   0  0  0  0  0  0
   19.0605   48.0829   16.0080 C   0  0  0  0  0  0
   18.9230   47.8730   12.4590 C   0  0  0  0  0  0
   17.5974   48.3071   16.4496 C   0  0  0  0  0  0
   19.9620   49.0288    7.6387 C   0  0  0  0  0  0
   19.9314   48.9484   10.4645 C   0  0  0  0  0  0
   20.4676   47.8212    5.3109 O   0  0  0  0  0  0
   20.6840   50.2729    5.4540 O   0  0  0  0  0  0
   20.9230   50.0313   15.2436 O   0  0  0  0  0  0
   21.6427   50.5957   12.5468 C   0  0  0  0  0  0
   19.7230   47.8310    8.2874 C   0  0  0  0  0  0
   20.1230   50.1959    8.3940 C   0  0  0  0  0  0
   19.7230   47.7999    9.6723 C   0  0  0  0  0  0
   20.1230   50.1582    9.7900 C   0  0  0  0  0  0
   16.7349   47.7913   15.5816 F   0  0  0  0  0  0
   17.3282   47.7735   17.6349 F   0  0  0  0  0  0
   17.3230   49.5901   16.6000 F   0  0  0  0  0  0
   18.1786   49.0730    5.4000 C   0  0  0  0  0  0
   21.7451   51.8558   13.1628 C   0  0  0  0  0  0
   22.6345   50.2299   11.6313 C   0  0  0  0  0  0
   23.7087   51.0730   11.3545 C   0  0  0  0  0  0
   22.8278   52.6939   12.9095 C   0  0  0  0  0  0
   23.8054   52.2991   12.0026 C   0  0  0  0  0  0
   19.2949   47.0271   16.1464 H   0  0  0  0  0  0
   19.7191   48.6155   16.6830 H   0  0  0  0  0  0
   18.3016   47.2833   11.7990 H   0  0  0  0  0  0
   19.5763   46.9244    7.7263 H   0  0  0  0  0  0
   20.2354   51.1452    7.8895 H   0  0  0  0  0  0
   19.6176   46.8312   10.1265 H   0  0  0  0  0  0
   20.2322   51.0826   10.3364 H   0  0  0  0  0  0
   18.0988   49.0730    4.3137 H   0  0  0  0  0  0
   17.7073   49.9590    5.8164 H   0  0  0  0  0  0
   17.7230   48.1734    5.8000 H   0  0  0  0  0  0
   20.9958   52.1827   13.8694 H   0  0  0  0  0  0
   22.5712   49.2689   11.1453 H   0  0  0  0  0  0
   24.4710   50.7708   10.6505 H   0  0  0  0  0  0
   22.9054   53.6471   13.4131 H   0  0  0  0  0  0
   24.6440   52.9491   11.8001 H   0  0  0  0  0  0
  1  2  1  0  0  0
  1  5  1  0  0  0
  1  7  1  0  0  0
  2  3  1  0  0  0
  2 14  2  0  0  0
  3 15  1  0  0  0
  3  4  2  0  0  0
  4  8  1  0  0  0
  4 11  1  0  0  0
  5  8  2  0  0  0
  6 10  1  0  0  0
  6 12  2  0  0  0
  6 13  2  0  0  0
  6 23  1  0  0  0
  7  9  1  0  0  0
  7 29  1  0  0  0
  7 30  1  0  0  0
  8 31  1  0  0  0
  9 20  1  0  0  0
  9 21  1  0  0  0
  9 22  1  0  0  0
 10 17  1  0  0  0
 10 16  2  0  0  0
 11 18  2  0  0  0
 11 19  1  0  0  0
 15 24  1  0  0  0
 15 25  2  0  0  0
 16 18  1  0  0  0
 16 32  1  0  0  0
 17 19  2  0  0  0
 17 33  1  0  0  0
 18 34  1  0  0  0
 19 35  1  0  0  0
 23 36  1  0  0  0
 23 37  1  0  0  0
 23 38  1  0  0  0
 24 27  2  0  0  0
 24 39  1  0  0  0
 25 26  1  0  0  0
 25 40  1  0  0  0
 26 28  2  0  0  0
 26 41  1  0  0  0
 27 28  1  0  0  0
 27 42  1  0  0  0
 28 43  1  0  0  0
M  END
> <s_m_entry_id>
5210

> <s_m_entry_name>
dock_pv.201

> <s_m_Source_Path>
/home/csk/Desktop/cluster/DUD-E-result/pgh1

> <s_m_Source_File>
dock_pv.maegz

> <i_m_Source_File_Index>
201

> <chembl_id>
CHEMBL346743

> <chembl_pref_name>
None

> <i_lp_mmshare_version>
53161

> <r_lp_tautomer_probability>
1

> <s_lp_Force_Field>
OPLS_2005

> <r_lp_Energy>
40.608021

> <b_lp_Chiralities_Consistent>
1

> <s_lp_Variant>
CHEMBL221_lig200-1

> <s_i_glide_gridfile>
glide-grid_2oyu

> <i_i_glide_lignum>
228

> <i_i_glide_rotatable_bonds>
5

> <r_i_docking_score>
-8.78382956360715

> <r_i_glide_ligand_efficiency>
-0.313708198700255

> <r_i_glide_ligand_efficiency_sa>
-0.952602855502085

> <r_i_glide_ligand_efficiency_ln>
-2.02756576772317

> <r_i_glide_gscore>
-8.78382956360715

> <r_i_glide_lipo>
-4.90427641497632

> <r_i_glide_hbond>
0

> <r_i_glide_metal>
0

> <r_i_glide_rewards>
-2.76403112670271

> <r_i_glide_evdw>
-16.0797100067139

> <r_i_glide_ecoul>
-4.30547189712524

> <r_i_glide_erotb>
0.354001621459922

> <r_i_glide_esite>
-0.0197173584835584

> <r_i_glide_emodel>
-18.6547277316168

> <r_i_glide_energy>
-20.3851819038391

> <r_i_glide_einternal>
4.03783369064331

> <i_i_glide_confnum>
8

> <i_i_glide_posenum>
398

> <r_i_glide_eff_state_penalty>
0

> <s_user_duplicate_titles>
CHEMBL221_lig200

> <i_f3d_flags>
0

> <s_m_subgroup_title>
dock_pv

> <s_m_subgroupid>
dock_pv

> <b_m_subgroup_collapsed>
1

$$$$
CHEMBL221_lig935
                    3D
 Schrodinger Suite 2021-1.
 42 44  0  0  1  0            999 V2000
   19.9838   49.0730   10.5571 C   0  0  0  0  0  0
   21.8720   50.7684   12.7818 C   0  0  0  0  0  0
   20.0607   49.0415   12.0444 C   0  0  0  0  0  0
   20.8179   49.7316   13.0028 C   0  0  0  0  0  0
   20.5230   49.3200   14.2343 N   0  0  0  0  0  0
   19.6489   48.3515   14.0992 C   0  0  0  0  0  0
   19.3094   48.1753   12.7936 N   0  0  0  0  0  0
   18.9877   47.3778   15.4000 S   0  0  0  0  0  0
   17.9528   48.6713   16.1282 C   0  0  0  0  0  0
   20.1657   50.2440    9.8194 C   0  0  0  0  0  0
   20.1230   50.1982    8.4252 C   0  0  0  0  0  0
   19.9091   48.9861    7.7643 C   0  0  0  0  0  0
   19.7095   47.8242    8.5059 C   0  0  0  0  0  0
   19.7230   47.8766    9.8899 C   0  0  0  0  0  0
   22.7881   50.6132   11.7363 C   0  0  0  0  0  0
   23.7839   51.5619   11.5236 C   0  0  0  0  0  0
   23.8616   52.6730   12.3590 C   0  0  0  0  0  0
   22.9520   52.8418   13.4000 C   0  0  0  0  0  0
   21.9641   51.8852   13.6189 C   0  0  0  0  0  0
   19.8722   48.8670    5.9829 S   0  0  0  0  0  0
   18.1192   49.1227    5.4273 C   0  0  0  0  0  0
   20.1230   47.4730    5.6974 O   0  0  0  0  0  0
   20.7524   49.8730    5.4000 O   0  0  0  0  0  0
   17.0770   48.2257   17.3013 C   0  0  0  0  0  0
   18.6476   47.4990   12.4400 H   0  0  0  0  0  0
   18.6096   49.4730   16.4607 H   0  0  0  0  0  0
   17.3228   49.0730   15.3371 H   0  0  0  0  0  0
   20.3392   51.1844   10.3215 H   0  0  0  0  0  0
   20.2363   51.1076    7.8521 H   0  0  0  0  0  0
   19.5356   46.8781    8.0184 H   0  0  0  0  0  0
   19.5996   46.9681   10.4492 H   0  0  0  0  0  0
   22.7326   49.7512   11.0894 H   0  0  0  0  0  0
   24.4932   51.4335   10.7179 H   0  0  0  0  0  0
   24.6331   53.4121   12.2000 H   0  0  0  0  0  0
   23.0176   53.7072   14.0442 H   0  0  0  0  0  0
   21.2653   52.0193   14.4320 H   0  0  0  0  0  0
   18.1040   49.0730    4.3392 H   0  0  0  0  0  0
   17.7538   50.0765    5.8000 H   0  0  0  0  0  0
   17.5259   48.2974    5.8000 H   0  0  0  0  0  0
   16.5230   49.0730   17.7059 H   0  0  0  0  0  0
   16.3530   47.4728   16.9974 H   0  0  0  0  0  0
   17.6778   47.8021   18.1060 H   0  0  0  0  0  0
  1  3  1  0  0  0
  1 10  2  0  0  0
  1 14  1  0  0  0
  2  4  1  0  0  0
  2 15  2  0  0  0
  2 19  1  0  0  0
  3  4  2  0  0  0
  3  7  1  0  0  0
  4  5  1  0  0  0
  5  6  2  0  0  0
  6  7  1  0  0  0
  6  8  1  0  0  0
  7 25  1  0  0  0
  8  9  1  0  0  0
  9 24  1  0  0  0
  9 26  1  0  0  0
  9 27  1  0  0  0
 10 11  1  0  0  0
 10 28  1  0  0  0
 11 12  2  0  0  0
 11 29  1  0  0  0
 12 13  1  0  0  0
 12 20  1  0  0  0
 13 14  2  0  0  0
 13 30  1  0  0  0
 14 31  1  0  0  0
 15 16  1  0  0  0
 15 32  1  0  0  0
 16 17  2  0  0  0
 16 33  1  0  0  0
 17 18  1  0  0  0
 17 34  1  0  0  0
 18 19  2  0  0  0
 18 35  1  0  0  0
 19 36  1  0  0  0
 20 21  1  0  0  0
 20 22  2  0  0  0
 20 23  2  0  0  0
 21 37  1  0  0  0
 21 38  1  0  0  0
 21 39  1  0  0  0
 24 40  1  0  0  0
 24 41  1  0  0  0
 24 42  1  0  0  0
M  END
> <s_m_entry_id>
5211

> <s_m_entry_name>
dock_pv.202

> <s_m_Source_Path>
/home/csk/Desktop/cluster/DUD-E-result/pgh1

> <s_m_Source_File>
dock_pv.maegz

> <i_m_Source_File_Index>
202

> <chembl_id>
CHEMBL2347671

> <chembl_pref_name>
None

> <i_lp_mmshare_version>
53161

> <r_lp_tautomer_probability>
0.999999999976373

> <s_lp_Force_Field>
OPLS_2005

> <r_lp_Energy>
11.626025

> <b_lp_Chiralities_Consistent>
1

> <s_lp_Variant>
CHEMBL221_lig935-1

> <s_i_glide_gridfile>
glide-grid_2oyu

> <i_i_glide_lignum>
1160

> <i_i_glide_rotatable_bonds>
5

> <r_i_docking_score>
-8.77394297989288

> <r_i_glide_ligand_efficiency>
-0.365580957495537

> <r_i_glide_ligand_efficiency_sa>
-1.05451795660391

> <r_i_glide_ligand_efficiency_ln>
-2.1000071650973

> <r_i_glide_gscore>
-8.77394297989288

> <r_i_glide_lipo>
-4.53757350331015

> <r_i_glide_hbond>
0

> <r_i_glide_metal>
0

> <r_i_glide_rewards>
-2.26413422011029

> <r_i_glide_evdw>
-28.9515018463135

> <r_i_glide_ecoul>
-6.34775638580322

> <r_i_glide_erotb>
0.447200846734027

> <r_i_glide_esite>
-0.0196975530203189

> <r_i_glide_emodel>
-46.5512294320418

> <r_i_glide_energy>
-35.2992582321167

> <r_i_glide_einternal>
3.43905639648438

> <i_i_glide_confnum>
10

> <i_i_glide_posenum>
191

> <r_i_glide_eff_state_penalty>
0

> <s_user_duplicate_titles>
CHEMBL221_lig935

> <i_f3d_flags>
0

> <s_m_subgroup_title>
dock_pv

> <s_m_subgroupid>
dock_pv

> <b_m_subgroup_collapsed>
1

$$$$
CHEMBL221_lig140
                    3D
 Schrodinger Suite 2021-1.
 39 41  0  0  1  0            999 V2000
   19.8484   49.0067   12.1112 N   0  0  0  0  0  0
   20.6077   49.6374   13.0828 C   0  0  0  0  0  0
   19.1348   48.2729   14.1225 N   0  0  0  0  0  0
   18.9741   48.2199   12.8310 C   0  0  0  0  0  0
   19.9798   48.9047    6.1183 S   0  0  0  0  0  0
   20.1280   49.1190   14.2933 C   0  0  0  0  0  0
   21.7019   50.6297   12.8519 C   0  0  0  0  0  0
   22.6425   50.4696   11.8307 C   0  0  0  0  0  0
   19.9129   49.0637   10.6973 C   0  0  0  0  0  0
   19.9579   49.0111    7.8999 C   0  0  0  0  0  0
   23.6550   51.4100   11.6495 C   0  0  0  0  0  0
   20.9230   49.8730    5.5680 O   0  0  0  0  0  0
   20.1230   47.4938    5.8003 O   0  0  0  0  0  0
   21.7985   51.7448   13.6895 C   0  0  0  0  0  0
   23.7872   52.4934   12.5179 C   0  0  0  0  0  0
   19.7230   47.8413    8.6167 C   0  0  0  0  0  0
   20.1230   50.2202    8.5869 C   0  0  0  0  0  0
   19.7230   47.8730    9.9998 C   0  0  0  0  0  0
   20.1230   50.2505    9.9852 C   0  0  0  0  0  0
   22.8314   52.6655   13.5279 C   0  0  0  0  0  0
   20.7029   49.4732   15.8723 Cl  0  0  0  0  0  0
   24.5108   51.2792   10.6151 F   0  0  0  0  0  0
   18.2763   49.3522    5.5688 C   0  0  0  0  0  0
   24.8716   53.3224   12.3195 O   0  0  0  0  0  0
   25.0896   54.4136   13.2018 C   0  0  0  0  0  0
   18.2376   47.6184   12.3182 H   0  0  0  0  0  0
   22.5852   49.6220   11.1651 H   0  0  0  0  0  0
   21.0753   51.9019   14.4767 H   0  0  0  0  0  0
   19.5735   46.8988    8.1134 H   0  0  0  0  0  0
   20.2477   51.1366    8.0280 H   0  0  0  0  0  0
   19.5972   46.9513   10.5367 H   0  0  0  0  0  0
   20.2447   51.1930   10.4996 H   0  0  0  0  0  0
   22.8813   53.5068   14.2002 H   0  0  0  0  0  0
   18.3383   49.4677    4.4920 H   0  0  0  0  0  0
   17.6145   48.5262    5.8000 H   0  0  0  0  0  0
   17.9596   50.2730    6.0463 H   0  0  0  0  0  0
   25.9344   55.0058   12.8487 H   0  0  0  0  0  0
   25.3291   54.0570   14.2001 H   0  0  0  0  0  0
   24.2240   55.0730   13.2576 H   0  0  0  0  0  0
  1  2  1  0  0  0
  1  4  1  0  0  0
  1  9  1  0  0  0
  2  6  2  0  0  0
  2  7  1  0  0  0
  3  4  2  0  0  0
  3  6  1  0  0  0
  4 26  1  0  0  0
  5 10  1  0  0  0
  5 12  2  0  0  0
  5 13  2  0  0  0
  5 23  1  0  0  0
  6 21  1  0  0  0
  7  8  2  0  0  0
  7 14  1  0  0  0
  8 11  1  0  0  0
  8 27  1  0  0  0
  9 18  1  0  0  0
  9 19  2  0  0  0
 10 17  2  0  0  0
 10 16  1  0  0  0
 11 22  1  0  0  0
 11 15  2  0  0  0
 14 20  2  0  0  0
 14 28  1  0  0  0
 15 20  1  0  0  0
 15 24  1  0  0  0
 16 18  2  0  0  0
 16 29  1  0  0  0
 17 19  1  0  0  0
 17 30  1  0  0  0
 18 31  1  0  0  0
 19 32  1  0  0  0
 20 33  1  0  0  0
 23 34  1  0  0  0
 23 35  1  0  0  0
 23 36  1  0  0  0
 24 25  1  0  0  0
 25 37  1  0  0  0
 25 38  1  0  0  0
 25 39  1  0  0  0
M  END
> <s_m_entry_id>
5212

> <s_m_entry_name>
dock_pv.203

> <s_m_Source_Path>
/home/csk/Desktop/cluster/DUD-E-result/pgh1

> <s_m_Source_File>
dock_pv.maegz

> <i_m_Source_File_Index>
203

> <chembl_id>
CHEMBL117862

> <chembl_pref_name>
None

> <i_lp_mmshare_version>
53161

> <r_lp_tautomer_probability>
1

> <s_lp_Force_Field>
OPLS_2005

> <r_lp_Energy>
16.043547

> <b_lp_Chiralities_Consistent>
1

> <s_lp_Variant>
CHEMBL221_lig140-1

> <s_i_glide_gridfile>
glide-grid_2oyu

> <i_i_glide_lignum>
162

> <i_i_glide_rotatable_bonds>
4

> <r_i_docking_score>
-8.76847234904094

> <r_i_glide_ligand_efficiency>
-0.350738893961637

> <r_i_glide_ligand_efficiency_sa>
-1.0255667463246

> <r_i_glide_ligand_efficiency_ln>
-2.07839071663477

> <r_i_glide_gscore>
-8.76847234904094

> <r_i_glide_lipo>
-4.23941697690538

> <r_i_glide_hbond>
0

> <r_i_glide_metal>
0

> <r_i_glide_rewards>
-2.50459394162633

> <r_i_glide_evdw>
-25.9847927093506

> <r_i_glide_ecoul>
-6.49541664123535

> <r_i_glide_erotb>
0.267602523335837

> <r_i_glide_esite>
-0.0185118221922394

> <r_i_glide_emodel>
-42.739954966881

> <r_i_glide_energy>
-32.4802093505859

> <r_i_glide_einternal>
1.06474447250366

> <i_i_glide_confnum>
4

> <i_i_glide_posenum>
161

> <r_i_glide_eff_state_penalty>
0

> <s_user_duplicate_titles>
CHEMBL221_lig140

> <i_f3d_flags>
0

> <s_m_subgroup_title>
dock_pv

> <s_m_subgroupid>
dock_pv

> <b_m_subgroup_collapsed>
1

$$$$
CHEMBL221_lig686
                    3D
 Schrodinger Suite 2021-1.
 35 39  0  0  1  0            999 V2000
   25.7264   52.6730   11.4418 C   0  0  0  0  0  0
   25.6127   53.4725   12.5969 C   0  0  0  0  0  0
   24.4742   53.4457   13.3815 C   0  0  0  0  0  0
   24.6994   51.8730   11.0041 C   0  0  0  0  0  0
   23.6305   51.7042   11.8648 C   0  0  0  0  0  0
   23.5407   52.4642   13.0698 C   0  0  0  0  0  0
   22.4529   51.9854   13.7601 N   0  0  0  0  0  0
   22.5153   50.8630   11.8170 C   0  0  0  0  0  0
   21.9055   50.9575   13.0382 C   0  0  0  0  0  0
   20.5377   49.8008   10.9100 C   0  0  0  0  0  0
   22.0687   49.8747   10.7903 C   0  0  0  0  0  0
   20.2012   49.4366   12.3230 N   0  0  0  0  0  0
   20.8846   50.0066   13.4055 C   0  0  0  0  0  0
   20.6287   49.6920   14.6161 N   0  0  0  0  0  0
   19.2896   48.4284   12.4655 C   0  0  0  0  0  0
   18.8172   48.2500   13.8803 C   0  0  0  0  0  0
   19.5835   48.8192   14.8812 C   0  0  0  0  0  0
   19.2747   48.5896   16.1997 C   0  0  0  0  0  0
   18.1230   47.8730   16.5392 C   0  0  0  0  0  0
   17.3247   47.3407   15.5294 C   0  0  0  0  0  0
   17.6918   47.4954   14.1986 C   0  0  0  0  0  0
   18.9229   47.7268   11.5326 O   0  0  0  0  0  0
   26.6165   52.7481   10.8322 H   0  0  0  0  0  0
   26.3866   54.1871   12.8424 H   0  0  0  0  0  0
   24.3605   54.1274   14.2000 H   0  0  0  0  0  0
   24.7785   51.3081   10.0876 H   0  0  0  0  0  0
   22.1295   52.2477   14.6799 H   0  0  0  0  0  0
   20.2007   49.0819   10.1605 H   0  0  0  0  0  0
   20.1174   50.7810   10.6760 H   0  0  0  0  0  0
   22.3753   50.1809    9.8000 H   0  0  0  0  0  0
   22.5230   48.9140   11.0001 H   0  0  0  0  0  0
   19.9719   48.9818   16.9228 H   0  0  0  0  0  0
   17.8618   47.7110   17.5747 H   0  0  0  0  0  0
   16.4420   46.7727   15.7811 H   0  0  0  0  0  0
   17.0750   47.0731   13.4279 H   0  0  0  0  0  0
  1  2  1  0  0  0
  1  4  2  0  0  0
  1 23  1  0  0  0
  2  3  2  0  0  0
  2 24  1  0  0  0
  3  6  1  0  0  0
  3 25  1  0  0  0
  4  5  1  0  0  0
  4 26  1  0  0  0
  5  8  1  0  0  0
  5  6  2  0  0  0
  6  7  1  0  0  0
  7  9  1  0  0  0
  7 27  1  0  0  0
  8 11  1  0  0  0
  8  9  2  0  0  0
  9 13  1  0  0  0
 10 12  1  0  0  0
 10 11  1  0  0  0
 10 28  1  0  0  0
 10 29  1  0  0  0
 11 30  1  0  0  0
 11 31  1  0  0  0
 12 13  1  0  0  0
 12 15  1  0  0  0
 13 14  2  0  0  0
 14 17  1  0  0  0
 15 16  1  0  0  0
 15 22  2  0  0  0
 16 17  2  0  0  0
 16 21  1  0  0  0
 17 18  1  0  0  0
 18 19  2  0  0  0
 18 32  1  0  0  0
 19 20  1  0  0  0
 19 33  1  0  0  0
 20 21  2  0  0  0
 20 34  1  0  0  0
 21 35  1  0  0  0
M  END
> <s_m_entry_id>
5213

> <s_m_entry_name>
dock_pv.204

> <s_m_Source_Path>
/home/csk/Desktop/cluster/DUD-E-result/pgh1

> <s_m_Source_File>
dock_pv.maegz

> <i_m_Source_File_Index>
204

> <chembl_id>
CHEMBL85139

> <chembl_pref_name>
RUTAECARPINE

> <i_lp_mmshare_version>
53161

> <r_lp_tautomer_probability>
1

> <s_lp_Force_Field>
OPLS_2005

> <r_lp_Energy>
29.563492

> <b_lp_Chiralities_Consistent>
1

> <s_lp_Variant>
CHEMBL221_lig686-1

> <s_i_glide_gridfile>
glide-grid_2oyu

> <i_i_glide_lignum>
846

> <i_i_glide_rotatable_bonds>
0

> <r_i_docking_score>
-8.75153369302376

> <r_i_glide_ligand_efficiency>
-0.397796986046534

> <r_i_glide_ligand_efficiency_sa>
-1.11464279937009

> <r_i_glide_ligand_efficiency_ln>
-2.13919405452262

> <r_i_glide_gscore>
-8.75153369302376

> <r_i_glide_lipo>
-4.67625472912309

> <r_i_glide_hbond>
0

> <r_i_glide_metal>
0

> <r_i_glide_rewards>
-3.1156499348651

> <r_i_glide_evdw>
-16.6366367340088

> <r_i_glide_ecoul>
-0.851981282234192

> <r_i_glide_erotb>
0

> <r_i_glide_esite>
0

> <r_i_glide_emodel>
-52.9224383276547

> <r_i_glide_energy>
-17.488618016243

> <r_i_glide_einternal>
0

> <i_i_glide_confnum>
1

> <i_i_glide_posenum>
189

> <r_i_glide_eff_state_penalty>
0

> <s_user_duplicate_titles>
CHEMBL221_lig686

> <i_f3d_flags>
0

> <s_m_subgroup_title>
dock_pv

> <s_m_subgroupid>
dock_pv

> <b_m_subgroup_collapsed>
1

$$$$
CHEMBL221_lig602
                    3D
 Schrodinger Suite 2021-1.
 46 49  0  0  1  0            999 V2000
   19.5310   47.9572   10.2375 C   0  0  0  0  0  0
   20.1079   49.1638    9.8523 C   0  0  0  0  0  0
   20.5694   50.0549   10.8210 C   0  0  0  0  0  0
   19.3861   47.6015   11.5776 C   0  0  0  0  0  0
   19.8496   48.3915   13.9201 N   0  0  0  0  0  0
   19.8772   48.4744   12.5395 C   0  0  0  0  0  0
   20.5071   49.6933   12.1837 C   0  0  0  0  0  0
   20.9555   50.2868   13.4101 C   0  0  0  0  0  0
   20.5234   49.4730   14.4500 C   0  0  0  0  0  0
   20.7005   49.6231   15.9477 C   0  0  0  0  0  0
   21.6887   51.5729   13.5441 C   0  0  0  0  0  0
   22.8194   54.1430   13.8000 N   0  0  0  0  0  0
   21.7230   53.7849   14.4945 C   0  0  0  0  0  0
   21.1979   52.5048   14.4508 C   0  0  0  0  0  0
   19.1103   47.3899   14.6967 C   0  0  0  0  0  0
   17.7198   47.8701   15.1218 C   0  0  0  0  0  0
   16.9627   48.2679   14.0591 O   0  0  0  0  0  0
   17.3461   47.8730   16.2907 O   0  0  0  0  0  0
   23.4172   51.0926   11.8017 C   0  0  0  0  0  0
   24.5230   51.5332   11.1041 C   0  0  0  0  0  0
   25.2227   52.6527   11.5227 C   0  0  0  0  0  0
   24.7212   53.4643   12.5287 C   0  0  0  0  0  0
   20.1230   49.5410    8.3774 C   0  0  0  0  0  0
   25.5060   54.6681   13.0000 C   0  0  0  0  0  0
   22.8358   51.9251   12.7865 C   0  0  0  0  0  0
   23.4371   53.1952   13.0493 C   0  0  0  0  0  0
   19.1513   47.2880    9.4785 H   0  0  0  0  0  0
   20.9929   51.0033   10.5248 H   0  0  0  0  0  0
   18.9230   46.6733   11.8628 H   0  0  0  0  0  0
   21.4223   50.3964   16.2072 H   0  0  0  0  0  0
   19.7650   49.8730   16.4473 H   0  0  0  0  0  0
   21.0720   48.7031   16.3946 H   0  0  0  0  0  0
   21.3230   54.5387   15.1555 H   0  0  0  0  0  0
   20.3472   52.2730   15.0697 H   0  0  0  0  0  0
   19.0088   46.4735   14.1172 H   0  0  0  0  0  0
   19.6914   47.1157   15.5763 H   0  0  0  0  0  0
   17.4274   48.2277   13.2213 H   0  0  0  0  0  0
   23.0039   50.1270   11.5655 H   0  0  0  0  0  0
   24.9147   50.9598   10.2861 H   0  0  0  0  0  0
   26.1695   52.8747   11.0511 H   0  0  0  0  0  0
   19.3230   49.1147    7.8000 H   0  0  0  0  0  0
   20.9230   49.0730    7.8509 H   0  0  0  0  0  0
   20.1230   50.6196    8.2127 H   0  0  0  0  0  0
   26.5230   54.6730   12.6219 H   0  0  0  0  0  0
   25.0171   55.5602   12.6234 H   0  0  0  0  0  0
   25.5415   54.6730   14.0891 H   0  0  0  0  0  0
  1  2  2  0  0  0
  1  4  1  0  0  0
  1 27  1  0  0  0
  2  3  1  0  0  0
  2 23  1  0  0  0
  3  7  2  0  0  0
  3 28  1  0  0  0
  4  6  2  0  0  0
  4 29  1  0  0  0
  5 15  1  0  0  0
  5  6  1  0  0  0
  5  9  1  0  0  0
  6  7  1  0  0  0
  7  8  1  0  0  0
  8  9  2  0  0  0
  8 11  1  0  0  0
  9 10  1  0  0  0
 10 30  1  0  0  0
 10 31  1  0  0  0
 10 32  1  0  0  0
 11 14  1  0  0  0
 11 25  2  0  0  0
 12 26  2  0  0  0
 12 13  1  0  0  0
 13 14  2  0  0  0
 13 33  1  0  0  0
 14 34  1  0  0  0
 15 16  1  0  0  0
 15 35  1  0  0  0
 15 36  1  0  0  0
 16 17  1  0  0  0
 16 18  2  0  0  0
 17 37  1  0  0  0
 19 25  1  0  0  0
 19 20  2  0  0  0
 19 38  1  0  0  0
 20 21  1  0  0  0
 20 39  1  0  0  0
 21 22  2  0  0  0
 21 40  1  0  0  0
 22 26  1  0  0  0
 22 24  1  0  0  0
 23 41  1  0  0  0
 23 42  1  0  0  0
 23 43  1  0  0  0
 24 44  1  0  0  0
 24 45  1  0  0  0
 24 46  1  0  0  0
 25 26  1  0  0  0
M  END
> <s_m_entry_id>
5214

> <s_m_entry_name>
dock_pv.205

> <s_m_Source_Path>
/home/csk/Desktop/cluster/DUD-E-result/pgh1

> <s_m_Source_File>
dock_pv.maegz

> <i_m_Source_File_Index>
205

> <chembl_id>
CHEMBL209689

> <chembl_pref_name>
None

> <i_lp_mmshare_version>
53161

> <r_lp_tautomer_probability>
1

> <s_lp_Force_Field>
OPLS_2005

> <r_lp_Energy>
20.245288

> <b_lp_Chiralities_Consistent>
1

> <s_lp_Variant>
CHEMBL221_lig602-1

> <s_i_glide_gridfile>
glide-grid_2oyu

> <i_i_glide_lignum>
741

> <i_i_glide_rotatable_bonds>
4

> <r_i_docking_score>
-8.7414889037596

> <r_i_glide_ligand_efficiency>
-0.336211111683062

> <r_i_glide_ligand_efficiency_sa>
-0.996024095434228

> <r_i_glide_ligand_efficiency_ln>
-2.05290998588335

> <r_i_glide_gscore>
-8.7414889037596

> <r_i_glide_lipo>
-5.00383965381519

> <r_i_glide_hbond>
0

> <r_i_glide_metal>
0

> <r_i_glide_rewards>
-2.59907362925896

> <r_i_glide_evdw>
-29.4056777954102

> <r_i_glide_ecoul>
-0.990045607089996

> <r_i_glide_erotb>
0.480215110148551

> <r_i_glide_esite>
0

> <r_i_glide_emodel>
-40.794793277212

> <r_i_glide_energy>
-30.3957234025002

> <r_i_glide_einternal>
3.53255200386047

> <i_i_glide_confnum>
17

> <i_i_glide_posenum>
180

> <r_i_glide_eff_state_penalty>
0

> <s_user_duplicate_titles>
CHEMBL221_lig602

> <i_f3d_flags>
0

> <s_m_subgroup_title>
dock_pv

> <s_m_subgroupid>
dock_pv

> <b_m_subgroup_collapsed>
1

$$$$
CHEMBL221_lig440
                    3D
 Schrodinger Suite 2021-1.
 43 45  0  0  1  0            999 V2000
   20.3034   49.1059   13.1780 N   0  0  0  0  0  0
   20.0600   48.0921   14.0462 C   0  0  0  0  0  0
   21.2099   49.9886   13.8727 N   0  0  0  0  0  0
   20.9227   49.9440   15.1968 C   0  0  0  0  0  0
   20.1102   48.6971   15.4179 C   0  0  0  0  0  0
   19.7230   46.9318   13.8284 O   0  0  0  0  0  0
   20.0757   49.1093   11.7638 C   0  0  0  0  0  0
   22.2000   50.8086   13.2716 C   0  0  0  0  0  0
   21.3230   50.6730   16.1036 O   0  0  0  0  0  0
   18.6842   48.9996   15.9574 C   0  0  0  0  0  0
   20.2398   50.2971   11.0363 C   0  0  0  0  0  0
   23.0030   50.2763   12.2526 C   0  0  0  0  0  0
   22.3712   52.1479   13.6549 C   0  0  0  0  0  0
   19.7230   47.9493   11.0492 C   0  0  0  0  0  0
   18.0056   47.8913   16.7857 C   0  0  0  0  0  0
   16.6931   47.4109   16.2000 C   0  0  0  0  0  0
   16.8287   46.4850   15.0000 C   0  0  0  0  0  0
   23.3230   52.9408   13.0191 C   0  0  0  0  0  0
   23.9320   51.0793   11.6014 C   0  0  0  0  0  0
   19.7230   47.9352    9.6572 C   0  0  0  0  0  0
   20.3091   50.2678    9.6504 C   0  0  0  0  0  0
   20.1230   49.0730    8.9674 C   0  0  0  0  0  0
   24.0950   52.4043   11.9925 C   0  0  0  0  0  0
   20.6640   48.0596   16.1034 H   0  0  0  0  0  0
   18.0207   49.2690   15.1354 H   0  0  0  0  0  0
   18.7220   49.8730   16.6000 H   0  0  0  0  0  0
   20.4024   51.2425   11.5302 H   0  0  0  0  0  0
   22.8932   49.2466   11.9432 H   0  0  0  0  0  0
   21.7679   52.5860   14.4372 H   0  0  0  0  0  0
   19.4956   47.0210   11.5374 H   0  0  0  0  0  0
   17.7230   48.2730   17.7684 H   0  0  0  0  0  0
   18.6679   47.0530   16.9513 H   0  0  0  0  0  0
   16.1230   48.2730   15.8989 H   0  0  0  0  0  0
   16.1230   46.9370   16.9934 H   0  0  0  0  0  0
   15.8771   46.0097   14.7603 H   0  0  0  0  0  0
   17.5661   45.6977   15.1578 H   0  0  0  0  0  0
   17.1309   47.0730   14.1318 H   0  0  0  0  0  0
   23.4563   53.9701   13.3208 H   0  0  0  0  0  0
   24.5230   50.6730   10.7952 H   0  0  0  0  0  0
   19.4887   47.0289    9.1198 H   0  0  0  0  0  0
   20.5230   51.1630    9.0923 H   0  0  0  0  0  0
   20.1755   49.0577    7.8881 H   0  0  0  0  0  0
   24.8262   53.0219   11.4937 H   0  0  0  0  0  0
  1  2  1  0  0  0
  1  3  1  0  0  0
  1  7  1  0  0  0
  2  5  1  0  0  0
  2  6  2  0  0  0
  3  4  1  0  0  0
  3  8  1  0  0  0
  4  9  2  0  0  0
  4  5  1  0  0  0
  5 10  1  0  0  0
  5 24  1  0  0  0
  7 11  2  0  0  0
  7 14  1  0  0  0
  8 12  2  0  0  0
  8 13  1  0  0  0
 10 15  1  0  0  0
 10 25  1  0  0  0
 10 26  1  0  0  0
 11 21  1  0  0  0
 11 27  1  0  0  0
 12 19  1  0  0  0
 12 28  1  0  0  0
 13 18  2  0  0  0
 13 29  1  0  0  0
 14 20  2  0  0  0
 14 30  1  0  0  0
 15 16  1  0  0  0
 15 31  1  0  0  0
 15 32  1  0  0  0
 16 17  1  0  0  0
 16 33  1  0  0  0
 16 34  1  0  0  0
 17 35  1  0  0  0
 17 36  1  0  0  0
 17 37  1  0  0  0
 18 23  1  0  0  0
 18 38  1  0  0  0
 19 23  2  0  0  0
 19 39  1  0  0  0
 20 22  1  0  0  0
 20 40  1  0  0  0
 21 22  2  0  0  0
 21 41  1  0  0  0
 22 42  1  0  0  0
 23 43  1  0  0  0
M  END
> <s_m_entry_id>
5215

> <s_m_entry_name>
dock_pv.206

> <s_m_Source_Path>
/home/csk/Desktop/cluster/DUD-E-result/pgh1

> <s_m_Source_File>
dock_pv.maegz

> <i_m_Source_File_Index>
206

> <chembl_id>
CHEMBL101

> <chembl_pref_name>
PHENYLBUTAZONE

> <i_lp_mmshare_version>
53161

> <r_lp_tautomer_probability>
0.999999855996438

> <s_lp_Force_Field>
OPLS_2005

> <r_lp_Energy>
31.034992

> <b_lp_Chiralities_Consistent>
1

> <s_lp_Variant>
CHEMBL221_lig440-1

> <s_i_glide_gridfile>
glide-grid_2oyu

> <i_i_glide_lignum>
513

> <i_i_glide_rotatable_bonds>
5

> <r_i_docking_score>
-8.73873041259838

> <r_i_glide_ligand_efficiency>
-0.379944800547756

> <r_i_glide_ligand_efficiency_sa>
-1.08051247131474

> <r_i_glide_ligand_efficiency_ln>
-2.11310425219274

> <r_i_glide_gscore>
-8.73873041259838

> <r_i_glide_lipo>
-4.47152566913152

> <r_i_glide_hbond>
-0.0189369984514939

> <r_i_glide_metal>
0

> <r_i_glide_rewards>
-3.21127108646034

> <r_i_glide_evdw>
-29.7920913696289

> <r_i_glide_ecoul>
-2.17059326171875

> <r_i_glide_erotb>
0.778196899184237

> <r_i_glide_esite>
0

> <r_i_glide_emodel>
-37.7718050385665

> <r_i_glide_energy>
-31.9626846313477

> <r_i_glide_einternal>
8.83408260345459

> <i_i_glide_confnum>
115

> <i_i_glide_posenum>
25

> <r_i_glide_eff_state_penalty>
0

> <s_user_duplicate_titles>
CHEMBL221_lig440

> <i_f3d_flags>
0

> <s_m_subgroup_title>
dock_pv

> <s_m_subgroupid>
dock_pv

> <b_m_subgroup_collapsed>
1

$$$$
CHEMBL221_lig123
                    3D
 Schrodinger Suite 2021-1.
 35 37  0  0  1  0            999 V2000
   20.8666   49.9120   13.5541 N   0  0  0  0  0  0
   19.9797   49.1993   12.7726 C   0  0  0  0  0  0
   20.5239   49.5666   14.8467 C   0  0  0  0  0  0
   20.0468   48.7617    6.7471 S   0  0  0  0  0  0
   19.5699   48.6728   14.9281 N   0  0  0  0  0  0
   19.2245   48.4567   13.6775 C   0  0  0  0  0  0
   21.9173   50.7634   13.1387 C   0  0  0  0  0  0
   20.1001   49.0118    8.5214 C   0  0  0  0  0  0
   19.9317   49.2173   11.2905 C   0  0  0  0  0  0
   19.4232   47.4730    6.6000 O   0  0  0  0  0  0
   21.3230   49.0730    6.1342 O   0  0  0  0  0  0
   21.3230   50.2522   16.2000 Cl  0  0  0  0  0  0
   20.1230   50.2717    9.1214 C   0  0  0  0  0  0
   19.8043   47.8880    9.3037 C   0  0  0  0  0  0
   20.0936   50.3709   10.5132 C   0  0  0  0  0  0
   19.7230   47.9894   10.6792 C   0  0  0  0  0  0
   22.8476   50.3013   12.2000 C   0  0  0  0  0  0
   22.0509   52.0416   13.6928 C   0  0  0  0  0  0
   18.9230   49.8665    5.9036 C   0  0  0  0  0  0
   24.0926   52.3440   12.4552 C   0  0  0  0  0  0
   23.9280   51.1025   11.8466 C   0  0  0  0  0  0
   23.1474   52.8275   13.3547 C   0  0  0  0  0  0
   25.1989   53.0730   12.2000 F   0  0  0  0  0  0
   18.4301   47.7680   13.4265 H   0  0  0  0  0  0
   20.2267   51.1506    8.5060 H   0  0  0  0  0  0
   19.6764   46.9104    8.8647 H   0  0  0  0  0  0
   20.1949   51.3386   10.9821 H   0  0  0  0  0  0
   19.5551   47.0955   11.2632 H   0  0  0  0  0  0
   22.7546   49.3151   11.7675 H   0  0  0  0  0  0
   21.3315   52.4190   14.4059 H   0  0  0  0  0  0
   19.0548   49.6692    4.8460 H   0  0  0  0  0  0
   19.3231   50.7984    6.2000 H   0  0  0  0  0  0
   17.8950   49.7178    6.2000 H   0  0  0  0  0  0
   24.6630   50.7442   11.1418 H   0  0  0  0  0  0
   23.2838   53.7984   13.8088 H   0  0  0  0  0  0
  1  2  1  0  0  0
  1  3  1  0  0  0
  1  7  1  0  0  0
  2  6  2  0  0  0
  2  9  1  0  0  0
  3  5  2  0  0  0
  3 12  1  0  0  0
  4  8  1  0  0  0
  4 10  2  0  0  0
  4 11  2  0  0  0
  4 19  1  0  0  0
  5  6  1  0  0  0
  6 24  1  0  0  0
  7 17  2  0  0  0
  7 18  1  0  0  0
  8 14  1  0  0  0
  8 13  2  0  0  0
  9 15  2  0  0  0
  9 16  1  0  0  0
 13 15  1  0  0  0
 13 25  1  0  0  0
 14 16  2  0  0  0
 14 26  1  0  0  0
 15 27  1  0  0  0
 16 28  1  0  0  0
 17 21  1  0  0  0
 17 29  1  0  0  0
 18 22  2  0  0  0
 18 30  1  0  0  0
 19 31  1  0  0  0
 19 32  1  0  0  0
 19 33  1  0  0  0
 20 22  1  0  0  0
 20 23  1  0  0  0
 20 21  2  0  0  0
 21 34  1  0  0  0
 22 35  1  0  0  0
M  END
> <s_m_entry_id>
5216

> <s_m_entry_name>
dock_pv.207

> <s_m_Source_Path>
/home/csk/Desktop/cluster/DUD-E-result/pgh1

> <s_m_Source_File>
dock_pv.maegz

> <i_m_Source_File_Index>
207

> <chembl_id>
CHEMBL114783

> <chembl_pref_name>
None

> <i_lp_mmshare_version>
53161

> <r_lp_tautomer_probability>
1

> <s_lp_Force_Field>
OPLS_2005

> <r_lp_Energy>
12.452156

> <b_lp_Chiralities_Consistent>
1

> <s_lp_Variant>
CHEMBL221_lig123-1

> <s_i_glide_gridfile>
glide-grid_2oyu

> <i_i_glide_lignum>
145

> <i_i_glide_rotatable_bonds>
3

> <r_i_docking_score>
-8.73699942985665

> <r_i_glide_ligand_efficiency>
-0.37986954042855

> <r_i_glide_ligand_efficiency_sa>
-1.08029844154705

> <r_i_glide_ligand_efficiency_ln>
-2.11268568487011

> <r_i_glide_gscore>
-8.73699942985665

> <r_i_glide_lipo>
-4.0749454182393

> <r_i_glide_hbond>
0

> <r_i_glide_metal>
0

> <r_i_glide_rewards>
-3.26240737869408

> <r_i_glide_evdw>
-16.6486396789551

> <r_i_glide_ecoul>
-5.84714698791504

> <r_i_glide_erotb>
0.309857399211749

> <r_i_glide_esite>
0

> <r_i_glide_emodel>
-25.2599117515702

> <r_i_glide_energy>
-22.4957866668701

> <r_i_glide_einternal>
1.88575112819672

> <i_i_glide_confnum>
7

> <i_i_glide_posenum>
240

> <r_i_glide_eff_state_penalty>
0

> <s_user_duplicate_titles>
CHEMBL221_lig123

> <i_f3d_flags>
0

> <s_m_subgroup_title>
dock_pv

> <s_m_subgroupid>
dock_pv

> <b_m_subgroup_collapsed>
1

$$$$
CHEMBL221_lig155
                    3D
 Schrodinger Suite 2021-1.
 35 37  0  0  1  0            999 V2000
   19.9460   49.2646   12.7379 N   0  0  0  0  0  0
   20.8771   49.8721   13.5629 C   0  0  0  0  0  0
   19.0906   48.6258   13.6225 C   0  0  0  0  0  0
   20.0458   48.7719    6.7367 S   0  0  0  0  0  0
   19.4688   48.6884   14.8722 N   0  0  0  0  0  0
   20.5230   49.4730   14.8492 C   0  0  0  0  0  0
   19.9046   49.2432   11.3204 C   0  0  0  0  0  0
   20.1005   49.0343    8.5273 C   0  0  0  0  0  0
   22.0024   50.7372   13.1293 C   0  0  0  0  0  0
   19.4599   47.4730    6.6000 O   0  0  0  0  0  0
   21.3230   49.0730    6.1199 O   0  0  0  0  0  0
   17.6281   47.8730   13.1348 Cl  0  0  0  0  0  0
   19.8078   47.9135    9.3166 C   0  0  0  0  0  0
   20.1234   50.2874    9.1406 C   0  0  0  0  0  0
   19.7230   48.0122   10.6961 C   0  0  0  0  0  0
   20.0793   50.3942   10.5374 C   0  0  0  0  0  0
   22.8995   50.3135   12.1460 C   0  0  0  0  0  0
   22.1689   51.9765   13.7497 C   0  0  0  0  0  0
   18.8551   49.7405    5.8000 C   0  0  0  0  0  0
   24.1590   52.3384   12.4517 C   0  0  0  0  0  0
   23.9765   51.1221   11.8000 C   0  0  0  0  0  0
   23.2456   52.7833   13.4000 C   0  0  0  0  0  0
   25.2617   53.0730   12.1999 F   0  0  0  0  0  0
   21.0398   49.7421   15.7591 H   0  0  0  0  0  0
   19.6860   46.9350    8.8777 H   0  0  0  0  0  0
   20.2298   51.1656    8.5242 H   0  0  0  0  0  0
   19.5653   47.1108   11.2716 H   0  0  0  0  0  0
   20.1774   51.3654   11.0010 H   0  0  0  0  0  0
   22.7760   49.3523   11.6694 H   0  0  0  0  0  0
   21.4760   52.3106   14.5086 H   0  0  0  0  0  0
   18.8539   49.3395    4.7899 H   0  0  0  0  0  0
   19.3202   50.6730    5.8000 H   0  0  0  0  0  0
   17.8541   49.7469    6.2000 H   0  0  0  0  0  0
   24.6886   50.7939   11.0582 H   0  0  0  0  0  0
   23.3945   53.7345   13.8898 H   0  0  0  0  0  0
  1  2  1  0  0  0
  1  3  1  0  0  0
  1  7  1  0  0  0
  2  6  2  0  0  0
  2  9  1  0  0  0
  3  5  2  0  0  0
  3 12  1  0  0  0
  4  8  1  0  0  0
  4 10  2  0  0  0
  4 11  2  0  0  0
  4 19  1  0  0  0
  5  6  1  0  0  0
  6 24  1  0  0  0
  7 15  2  0  0  0
  7 16  1  0  0  0
  8 14  1  0  0  0
  8 13  2  0  0  0
  9 17  2  0  0  0
  9 18  1  0  0  0
 13 15  1  0  0  0
 13 25  1  0  0  0
 14 16  2  0  0  0
 14 26  1  0  0  0
 15 27  1  0  0  0
 16 28  1  0  0  0
 17 21  1  0  0  0
 17 29  1  0  0  0
 18 22  2  0  0  0
 18 30  1  0  0  0
 19 31  1  0  0  0
 19 32  1  0  0  0
 19 33  1  0  0  0
 20 22  1  0  0  0
 20 23  1  0  0  0
 20 21  2  0  0  0
 21 34  1  0  0  0
 22 35  1  0  0  0
M  END
> <s_m_entry_id>
5217

> <s_m_entry_name>
dock_pv.208

> <s_m_Source_Path>
/home/csk/Desktop/cluster/DUD-E-result/pgh1

> <s_m_Source_File>
dock_pv.maegz

> <i_m_Source_File_Index>
208

> <chembl_id>
CHEMBL117946

> <chembl_pref_name>
None

> <i_lp_mmshare_version>
53161

> <r_lp_tautomer_probability>
1

> <s_lp_Force_Field>
OPLS_2005

> <r_lp_Energy>
12.226939

> <b_lp_Chiralities_Consistent>
1

> <s_lp_Variant>
CHEMBL221_lig155-1

> <s_i_glide_gridfile>
glide-grid_2oyu

> <i_i_glide_lignum>
177

> <i_i_glide_rotatable_bonds>
3

> <r_i_docking_score>
-8.73444111637113

> <r_i_glide_ligand_efficiency>
-0.37975830940744

> <r_i_glide_ligand_efficiency_sa>
-1.07998211531931

> <r_i_glide_ligand_efficiency_ln>
-2.11206706147181

> <r_i_glide_gscore>
-8.73444111637113

> <r_i_glide_lipo>
-4.10693581077019

> <r_i_glide_hbond>
0

> <r_i_glide_metal>
0

> <r_i_glide_rewards>
-3.12211974674384

> <r_i_glide_evdw>
-20.1280059814453

> <r_i_glide_ecoul>
-5.39228439331055

> <r_i_glide_erotb>
0.309857399211749

> <r_i_glide_esite>
0

> <r_i_glide_emodel>
-36.3075852532128

> <r_i_glide_energy>
-25.5202903747559

> <r_i_glide_einternal>
2.39842438697815

> <i_i_glide_confnum>
9

> <i_i_glide_posenum>
358

> <r_i_glide_eff_state_penalty>
0

> <s_user_duplicate_titles>
CHEMBL221_lig155

> <i_f3d_flags>
0

> <s_m_subgroup_title>
dock_pv

> <s_m_subgroupid>
dock_pv

> <b_m_subgroup_collapsed>
1

$$$$
CHEMBL221_lig473
                    3D
 Schrodinger Suite 2021-1.
 36 38  0  0  1  0            999 V2000
   20.5553   49.6047   13.3562 C   0  0  0  0  0  0
   20.0008   48.9848    6.2330 S   0  0  0  0  0  0
   19.8848   48.9789   12.3078 C   0  0  0  0  0  0
   21.5741   50.6313   13.2676 C   0  0  0  0  0  0
   20.1230   49.1428   14.5198 N   0  0  0  0  0  0
   19.0059   48.1137   12.8737 O   0  0  0  0  0  0
   22.8399   50.5212   12.0863 S   0  0  0  0  0  0
   19.1950   48.2728   14.2051 C   0  0  0  0  0  0
   21.7230   51.7811   14.0291 C   0  0  0  0  0  0
   20.0194   49.0305    8.0213 C   0  0  0  0  0  0
   23.4640   52.0809   12.5002 C   0  0  0  0  0  0
   19.9188   49.0534   10.8180 C   0  0  0  0  0  0
   22.7664   52.5958   13.5863 C   0  0  0  0  0  0
   20.9230   49.9698    5.6843 O   0  0  0  0  0  0
   20.1230   47.5911    5.8388 O   0  0  0  0  0  0
   18.4115   49.4730    5.8000 N   0  0  0  0  0  0
   20.1230   50.2364    8.7238 C   0  0  0  0  0  0
   19.7581   47.8532    8.7218 C   0  0  0  0  0  0
   20.1227   50.2454   10.1192 C   0  0  0  0  0  0
   19.7230   47.8730   10.1096 C   0  0  0  0  0  0
   18.3268   47.4719   15.1443 C   0  0  0  0  0  0
   24.5879   52.6723   11.7034 C   0  0  0  0  0  0
   21.0672   52.0449   14.8460 H   0  0  0  0  0  0
   22.9956   53.5513   14.0361 H   0  0  0  0  0  0
   18.2760   50.4816    5.9260 H   0  0  0  0  0  0
   18.1728   49.2481    4.8310 H   0  0  0  0  0  0
   20.2330   51.1628    8.1796 H   0  0  0  0  0  0
   19.6077   46.9203    8.2000 H   0  0  0  0  0  0
   20.2392   51.1787   10.6505 H   0  0  0  0  0  0
   19.5734   46.9614   10.6561 H   0  0  0  0  0  0
   18.5698   47.6583   16.1908 H   0  0  0  0  0  0
   17.2724   47.7159   15.0115 H   0  0  0  0  0  0
   18.4328   46.4011   14.9725 H   0  0  0  0  0  0
   25.1028   53.4731   12.2334 H   0  0  0  0  0  0
   24.2063   53.0730   10.7652 H   0  0  0  0  0  0
   25.3281   51.9237   11.4256 H   0  0  0  0  0  0
  1  3  2  0  0  0
  1  4  1  0  0  0
  1  5  1  0  0  0
  2 10  1  0  0  0
  2 14  2  0  0  0
  2 15  2  0  0  0
  2 16  1  0  0  0
  3  6  1  0  0  0
  3 12  1  0  0  0
  4  7  1  0  0  0
  4  9  2  0  0  0
  5  8  2  0  0  0
  6  8  1  0  0  0
  7 11  1  0  0  0
  8 21  1  0  0  0
  9 13  1  0  0  0
  9 23  1  0  0  0
 10 18  2  0  0  0
 10 17  1  0  0  0
 11 22  1  0  0  0
 11 13  2  0  0  0
 12 19  1  0  0  0
 12 20  2  0  0  0
 13 24  1  0  0  0
 16 25  1  0  0  0
 16 26  1  0  0  0
 17 19  2  0  0  0
 17 27  1  0  0  0
 18 20  1  0  0  0
 18 28  1  0  0  0
 19 29  1  0  0  0
 20 30  1  0  0  0
 21 31  1  0  0  0
 21 32  1  0  0  0
 21 33  1  0  0  0
 22 34  1  0  0  0
 22 35  1  0  0  0
 22 36  1  0  0  0
M  END
> <s_m_entry_id>
5218

> <s_m_entry_name>
dock_pv.209

> <s_m_Source_Path>
/home/csk/Desktop/cluster/DUD-E-result/pgh1

> <s_m_Source_File>
dock_pv.maegz

> <i_m_Source_File_Index>
209

> <chembl_id>
CHEMBL38368

> <chembl_pref_name>
None

> <i_lp_mmshare_version>
53161

> <r_lp_tautomer_probability>
1

> <s_lp_Force_Field>
OPLS_2005

> <r_lp_Energy>
12.701239

> <b_lp_Chiralities_Consistent>
1

> <s_lp_Variant>
CHEMBL221_lig473-1

> <s_i_glide_gridfile>
glide-grid_2oyu

> <i_i_glide_lignum>
588

> <i_i_glide_rotatable_bonds>
3

> <r_i_docking_score>
-8.73028960269408

> <r_i_glide_ligand_efficiency>
-0.396831345577003

> <r_i_glide_ligand_efficiency_sa>
-1.11193703679798

> <r_i_glide_ligand_efficiency_ln>
-2.13400122394903

> <r_i_glide_gscore>
-8.73028960269408

> <r_i_glide_lipo>
-4.29560058286156

> <r_i_glide_hbond>
-0.295414237340856

> <r_i_glide_metal>
0

> <r_i_glide_rewards>
-2.23506330232946

> <r_i_glide_evdw>
-25.3571128845215

> <r_i_glide_ecoul>
-5.99738073348999

> <r_i_glide_erotb>
0.337291130121827

> <r_i_glide_esite>
-0.0740398560344506

> <r_i_glide_emodel>
-43.4579424465036

> <r_i_glide_energy>
-31.3544936180115

> <r_i_glide_einternal>
2.14837169647217

> <i_i_glide_confnum>
2

> <i_i_glide_posenum>
124

> <r_i_glide_eff_state_penalty>
0

> <s_user_duplicate_titles>
CHEMBL221_lig473

> <i_f3d_flags>
0

> <s_m_subgroup_title>
dock_pv

> <s_m_subgroupid>
dock_pv

> <b_m_subgroup_collapsed>
1

$$$$
CHEMBL221_lig114
                    3D
 Schrodinger Suite 2021-1.
 39 41  0  0  1  0            999 V2000
   19.8450   48.9923   12.1154 N   0  0  0  0  0  0
   20.6041   49.6079   13.0980 C   0  0  0  0  0  0
   19.1267   48.2344   14.1167 N   0  0  0  0  0  0
   18.9676   48.1992   12.8247 C   0  0  0  0  0  0
   19.9799   48.9059    6.1197 S   0  0  0  0  0  0
   20.1231   49.0731   14.3014 C   0  0  0  0  0  0
   21.6906   50.6113   12.8825 C   0  0  0  0  0  0
   22.5919   50.5203   11.8182 C   0  0  0  0  0  0
   19.9115   49.0607   10.7007 C   0  0  0  0  0  0
   19.9587   49.0129    7.9014 C   0  0  0  0  0  0
   23.5576   51.5050   11.6252 C   0  0  0  0  0  0
   20.9230   49.8730    5.5682 O   0  0  0  0  0  0
   20.1230   47.4953    5.8006 O   0  0  0  0  0  0
   21.8030   51.6843   13.7708 C   0  0  0  0  0  0
   23.7147   52.5403   12.5475 C   0  0  0  0  0  0
   19.7230   47.8427    8.6163 C   0  0  0  0  0  0
   20.1230   50.2211    8.5910 C   0  0  0  0  0  0
   19.7230   47.8731    9.9989 C   0  0  0  0  0  0
   20.1229   50.2490    9.9901 C   0  0  0  0  0  0
   22.8114   52.6301   13.6148 C   0  0  0  0  0  0
   20.6886   49.4018   15.8892 Cl  0  0  0  0  0  0
   24.5230   51.4730   10.2001 Cl  0  0  0  0  0  0
   18.2767   49.3539    5.5712 C   0  0  0  0  0  0
   24.7612   53.4132   12.3387 O   0  0  0  0  0  0
   25.0105   54.4449   13.2765 C   0  0  0  0  0  0
   18.2302   47.6058   12.3036 H   0  0  0  0  0  0
   22.5245   49.7063   11.1121 H   0  0  0  0  0  0
   21.1090   51.7950   14.5907 H   0  0  0  0  0  0
   19.5736   46.9008    8.1120 H   0  0  0  0  0  0
   20.2471   51.1385    8.0336 H   0  0  0  0  0  0
   19.5979   46.9492   10.5321 H   0  0  0  0  0  0
   20.2412   51.1912   10.5057 H   0  0  0  0  0  0
   22.8704   53.4351   14.3286 H   0  0  0  0  0  0
   18.3388   49.4727    4.4948 H   0  0  0  0  0  0
   17.6153   48.5271    5.8000 H   0  0  0  0  0  0
   17.9589   50.2730    6.0510 H   0  0  0  0  0  0
   25.8221   55.0730   12.9111 H   0  0  0  0  0  0
   25.3232   54.0248   14.2272 H   0  0  0  0  0  0
   24.1334   55.0733   13.4262 H   0  0  0  0  0  0
  1  2  1  0  0  0
  1  4  1  0  0  0
  1  9  1  0  0  0
  2  6  2  0  0  0
  2  7  1  0  0  0
  3  4  2  0  0  0
  3  6  1  0  0  0
  4 26  1  0  0  0
  5 10  1  0  0  0
  5 12  2  0  0  0
  5 13  2  0  0  0
  5 23  1  0  0  0
  6 21  1  0  0  0
  7  8  2  0  0  0
  7 14  1  0  0  0
  8 11  1  0  0  0
  8 27  1  0  0  0
  9 18  1  0  0  0
  9 19  2  0  0  0
 10 17  2  0  0  0
 10 16  1  0  0  0
 11 22  1  0  0  0
 11 15  2  0  0  0
 14 20  2  0  0  0
 14 28  1  0  0  0
 15 20  1  0  0  0
 15 24  1  0  0  0
 16 18  2  0  0  0
 16 29  1  0  0  0
 17 19  1  0  0  0
 17 30  1  0  0  0
 18 31  1  0  0  0
 19 32  1  0  0  0
 20 33  1  0  0  0
 23 34  1  0  0  0
 23 35  1  0  0  0
 23 36  1  0  0  0
 24 25  1  0  0  0
 25 37  1  0  0  0
 25 38  1  0  0  0
 25 39  1  0  0  0
M  END
> <s_m_entry_id>
5219

> <s_m_entry_name>
dock_pv.210

> <s_m_Source_Path>
/home/csk/Desktop/cluster/DUD-E-result/pgh1

> <s_m_Source_File>
dock_pv.maegz

> <i_m_Source_File_Index>
210

> <chembl_id>
CHEMBL117295

> <chembl_pref_name>
None

> <i_lp_mmshare_version>
53161

> <r_lp_tautomer_probability>
1

> <s_lp_Force_Field>
OPLS_2005

> <r_lp_Energy>
15.405041

> <b_lp_Chiralities_Consistent>
1

> <s_lp_Variant>
CHEMBL221_lig114-1

> <s_i_glide_gridfile>
glide-grid_2oyu

> <i_i_glide_lignum>
136

> <i_i_glide_rotatable_bonds>
4

> <r_i_docking_score>
-8.72968427659

> <r_i_glide_ligand_efficiency>
-0.3491873710636

> <r_i_glide_ligand_efficiency_sa>
-1.02103006585436

> <r_i_glide_ligand_efficiency_ln>
-2.06919678107917

> <r_i_glide_gscore>
-8.72968427659

> <r_i_glide_lipo>
-4.29575018527762

> <r_i_glide_hbond>
0

> <r_i_glide_metal>
0

> <r_i_glide_rewards>
-2.30521223242546

> <r_i_glide_evdw>
-27.3179264068604

> <r_i_glide_ecoul>
-6.61537408828735

> <r_i_glide_erotb>
0.248031096445262

> <r_i_glide_esite>
-0.0185505217460624

> <r_i_glide_emodel>
-43.1224173304256

> <r_i_glide_energy>
-33.9333004951477

> <r_i_glide_einternal>
1.01673483848572

> <i_i_glide_confnum>
16

> <i_i_glide_posenum>
188

> <r_i_glide_eff_state_penalty>
0

> <s_user_duplicate_titles>
CHEMBL221_lig114

> <i_f3d_flags>
0

> <s_m_subgroup_title>
dock_pv

> <s_m_subgroupid>
dock_pv

> <b_m_subgroup_collapsed>
1

$$$$
CHEMBL221_lig87
                    3D
 Schrodinger Suite 2021-1.
 34 36  0  0  1  0            999 V2000
   20.0015   48.9123    6.3459 S   0  0  0  0  0  0
   19.8994   49.1359   12.3713 N   0  0  0  0  0  0
   20.6625   49.8264   13.3008 C   0  0  0  0  0  0
   19.3058   48.4347   14.4359 N   0  0  0  0  0  0
   19.0963   48.3307   13.1518 C   0  0  0  0  0  0
   20.2538   49.3422   14.5446 C   0  0  0  0  0  0
   21.6868   50.8595   13.0009 C   0  0  0  0  0  0
   20.0340   49.0202    8.1424 C   0  0  0  0  0  0
   19.9191   49.1574   10.9494 C   0  0  0  0  0  0
   20.9230   49.8730    5.7606 O   0  0  0  0  0  0
   20.1230   47.4992    6.0197 O   0  0  0  0  0  0
   22.6240   50.6586   11.9887 C   0  0  0  0  0  0
   21.6912   52.0634   13.7134 C   0  0  0  0  0  0
   18.4376   49.4206    5.8300 N   0  0  0  0  0  0
   22.6153   53.0594   13.4065 C   0  0  0  0  0  0
   23.5322   51.6602   11.6719 C   0  0  0  0  0  0
   23.5702   52.8364   12.4174 C   0  0  0  0  0  0
   19.7723   47.8731    8.8922 C   0  0  0  0  0  0
   20.1230   50.2487    8.8023 C   0  0  0  0  0  0
   19.7230   47.9543   10.2788 C   0  0  0  0  0  0
   20.1020   50.3233   10.1994 C   0  0  0  0  0  0
   20.8478   49.8180   16.0860 Cl  0  0  0  0  0  0
   24.5231   51.4751   10.2852 Cl  0  0  0  0  0  0
   22.5230   54.5897   14.1994 Cl  0  0  0  0  0  0
   18.3684   47.6816   12.6893 H   0  0  0  0  0  0
   22.6134   49.7467   11.4108 H   0  0  0  0  0  0
   20.9527   52.2460   14.4804 H   0  0  0  0  0  0
   18.3236   50.4370    5.9019 H   0  0  0  0  0  0
   18.2261   49.1518    4.8661 H   0  0  0  0  0  0
   24.3043   53.5938   12.1999 H   0  0  0  0  0  0
   19.6266   46.9195    8.4093 H   0  0  0  0  0  0
   20.1634   51.1379    8.2000 H   0  0  0  0  0  0
   19.5840   47.0730   10.8619 H   0  0  0  0  0  0
   20.1884   51.2835   10.6841 H   0  0  0  0  0  0
  1  8  1  0  0  0
  1 10  2  0  0  0
  1 11  2  0  0  0
  1 14  1  0  0  0
  2  9  1  0  0  0
  2  3  1  0  0  0
  2  5  1  0  0  0
  3  6  2  0  0  0
  3  7  1  0  0  0
  4  5  2  0  0  0
  4  6  1  0  0  0
  5 25  1  0  0  0
  6 22  1  0  0  0
  7 12  2  0  0  0
  7 13  1  0  0  0
  8 18  2  0  0  0
  8 19  1  0  0  0
  9 21  1  0  0  0
  9 20  2  0  0  0
 12 16  1  0  0  0
 12 26  1  0  0  0
 13 15  2  0  0  0
 13 27  1  0  0  0
 14 28  1  0  0  0
 14 29  1  0  0  0
 15 17  1  0  0  0
 15 24  1  0  0  0
 16 23  1  0  0  0
 16 17  2  0  0  0
 17 30  1  0  0  0
 18 20  1  0  0  0
 18 31  1  0  0  0
 19 21  2  0  0  0
 19 32  1  0  0  0
 20 33  1  0  0  0
 21 34  1  0  0  0
M  END
> <s_m_entry_id>
5220

> <s_m_entry_name>
dock_pv.211

> <s_m_Source_Path>
/home/csk/Desktop/cluster/DUD-E-result/pgh1

> <s_m_Source_File>
dock_pv.maegz

> <i_m_Source_File_Index>
211

> <chembl_id>
CHEMBL419407

> <chembl_pref_name>
None

> <i_lp_mmshare_version>
53161

> <r_lp_tautomer_probability>
1

> <s_lp_Force_Field>
OPLS_2005

> <r_lp_Energy>
20.883083

> <b_lp_Chiralities_Consistent>
1

> <s_lp_Variant>
CHEMBL221_lig87-1

> <s_i_glide_gridfile>
glide-grid_2oyu

> <i_i_glide_lignum>
104

> <i_i_glide_rotatable_bonds>
3

> <r_i_docking_score>
-8.71947312025067

> <r_i_glide_ligand_efficiency>
-0.363311380010444

> <r_i_glide_ligand_efficiency_sa>
-1.04797136230554

> <r_i_glide_ligand_efficiency_ln>
-2.08697002822592

> <r_i_glide_gscore>
-8.71947312025067

> <r_i_glide_lipo>
-4.20066175523387

> <r_i_glide_hbond>
-0.244480960337509

> <r_i_glide_metal>
0

> <r_i_glide_rewards>
-2.41154534580806

> <r_i_glide_evdw>
-27.2542037963867

> <r_i_glide_ecoul>
-4.47556972503662

> <r_i_glide_erotb>
0.242068779523598

> <r_i_glide_esite>
-0.07080818981999

> <r_i_glide_emodel>
-40.6678242828812

> <r_i_glide_energy>
-31.7297735214233

> <r_i_glide_einternal>
0.474224895238876

> <i_i_glide_confnum>
8

> <i_i_glide_posenum>
234

> <r_i_glide_eff_state_penalty>
0

> <s_user_duplicate_titles>
CHEMBL221_lig87,191942

> <i_f3d_flags>
0

> <s_m_subgroup_title>
dock_pv

> <s_m_subgroupid>
dock_pv

> <b_m_subgroup_collapsed>
1

$$$$
CHEMBL221_lig139
                    3D
 Schrodinger Suite 2021-1.
 42 44  0  0  1  0            999 V2000
   19.8156   48.8001   11.7542 N   0  0  0  0  0  0
   20.5660   49.3869   12.7520 C   0  0  0  0  0  0
   19.9621   49.0555    5.8166 S   0  0  0  0  0  0
   18.9230   47.9989   12.4211 C   0  0  0  0  0  0
   19.0741   47.9796   13.7086 N   0  0  0  0  0  0
   20.1073   48.7677   13.9174 C   0  0  0  0  0  0
   19.9008   48.9131   10.3573 C   0  0  0  0  0  0
   19.9441   49.0209    7.5867 C   0  0  0  0  0  0
   21.6655   50.3876   12.5739 C   0  0  0  0  0  0
   20.8418   50.1332    5.3739 O   0  0  0  0  0  0
   20.1902   47.7120    5.3298 O   0  0  0  0  0  0
   19.7230   47.8073    8.2200 C   0  0  0  0  0  0
   20.1230   50.1861    8.3366 C   0  0  0  0  0  0
   19.7230   47.7542    9.5995 C   0  0  0  0  0  0
   20.1230   50.1389    9.7282 C   0  0  0  0  0  0
   22.6657   50.1759   11.6280 C   0  0  0  0  0  0
   21.7111   51.5317   13.3738 C   0  0  0  0  0  0
   20.1230   49.8730   16.2000 C   0  0  0  0  0  0
   20.7375   50.9991   16.6000 C   0  0  0  0  0  0
   18.1908   49.3284    5.4000 C   0  0  0  0  0  0
   23.7651   52.2030   12.3136 C   0  0  0  0  0  0
   20.6804   48.8425   15.2919 C   0  0  0  0  0  0
   22.7629   52.4364   13.2513 C   0  0  0  0  0  0
   23.7177   51.0787   11.4935 C   0  0  0  0  0  0
   24.7929   53.0730   12.2007 F   0  0  0  0  0  0
   18.1621   47.4712   11.8689 H   0  0  0  0  0  0
   19.5756   46.9071    7.6507 H   0  0  0  0  0  0
   20.2435   51.1347    7.8323 H   0  0  0  0  0  0
   19.5989   46.7974   10.0768 H   0  0  0  0  0  0
   20.2420   51.0510   10.2958 H   0  0  0  0  0  0
   22.6102   49.3024   11.0000 H   0  0  0  0  0  0
   20.9230   51.7266   14.0834 H   0  0  0  0  0  0
   19.1294   49.6725   16.5760 H   0  0  0  0  0  0
   20.2574   51.6895   17.2782 H   0  0  0  0  0  0
   21.7230   51.2430   16.2481 H   0  0  0  0  0  0
   18.1230   49.2618    4.3179 H   0  0  0  0  0  0
   17.6248   48.4975    5.8000 H   0  0  0  0  0  0
   17.8474   50.2730    5.8000 H   0  0  0  0  0  0
   20.5958   47.8822   15.8006 H   0  0  0  0  0  0
   21.7230   49.0730   15.2061 H   0  0  0  0  0  0
   22.8044   53.3150   13.8791 H   0  0  0  0  0  0
   24.4968   50.9081   10.7643 H   0  0  0  0  0  0
  1  2  1  0  0  0
  1  4  1  0  0  0
  1  7  1  0  0  0
  2  6  2  0  0  0
  2  9  1  0  0  0
  3  8  1  0  0  0
  3 10  2  0  0  0
  3 11  2  0  0  0
  3 20  1  0  0  0
  4  5  2  0  0  0
  4 26  1  0  0  0
  5  6  1  0  0  0
  6 22  1  0  0  0
  7 14  1  0  0  0
  7 15  2  0  0  0
  8 13  2  0  0  0
  8 12  1  0  0  0
  9 16  1  0  0  0
  9 17  2  0  0  0
 12 14  2  0  0  0
 12 27  1  0  0  0
 13 15  1  0  0  0
 13 28  1  0  0  0
 14 29  1  0  0  0
 15 30  1  0  0  0
 16 24  2  0  0  0
 16 31  1  0  0  0
 17 23  1  0  0  0
 17 32  1  0  0  0
 18 22  1  0  0  0
 18 19  2  0  0  0
 18 33  1  0  0  0
 19 34  1  0  0  0
 19 35  1  0  0  0
 20 36  1  0  0  0
 20 37  1  0  0  0
 20 38  1  0  0  0
 21 23  2  0  0  0
 21 25  1  0  0  0
 21 24  1  0  0  0
 22 39  1  0  0  0
 22 40  1  0  0  0
 23 41  1  0  0  0
 24 42  1  0  0  0
M  END
> <s_m_entry_id>
5221

> <s_m_entry_name>
dock_pv.212

> <s_m_Source_Path>
/home/csk/Desktop/cluster/DUD-E-result/pgh1

> <s_m_Source_File>
dock_pv.maegz

> <i_m_Source_File_Index>
212

> <chembl_id>
CHEMBL324825

> <chembl_pref_name>
None

> <i_lp_mmshare_version>
53161

> <r_lp_tautomer_probability>
1

> <s_lp_Force_Field>
OPLS_2005

> <r_lp_Energy>
12.01094

> <b_lp_Chiralities_Consistent>
1

> <s_lp_Variant>
CHEMBL221_lig139-1

> <s_i_glide_gridfile>
glide-grid_2oyu

> <i_i_glide_lignum>
161

> <i_i_glide_rotatable_bonds>
5

> <r_i_docking_score>
-8.71520704672643

> <r_i_glide_ligand_efficiency>
-0.348608281869057

> <r_i_glide_ligand_efficiency_sa>
-1.01933679877933

> <r_i_glide_ligand_efficiency_ln>
-2.06576524375393

> <r_i_glide_gscore>
-8.71520704672643

> <r_i_glide_lipo>
-4.5332955080321

> <r_i_glide_hbond>
0

> <r_i_glide_metal>
0

> <r_i_glide_rewards>
-3.28316781526777

> <r_i_glide_evdw>
-13.181453704834

> <r_i_glide_ecoul>
-5.39556694030762

> <r_i_glide_erotb>
0.602435349360626

> <r_i_glide_esite>
-0.0327713464993482

> <r_i_glide_emodel>
-19.0922551020416

> <r_i_glide_energy>
-18.5770206451416

> <r_i_glide_einternal>
1.43231821060181

> <i_i_glide_confnum>
2

> <i_i_glide_posenum>
226

> <r_i_glide_eff_state_penalty>
0

> <s_user_duplicate_titles>
CHEMBL221_lig139

> <i_f3d_flags>
0

> <s_m_subgroup_title>
dock_pv

> <s_m_subgroupid>
dock_pv

> <b_m_subgroup_collapsed>
1

$$$$
CHEMBL221_lig506
                    3D
 Schrodinger Suite 2021-1.
 38 41  0  0  1  0            999 V2000
   21.1980   50.0775   12.7002 C   0  0  0  0  0  0
   19.3340   48.8392   13.1368 C   0  0  0  0  0  0
   20.2349   49.3455   12.1016 C   0  0  0  0  0  0
   19.7720   49.2879   14.3269 O   0  0  0  0  0  0
   21.0163   49.9313   14.1867 C   0  0  2  0  0  0
   22.3765   50.8682   12.2480 C   0  0  0  0  0  0
   20.0001   49.1821   10.6438 C   0  0  0  0  0  0
   18.3275   48.1483   12.9995 O   0  0  0  0  0  0
   22.9605   51.8377   13.0835 C   0  0  0  0  0  0
   21.1836   51.3052   14.8758 C   0  0  0  0  0  0
   22.5230   51.9784   14.5206 C   0  0  0  0  0  0
   20.1231   50.2853    9.7994 C   0  0  0  0  0  0
   19.7228   47.9306   10.0768 C   0  0  0  0  0  0
   19.9666   48.8546    7.8619 C   0  0  0  0  0  0
   20.0437   48.6731    6.1103 S   0  0  0  0  0  0
   20.1230   50.1191    8.4202 C   0  0  0  0  0  0
   19.7230   47.7592    8.6893 C   0  0  0  0  0  0
   22.9451   50.6553   10.9937 C   0  0  0  0  0  0
   24.0799   52.5561   12.6464 C   0  0  0  0  0  0
   18.3600   48.9669    5.5252 C   0  0  0  0  0  0
   24.0963   51.3231   10.5991 C   0  0  0  0  0  0
   24.6674   52.2736   11.4216 C   0  0  0  0  0  0
   21.7238   49.2437   14.6222 H   0  0  0  0  0  0
   21.0976   51.1905   15.9566 H   0  0  0  0  0  0
   20.4243   52.0209   14.6003 H   0  0  0  0  0  0
   22.5231   53.0248   14.8244 H   0  0  0  0  0  0
   23.3466   51.4729   15.0000 H   0  0  0  0  0  0
   20.2818   51.2722   10.2095 H   0  0  0  0  0  0
   19.5880   47.0730   10.7173 H   0  0  0  0  0  0
   20.2321   50.9824    7.7786 H   0  0  0  0  0  0
   19.5644   46.7805    8.2633 H   0  0  0  0  0  0
   22.5587   49.8953   10.3340 H   0  0  0  0  0  0
   24.5493   53.2757   13.3021 H   0  0  0  0  0  0
   18.3462   49.0732    4.4409 H   0  0  0  0  0  0
   17.7236   48.1284    5.7996 H   0  0  0  0  0  0
   17.9514   49.8736    5.9691 H   0  0  0  0  0  0
   24.5464   51.0898    9.6455 H   0  0  0  0  0  0
   25.5861   52.7511   11.1226 H   0  0  0  0  0  0
  1  3  2  0  0  0
  1  5  1  0  0  0
  1  6  1  0  0  0
  2  3  1  0  0  0
  2  8  2  0  0  0
  2  4  1  0  0  0
  3  7  1  0  0  0
  4  5  1  0  0  0
  5 10  1  0  0  0
  5 23  1  0  0  0
  6  9  2  0  0  0
  6 18  1  0  0  0
  7 12  1  0  0  0
  7 13  2  0  0  0
  9 11  1  0  0  0
  9 19  1  0  0  0
 10 11  1  0  0  0
 10 24  1  0  0  0
 10 25  1  0  0  0
 11 26  1  0  0  0
 11 27  1  0  0  0
 12 16  2  0  0  0
 12 28  1  0  0  0
 13 17  1  0  0  0
 13 29  1  0  0  0
 14 17  2  0  0  0
 14 15  1  0  0  0
 14 16  1  0  0  0
 15 20  1  0  0  0
 16 30  1  0  0  0
 17 31  1  0  0  0
 18 21  2  0  0  0
 18 32  1  0  0  0
 19 22  2  0  0  0
 19 33  1  0  0  0
 20 34  1  0  0  0
 20 35  1  0  0  0
 20 36  1  0  0  0
 21 22  1  0  0  0
 21 37  1  0  0  0
 22 38  1  0  0  0
M  END
> <s_m_entry_id>
5222

> <s_m_entry_name>
dock_pv.213

> <s_m_Source_Path>
/home/csk/Desktop/cluster/DUD-E-result/pgh1

> <s_m_Source_File>
dock_pv.maegz

> <i_m_Source_File_Index>
213

> <chembl_id>
CHEMBL42011

> <chembl_pref_name>
None

> <i_lp_mmshare_version>
53161

> <r_lp_tautomer_probability>
0.999841193423406

> <s_lp_Force_Field>
OPLS_2005

> <r_lp_Energy>
24.00167

> <b_lp_Chiralities_Consistent>
1

> <s_lp_Variant>
CHEMBL221_lig506-2

> <s_i_glide_gridfile>
glide-grid_2oyu

> <i_i_glide_lignum>
643

> <i_i_glide_rotatable_bonds>
2

> <r_i_docking_score>
-8.70863234077049

> <r_i_glide_ligand_efficiency>
-0.395846924580477

> <r_i_glide_ligand_efficiency_sa>
-1.10917865045063

> <r_i_glide_ligand_efficiency_ln>
-2.12870739916708

> <r_i_glide_gscore>
-8.70863234077049

> <r_i_glide_lipo>
-4.69681699008401

> <r_i_glide_hbond>
0

> <r_i_glide_metal>
0

> <r_i_glide_rewards>
-2.56691235565847

> <r_i_glide_evdw>
-27.282829284668

> <r_i_glide_ecoul>
-1.83525121212006

> <r_i_glide_erotb>
0.194526151023404

> <r_i_glide_esite>
0

> <r_i_glide_emodel>
-29.127496319449

> <r_i_glide_energy>
-29.118080496788

> <r_i_glide_einternal>
3.00183367729187

> <i_i_glide_confnum>
1

> <i_i_glide_posenum>
29

> <r_i_glide_eff_state_penalty>
0

> <s_user_duplicate_titles>
CHEMBL221_lig506,64116

> <i_f3d_flags>
0

> <s_m_subgroup_title>
dock_pv

> <s_m_subgroupid>
dock_pv

> <b_m_subgroup_collapsed>
1

$$$$
CHEMBL221_lig456
                    3D
 Schrodinger Suite 2021-1.
 38 40  0  0  1  0            999 V2000
   20.5229   49.6167   13.4021 C   0  0  0  0  0  0
   20.0162   48.8954    6.3631 S   0  0  0  0  0  0
   19.8373   48.9238   12.4620 C   0  0  0  0  0  0
   21.5755   50.6483   13.1940 C   0  0  0  0  0  0
   20.1944   49.1216   14.7489 C   0  0  0  0  0  0
   22.5847   50.4918   12.2334 C   0  0  0  0  0  0
   18.8565   47.9583   13.1076 C   0  0  0  0  0  0
   20.0235   49.0145    8.1573 C   0  0  0  0  0  0
   23.5635   51.4717   12.0614 C   0  0  0  0  0  0
   19.8875   49.0487   10.9763 C   0  0  0  0  0  0
   20.1230   47.4767    6.0517 O   0  0  0  0  0  0
   20.9229   49.8730    5.7740 O   0  0  0  0  0  0
   23.5583   52.6153   12.8615 C   0  0  0  0  0  0
   21.5662   51.8216   13.9627 C   0  0  0  0  0  0
   19.0802   48.1067   14.6018 C   0  0  0  0  0  0
   20.7224   49.4925   15.7966 O   0  0  0  0  0  0
   20.1230   50.2233    8.8591 C   0  0  0  0  0  0
   19.7661   47.8469    8.8673 C   0  0  0  0  0  0
   20.0980   50.2380   10.2617 C   0  0  0  0  0  0
   19.7230   47.8730   10.2497 C   0  0  0  0  0  0
   22.5447   52.7974   13.7994 C   0  0  0  0  0  0
   24.5173   51.3058   11.1205 F   0  0  0  0  0  0
   18.3387   49.3208    5.7971 C   0  0  0  0  0  0
   24.8120   53.7938   12.7161 Cl  0  0  0  0  0  0
   22.6210   49.6035   11.6194 H   0  0  0  0  0  0
   17.8253   48.2016   12.8459 H   0  0  0  0  0  0
   19.0236   46.9207   12.8188 H   0  0  0  0  0  0
   20.7997   51.9805   14.7078 H   0  0  0  0  0  0
   18.1862   48.4662   15.1128 H   0  0  0  0  0  0
   19.3714   47.1643   15.0649 H   0  0  0  0  0  0
   20.2439   51.1428    8.3064 H   0  0  0  0  0  0
   19.6351   46.9029    8.3598 H   0  0  0  0  0  0
   20.2037   51.1777   10.7832 H   0  0  0  0  0  0
   19.6068   46.9375   10.7603 H   0  0  0  0  0  0
   22.5238   53.6849   14.4165 H   0  0  0  0  0  0
   18.3646   49.3543    4.7106 H   0  0  0  0  0  0
   18.0144   50.2730    6.2000 H   0  0  0  0  0  0
   17.7230   48.4932    6.1085 H   0  0  0  0  0  0
  1  3  2  0  0  0
  1  4  1  0  0  0
  1  5  1  0  0  0
  2  8  1  0  0  0
  2 11  2  0  0  0
  2 12  2  0  0  0
  2 23  1  0  0  0
  3  7  1  0  0  0
  3 10  1  0  0  0
  4  6  1  0  0  0
  4 14  2  0  0  0
  5 15  1  0  0  0
  5 16  2  0  0  0
  6  9  2  0  0  0
  6 25  1  0  0  0
  7 15  1  0  0  0
  7 26  1  0  0  0
  7 27  1  0  0  0
  8 18  2  0  0  0
  8 17  1  0  0  0
  9 22  1  0  0  0
  9 13  1  0  0  0
 10 19  1  0  0  0
 10 20  2  0  0  0
 13 21  2  0  0  0
 13 24  1  0  0  0
 14 21  1  0  0  0
 14 28  1  0  0  0
 15 29  1  0  0  0
 15 30  1  0  0  0
 17 19  2  0  0  0
 17 31  1  0  0  0
 18 20  1  0  0  0
 18 32  1  0  0  0
 19 33  1  0  0  0
 20 34  1  0  0  0
 21 35  1  0  0  0
 23 36  1  0  0  0
 23 37  1  0  0  0
 23 38  1  0  0  0
M  END
> <s_m_entry_id>
5223

> <s_m_entry_name>
dock_pv.214

> <s_m_Source_Path>
/home/csk/Desktop/cluster/DUD-E-result/pgh1

> <s_m_Source_File>
dock_pv.maegz

> <i_m_Source_File_Index>
214

> <chembl_id>
CHEMBL23175

> <chembl_pref_name>
None

> <i_lp_mmshare_version>
53161

> <r_lp_tautomer_probability>
0.499977396165832

> <s_lp_Force_Field>
OPLS_2005

> <r_lp_Energy>
20.222236

> <b_lp_Chiralities_Consistent>
1

> <s_lp_Variant>
CHEMBL221_lig456-1

> <s_i_glide_gridfile>
glide-grid_2oyu

> <i_i_glide_lignum>
555

> <i_i_glide_rotatable_bonds>
3

> <r_i_docking_score>
-8.70452612167151

> <r_i_glide_ligand_efficiency>
-0.36268858840298

> <r_i_glide_ligand_efficiency_sa>
-1.04617492045093

> <r_i_glide_ligand_efficiency_ln>
-2.08339252559286

> <r_i_glide_gscore>
-8.70452612167151

> <r_i_glide_lipo>
-4.46362311314104

> <r_i_glide_hbond>
0

> <r_i_glide_metal>
0

> <r_i_glide_rewards>
-2.52010866156878

> <r_i_glide_evdw>
-23.0123519897461

> <r_i_glide_ecoul>
-5.63714265823364

> <r_i_glide_erotb>
0.288957935372269

> <r_i_glide_esite>
-0.0135632841116073

> <r_i_glide_emodel>
-33.211211843347

> <r_i_glide_energy>
-28.6494946479797

> <r_i_glide_einternal>
0.253529191017151

> <i_i_glide_confnum>
4

> <i_i_glide_posenum>
216

> <r_i_glide_eff_state_penalty>
0

> <s_user_duplicate_titles>
CHEMBL221_lig456,30350

> <i_f3d_flags>
0

> <s_m_subgroup_title>
dock_pv

> <s_m_subgroupid>
dock_pv

> <b_m_subgroup_collapsed>
1

$$$$
CHEMBL221_lig992
                    3D
 Schrodinger Suite 2021-1.
 41 42  0  0  1  0            999 V2000
   23.5085   53.5878   13.4000 C   0  0  0  0  0  0
   24.5097   50.2978   11.8000 F   0  0  0  0  0  0
   19.6134   47.8098    7.6368 C   0  0  0  0  0  0
   18.4439   48.6730   15.5957 F   0  0  0  0  0  0
   19.1755   46.2736   13.5579 F   0  0  0  0  0  0
   21.1647   50.4101   11.8412 C   0  0  0  0  0  0
   18.8191   47.5199   14.5269 S   0  0  0  0  0  0
   20.4144   49.3781   11.2599 C   0  0  0  0  0  0
   17.9437   46.4916   15.4000 F   0  0  0  0  0  0
   22.0128   51.6897   13.7602 C   0  0  0  0  0  0
   22.9230   52.0456   11.4661 C   0  0  1  0  0  0
   24.1230   50.9194    9.8000 F   0  0  0  0  0  0
   22.8264   52.3997   12.9556 C   0  0  0  0  0  0
   24.2302   51.3544   11.0459 C   0  0  0  0  0  0
   19.6266   47.9680    9.1750 C   0  0  0  0  0  0
   21.2292   50.5695   13.2307 C   0  0  0  0  0  0
   19.7778   48.6475   13.4959 C   0  0  0  0  0  0
   20.3578   49.2223    9.7355 C   0  0  0  0  0  0
   17.4830   47.8730   13.6858 F   0  0  0  0  0  0
   25.2623   52.2005   11.0658 F   0  0  0  0  0  0
   24.7260   53.7411   13.3661 O   0  0  0  0  0  0
   21.7533   51.3345   10.9993 O   0  0  0  0  0  0
   22.6418   54.5595   13.8000 O   0  0  0  0  0  0
   20.5555   49.6674   14.0587 C   0  0  0  0  0  0
   20.1230   47.1432   15.4000 F   0  0  0  0  0  0
   19.7230   48.5092   12.1054 C   0  0  0  0  0  0
   19.4578   49.0863    6.7944 C   0  0  0  0  0  0
   18.8108   47.1194    7.3731 H   0  0  0  0  0  0
   20.5230   47.3160    7.3204 H   0  0  0  0  0  0
   21.8928   51.9780   14.7963 H   0  0  0  0  0  0
   22.9234   52.9765   10.9116 H   0  0  0  0  0  0
   18.5956   47.9270    9.5227 H   0  0  0  0  0  0
   20.0883   47.0731    9.5923 H   0  0  0  0  0  0
   21.3916   49.2045    9.4000 H   0  0  0  0  0  0
   19.9133   50.1322    9.3290 H   0  0  0  0  0  0
   23.1309   55.3337   14.0975 H   0  0  0  0  0  0
   20.6064   49.7796   15.1330 H   0  0  0  0  0  0
   19.1147   47.7213   11.6885 H   0  0  0  0  0  0
   19.4619   48.8484    5.7301 H   0  0  0  0  0  0
   20.2721   49.7897    6.9671 H   0  0  0  0  0  0
   18.5230   49.5992    7.0000 H   0  0  0  0  0  0
  1 21  2  0  0  0
  1 13  1  0  0  0
  1 23  1  0  0  0
  2 14  1  0  0  0
  3 15  1  0  0  0
  3 27  1  0  0  0
  3 28  1  0  0  0
  3 29  1  0  0  0
  4  7  1  0  0  0
  5  7  1  0  0  0
  6 22  1  0  0  0
  6 16  2  0  0  0
  6  8  1  0  0  0
  7 17  1  0  0  0
  7  9  1  0  0  0
  7 19  1  0  0  0
  7 25  1  0  0  0
  8 18  1  0  0  0
  8 26  2  0  0  0
 10 13  2  0  0  0
 10 16  1  0  0  0
 10 30  1  0  0  0
 11 13  1  0  0  0
 11 14  1  0  0  0
 11 22  1  0  0  0
 11 31  1  0  0  0
 12 14  1  0  0  0
 14 20  1  0  0  0
 15 18  1  0  0  0
 15 32  1  0  0  0
 15 33  1  0  0  0
 16 24  1  0  0  0
 17 26  1  0  0  0
 17 24  2  0  0  0
 18 34  1  0  0  0
 18 35  1  0  0  0
 23 36  1  0  0  0
 24 37  1  0  0  0
 26 38  1  0  0  0
 27 39  1  0  0  0
 27 40  1  0  0  0
 27 41  1  0  0  0
M  END
> <s_m_entry_id>
5224

> <s_m_entry_name>
dock_pv.215

> <s_m_Source_Path>
/home/csk/Desktop/cluster/DUD-E-result/pgh1

> <s_m_Source_File>
dock_pv.maegz

> <i_m_Source_File_Index>
215

> <chembl_id>
CHEMBL4088012

> <chembl_pref_name>
None

> <i_lp_mmshare_version>
53161

> <r_lp_tautomer_probability>
1

> <s_lp_Force_Field>
OPLS_2005

> <r_lp_Energy>
13.818251

> <b_lp_Chiralities_Consistent>
1

> <s_lp_Variant>
CHEMBL221_lig992-2

> <s_i_glide_gridfile>
glide-grid_2oyu

> <i_i_glide_lignum>
1236

> <i_i_glide_rotatable_bonds>
7

> <r_i_docking_score>
-8.70236238113891

> <r_i_glide_ligand_efficiency>
-0.32230971781996

> <r_i_glide_ligand_efficiency_sa>
-0.966929152397599

> <r_i_glide_ligand_efficiency_ln>
-2.02576649267252

> <r_i_glide_gscore>
-8.70236238113891

> <r_i_glide_lipo>
-4.18987057666427

> <r_i_glide_hbond>
0

> <r_i_glide_metal>
0

> <r_i_glide_rewards>
-2.49170376953626

> <r_i_glide_evdw>
-35.1525764465332

> <r_i_glide_ecoul>
-3.40719556808472

> <r_i_glide_erotb>
0.32756392927033

> <r_i_glide_esite>
-0.0796438066693463

> <r_i_glide_emodel>
-51.4542067681891

> <r_i_glide_energy>
-38.5597720146179

> <r_i_glide_einternal>
8.49195957183838

> <i_i_glide_confnum>
8

> <i_i_glide_posenum>
253

> <r_i_glide_eff_state_penalty>
0

> <s_user_duplicate_titles>
CHEMBL221_lig992

> <i_f3d_flags>
0

> <s_m_subgroup_title>
dock_pv

> <s_m_subgroupid>
dock_pv

> <b_m_subgroup_collapsed>
1

$$$$
CHEMBL221_lig377
                    3D
 Schrodinger Suite 2021-1.
 38 39  0  0  1  0            999 V2000
   20.7001   49.8694   13.3372 C   0  0  0  0  0  0
   21.5535   51.0125   13.8000 C   0  0  0  0  0  0
   19.7230   48.4557    7.6954 C   0  0  0  0  0  0
   20.0984   48.7976    9.0519 C   0  0  0  0  0  0
   19.4923   48.2231   10.1192 C   0  0  0  0  0  0
   20.4061   49.6601   11.9795 C   0  0  0  0  0  0
   20.1230   49.0169   14.2862 C   0  0  0  0  0  0
   19.7161   48.5247   11.5525 C   0  0  0  0  0  0
   21.3337   51.5197   14.9043 O   0  0  0  0  0  0
   22.7216   51.4768   12.9759 C   0  0  0  0  0  0
   19.0586   47.4730    7.4000 O   0  0  0  0  0  0
   19.3467   47.9309   13.8854 C   0  0  0  0  0  0
   19.1847   47.6712   12.5238 C   0  0  0  0  0  0
   20.1230   49.3159    6.7636 N   0  0  0  0  0  0
   18.6513   47.0693   14.9266 C   0  0  0  0  0  0
   23.4033   52.6488   13.3370 C   0  0  0  0  0  0
   23.1917   50.7362   11.8802 C   0  0  0  0  0  0
   17.2964   47.6670   15.3390 C   0  0  0  0  0  0
   24.5043   53.0761   12.5999 C   0  0  0  0  0  0
   24.2136   51.2192   11.0893 C   0  0  0  0  0  0
   24.8922   52.3635   11.4675 C   0  0  0  0  0  0
   20.8594   49.5523    9.1723 H   0  0  0  0  0  0
   18.7347   47.4730    9.9331 H   0  0  0  0  0  0
   20.7379   50.3717   11.2380 H   0  0  0  0  0  0
   20.2689   49.1957   15.3432 H   0  0  0  0  0  0
   18.6018   46.8170   12.2198 H   0  0  0  0  0  0
   19.8674   49.1405    5.8041 H   0  0  0  0  0  0
   20.5994   50.1702    7.0056 H   0  0  0  0  0  0
   18.5185   46.0567   14.5429 H   0  0  0  0  0  0
   19.2971   46.9682   15.8000 H   0  0  0  0  0  0
   23.0960   53.2308   14.1962 H   0  0  0  0  0  0
   22.7981   49.7730   11.6020 H   0  0  0  0  0  0
   16.8140   47.0730   16.1135 H   0  0  0  0  0  0
   17.4128   48.6772   15.7332 H   0  0  0  0  0  0
   16.6124   47.7210   14.4907 H   0  0  0  0  0  0
   25.0382   53.9693   12.8917 H   0  0  0  0  0  0
   24.5230   50.6730   10.2127 H   0  0  0  0  0  0
   25.7430   52.6730   10.8800 H   0  0  0  0  0  0
  1  2  1  0  0  0
  1  6  2  0  0  0
  1  7  1  0  0  0
  2  9  2  0  0  0
  2 10  1  0  0  0
  3  4  1  0  0  0
  3 11  2  0  0  0
  3 14  1  0  0  0
  4  5  2  0  0  0
  4 22  1  0  0  0
  5  8  1  0  0  0
  5 23  1  0  0  0
  6  8  1  0  0  0
  6 24  1  0  0  0
  7 12  2  0  0  0
  7 25  1  0  0  0
  8 13  2  0  0  0
 10 16  2  0  0  0
 10 17  1  0  0  0
 12 13  1  0  0  0
 12 15  1  0  0  0
 13 26  1  0  0  0
 14 27  1  0  0  0
 14 28  1  0  0  0
 15 18  1  0  0  0
 15 29  1  0  0  0
 15 30  1  0  0  0
 16 19  1  0  0  0
 16 31  1  0  0  0
 17 20  2  0  0  0
 17 32  1  0  0  0
 18 33  1  0  0  0
 18 34  1  0  0  0
 18 35  1  0  0  0
 19 21  2  0  0  0
 19 36  1  0  0  0
 20 21  1  0  0  0
 20 37  1  0  0  0
 21 38  1  0  0  0
M  END
> <s_m_entry_id>
5225

> <s_m_entry_name>
dock_pv.216

> <s_m_Source_Path>
/home/csk/Desktop/cluster/DUD-E-result/pgh1

> <s_m_Source_File>
dock_pv.maegz

> <i_m_Source_File_Index>
216

> <chembl_id>
CHEMBL150130

> <chembl_pref_name>
None

> <i_lp_mmshare_version>
53161

> <r_lp_tautomer_probability>
1

> <s_lp_Force_Field>
OPLS_2005

> <r_lp_Energy>
16.136895

> <b_lp_Chiralities_Consistent>
1

> <s_lp_Variant>
CHEMBL221_lig377-1

> <s_i_glide_gridfile>
glide-grid_2oyu

> <i_i_glide_lignum>
443

> <i_i_glide_rotatable_bonds>
5

> <r_i_docking_score>
-8.69985067389023

> <r_i_glide_ligand_efficiency>
-0.414278603518582

> <r_i_glide_ligand_efficiency_sa>
-1.1429632538449

> <r_i_glide_ligand_efficiency_ln>
-2.15102049941579

> <r_i_glide_gscore>
-8.69985067389023

> <r_i_glide_lipo>
-4.24763429020568

> <r_i_glide_hbond>
0

> <r_i_glide_metal>
0

> <r_i_glide_rewards>
-3.10065426461202

> <r_i_glide_evdw>
-38.8710174560547

> <r_i_glide_ecoul>
-2.21924090385437

> <r_i_glide_erotb>
0.924874889308357

> <r_i_glide_esite>
0

> <r_i_glide_emodel>
-59.3988072031049

> <r_i_glide_energy>
-41.0902583599091

> <r_i_glide_einternal>
2.83245325088501

> <i_i_glide_confnum>
88

> <i_i_glide_posenum>
218

> <r_i_glide_eff_state_penalty>
0

> <s_user_duplicate_titles>
CHEMBL221_lig377,250668

> <i_f3d_flags>
0

> <s_m_subgroup_title>
dock_pv

> <s_m_subgroupid>
dock_pv

> <b_m_subgroup_collapsed>
1

$$$$
CHEMBL221_lig171
                    3D
 Schrodinger Suite 2021-1.
 37 39  0  0  1  0            999 V2000
   20.5230   49.7095   13.7085 C   0  0  0  0  0  0
   19.7320   49.1530   12.7049 C   0  0  0  0  0  0
   20.1326   49.3985   14.9393 N   0  0  0  0  0  0
   20.0590   48.7647    6.7168 S   0  0  0  0  0  0
   18.4171   48.2730   13.4176 S   0  0  0  0  0  0
   19.0333   48.6730   14.9639 C   0  0  0  0  0  0
   20.1230   49.0206    8.4816 C   0  0  0  0  0  0
   19.8327   49.1987   11.2347 C   0  0  0  0  0  0
   21.6741   50.6247   13.4487 C   0  0  0  0  0  0
   21.3230   49.0730    6.0751 O   0  0  0  0  0  0
   19.4309   47.4730    6.6000 O   0  0  0  0  0  0
   19.8647   47.8795    9.2428 C   0  0  0  0  0  0
   20.1230   50.2730    9.0953 C   0  0  0  0  0  0
   19.7230   47.9705   10.6055 C   0  0  0  0  0  0
   20.0337   50.3622   10.4863 C   0  0  0  0  0  0
   22.6519   50.2730   12.5100 C   0  0  0  0  0  0
   21.7262   51.8739   14.0719 C   0  0  0  0  0  0
   18.9055   49.8730    5.9298 C   0  0  0  0  0  0
   23.7231   52.4015   12.8274 C   0  0  0  0  0  0
   22.7442   52.7659   13.7472 C   0  0  0  0  0  0
   23.6785   51.1601   12.2001 C   0  0  0  0  0  0
   24.7306   53.2575   12.5491 F   0  0  0  0  0  0
   18.2779   48.2730   16.2000 C   0  0  0  0  0  0
   19.7903   46.8965    8.8041 H   0  0  0  0  0  0
   20.2221   51.1594    8.4897 H   0  0  0  0  0  0
   19.5584   47.0730   11.1755 H   0  0  0  0  0  0
   20.0851   51.3244   10.9745 H   0  0  0  0  0  0
   22.6135   49.3148   12.0122 H   0  0  0  0  0  0
   20.9646   52.1668   14.7803 H   0  0  0  0  0  0
   18.9230   49.6768    4.8599 H   0  0  0  0  0  0
   17.9066   49.7517    6.3376 H   0  0  0  0  0  0
   19.3230   50.8499    6.1536 H   0  0  0  0  0  0
   22.7866   53.7414   14.2080 H   0  0  0  0  0  0
   24.4381   50.8875   11.4811 H   0  0  0  0  0  0
   18.9230   47.8730   16.9755 H   0  0  0  0  0  0
   17.7411   49.1218   16.6242 H   0  0  0  0  0  0
   17.5314   47.5031   16.0007 H   0  0  0  0  0  0
  1  2  2  0  0  0
  1  3  1  0  0  0
  1  9  1  0  0  0
  2  5  1  0  0  0
  2  8  1  0  0  0
  3  6  2  0  0  0
  4  7  1  0  0  0
  4 10  2  0  0  0
  4 11  2  0  0  0
  4 18  1  0  0  0
  5  6  1  0  0  0
  6 23  1  0  0  0
  7 13  2  0  0  0
  7 12  1  0  0  0
  8 14  1  0  0  0
  8 15  2  0  0  0
  9 16  2  0  0  0
  9 17  1  0  0  0
 12 14  2  0  0  0
 12 24  1  0  0  0
 13 15  1  0  0  0
 13 25  1  0  0  0
 14 26  1  0  0  0
 15 27  1  0  0  0
 16 21  1  0  0  0
 16 28  1  0  0  0
 17 20  2  0  0  0
 17 29  1  0  0  0
 18 30  1  0  0  0
 18 31  1  0  0  0
 18 32  1  0  0  0
 19 20  1  0  0  0
 19 22  1  0  0  0
 19 21  2  0  0  0
 20 33  1  0  0  0
 21 34  1  0  0  0
 23 35  1  0  0  0
 23 36  1  0  0  0
 23 37  1  0  0  0
M  END
> <s_m_entry_id>
5226

> <s_m_entry_name>
dock_pv.217

> <s_m_Source_Path>
/home/csk/Desktop/cluster/DUD-E-result/pgh1

> <s_m_Source_File>
dock_pv.maegz

> <i_m_Source_File_Index>
217

> <chembl_id>
CHEMBL16850

> <chembl_pref_name>
None

> <i_lp_mmshare_version>
53161

> <r_lp_tautomer_probability>
1

> <s_lp_Force_Field>
OPLS_2005

> <r_lp_Energy>
13.377188

> <b_lp_Chiralities_Consistent>
1

> <s_lp_Variant>
CHEMBL221_lig171-1

> <s_i_glide_gridfile>
glide-grid_2oyu

> <i_i_glide_lignum>
195

> <i_i_glide_rotatable_bonds>
3

> <r_i_docking_score>
-8.69968412150141

> <r_i_glide_ligand_efficiency>
-0.378247135717453

> <r_i_glide_ligand_efficiency_sa>
-1.07568453836603

> <r_i_glide_ligand_efficiency_ln>
-2.1036625049533

> <r_i_glide_gscore>
-8.69968412150141

> <r_i_glide_lipo>
-4.55357876055814

> <r_i_glide_hbond>
0

> <r_i_glide_metal>
0

> <r_i_glide_rewards>
-2.67190527124761

> <r_i_glide_evdw>
-19.927677154541

> <r_i_glide_ecoul>
-5.28687047958374

> <r_i_glide_erotb>
0.315214339968955

> <r_i_glide_esite>
0

> <r_i_glide_emodel>
-30.9515827168727

> <r_i_glide_energy>
-25.2145476341248

> <r_i_glide_einternal>
1.84531235694885

> <i_i_glide_confnum>
15

> <i_i_glide_posenum>
307

> <r_i_glide_eff_state_penalty>
0

> <s_user_duplicate_titles>
CHEMBL221_lig171

> <i_f3d_flags>
0

> <s_m_subgroup_title>
dock_pv

> <s_m_subgroupid>
dock_pv

> <b_m_subgroup_collapsed>
1

$$$$
CHEMBL221_lig1
                    3D
 Schrodinger Suite 2021-1.
 50 52  0  0  1  0            999 V2000
   20.6230   49.8713   14.0115 N   0  0  0  0  0  0
   21.5488   50.8902   14.2032 C   0  0  0  0  0  0
   21.3220   51.3450   15.4762 C   0  0  0  0  0  0
   20.1231   49.4728   15.2544 C   0  0  0  0  0  0
   19.6730   47.8728    8.8129 C   0  0  0  0  0  0
   20.5537   50.4212   16.1637 C   0  0  0  0  0  0
   20.2175   49.4153   12.7475 C   0  0  0  0  0  0
   20.1228   48.7153    7.8559 O   0  0  0  0  0  0
   22.5583   51.4221   13.2217 C   0  0  0  0  0  0
   19.7229   48.4832   10.1764 C   0  0  0  0  0  0
   19.4265   46.6846    8.6001 O   0  0  0  0  0  0
   20.0204   48.0632   12.5404 C   0  0  0  0  0  0
   20.0601   50.3259   11.6897 C   0  0  0  0  0  0
   19.8561   49.8582   10.3975 C   0  0  0  0  0  0
   19.7236   47.6303   11.2719 C   0  0  0  0  0  0
   19.1707   49.1731    6.8701 N   0  0  0  0  0  0
   23.0838   50.6093   12.2088 C   0  0  0  0  0  0
   23.0844   52.7071   13.4004 C   0  0  0  0  0  0
   24.6868   52.3052   11.6542 C   0  0  0  0  0  0
   24.1637   53.1369   12.6362 C   0  0  0  0  0  0
   24.1194   51.0668   11.4060 C   0  0  0  0  0  0
   25.7970   52.6727   10.9806 F   0  0  0  0  0  0
   19.1536   48.3285   15.4887 C   0  0  0  0  0  0
   19.8776   50.1522    6.0594 C   0  0  0  0  0  0
   18.6050   48.0621    6.1101 C   0  0  0  0  0  0
   17.6516   48.5280    4.9914 C   0  0  0  0  0  0
   21.0357   49.5324    5.2648 C   0  0  0  0  0  0
   21.7229   52.2588   15.8590 H   0  0  0  0  0  0
   20.2677   50.5040   17.1980 H   0  0  0  0  0  0
   20.1639   47.3337   13.3195 H   0  0  0  0  0  0
   20.1789   51.3886   11.8455 H   0  0  0  0  0  0
   19.8285   50.5663    9.5791 H   0  0  0  0  0  0
   19.7231   46.5881   11.1348 H   0  0  0  0  0  0
   22.7301   49.6007   12.0594 H   0  0  0  0  0  0
   22.7112   53.3607   14.1756 H   0  0  0  0  0  0
   24.6090   54.1028   12.8224 H   0  0  0  0  0  0
   24.5226   50.4393   10.6326 H   0  0  0  0  0  0
   18.6680   48.4090   16.4608 H   0  0  0  0  0  0
   18.3496   48.3098   14.7507 H   0  0  0  0  0  0
   19.6497   47.3591   15.4755 H   0  0  0  0  0  0
   20.2454   50.9470    6.7097 H   0  0  0  0  0  0
   19.1567   50.6257    5.3968 H   0  0  0  0  0  0
   19.4402   47.4733    5.7381 H   0  0  0  0  0  0
   18.0342   47.4192    6.7748 H   0  0  0  0  0  0
   17.1247   47.6926    4.5298 H   0  0  0  0  0  0
   16.8945   49.2086    5.3808 H   0  0  0  0  0  0
   18.1751   49.0631    4.1990 H   0  0  0  0  0  0
   21.5578   50.2746    4.6669 H   0  0  0  0  0  0
   20.7299   48.7309    4.6008 H   0  0  0  0  0  0
   21.7262   49.0727    5.9588 H   0  0  0  0  0  0
  1  2  1  0  0  0
  1  4  1  0  0  0
  1  7  1  0  0  0
  2  3  2  0  0  0
  2  9  1  0  0  0
  3  6  1  0  0  0
  3 28  1  0  0  0
  4  6  2  0  0  0
  4 23  1  0  0  0
  5 10  1  0  0  0
  5  8  1  0  0  0
  5 11  2  0  0  0
  6 29  1  0  0  0
  7 12  1  0  0  0
  7 13  2  0  0  0
  8 16  1  0  0  0
  9 17  1  0  0  0
  9 18  2  0  0  0
 10 14  2  0  0  0
 10 15  1  0  0  0
 12 15  2  0  0  0
 12 30  1  0  0  0
 13 14  1  0  0  0
 13 31  1  0  0  0
 14 32  1  0  0  0
 15 33  1  0  0  0
 16 24  1  0  0  0
 16 25  1  0  0  0
 17 21  2  0  0  0
 17 34  1  0  0  0
 18 20  1  0  0  0
 18 35  1  0  0  0
 19 20  2  0  0  0
 19 22  1  0  0  0
 19 21  1  0  0  0
 20 36  1  0  0  0
 21 37  1  0  0  0
 23 38  1  0  0  0
 23 39  1  0  0  0
 23 40  1  0  0  0
 24 27  1  0  0  0
 24 41  1  0  0  0
 24 42  1  0  0  0
 25 26  1  0  0  0
 25 43  1  0  0  0
 25 44  1  0  0  0
 26 45  1  0  0  0
 26 46  1  0  0  0
 26 47  1  0  0  0
 27 48  1  0  0  0
 27 49  1  0  0  0
 27 50  1  0  0  0
M  END
> <s_m_entry_id>
5227

> <s_m_entry_name>
dock_pv.218

> <s_m_Source_Path>
/home/csk/Desktop/cluster/DUD-E-result/pgh1

> <s_m_Source_File>
dock_pv.maegz

> <i_m_Source_File_Index>
218

> <chembl_id>
CHEMBL290608

> <chembl_pref_name>
None

> <i_lp_mmshare_version>
53161

> <r_lp_tautomer_probability>
1

> <s_lp_Force_Field>
OPLS_2005

> <r_lp_Energy>
23.148627

> <b_lp_Chiralities_Consistent>
1

> <s_lp_Variant>
CHEMBL221_lig1-1

> <s_i_glide_gridfile>
glide-grid_2oyu

> <i_i_glide_lignum>
1

> <i_i_glide_rotatable_bonds>
7

> <r_i_docking_score>
-8.69371583475681

> <r_i_glide_ligand_efficiency>
-0.321989475361363

> <r_i_glide_ligand_efficiency_sa>
-0.965968425022865

> <r_i_glide_ligand_efficiency_ln>
-2.02375371922423

> <r_i_glide_gscore>
-8.69371583475681

> <r_i_glide_lipo>
-5.32198745179986

> <r_i_glide_hbond>
-0.0422820552375985

> <r_i_glide_metal>
0

> <r_i_glide_rewards>
-2.34571735660488

> <r_i_glide_evdw>
-24.4159088134766

> <r_i_glide_ecoul>
-3.15858387947083

> <r_i_glide_erotb>
0.716739772533173

> <r_i_glide_esite>
-0.00588572105319506

> <r_i_glide_emodel>
-30.6826682083306

> <r_i_glide_energy>
-27.5744926929474

> <r_i_glide_einternal>
10.2583532333374

> <i_i_glide_confnum>
106

> <i_i_glide_posenum>
42

> <r_i_glide_eff_state_penalty>
0

> <s_user_duplicate_titles>
CHEMBL221_lig1

> <i_f3d_flags>
0

> <s_m_subgroup_title>
dock_pv

> <s_m_subgroupid>
dock_pv

> <b_m_subgroup_collapsed>
1

$$$$
CHEMBL221_lig421
                    3D
 Schrodinger Suite 2021-1.
 40 43  0  0  1  0            999 V2000
   19.9089   49.1858   13.6009 N   0  0  0  0  0  0
   20.1674   49.4273   14.9184 C   0  0  0  0  0  0
   18.6714   48.0647   14.7884 C   0  0  0  0  0  0
   19.4255   48.6730   15.6880 N   0  0  0  0  0  0
   18.9431   48.2554   13.5222 N   0  0  0  0  0  0
   20.5955   49.9267   12.6606 C   0  0  0  0  0  0
   21.5270   50.7354   13.3154 C   0  0  0  0  0  0
   21.3230   50.7075   15.0820 S   0  0  0  0  0  0
   20.0547   48.7818    6.7297 S   0  0  0  0  0  0
   17.4948   47.2119   15.1276 C   0  0  0  0  0  0
   20.3250   49.7070   11.2084 C   0  0  0  0  0  0
   20.1230   49.2055    8.4688 C   0  0  0  0  0  0
   22.6763   51.4991   12.7519 C   0  0  0  0  0  0
   19.4476   47.4730    6.6778 O   0  0  0  0  0  0
   21.3230   49.0730    6.0832 O   0  0  0  0  0  0
   17.0299   47.4730   16.3499 F   0  0  0  0  0  0
   16.5229   47.4729   14.2705 F   0  0  0  0  0  0
   17.7970   45.9199   15.0000 F   0  0  0  0  0  0
   20.1229   48.4127   10.7412 C   0  0  0  0  0  0
   20.2856   50.7606   10.2992 C   0  0  0  0  0  0
   20.1230   50.5168    8.9366 C   0  0  0  0  0  0
   20.0358   48.1634    9.3819 C   0  0  0  0  0  0
   18.9213   49.8529    5.8741 C   0  0  0  0  0  0
   23.2028   52.6282   13.3913 C   0  0  0  0  0  0
   23.2939   51.0074   11.5981 C   0  0  0  0  0  0
   24.4401   51.6101   11.1080 C   0  0  0  0  0  0
   24.3790   53.2054   12.9266 C   0  0  0  0  0  0
   24.9982   52.6730   11.8001 C   0  0  0  0  0  0
   20.1237   47.5623   11.4057 H   0  0  0  0  0  0
   20.4052   51.7755   10.6393 H   0  0  0  0  0  0
   20.1230   51.3362    8.2319 H   0  0  0  0  0  0
   19.9533   47.1394    9.0473 H   0  0  0  0  0  0
   19.0536   49.6542    4.8166 H   0  0  0  0  0  0
   19.3230   50.7776    6.2000 H   0  0  0  0  0  0
   17.9033   49.6930    6.2000 H   0  0  0  0  0  0
   22.7363   53.0371   14.2751 H   0  0  0  0  0  0
   22.9213   50.1307   11.0920 H   0  0  0  0  0  0
   24.9228   51.2244   10.2230 H   0  0  0  0  0  0
   24.8120   54.0500   13.4430 H   0  0  0  0  0  0
   25.9374   53.0730   11.4517 H   0  0  0  0  0  0
  1  2  1  0  0  0
  1  5  1  0  0  0
  1  6  1  0  0  0
  2  4  2  0  0  0
  2  8  1  0  0  0
  3  5  2  0  0  0
  3 10  1  0  0  0
  3  4  1  0  0  0
  6  7  2  0  0  0
  6 11  1  0  0  0
  7 13  1  0  0  0
  7  8  1  0  0  0
  9 12  1  0  0  0
  9 14  2  0  0  0
  9 15  2  0  0  0
  9 23  1  0  0  0
 10 16  1  0  0  0
 10 17  1  0  0  0
 10 18  1  0  0  0
 11 19  2  0  0  0
 11 20  1  0  0  0
 12 21  1  0  0  0
 12 22  2  0  0  0
 13 24  2  0  0  0
 13 25  1  0  0  0
 19 22  1  0  0  0
 19 29  1  0  0  0
 20 21  2  0  0  0
 20 30  1  0  0  0
 21 31  1  0  0  0
 22 32  1  0  0  0
 23 33  1  0  0  0
 23 34  1  0  0  0
 23 35  1  0  0  0
 24 27  1  0  0  0
 24 36  1  0  0  0
 25 26  2  0  0  0
 25 37  1  0  0  0
 26 28  1  0  0  0
 26 38  1  0  0  0
 27 28  2  0  0  0
 27 39  1  0  0  0
 28 40  1  0  0  0
M  END
> <s_m_entry_id>
5228

> <s_m_entry_name>
dock_pv.219

> <s_m_Source_Path>
/home/csk/Desktop/cluster/DUD-E-result/pgh1

> <s_m_Source_File>
dock_pv.maegz

> <i_m_Source_File_Index>
219

> <chembl_id>
CHEMBL157358

> <chembl_pref_name>
None

> <i_lp_mmshare_version>
53161

> <r_lp_tautomer_probability>
1

> <s_lp_Force_Field>
OPLS_2005

> <r_lp_Energy>
24.543323

> <b_lp_Chiralities_Consistent>
1

> <s_lp_Variant>
CHEMBL221_lig421-1

> <s_i_glide_gridfile>
glide-grid_2oyu

> <i_i_glide_lignum>
491

> <i_i_glide_rotatable_bonds>
4

> <r_i_docking_score>
-8.69168143755856

> <r_i_glide_ligand_efficiency>
-0.31041719419852

> <r_i_glide_ligand_efficiency_sa>
-0.942609427536823

> <r_i_glide_ligand_efficiency_ln>
-2.00629527464461

> <r_i_glide_gscore>
-8.69168143755856

> <r_i_glide_lipo>
-4.28665616737818

> <r_i_glide_hbond>
0

> <r_i_glide_metal>
0

> <r_i_glide_rewards>
-3.16216929231671

> <r_i_glide_evdw>
-12.8960723876953

> <r_i_glide_ecoul>
-5.43516969680786

> <r_i_glide_erotb>
0.22107948498318

> <r_i_glide_esite>
-0.00385638894090214

> <r_i_glide_emodel>
-42.680065954254

> <r_i_glide_energy>
-18.3312420845032

> <r_i_glide_einternal>
1.24516546726227

> <i_i_glide_confnum>
8

> <i_i_glide_posenum>
369

> <r_i_glide_eff_state_penalty>
0

> <s_user_duplicate_titles>
CHEMBL221_lig421

> <i_f3d_flags>
0

> <s_m_subgroup_title>
dock_pv

> <s_m_subgroupid>
dock_pv

> <b_m_subgroup_collapsed>
1

$$$$
CHEMBL221_lig167
                    3D
 Schrodinger Suite 2021-1.
 33 35  0  0  1  0            999 V2000
   20.8699   49.8654   13.2041 C   0  0  0  0  0  0
   19.9961   48.9560    6.2346 S   0  0  0  0  0  0
   20.0804   49.1828   12.2829 C   0  0  0  0  0  0
   21.9363   50.8148   12.9269 C   0  0  0  0  0  0
   20.5230   49.5212   14.4364 N   0  0  0  0  0  0
   22.1231   52.2731   13.8559 S   0  0  0  0  0  0
   19.2386   48.3898   12.9897 O   0  0  0  0  0  0
   19.5543   48.6511   14.2803 C   0  0  0  0  0  0
   23.5495   52.7073   12.9723 C   0  0  0  0  0  0
   22.9179   50.7306   11.9422 C   0  0  0  0  0  0
   20.0097   49.0284    8.0174 C   0  0  0  0  0  0
   23.8251   51.7952   11.9649 C   0  0  0  0  0  0
   19.9837   49.1534   10.8019 C   0  0  0  0  0  0
   20.9230   49.9291    5.6744 O   0  0  0  0  0  0
   20.1230   47.5549    5.8682 O   0  0  0  0  0  0
   18.4137   49.4730    5.8000 N   0  0  0  0  0  0
   20.1230   50.2585    8.6698 C   0  0  0  0  0  0
   19.7343   47.8755    8.7608 C   0  0  0  0  0  0
   20.1486   50.3190   10.0591 C   0  0  0  0  0  0
   19.7230   47.9504   10.1509 C   0  0  0  0  0  0
   24.4339   54.1203   13.3938 Cl  0  0  0  0  0  0
   18.7646   47.9483   15.3571 C   0  0  0  0  0  0
   22.9783   49.9122   11.2405 H   0  0  0  0  0  0
   24.6612   51.8846   11.2861 H   0  0  0  0  0  0
   18.2963   50.4843    5.9222 H   0  0  0  0  0  0
   18.1690   49.2489    4.8322 H   0  0  0  0  0  0
   20.2291   51.1644    8.0906 H   0  0  0  0  0  0
   19.5545   46.9306    8.2702 H   0  0  0  0  0  0
   20.2958   51.2689   10.5525 H   0  0  0  0  0  0
   19.5415   47.0730   10.7427 H   0  0  0  0  0  0
   19.0580   48.2718   16.3555 H   0  0  0  0  0  0
   17.6973   48.1479   15.2577 H   0  0  0  0  0  0
   18.8963   46.8677   15.3117 H   0  0  0  0  0  0
  1  3  2  0  0  0
  1  4  1  0  0  0
  1  5  1  0  0  0
  2 11  1  0  0  0
  2 14  2  0  0  0
  2 15  2  0  0  0
  2 16  1  0  0  0
  3  7  1  0  0  0
  3 13  1  0  0  0
  4  6  1  0  0  0
  4 10  2  0  0  0
  5  8  2  0  0  0
  6  9  1  0  0  0
  7  8  1  0  0  0
  8 22  1  0  0  0
  9 21  1  0  0  0
  9 12  2  0  0  0
 10 12  1  0  0  0
 10 23  1  0  0  0
 11 18  2  0  0  0
 11 17  1  0  0  0
 12 24  1  0  0  0
 13 19  1  0  0  0
 13 20  2  0  0  0
 16 25  1  0  0  0
 16 26  1  0  0  0
 17 19  2  0  0  0
 17 27  1  0  0  0
 18 20  1  0  0  0
 18 28  1  0  0  0
 19 29  1  0  0  0
 20 30  1  0  0  0
 22 31  1  0  0  0
 22 32  1  0  0  0
 22 33  1  0  0  0
M  END
> <s_m_entry_id>
5229

> <s_m_entry_name>
dock_pv.220

> <s_m_Source_Path>
/home/csk/Desktop/cluster/DUD-E-result/pgh1

> <s_m_Source_File>
dock_pv.maegz

> <i_m_Source_File_Index>
220

> <chembl_id>
CHEMBL350422

> <chembl_pref_name>
None

> <i_lp_mmshare_version>
53161

> <r_lp_tautomer_probability>
1

> <s_lp_Force_Field>
OPLS_2005

> <r_lp_Energy>
13.189522

> <b_lp_Chiralities_Consistent>
1

> <s_lp_Variant>
CHEMBL221_lig167-1

> <s_i_glide_gridfile>
glide-grid_2oyu

> <i_i_glide_lignum>
190

> <i_i_glide_rotatable_bonds>
3

> <r_i_docking_score>
-8.68915651808241

> <r_i_glide_ligand_efficiency>
-0.394961659912837

> <r_i_glide_ligand_efficiency_sa>
-1.10669810403642

> <r_i_glide_ligand_efficiency_ln>
-2.12394679770422

> <r_i_glide_gscore>
-8.68915651808241

> <r_i_glide_lipo>
-4.26423614437366

> <r_i_glide_hbond>
-0.290270361290233

> <r_i_glide_metal>
0

> <r_i_glide_rewards>
-2.20225838083043

> <r_i_glide_evdw>
-26.8280086517334

> <r_i_glide_ecoul>
-5.48056507110596

> <r_i_glide_erotb>
0.303612152828742

> <r_i_glide_esite>
-0.0725185911642735

> <r_i_glide_emodel>
-45.453140529107

> <r_i_glide_energy>
-32.3085737228394

> <r_i_glide_einternal>
1.20840334892273

> <i_i_glide_confnum>
4

> <i_i_glide_posenum>
88

> <r_i_glide_eff_state_penalty>
0

> <s_user_duplicate_titles>
CHEMBL221_lig167,266725

> <i_f3d_flags>
0

> <s_m_subgroup_title>
dock_pv

> <s_m_subgroupid>
dock_pv

> <b_m_subgroup_collapsed>
1

$$$$
CHEMBL221_lig94
                    3D
 Schrodinger Suite 2021-1.
 38 40  0  0  1  0            999 V2000
   19.6134   48.8630   14.8428 N   0  0  0  0  0  0
   20.6065   49.7092   14.7609 C   0  0  0  0  0  0
   19.2150   48.6690   13.6154 C   0  0  0  0  0  0
   20.0120   49.2927   12.6595 N   0  0  0  0  0  0
   20.9384   49.9852   13.4329 C   0  0  0  0  0  0
   20.0979   48.7317    6.6154 S   0  0  0  0  0  0
   19.9236   49.2225   11.2323 C   0  0  0  0  0  0
   20.0480   48.9820    8.4171 C   0  0  0  0  0  0
   22.0596   50.8263   12.9274 C   0  0  0  0  0  0
   21.1675   49.4730    5.9751 O   0  0  0  0  0  0
   20.1230   47.2989    6.4728 O   0  0  0  0  0  0
   21.3230   50.3207   16.1995 Cl  0  0  0  0  0  0
   19.7531   47.8730    9.2238 C   0  0  0  0  0  0
   20.1230   50.2393    9.0254 C   0  0  0  0  0  0
   19.7230   47.9870   10.6120 C   0  0  0  0  0  0
   20.0862   50.3589   10.4222 C   0  0  0  0  0  0
   22.3381   52.0484   13.5465 C   0  0  0  0  0  0
   22.8678   50.3734   11.8826 C   0  0  0  0  0  0
   17.9610   47.8730   13.3651 C   0  0  0  0  0  0
   18.5230   49.2949    5.8207 C   0  0  0  0  0  0
   24.2574   52.3172   12.1281 C   0  0  0  0  0  0
   23.9524   51.1325   11.4665 C   0  0  0  0  0  0
   23.4449   52.7910   13.1518 C   0  0  0  0  0  0
   25.3748   52.9951   11.8001 F   0  0  0  0  0  0
   19.6157   46.8950    8.7878 H   0  0  0  0  0  0
   20.2509   51.1136    8.4062 H   0  0  0  0  0  0
   19.6134   47.0820   11.1881 H   0  0  0  0  0  0
   20.2044   51.3362   10.8682 H   0  0  0  0  0  0
   21.7186   52.4134   14.3527 H   0  0  0  0  0  0
   22.6671   49.4286   11.4000 H   0  0  0  0  0  0
   17.5817   47.3985   14.2715 H   0  0  0  0  0  0
   17.1498   48.5015   13.0000 H   0  0  0  0  0  0
   18.1230   47.0730   12.6534 H   0  0  0  0  0  0
   18.6868   49.3473    4.7457 H   0  0  0  0  0  0
   17.7382   48.5723    6.0203 H   0  0  0  0  0  0
   18.2575   50.2730    6.2000 H   0  0  0  0  0  0
   24.5684   50.7842   10.6543 H   0  0  0  0  0  0
   23.6875   53.7160   13.6552 H   0  0  0  0  0  0
  1  2  1  0  0  0
  1  3  2  0  0  0
  2  5  2  0  0  0
  2 12  1  0  0  0
  3  4  1  0  0  0
  3 19  1  0  0  0
  4  7  1  0  0  0
  4  5  1  0  0  0
  5  9  1  0  0  0
  6  8  1  0  0  0
  6 10  2  0  0  0
  6 11  2  0  0  0
  6 20  1  0  0  0
  7 15  2  0  0  0
  7 16  1  0  0  0
  8 14  1  0  0  0
  8 13  2  0  0  0
  9 17  2  0  0  0
  9 18  1  0  0  0
 13 15  1  0  0  0
 13 25  1  0  0  0
 14 16  2  0  0  0
 14 26  1  0  0  0
 15 27  1  0  0  0
 16 28  1  0  0  0
 17 23  1  0  0  0
 17 29  1  0  0  0
 18 22  2  0  0  0
 18 30  1  0  0  0
 19 31  1  0  0  0
 19 32  1  0  0  0
 19 33  1  0  0  0
 20 34  1  0  0  0
 20 35  1  0  0  0
 20 36  1  0  0  0
 21 22  1  0  0  0
 21 24  1  0  0  0
 21 23  2  0  0  0
 22 37  1  0  0  0
 23 38  1  0  0  0
M  END
> <s_m_entry_id>
5230

> <s_m_entry_name>
dock_pv.221

> <s_m_Source_Path>
/home/csk/Desktop/cluster/DUD-E-result/pgh1

> <s_m_Source_File>
dock_pv.maegz

> <i_m_Source_File_Index>
221

> <chembl_id>
CHEMBL116199

> <chembl_pref_name>
None

> <i_lp_mmshare_version>
53161

> <r_lp_tautomer_probability>
1

> <s_lp_Force_Field>
OPLS_2005

> <r_lp_Energy>
12.908309

> <b_lp_Chiralities_Consistent>
1

> <s_lp_Variant>
CHEMBL221_lig94-1

> <s_i_glide_gridfile>
glide-grid_2oyu

> <i_i_glide_lignum>
112

> <i_i_glide_rotatable_bonds>
3

> <r_i_docking_score>
-8.68410524119021

> <r_i_glide_ligand_efficiency>
-0.361837718382926

> <r_i_glide_ligand_efficiency_sa>
-1.04372058661191

> <r_i_glide_ligand_efficiency_ln>
-2.07850487184054

> <r_i_glide_gscore>
-8.68410524119021

> <r_i_glide_lipo>
-4.37251353837531

> <r_i_glide_hbond>
0

> <r_i_glide_metal>
0

> <r_i_glide_rewards>
-2.84258541640477

> <r_i_glide_evdw>
-16.3221015930176

> <r_i_glide_ecoul>
-6.27902984619141

> <r_i_glide_erotb>
0.288953270169459

> <r_i_glide_esite>
0

> <r_i_glide_emodel>
-28.329474956781

> <r_i_glide_energy>
-22.601131439209

> <r_i_glide_einternal>
1.71484339237213

> <i_i_glide_confnum>
8

> <i_i_glide_posenum>
208

> <r_i_glide_eff_state_penalty>
0

> <s_user_duplicate_titles>
CHEMBL221_lig94

> <i_f3d_flags>
0

> <s_m_subgroup_title>
dock_pv

> <s_m_subgroupid>
dock_pv

> <b_m_subgroup_collapsed>
1

$$$$
CHEMBL221_lig1051 
                    3D
 Schrodinger Suite 2021-1.
 39 41  0  0  1  0            999 V2000
   20.9230   50.2727    5.4000 O   0  0  0  0  0  0
   20.0711   49.1402    5.7467 S   0  0  0  0  0  0
   20.3123   47.8484    5.1356 O   0  0  0  0  0  0
   19.6816   47.6457    9.4530 C   0  0  0  0  0  0
   19.7230   47.7613    8.0752 C   0  0  0  0  0  0
   20.0015   48.9920    7.5041 C   0  0  0  0  0  0
   20.1230   50.1236    8.3040 C   0  0  0  0  0  0
   20.1230   50.0115    9.6861 C   0  0  0  0  0  0
   19.8593   48.7681   10.2733 C   0  0  0  0  0  0
   19.7230   48.6454   11.6786 N   0  0  0  0  0  0
   20.2530   49.4189   12.6913 C   0  0  0  0  0  0
   19.8365   48.8452   13.8704 C   0  0  0  0  0  0
   19.0194   47.7869   13.4979 C   0  0  0  0  0  0
   18.9516   47.6680   12.1981 N   0  0  0  0  0  0
   20.2109   49.3054   15.1772 C   0  0  0  0  0  0
   20.5230   49.7094   16.2000 N   0  0  0  0  0  0
   21.0629   50.5294   12.5557 N   0  0  0  0  0  0
   22.3480   50.3992   12.2000 C   0  0  0  0  0  0
   23.2069   51.6246   12.3044 C   0  0  0  0  0  0
   22.8277   49.3429   11.8000 O   0  0  0  0  0  0
   18.4365   49.4730    5.4000 N   0  0  0  0  0  0
   22.9100   52.6583   13.2062 C   0  0  0  0  0  0
   23.8207   53.6902   13.4000 C   0  0  0  0  0  0
   25.0402   53.6655   12.7360 C   0  0  0  0  0  0
   25.3147   52.6730   11.8000 C   0  0  0  0  0  0
   24.3882   51.6729   11.5626 C   0  0  0  0  0  0
   19.5007   46.6730    9.8720 H   0  0  0  0  0  0
   19.5710   46.9023    7.4511 H   0  0  0  0  0  0
   20.2420   51.0960    7.8470 H   0  0  0  0  0  0
   20.2147   50.9185   10.2612 H   0  0  0  0  0  0
   18.4920   47.1150   14.1600 H   0  0  0  0  0  0
   20.7600   51.3976   12.9682 H   0  0  0  0  0  0
   18.2252   50.3377    4.8698 H   0  0  0  0  0  0
   17.8647   48.6761    5.1178 H   0  0  0  0  0  0
   22.0077   52.6583   13.8005 H   0  0  0  0  0  0
   23.6029   54.4834   14.1022 H   0  0  0  0  0  0
   25.7614   54.4502   12.9157 H   0  0  0  0  0  0
   26.2484   52.6730   11.2563 H   0  0  0  0  0  0
   24.6282   50.8972   10.8495 H   0  0  0  0  0  0
  1  2  2  0  0  0
  2  3  2  0  0  0
  2  6  1  0  0  0
  2 21  1  0  0  0
  4  5  2  0  0  0
  4  9  1  0  0  0
  4 27  1  0  0  0
  5  6  1  0  0  0
  5 28  1  0  0  0
  6  7  2  0  0  0
  7  8  1  0  0  0
  7 29  1  0  0  0
  8  9  2  0  0  0
  8 30  1  0  0  0
  9 10  1  0  0  0
 10 11  1  0  0  0
 10 14  1  0  0  0
 11 12  2  0  0  0
 11 17  1  0  0  0
 12 13  1  0  0  0
 12 15  1  0  0  0
 13 14  2  0  0  0
 13 31  1  0  0  0
 15 16  3  0  0  0
 17 18  1  0  0  0
 17 32  1  0  0  0
 18 19  1  0  0  0
 18 20  2  0  0  0
 19 22  2  0  0  0
 19 26  1  0  0  0
 21 33  1  0  0  0
 21 34  1  0  0  0
 22 23  1  0  0  0
 22 35  1  0  0  0
 23 24  2  0  0  0
 23 36  1  0  0  0
 24 25  1  0  0  0
 24 37  1  0  0  0
 25 26  2  0  0  0
 25 38  1  0  0  0
 26 39  1  0  0  0
M  END
> <s_m_entry_id>
5231

> <s_m_entry_name>
dock_pv.222

> <s_m_Source_Path>
/home/csk/Desktop/cluster/DUD-E-result/pgh1

> <s_m_Source_File>
dock_pv.maegz

> <i_m_Source_File_Index>
222

> <chembl_id>
CHEMBL4437752

> <chembl_pref_name>
None

> <i_lp_mmshare_version>
53161

> <r_lp_tautomer_probability>
1

> <s_lp_Force_Field>
OPLS_2005

> <r_lp_Energy>
32.193264

> <b_lp_Chiralities_Consistent>
1

> <s_lp_Variant>
CHEMBL221_lig1051 -1

> <s_i_glide_gridfile>
glide-grid_2oyu

> <i_i_glide_lignum>
1309

> <i_i_glide_rotatable_bonds>
5

> <r_i_docking_score>
-8.68153753573901

> <r_i_glide_ligand_efficiency>
-0.333905289836116

> <r_i_glide_ligand_efficiency_sa>
-0.989193107285621

> <r_i_glide_ligand_efficiency_ln>
-2.03883060382019

> <r_i_glide_gscore>
-8.68153753573901

> <r_i_glide_lipo>
-3.81397637778397

> <r_i_glide_hbond>
-0.241118957396621

> <r_i_glide_metal>
0

> <r_i_glide_rewards>
-3.15565502943089

> <r_i_glide_evdw>
-14.7843399047852

> <r_i_glide_ecoul>
-8.13253021240234

> <r_i_glide_erotb>
0.570734975578927

> <r_i_glide_esite>
-0.0824256196068467

> <r_i_glide_emodel>
-27.2699155408347

> <r_i_glide_energy>
-22.9168701171875

> <r_i_glide_einternal>
3.99812602996826

> <i_i_glide_confnum>
24

> <i_i_glide_posenum>
45

> <r_i_glide_eff_state_penalty>
0

> <s_user_duplicate_titles>
CHEMBL221_lig1051 

> <i_f3d_flags>
0

> <s_m_subgroup_title>
dock_pv

> <s_m_subgroupid>
dock_pv

> <b_m_subgroup_collapsed>
1

$$$$
CHEMBL221_lig164
                    3D
 Schrodinger Suite 2021-1.
 33 35  0  0  1  0            999 V2000
   21.3230   51.2338   15.1039 S   0  0  0  0  0  0
   20.1230   50.4895    9.3226 O   0  0  0  0  0  0
   21.0314   49.8414   12.3247 N   0  0  0  0  0  0
   21.9405   50.9211   12.4089 C   0  0  0  0  0  0
   20.3423   49.2601   13.4156 C   0  0  0  0  0  0
   22.0864   51.6657   13.5963 C   0  0  0  0  0  0
   20.5230   49.7270   14.7285 C   0  0  0  0  0  0
   22.8236   51.2557   11.3558 C   0  0  0  0  0  0
   19.3550   48.2562   13.2414 C   0  0  0  0  0  0
   20.9749   49.0716   11.0743 C   0  0  0  0  0  0
   22.9230   52.7749   13.6489 C   0  0  0  0  0  0
   19.9252   49.0730   15.8000 C   0  0  0  0  0  0
   23.7417   52.2960   11.4529 C   0  0  0  0  0  0
   18.7221   47.6381   14.3160 C   0  0  0  0  0  0
   23.7787   53.0730   12.6000 C   0  0  0  0  0  0
   19.0326   48.0271   15.6078 C   0  0  0  0  0  0
   19.8294   49.3450   10.0904 C   0  0  2  0  0  0
   19.6086   48.1154    9.1771 C   0  0  0  0  0  0
   19.4040   50.6631    8.7069 H   0  0  0  0  0  0
   22.8206   50.7603   10.4013 H   0  0  0  0  0  0
   19.0586   47.9040   12.2668 H   0  0  0  0  0  0
   20.9230   48.0330   11.4000 H   0  0  0  0  0  0
   21.9184   49.0730   10.5404 H   0  0  0  0  0  0
   22.9230   53.3824   14.5402 H   0  0  0  0  0  0
   20.1230   49.4320   16.7952 H   0  0  0  0  0  0
   24.3941   52.5210   10.6214 H   0  0  0  0  0  0
   17.9928   46.8602   14.1484 H   0  0  0  0  0  0
   24.4580   53.9100   12.6731 H   0  0  0  0  0  0
   18.5498   47.5562   16.4521 H   0  0  0  0  0  0
   18.9230   49.5493   10.6452 H   0  0  0  0  0  0
   19.2218   47.2763    9.7550 H   0  0  0  0  0  0
   20.5230   47.7774    8.7084 H   0  0  0  0  0  0
   18.9230   48.2730    8.3492 H   0  0  0  0  0  0
  1  6  1  0  0  0
  1  7  1  0  0  0
  2 17  1  0  0  0
  2 19  1  0  0  0
  3  4  1  0  0  0
  3  5  1  0  0  0
  3 10  1  0  0  0
  4  6  2  0  0  0
  4  8  1  0  0  0
  5  7  2  0  0  0
  5  9  1  0  0  0
  6 11  1  0  0  0
  7 12  1  0  0  0
  8 13  2  0  0  0
  8 20  1  0  0  0
  9 14  2  0  0  0
  9 21  1  0  0  0
 10 17  1  0  0  0
 10 22  1  0  0  0
 10 23  1  0  0  0
 11 15  2  0  0  0
 11 24  1  0  0  0
 12 16  2  0  0  0
 12 25  1  0  0  0
 13 15  1  0  0  0
 13 26  1  0  0  0
 14 16  1  0  0  0
 14 27  1  0  0  0
 15 28  1  0  0  0
 16 29  1  0  0  0
 17 18  1  0  0  0
 17 30  1  0  0  0
 18 31  1  0  0  0
 18 32  1  0  0  0
 18 33  1  0  0  0
M  END
> <s_m_entry_id>
5232

> <s_m_entry_name>
dock_pv.223

> <s_m_Source_Path>
/home/csk/Desktop/cluster/DUD-E-result/pgh1

> <s_m_Source_File>
dock_pv.maegz

> <i_m_Source_File_Index>
223

> <chembl_id>
CHEMBL151658

> <chembl_pref_name>
None

> <i_lp_mmshare_version>
53161

> <r_lp_tautomer_probability>
1

> <s_lp_Force_Field>
OPLS_2005

> <r_lp_Energy>
23.928139

> <b_lp_Chiralities_Consistent>
1

> <s_lp_Variant>
CHEMBL221_lig164-1

> <s_i_glide_gridfile>
glide-grid_2oyu

> <i_i_glide_lignum>
186

> <i_i_glide_rotatable_bonds>
3

> <r_i_docking_score>
-8.68142968276761

> <r_i_glide_ligand_efficiency>
-0.482301649042645

> <r_i_glide_ligand_efficiency_sa>
-1.26398789492347

> <r_i_glide_ligand_efficiency_ln>
-2.23151673491028

> <r_i_glide_gscore>
-8.68142968276761

> <r_i_glide_lipo>
-4.38829838955307

> <r_i_glide_hbond>
-0.139677152899729

> <r_i_glide_metal>
0

> <r_i_glide_rewards>
-2.64887316905994

> <r_i_glide_evdw>
-28.3791046142578

> <r_i_glide_ecoul>
-2.34687495231628

> <r_i_glide_erotb>
0.266405502305472

> <r_i_glide_esite>
0

> <r_i_glide_emodel>
-38.0838555867225

> <r_i_glide_energy>
-30.7259795665741

> <r_i_glide_einternal>
3.36283779144287

> <i_i_glide_confnum>
1

> <i_i_glide_posenum>
236

> <r_i_glide_eff_state_penalty>
0

> <s_user_duplicate_titles>
CHEMBL221_lig164

> <i_f3d_flags>
0

> <s_m_subgroup_title>
dock_pv

> <s_m_subgroupid>
dock_pv

> <b_m_subgroup_collapsed>
1

$$$$
CHEMBL221_lig382
                    3D
 Schrodinger Suite 2021-1.
 38 39  0  0  1  0            999 V2000
   19.5771   48.6704    6.9148 S   0  0  0  0  0  0
   21.0806   49.8843   13.1015 C   0  0  0  0  0  0
   20.5200   49.5158   14.4310 C   0  0  0  0  0  0
   22.6634   51.2220   11.8481 C   0  0  0  0  0  0
   20.1230   49.6790    8.3029 C   0  0  0  0  0  0
   22.0798   50.8637   13.0569 C   0  0  0  0  0  0
   20.5205   49.0881    9.4525 C   0  0  0  0  0  0
   20.5907   48.6750    5.8680 O   0  0  0  0  0  0
   19.0488   47.4314    7.4755 O   0  0  0  0  0  0
   23.8353   52.1503   11.7814 C   0  0  0  0  0  0
   20.6796   49.2639   11.9080 C   0  0  0  0  0  0
   21.1198   49.7088   10.6711 C   0  0  0  0  0  0
   22.1585   50.6482   10.6812 C   0  0  0  0  0  0
   18.2544   49.4725    6.1994 N   0  0  0  0  0  0
   21.0767   49.9244   15.4570 O   0  0  0  0  0  0
   19.2668   48.7017   14.5574 C   0  0  0  0  0  0
   24.5381   52.2761   10.7807 O   0  0  0  0  0  0
   24.1299   53.0335   12.9925 C   0  0  0  0  0  0
   19.0118   48.1438   15.7996 C   0  0  0  0  0  0
   18.2562   48.6411   13.5853 C   0  0  0  0  0  0
   17.0999   47.9088   13.8084 C   0  0  0  0  0  0
   17.8346   47.4732   16.0545 C   0  0  0  0  0  0
   16.9178   47.2803   15.0327 C   0  0  0  0  0  0
   20.1351   50.7448    8.1322 H   0  0  0  0  0  0
   22.4337   51.3157   13.9739 H   0  0  0  0  0  0
   20.4367   48.0112    9.4928 H   0  0  0  0  0  0
   20.0146   48.4167   11.9004 H   0  0  0  0  0  0
   22.6672   50.9209    9.8000 H   0  0  0  0  0  0
   18.3827   49.7243    5.2152 H   0  0  0  0  0  0
   17.3610   48.9919    6.3676 H   0  0  0  0  0  0
   23.2243   53.5450   13.3162 H   0  0  0  0  0  0
   24.8741   53.7899   12.7482 H   0  0  0  0  0  0
   24.4892   52.4279   13.8232 H   0  0  0  0  0  0
   19.7196   48.2724   16.5994 H   0  0  0  0  0  0
   18.3083   49.1990   12.6679 H   0  0  0  0  0  0
   16.3380   47.8633   13.0437 H   0  0  0  0  0  0
   17.6632   47.0734   17.0396 H   0  0  0  0  0  0
   16.0524   46.6627   15.2097 H   0  0  0  0  0  0
  1  5  1  0  0  0
  1  8  2  0  0  0
  1  9  2  0  0  0
  1 14  1  0  0  0
  2 11  2  0  0  0
  2  3  1  0  0  0
  2  6  1  0  0  0
  3 15  2  0  0  0
  3 16  1  0  0  0
  4 13  1  0  0  0
  4  6  2  0  0  0
  4 10  1  0  0  0
  5  7  2  0  0  0
  5 24  1  0  0  0
  6 25  1  0  0  0
  7 12  1  0  0  0
  7 26  1  0  0  0
 10 17  2  0  0  0
 10 18  1  0  0  0
 11 12  1  0  0  0
 11 27  1  0  0  0
 12 13  2  0  0  0
 13 28  1  0  0  0
 14 29  1  0  0  0
 14 30  1  0  0  0
 16 19  1  0  0  0
 16 20  2  0  0  0
 18 31  1  0  0  0
 18 32  1  0  0  0
 18 33  1  0  0  0
 19 22  2  0  0  0
 19 34  1  0  0  0
 20 21  1  0  0  0
 20 35  1  0  0  0
 21 23  2  0  0  0
 21 36  1  0  0  0
 22 23  1  0  0  0
 22 37  1  0  0  0
 23 38  1  0  0  0
M  END
> <s_m_entry_id>
5233

> <s_m_entry_name>
dock_pv.224

> <s_m_Source_Path>
/home/csk/Desktop/cluster/DUD-E-result/pgh1

> <s_m_Source_File>
dock_pv.maegz

> <i_m_Source_File_Index>
224

> <chembl_id>
CHEMBL150773

> <chembl_pref_name>
None

> <i_lp_mmshare_version>
53161

> <r_lp_tautomer_probability>
0.99995

> <s_lp_Force_Field>
OPLS_2005

> <r_lp_Energy>
19.554692

> <b_lp_Chiralities_Consistent>
1

> <s_lp_Variant>
CHEMBL221_lig382-1

> <s_i_glide_gridfile>
glide-grid_2oyu

> <i_i_glide_lignum>
448

> <i_i_glide_rotatable_bonds>
5

> <r_i_docking_score>
-8.68048888265853

> <r_i_glide_ligand_efficiency>
-0.377412560115588

> <r_i_glide_ligand_efficiency_sa>
-1.07331111637218

> <r_i_glide_ligand_efficiency_ln>
-2.09902092214829

> <r_i_glide_gscore>
-8.68048888265853

> <r_i_glide_lipo>
-3.75711683462806

> <r_i_glide_hbond>
-0.471953398987068

> <r_i_glide_metal>
0

> <r_i_glide_rewards>
-3.14447425818621

> <r_i_glide_evdw>
-22.372278213501

> <r_i_glide_ecoul>
-5.5663161277771

> <r_i_glide_erotb>
0.692958633185717

> <r_i_glide_esite>
-0.0463416942012875

> <r_i_glide_emodel>
-30.0636881753135

> <r_i_glide_energy>
-27.9385943412781

> <r_i_glide_einternal>
6.23740148544312

> <i_i_glide_confnum>
39

> <i_i_glide_posenum>
218

> <r_i_glide_eff_state_penalty>
0

> <s_user_duplicate_titles>
CHEMBL221_lig382

> <i_f3d_flags>
0

> <s_m_subgroup_title>
dock_pv

> <s_m_subgroupid>
dock_pv

> <b_m_subgroup_collapsed>
1

$$$$
CHEMBL221_lig179
                    3D
 Schrodinger Suite 2021-1.
 50 53  0  0  1  0            999 V2000
   20.5022   49.4688   13.1159 C   0  0  0  0  0  0
   20.2553   49.1878   14.5609 C   0  0  0  0  0  0
   19.7919   48.7942   12.1392 C   0  0  0  0  0  0
   20.0387   49.1871    6.0029 S   0  0  0  0  0  0
   19.1916   48.3272   14.7719 N   0  0  0  0  0  0
   18.5230   47.6318   13.7937 N   0  0  0  0  0  0
   18.7604   47.8730   12.5685 C   0  0  0  0  0  0
   19.9767   49.1073    7.8000 C   0  0  0  0  0  0
   21.6193   50.4257   12.8191 C   0  0  0  0  0  0
   19.9122   48.9407   10.6354 C   0  0  0  0  0  0
   20.9204   50.2727    5.5841 O   0  0  0  0  0  0
   20.2848   47.8610    5.4829 O   0  0  0  0  0  0
   17.7690   50.2730   17.1605 C   0  0  0  0  0  0
   20.9230   49.6637   15.4863 O   0  0  0  0  0  0
   16.8570   51.4337   17.4170 C   0  0  0  0  0  0
   17.3230   50.5763   18.5619 C   0  0  0  0  0  0
   18.6538   48.0992   16.1282 C   0  0  0  0  0  0
   20.1230   50.2521    8.5962 C   0  0  0  0  0  0
   19.7246   47.8890    8.4173 C   0  0  0  0  0  0
   20.1230   50.1687    9.9943 C   0  0  0  0  0  0
   19.7230   47.8186    9.8047 C   0  0  0  0  0  0
   21.6926   51.6693   13.4693 C   0  0  0  0  0  0
   22.6349   50.0884   11.9147 C   0  0  0  0  0  0
   17.4027   48.9443   16.4651 C   0  0  0  0  0  0
   18.3140   49.4730    5.4474 C   0  0  0  0  0  0
   23.7750   52.1609   12.3759 C   0  0  0  0  0  0
   22.7658   52.5283   13.2570 C   0  0  0  0  0  0
   23.7080   50.9504   11.6924 C   0  0  0  0  0  0
   24.8361   52.9786   12.1999 F   0  0  0  0  0  0
   18.1230   47.3697   11.8533 H   0  0  0  0  0  0
   18.8233   50.5124   17.0000 H   0  0  0  0  0  0
   15.8136   51.4376   17.1050 H   0  0  0  0  0  0
   17.3230   52.4138   17.4000 H   0  0  0  0  0  0
   18.0618   51.0130   19.2375 H   0  0  0  0  0  0
   16.6563   49.8735   19.0449 H   0  0  0  0  0  0
   19.4056   48.2730   16.8791 H   0  0  0  0  0  0
   18.4002   47.0432   16.2267 H   0  0  0  0  0  0
   20.2538   51.2124    8.1185 H   0  0  0  0  0  0
   19.5842   46.9979    7.8264 H   0  0  0  0  0  0
   20.2332   51.0744   10.5718 H   0  0  0  0  0  0
   19.6097   46.8421   10.2390 H   0  0  0  0  0  0
   20.9233   51.9658   14.1682 H   0  0  0  0  0  0
   22.6057   49.1386   11.4016 H   0  0  0  0  0  0
   16.7051   48.3768   17.0830 H   0  0  0  0  0  0
   16.9230   49.1199   15.5092 H   0  0  0  0  0  0
   18.3564   49.4382    4.3629 H   0  0  0  0  0  0
   17.6995   48.6542    5.8000 H   0  0  0  0  0  0
   17.9633   50.4303    5.8000 H   0  0  0  0  0  0
   22.8261   53.4686   13.7860 H   0  0  0  0  0  0
   24.4982   50.6733   11.0091 H   0  0  0  0  0  0
  1  2  1  0  0  0
  1  3  2  0  0  0
  1  9  1  0  0  0
  2  5  1  0  0  0
  2 14  2  0  0  0
  3  7  1  0  0  0
  3 10  1  0  0  0
  4  8  1  0  0  0
  4 11  2  0  0  0
  4 12  2  0  0  0
  4 25  1  0  0  0
  5 17  1  0  0  0
  5  6  1  0  0  0
  6  7  2  0  0  0
  7 30  1  0  0  0
  8 19  1  0  0  0
  8 18  2  0  0  0
  9 22  2  0  0  0
  9 23  1  0  0  0
 10 20  2  0  0  0
 10 21  1  0  0  0
 13 24  1  0  0  0
 13 15  1  0  0  0
 13 16  1  0  0  0
 13 31  1  0  0  0
 15 16  1  0  0  0
 15 32  1  0  0  0
 15 33  1  0  0  0
 16 34  1  0  0  0
 16 35  1  0  0  0
 17 24  1  0  0  0
 17 36  1  0  0  0
 17 37  1  0  0  0
 18 20  1  0  0  0
 18 38  1  0  0  0
 19 21  2  0  0  0
 19 39  1  0  0  0
 20 40  1  0  0  0
 21 41  1  0  0  0
 22 27  1  0  0  0
 22 42  1  0  0  0
 23 28  2  0  0  0
 23 43  1  0  0  0
 24 44  1  0  0  0
 24 45  1  0  0  0
 25 46  1  0  0  0
 25 47  1  0  0  0
 25 48  1  0  0  0
 26 28  1  0  0  0
 26 29  1  0  0  0
 26 27  2  0  0  0
 27 49  1  0  0  0
 28 50  1  0  0  0
M  END
> <s_m_entry_id>
5234

> <s_m_entry_name>
dock_pv.225

> <s_m_Source_Path>
/home/csk/Desktop/cluster/DUD-E-result/pgh1

> <s_m_Source_File>
dock_pv.maegz

> <i_m_Source_File_Index>
225

> <chembl_id>
CHEMBL155781

> <chembl_pref_name>
None

> <i_lp_mmshare_version>
53161

> <r_lp_tautomer_probability>
1

> <s_lp_Force_Field>
OPLS_2005

> <r_lp_Energy>
48.157808

> <b_lp_Chiralities_Consistent>
1

> <s_lp_Variant>
CHEMBL221_lig179-1

> <s_i_glide_gridfile>
glide-grid_2oyu

> <i_i_glide_lignum>
205

> <i_i_glide_rotatable_bonds>
6

> <r_i_docking_score>
-8.68010151282336

> <r_i_glide_ligand_efficiency>
-0.299313845269771

> <r_i_glide_ligand_efficiency_sa>
-0.919586961950874

> <r_i_glide_ligand_efficiency_ln>
-1.98752313805366

> <r_i_glide_gscore>
-8.68010151282336

> <r_i_glide_lipo>
-5.08948028746225

> <r_i_glide_hbond>
0

> <r_i_glide_metal>
0

> <r_i_glide_rewards>
-2.7154614806507

> <r_i_glide_evdw>
-10.6549167633057

> <r_i_glide_ecoul>
-5.95616149902344

> <r_i_glide_erotb>
0.579508486936296

> <r_i_glide_esite>
-0.0284981686279069

> <r_i_glide_emodel>
-20.3098417177364

> <r_i_glide_energy>
-16.6110782623291

> <r_i_glide_einternal>
7.13372373580933

> <i_i_glide_confnum>
81

> <i_i_glide_posenum>
181

> <r_i_glide_eff_state_penalty>
0

> <s_user_duplicate_titles>
CHEMBL221_lig179

> <i_f3d_flags>
0

> <s_m_subgroup_title>
dock_pv

> <s_m_subgroupid>
dock_pv

> <b_m_subgroup_collapsed>
1

$$$$
CHEMBL221_lig346
                    3D
 Schrodinger Suite 2021-1.
 38 40  0  0  1  0            999 V2000
   20.0294   49.2023   12.3858 N   0  0  0  0  0  0
   20.9124   49.8673   13.2261 C   0  0  0  0  0  0
   19.1479   48.4567   13.0824 N   0  0  0  0  0  0
   20.0139   48.8917    6.3831 S   0  0  0  0  0  0
   20.5230   49.4730   14.4998 C   0  0  0  0  0  0
   19.4352   48.6140   14.3503 C   0  0  0  0  0  0
   19.9628   49.1763   10.9675 C   0  0  0  0  0  0
   20.0043   49.0207    8.1707 C   0  0  0  0  0  0
   20.9230   49.8730    5.8000 O   0  0  0  0  0  0
   20.1230   47.4730    6.0848 O   0  0  0  0  0  0
   22.0289   50.7757   12.8335 C   0  0  0  0  0  0
   19.7230   47.9618   10.3183 C   0  0  0  0  0  0
   20.1230   50.3374   10.2051 C   0  0  0  0  0  0
   20.1230   50.2576    8.8122 C   0  0  0  0  0  0
   19.7376   47.8771    8.9304 C   0  0  0  0  0  0
   18.3434   49.3210    5.8000 C   0  0  0  0  0  0
   18.6143   47.9101   15.4036 C   0  0  0  0  0  0
   22.8838   50.4542   11.7769 C   0  0  0  0  0  0
   22.2364   51.9513   13.5609 C   0  0  0  0  0  0
   23.2817   52.8064   13.2223 C   0  0  0  0  0  0
   23.9199   51.3150   11.4274 C   0  0  0  0  0  0
   24.1186   52.4842   12.1567 C   0  0  0  0  0  0
   20.9730   49.7784   15.4329 H   0  0  0  0  0  0
   19.5535   47.0730   10.9004 H   0  0  0  0  0  0
   20.2572   51.2981   10.6817 H   0  0  0  0  0  0
   20.2387   51.1527    8.2181 H   0  0  0  0  0  0
   19.5725   46.9223    8.4540 H   0  0  0  0  0  0
   18.3866   49.3608    4.7140 H   0  0  0  0  0  0
   17.7230   48.4914    6.0949 H   0  0  0  0  0  0
   18.0141   50.2729    6.2000 H   0  0  0  0  0  0
   18.9243   48.1822   16.4120 H   0  0  0  0  0  0
   17.5560   48.1607   15.3206 H   0  0  0  0  0  0
   18.6958   46.8260   15.3231 H   0  0  0  0  0  0
   22.7393   49.5396   11.2226 H   0  0  0  0  0  0
   21.5887   52.2072   14.3872 H   0  0  0  0  0  0
   23.4428   53.7140   13.7870 H   0  0  0  0  0  0
   24.5704   51.0730   10.5998 H   0  0  0  0  0  0
   24.9315   53.1442   11.8947 H   0  0  0  0  0  0
  1  2  1  0  0  0
  1  3  1  0  0  0
  1  7  1  0  0  0
  2  5  2  0  0  0
  2 11  1  0  0  0
  3  6  2  0  0  0
  4  8  1  0  0  0
  4  9  2  0  0  0
  4 10  2  0  0  0
  4 16  1  0  0  0
  5  6  1  0  0  0
  5 23  1  0  0  0
  6 17  1  0  0  0
  7 12  2  0  0  0
  7 13  1  0  0  0
  8 14  1  0  0  0
  8 15  2  0  0  0
 11 18  1  0  0  0
 11 19  2  0  0  0
 12 15  1  0  0  0
 12 24  1  0  0  0
 13 14  2  0  0  0
 13 25  1  0  0  0
 14 26  1  0  0  0
 15 27  1  0  0  0
 16 28  1  0  0  0
 16 29  1  0  0  0
 16 30  1  0  0  0
 17 31  1  0  0  0
 17 32  1  0  0  0
 17 33  1  0  0  0
 18 21  2  0  0  0
 18 34  1  0  0  0
 19 20  1  0  0  0
 19 35  1  0  0  0
 20 22  2  0  0  0
 20 36  1  0  0  0
 21 22  1  0  0  0
 21 37  1  0  0  0
 22 38  1  0  0  0
M  END
> <s_m_entry_id>
5235

> <s_m_entry_name>
dock_pv.226

> <s_m_Source_Path>
/home/csk/Desktop/cluster/DUD-E-result/pgh1

> <s_m_Source_File>
dock_pv.maegz

> <i_m_Source_File_Index>
226

> <chembl_id>
CHEMBL349518

> <chembl_pref_name>
None

> <i_lp_mmshare_version>
53161

> <r_lp_tautomer_probability>
1

> <s_lp_Force_Field>
OPLS_2005

> <r_lp_Energy>
11.974886

> <b_lp_Chiralities_Consistent>
1

> <s_lp_Variant>
CHEMBL221_lig346-1

> <s_i_glide_gridfile>
glide-grid_2oyu

> <i_i_glide_lignum>
412

> <i_i_glide_rotatable_bonds>
3

> <r_i_docking_score>
-8.67529289016149

> <r_i_glide_ligand_efficiency>
-0.39433149500734

> <r_i_glide_ligand_efficiency_sa>
-1.10493235718824

> <r_i_glide_ligand_efficiency_ln>
-2.12055802135223

> <r_i_glide_gscore>
-8.67529289016149

> <r_i_glide_lipo>
-4.43971675078469

> <r_i_glide_hbond>
0

> <r_i_glide_metal>
0

> <r_i_glide_rewards>
-2.70679025694677

> <r_i_glide_evdw>
-22.597038269043

> <r_i_glide_ecoul>
-5.10931539535522

> <r_i_glide_erotb>
0.380362610464848

> <r_i_glide_esite>
-0.0128992701394348

> <r_i_glide_emodel>
-35.071759137192

> <r_i_glide_energy>
-27.7063536643982

> <r_i_glide_einternal>
0.199486792087555

> <i_i_glide_confnum>
5

> <i_i_glide_posenum>
95

> <r_i_glide_eff_state_penalty>
0

> <s_user_duplicate_titles>
CHEMBL221_lig346

> <i_f3d_flags>
0

> <s_m_subgroup_title>
dock_pv

> <s_m_subgroupid>
dock_pv

> <b_m_subgroup_collapsed>
1

$$$$
CHEMBL221_lig539
                    3D
 Schrodinger Suite 2021-1.
 32 34  0  0  1  0            999 V2000
   18.9243   48.1461   12.8366 N   0  0  0  0  0  0
   19.8276   48.9631   12.2666 N   0  0  0  0  0  0
   19.0853   48.2440   14.1330 C   0  0  0  0  0  0
   20.6109   49.6043   13.2114 C   0  0  0  0  0  0
   20.1262   49.1299   14.4234 C   0  0  0  0  0  0
   18.2124   47.4306   15.0653 C   0  0  0  0  0  0
   19.8706   49.0398   10.8546 C   0  0  0  0  0  0
   21.7214   50.5649   12.9399 C   0  0  0  0  0  0
   18.3554   47.8237   16.3283 F   0  0  0  0  0  0
   16.9230   47.5489   14.7544 F   0  0  0  0  0  0
   18.5301   46.1378   15.0001 F   0  0  0  0  0  0
   20.0508   50.2600   10.2009 C   0  0  0  0  0  0
   19.7229   47.8719   10.1015 C   0  0  0  0  0  0
   21.7829   51.7627   13.6567 C   0  0  0  0  0  0
   22.7019   50.2730   11.9866 C   0  0  0  0  0  0
   20.1231   50.2773    8.8120 C   0  0  0  0  0  0
   22.8044   52.6745   13.4020 C   0  0  0  0  0  0
   23.7230   51.1837   11.7318 C   0  0  0  0  0  0
   19.8427   47.8869    8.7173 C   0  0  0  0  0  0
   20.1216   49.0904    8.0800 C   0  0  0  0  0  0
   23.7684   52.3821   12.4398 C   0  0  0  0  0  0
   20.4854   49.3973   15.4070 H   0  0  0  0  0  0
   20.1139   51.1876   10.7517 H   0  0  0  0  0  0
   19.5982   46.9290   10.6036 H   0  0  0  0  0  0
   21.0336   51.9952   14.3999 H   0  0  0  0  0  0
   22.6674   49.3440   11.4372 H   0  0  0  0  0  0
   20.2414   51.2117    8.2858 H   0  0  0  0  0  0
   22.8511   53.6037   13.9521 H   0  0  0  0  0  0
   24.4790   50.9607   10.9919 H   0  0  0  0  0  0
   19.7751   46.9716    8.1499 H   0  0  0  0  0  0
   20.2310   49.1208    7.0054 H   0  0  0  0  0  0
   24.5610   53.0899   12.2444 H   0  0  0  0  0  0
  1  2  1  0  0  0
  1  3  2  0  0  0
  2  4  1  0  0  0
  2  7  1  0  0  0
  3  5  1  0  0  0
  3  6  1  0  0  0
  4  8  1  0  0  0
  4  5  2  0  0  0
  5 22  1  0  0  0
  6  9  1  0  0  0
  6 10  1  0  0  0
  6 11  1  0  0  0
  7 12  2  0  0  0
  7 13  1  0  0  0
  8 14  2  0  0  0
  8 15  1  0  0  0
 12 16  1  0  0  0
 12 23  1  0  0  0
 13 19  2  0  0  0
 13 24  1  0  0  0
 14 17  1  0  0  0
 14 25  1  0  0  0
 15 18  2  0  0  0
 15 26  1  0  0  0
 16 20  2  0  0  0
 16 27  1  0  0  0
 17 21  2  0  0  0
 17 28  1  0  0  0
 18 21  1  0  0  0
 18 29  1  0  0  0
 19 20  1  0  0  0
 19 30  1  0  0  0
 20 31  1  0  0  0
 21 32  1  0  0  0
M  END
> <s_m_entry_id>
5236

> <s_m_entry_name>
dock_pv.227

> <s_m_Source_Path>
/home/csk/Desktop/cluster/DUD-E-result/pgh1

> <s_m_Source_File>
dock_pv.maegz

> <i_m_Source_File_Index>
227

> <chembl_id>
CHEMBL28662

> <chembl_pref_name>
None

> <i_lp_mmshare_version>
53161

> <r_lp_tautomer_probability>
1

> <s_lp_Force_Field>
OPLS_2005

> <r_lp_Energy>
18.034245

> <b_lp_Chiralities_Consistent>
1

> <s_lp_Variant>
CHEMBL221_lig539-1

> <s_i_glide_gridfile>
glide-grid_2oyu

> <i_i_glide_lignum>
677

> <i_i_glide_rotatable_bonds>
3

> <r_i_docking_score>
-8.6746815663443

> <r_i_glide_ligand_efficiency>
-0.413080074587824

> <r_i_glide_ligand_efficiency_sa>
-1.13965660340509

> <r_i_glide_ligand_efficiency_ln>
-2.14479748843404

> <r_i_glide_gscore>
-8.6746815663443

> <r_i_glide_lipo>
-4.26892558965936

> <r_i_glide_hbond>
0

> <r_i_glide_metal>
0

> <r_i_glide_rewards>
-3.17583127140314

> <r_i_glide_evdw>
-29.0353450775146

> <r_i_glide_ecoul>
-1.42151832580566

> <r_i_glide_erotb>
0.437794478967258

> <r_i_glide_esite>
-0.00272418150247191

> <r_i_glide_emodel>
-45.0316012740019

> <r_i_glide_energy>
-30.4568634033203

> <r_i_glide_einternal>
0.73667323589325

> <i_i_glide_confnum>
13

> <i_i_glide_posenum>
247

> <r_i_glide_eff_state_penalty>
0

> <s_user_duplicate_titles>
CHEMBL221_lig539,38925

> <i_f3d_flags>
0

> <s_m_subgroup_title>
dock_pv

> <s_m_subgroupid>
dock_pv

> <b_m_subgroup_collapsed>
1

$$$$
CHEMBL221_lig295
                    3D
 Schrodinger Suite 2021-1.
 46 48  0  0  1  0            999 V2000
   18.9440   48.2279   14.0890 C   0  0  0  0  0  0
   19.9425   49.0730   14.2726 N   0  0  0  0  0  0
   20.4038   49.3779   13.0786 C   0  0  0  0  0  0
   19.7413   48.7094   12.0612 N   0  0  0  0  0  0
   18.8175   47.9532   12.7384 C   0  0  0  0  0  0
   19.8998   49.0057    6.0631 S   0  0  0  0  0  0
   18.1383   47.7076   15.2658 C   0  0  0  0  0  0
   21.5387   50.3157   12.8858 C   0  0  0  0  0  0
   22.5987   52.4843   13.1456 C   0  0  0  0  0  0
   23.7418   52.0240   12.4564 C   0  0  0  0  0  0
   19.8842   48.7759   10.6507 C   0  0  0  0  0  0
   21.5315   51.6177   13.3907 C   0  0  0  0  0  0
   19.9119   48.8680    7.8484 C   0  0  0  0  0  0
   23.7228   50.7108   11.9562 C   0  0  0  0  0  0
   20.4710   47.8471    5.4186 O   0  0  0  0  0  0
   20.5232   50.2730    5.7899 O   0  0  0  0  0  0
   24.8524   52.8652   12.2001 N   0  0  0  0  0  0
   22.6415   49.8730   12.1690 C   0  0  0  0  0  0
   18.9229   47.0730   16.1222 F   0  0  0  0  0  0
   17.5408   48.6880   15.9334 F   0  0  0  0  0  0
   17.1901   46.8547   14.8857 F   0  0  0  0  0  0
   19.7230   47.6181    9.8839 C   0  0  0  0  0  0
   20.1231   49.9888   10.0049 C   0  0  0  0  0  0
   20.1230   50.0279    8.6136 C   0  0  0  0  0  0
   19.7230   47.6519    8.4915 C   0  0  0  0  0  0
   22.4177   54.1276   13.6678 Cl  0  0  0  0  0  0
   18.1418   49.0188    5.5075 C   0  0  0  0  0  0
   25.6636   52.5929   11.0110 C   0  0  0  0  0  0
   25.5802   53.3926   13.3538 C   0  0  0  0  0  0
   18.1232   47.3302   12.2001 H   0  0  0  0  0  0
   20.6793   51.9810   13.9445 H   0  0  0  0  0  0
   24.5496   50.2925   11.4059 H   0  0  0  0  0  0
   22.6750   48.8610   11.7934 H   0  0  0  0  0  0
   19.6518   46.6730   10.3826 H   0  0  0  0  0  0
   20.2401   50.9089   10.5596 H   0  0  0  0  0  0
   20.2378   50.9868    8.1264 H   0  0  0  0  0  0
   19.5935   46.7459    7.9218 H   0  0  0  0  0  0
   18.1284   49.0730    4.4244 H   0  0  0  0  0  0
   17.6533   49.8730    5.9495 H   0  0  0  0  0  0
   17.7230   48.0670    5.7999 H   0  0  0  0  0  0
   25.0672   52.6731   10.1014 H   0  0  0  0  0  0
   26.5487   53.2219   10.9597 H   0  0  0  0  0  0
   26.0579   51.5886   11.0000 H   0  0  0  0  0  0
   24.9263   53.6588   14.1801 H   0  0  0  0  0  0
   26.2994   52.6730   13.7378 H   0  0  0  0  0  0
   26.1190   54.2992   13.0745 H   0  0  0  0  0  0
  1  2  1  0  0  0
  1  5  2  0  0  0
  1  7  1  0  0  0
  2  3  2  0  0  0
  3  8  1  0  0  0
  3  4  1  0  0  0
  4  5  1  0  0  0
  4 11  1  0  0  0
  5 30  1  0  0  0
  6 13  1  0  0  0
  6 15  2  0  0  0
  6 16  2  0  0  0
  6 27  1  0  0  0
  7 19  1  0  0  0
  7 20  1  0  0  0
  7 21  1  0  0  0
  8 12  2  0  0  0
  8 18  1  0  0  0
  9 12  1  0  0  0
  9 26  1  0  0  0
  9 10  2  0  0  0
 10 14  1  0  0  0
 10 17  1  0  0  0
 11 22  2  0  0  0
 11 23  1  0  0  0
 12 31  1  0  0  0
 13 24  1  0  0  0
 13 25  2  0  0  0
 14 18  2  0  0  0
 14 32  1  0  0  0
 17 28  1  0  0  0
 17 29  1  0  0  0
 18 33  1  0  0  0
 22 25  1  0  0  0
 22 34  1  0  0  0
 23 24  2  0  0  0
 23 35  1  0  0  0
 24 36  1  0  0  0
 25 37  1  0  0  0
 27 38  1  0  0  0
 27 39  1  0  0  0
 27 40  1  0  0  0
 28 41  1  0  0  0
 28 42  1  0  0  0
 28 43  1  0  0  0
 29 44  1  0  0  0
 29 45  1  0  0  0
 29 46  1  0  0  0
M  END
> <s_m_entry_id>
5237

> <s_m_entry_name>
dock_pv.228

> <s_m_Source_Path>
/home/csk/Desktop/cluster/DUD-E-result/pgh1

> <s_m_Source_File>
dock_pv.maegz

> <i_m_Source_File_Index>
228

> <chembl_id>
CHEMBL296078

> <chembl_pref_name>
None

> <i_lp_mmshare_version>
53161

> <r_lp_tautomer_probability>
1

> <s_lp_Force_Field>
OPLS_2005

> <r_lp_Energy>
24.007207

> <b_lp_Chiralities_Consistent>
1

> <s_lp_Variant>
CHEMBL221_lig295-1

> <s_i_glide_gridfile>
glide-grid_2oyu

> <i_i_glide_lignum>
328

> <i_i_glide_rotatable_bonds>
5

> <r_i_docking_score>
-8.66377818498146

> <r_i_glide_ligand_efficiency>
-0.298750971895912

> <r_i_glide_ligand_efficiency_sa>
-0.917857636615579

> <r_i_glide_ligand_efficiency_ln>
-1.98378550990174

> <r_i_glide_gscore>
-8.66377818498146

> <r_i_glide_lipo>
-4.44575353830433

> <r_i_glide_hbond>
0

> <r_i_glide_metal>
0

> <r_i_glide_rewards>
-2.88160044370055

> <r_i_glide_evdw>
-20.5349235534668

> <r_i_glide_ecoul>
-3.29848647117615

> <r_i_glide_erotb>
0.202975326204772

> <r_i_glide_esite>
-0.0178803808315868

> <r_i_glide_emodel>
-28.436565233042

> <r_i_glide_energy>
-23.8334100246429

> <r_i_glide_einternal>
4.83165454864502

> <i_i_glide_confnum>
3

> <i_i_glide_posenum>
259

> <r_i_glide_eff_state_penalty>
0

> <s_user_duplicate_titles>
CHEMBL221_lig295

> <i_f3d_flags>
0

> <s_m_subgroup_title>
dock_pv

> <s_m_subgroupid>
dock_pv

> <b_m_subgroup_collapsed>
1

$$$$
CHEMBL221_lig356
                    3D
 Schrodinger Suite 2021-1.
 45 48  0  0  1  0            999 V2000
   19.4562   48.6150   12.6945 C   0  0  0  0  0  0
   20.1871   49.1520   13.8244 C   0  0  0  0  0  0
   24.4267   53.1872   12.9560 S   0  0  0  0  0  0
   18.5782   47.7503   14.6715 C   0  0  0  0  0  0
   18.4930   47.8227   13.1760 C   0  0  0  0  0  0
   19.6918   48.6956   14.9850 C   0  0  0  0  0  0
   19.6772   48.8871   11.2489 C   0  0  0  0  0  0
   23.2806   51.9331   13.3723 C   0  0  0  0  0  0
   19.3233   47.9152   10.3154 C   0  0  0  0  0  0
   21.2993   50.0765   13.7185 C   0  0  0  0  0  0
   17.3930   47.5313   15.5677 C   0  0  0  0  0  0
   18.4535   46.4505   15.4002 C   0  0  0  0  0  0
   19.5507   48.0813    8.9560 C   0  0  0  0  0  0
   25.6161   53.0731   13.7999 O   0  0  0  0  0  0
   24.5230   53.0729   11.5020 O   0  0  0  0  0  0
   20.1230   49.2459    8.4895 C   0  0  0  0  0  0
   20.1486   50.1095   10.7564 C   0  0  0  0  0  0
   22.3106   52.1428   14.3481 C   0  0  0  0  0  0
   23.2846   50.7944   12.5771 C   0  0  0  0  0  0
   21.3361   51.1888   14.5528 C   0  0  0  0  0  0
   22.2770   49.8733   12.7402 C   0  0  0  0  0  0
   20.4019   50.2724    9.4000 C   0  0  0  0  0  0
   18.8091   47.0730    7.8004 Cl  0  0  0  0  0  0
   23.5351   54.7593   13.4060 C   0  0  0  0  0  0
   20.4642   49.3102    7.1560 O   0  0  0  0  0  0
   19.6456   50.1125    6.3397 C   0  0  0  0  0  0
   17.7230   47.2797   12.6730 H   0  0  0  0  0  0
   19.9676   48.8738   16.0142 H   0  0  0  0  0  0
   18.7881   47.0730   10.6653 H   0  0  0  0  0  0
   17.3335   48.0712   16.5134 H   0  0  0  0  0  0
   16.4187   47.3837   15.1043 H   0  0  0  0  0  0
   18.1926   45.5461   14.8496 H   0  0  0  0  0  0
   19.1746   46.2729   16.1964 H   0  0  0  0  0  0
   20.3386   50.9430   11.4153 H   0  0  0  0  0  0
   22.2928   53.0358   14.9529 H   0  0  0  0  0  0
   24.0301   50.6424   11.8082 H   0  0  0  0  0  0
   20.5753   51.3552   15.3020 H   0  0  0  0  0  0
   22.2620   49.0003   12.1042 H   0  0  0  0  0  0
   20.8196   51.1989    9.0471 H   0  0  0  0  0  0
   24.1425   55.5466   13.0000 H   0  0  0  0  0  0
   22.5265   54.7604   13.0000 H   0  0  0  0  0  0
   23.4981   54.8877   14.4846 H   0  0  0  0  0  0
   19.9166   49.9651    5.2944 H   0  0  0  0  0  0
   19.8184   51.1510    6.6001 H   0  0  0  0  0  0
   18.5868   49.8703    6.4505 H   0  0  0  0  0  0
  1  2  1  0  0  0
  1  5  2  0  0  0
  1  7  1  0  0  0
  2  6  2  0  0  0
  2 10  1  0  0  0
  3  8  1  0  0  0
  3 14  2  0  0  0
  3 15  2  0  0  0
  3 24  1  0  0  0
  4  5  1  0  0  0
  4 11  1  0  0  0
  4 12  1  0  0  0
  4  6  1  0  0  0
  5 27  1  0  0  0
  6 28  1  0  0  0
  7  9  1  0  0  0
  7 17  2  0  0  0
  8 19  2  0  0  0
  8 18  1  0  0  0
  9 13  2  0  0  0
  9 29  1  0  0  0
 10 20  1  0  0  0
 10 21  2  0  0  0
 11 12  1  0  0  0
 11 30  1  0  0  0
 11 31  1  0  0  0
 12 32  1  0  0  0
 12 33  1  0  0  0
 13 23  1  0  0  0
 13 16  1  0  0  0
 16 22  2  0  0  0
 16 25  1  0  0  0
 17 22  1  0  0  0
 17 34  1  0  0  0
 18 20  2  0  0  0
 18 35  1  0  0  0
 19 21  1  0  0  0
 19 36  1  0  0  0
 20 37  1  0  0  0
 21 38  1  0  0  0
 22 39  1  0  0  0
 24 40  1  0  0  0
 24 41  1  0  0  0
 24 42  1  0  0  0
 25 26  1  0  0  0
 26 43  1  0  0  0
 26 44  1  0  0  0
 26 45  1  0  0  0
M  END
> <s_m_entry_id>
5238

> <s_m_entry_name>
dock_pv.229

> <s_m_Source_Path>
/home/csk/Desktop/cluster/DUD-E-result/pgh1

> <s_m_Source_File>
dock_pv.maegz

> <i_m_Source_File_Index>
229

> <chembl_id>
CHEMBL89625

> <chembl_pref_name>
None

> <i_lp_mmshare_version>
53161

> <r_lp_tautomer_probability>
1

> <s_lp_Force_Field>
OPLS_2005

> <r_lp_Energy>
42.245078

> <b_lp_Chiralities_Consistent>
1

> <s_lp_Variant>
CHEMBL221_lig356-1

> <s_i_glide_gridfile>
glide-grid_2oyu

> <i_i_glide_lignum>
422

> <i_i_glide_rotatable_bonds>
4

> <r_i_docking_score>
-8.65969886836777

> <r_i_glide_ligand_efficiency>
-0.333065341091068

> <r_i_glide_ligand_efficiency_sa>
-0.986704762433456

> <r_i_glide_ligand_efficiency_ln>
-2.03370186444657

> <r_i_glide_gscore>
-8.65969886836777

> <r_i_glide_lipo>
-5.1542355623101

> <r_i_glide_hbond>
0

> <r_i_glide_metal>
0

> <r_i_glide_rewards>
-2.12118777272727

> <r_i_glide_evdw>
-15.3542013168335

> <r_i_glide_ecoul>
-5.84456586837769

> <r_i_glide_erotb>
0.260119412767929

> <r_i_glide_esite>
0

> <r_i_glide_emodel>
-49.1276476912182

> <r_i_glide_energy>
-21.1987671852112

> <r_i_glide_einternal>
9.8114538192749

> <i_i_glide_confnum>
1

> <i_i_glide_posenum>
189

> <r_i_glide_eff_state_penalty>
0

> <s_user_duplicate_titles>
CHEMBL221_lig356

> <i_f3d_flags>
0

> <s_m_subgroup_title>
dock_pv

> <s_m_subgroupid>
dock_pv

> <b_m_subgroup_collapsed>
1

$$$$
CHEMBL221_lig253
                    3D
 Schrodinger Suite 2021-1.
 35 37  0  0  1  0            999 V2000
   20.5496   49.5126   12.9586 N   0  0  0  0  0  0
   19.8610   48.7753   12.0276 C   0  0  0  0  0  0
   20.1601   49.0338   14.2298 C   0  0  0  0  0  0
   19.9486   49.0358    5.9275 S   0  0  0  0  0  0
   21.6445   50.3986   12.7634 C   0  0  0  0  0  0
   19.1545   47.8730   12.7007 C   0  0  0  0  0  0
   19.2943   48.0278   14.0114 O   0  0  0  0  0  0
   21.8014   51.5862   13.5107 C   0  0  0  0  0  0
   19.9418   48.9539    7.7196 C   0  0  0  0  0  0
   19.9318   48.8750   10.5388 C   0  0  0  0  0  0
   22.8977   52.4186   13.2957 C   0  0  0  0  0  0
   22.6147   50.0888   11.8000 C   0  0  0  0  0  0
   20.4915   47.8299    5.3454 O   0  0  0  0  0  0
   20.6128   50.2730    5.5832 O   0  0  0  0  0  0
   20.5230   49.3430   15.3655 O   0  0  0  0  0  0
   20.1230   50.1205    8.4750 C   0  0  0  0  0  0
   19.7230   47.7506    8.3743 C   0  0  0  0  0  0
   20.1230   50.0857    9.8695 C   0  0  0  0  0  0
   19.7230   47.7239    9.7657 C   0  0  0  0  0  0
   23.8509   52.0911   12.3393 C   0  0  0  0  0  0
   20.9230   51.9494   14.4692 F   0  0  0  0  0  0
   23.7086   50.9290   11.5870 C   0  0  0  0  0  0
   18.1723   49.0290    5.4000 C   0  0  0  0  0  0
   24.9230   52.8918   12.1595 F   0  0  0  0  0  0
   18.4966   47.0730   12.3960 H   0  0  0  0  0  0
   23.0157   53.3167   13.8849 H   0  0  0  0  0  0
   22.5230   49.1837   11.2183 H   0  0  0  0  0  0
   20.2331   51.0730    7.9748 H   0  0  0  0  0  0
   19.5764   46.8440    7.8102 H   0  0  0  0  0  0
   20.2409   51.0070   10.4210 H   0  0  0  0  0  0
   19.6156   46.7717   10.2517 H   0  0  0  0  0  0
   24.4563   50.6739   10.8493 H   0  0  0  0  0  0
   18.1288   49.0730    4.3170 H   0  0  0  0  0  0
   17.6684   49.8730    5.8385 H   0  0  0  0  0  0
   17.7230   48.1014    5.7349 H   0  0  0  0  0  0
  1  2  1  0  0  0
  1  3  1  0  0  0
  1  5  1  0  0  0
  2  6  2  0  0  0
  2 10  1  0  0  0
  3  7  1  0  0  0
  3 15  2  0  0  0
  4  9  1  0  0  0
  4 13  2  0  0  0
  4 14  2  0  0  0
  4 23  1  0  0  0
  5  8  1  0  0  0
  5 12  2  0  0  0
  6  7  1  0  0  0
  6 25  1  0  0  0
  8 11  2  0  0  0
  8 21  1  0  0  0
  9 17  2  0  0  0
  9 16  1  0  0  0
 10 18  1  0  0  0
 10 19  2  0  0  0
 11 20  1  0  0  0
 11 26  1  0  0  0
 12 22  1  0  0  0
 12 27  1  0  0  0
 16 18  2  0  0  0
 16 28  1  0  0  0
 17 19  1  0  0  0
 17 29  1  0  0  0
 18 30  1  0  0  0
 19 31  1  0  0  0
 20 22  2  0  0  0
 20 24  1  0  0  0
 22 32  1  0  0  0
 23 33  1  0  0  0
 23 34  1  0  0  0
 23 35  1  0  0  0
M  END
> <s_m_entry_id>
5239

> <s_m_entry_name>
dock_pv.230

> <s_m_Source_Path>
/home/csk/Desktop/cluster/DUD-E-result/pgh1

> <s_m_Source_File>
dock_pv.maegz

> <i_m_Source_File_Index>
230

> <chembl_id>
CHEMBL307766

> <chembl_pref_name>
None

> <i_lp_mmshare_version>
53161

> <r_lp_tautomer_probability>
1

> <s_lp_Force_Field>
OPLS_2005

> <r_lp_Energy>
26.973068

> <b_lp_Chiralities_Consistent>
1

> <s_lp_Variant>
CHEMBL221_lig253-1

> <s_i_glide_gridfile>
glide-grid_2oyu

> <i_i_glide_lignum>
286

> <i_i_glide_rotatable_bonds>
3

> <r_i_docking_score>
-8.65749651144807

> <r_i_glide_ligand_efficiency>
-0.360729021310336

> <r_i_glide_ligand_efficiency_sa>
-1.04052255086221

> <r_i_glide_ligand_efficiency_ln>
-2.07213618181819

> <r_i_glide_gscore>
-8.65749651144807

> <r_i_glide_lipo>
-4.15478337395922

> <r_i_glide_hbond>
0

> <r_i_glide_metal>
0

> <r_i_glide_rewards>
-3.33452459163084

> <r_i_glide_evdw>
-15.1774091720581

> <r_i_glide_ecoul>
-4.67102766036987

> <r_i_glide_erotb>
0.309026849334699

> <r_i_glide_esite>
-0.0176907875343224

> <r_i_glide_emodel>
-22.4701338836153

> <r_i_glide_energy>
-19.848436832428

> <r_i_glide_einternal>
2.13499927520752

> <i_i_glide_confnum>
2

> <i_i_glide_posenum>
236

> <r_i_glide_eff_state_penalty>
0

> <s_user_duplicate_titles>
CHEMBL221_lig253

> <i_f3d_flags>
0

> <s_m_subgroup_title>
dock_pv

> <s_m_subgroupid>
dock_pv

> <b_m_subgroup_collapsed>
1

$$$$
CHEMBL221_lig755
                    3D
 Schrodinger Suite 2021-1.
 45 47  0  0  1  0            999 V2000
   19.9787   49.0073    7.9384 C   0  0  0  0  0  0
   20.1230   50.2010    8.6626 C   0  0  0  0  0  0
   20.1097   50.1945   10.0670 C   0  0  0  0  0  0
   19.8887   48.9965   10.7620 C   0  0  0  0  0  0
   19.7209   47.8350   10.0111 C   0  0  0  0  0  0
   19.7287   47.8286    8.6313 C   0  0  0  0  0  0
   19.6475   48.8925   12.2418 C   0  0  0  0  0  0
   20.3735   49.4790   13.3110 C   0  0  0  0  0  0
   19.9571   49.3392   14.6230 N   0  0  0  0  0  0
   18.7775   48.6715   14.8433 C   0  0  0  0  0  0
   18.0703   48.0517   13.8744 N   0  0  0  0  0  0
   18.5278   48.1492   12.6227 C   0  0  0  0  0  0
   21.5658   50.3639   13.0988 C   0  0  0  0  0  0
   21.7179   51.5472   13.8379 C   0  0  0  0  0  0
   22.7835   52.4084   13.5955 C   0  0  0  0  0  0
   23.7170   52.0956   12.6146 C   0  0  0  0  0  0
   23.6007   50.9184   11.8841 C   0  0  0  0  0  0
   22.5389   50.0525   12.1375 C   0  0  0  0  0  0
   19.9953   48.9005    6.1446 S   0  0  0  0  0  0
   18.2950   49.2777    5.5797 C   0  0  0  0  0  0
   20.9224   49.8728    5.5752 O   0  0  0  0  0  0
   20.1230   47.4856    5.8338 O   0  0  0  0  0  0
   24.7504   52.9356   12.3799 F   0  0  0  0  0  0
   18.1489   48.5620   16.2646 C   0  0  0  0  0  0
   16.9233   47.6285   16.3055 C   0  0  0  0  0  0
   17.7229   49.8702   16.9991 C   0  0  0  0  0  0
   20.2484   51.1307    8.1274 H   0  0  0  0  0  0
   20.2015   51.1259   10.6065 H   0  0  0  0  0  0
   19.5890   46.9008   10.5207 H   0  0  0  0  0  0
   19.5801   46.8933    8.1145 H   0  0  0  0  0  0
   17.9129   47.6411   11.8966 H   0  0  0  0  0  0
   20.9896   51.8179   14.5889 H   0  0  0  0  0  0
   22.8870   53.3194   14.1674 H   0  0  0  0  0  0
   24.3381   50.6769   11.1331 H   0  0  0  0  0  0
   22.4701   49.1381   11.5668 H   0  0  0  0  0  0
   18.2631   49.1500    4.4988 H   0  0  0  0  0  0
   17.7232   48.4924    6.0399 H   0  0  0  0  0  0
   17.9905   50.2714    5.8857 H   0  0  0  0  0  0
   18.9203   48.0984   16.8669 H   0  0  0  0  0  0
   17.1153   46.6728   15.8174 H   0  0  0  0  0  0
   16.5616   47.4687   17.3224 H   0  0  0  0  0  0
   16.1232   48.0937   15.7352 H   0  0  0  0  0  0
   18.5701   50.5441   17.1045 H   0  0  0  0  0  0
   16.9232   50.4219   16.5127 H   0  0  0  0  0  0
   17.3230   49.6623   17.9937 H   0  0  0  0  0  0
  1  6  1  0  0  0
  1  2  2  0  0  0
  1 19  1  0  0  0
  2  3  1  0  0  0
  2 27  1  0  0  0
  3  4  2  0  0  0
  3 28  1  0  0  0
  4  7  1  0  0  0
  4  5  1  0  0  0
  5  6  2  0  0  0
  5 29  1  0  0  0
  6 30  1  0  0  0
  7  8  2  0  0  0
  7 12  1  0  0  0
  8 13  1  0  0  0
  8  9  1  0  0  0
  9 10  2  0  0  0
 10 11  1  0  0  0
 10 24  1  0  0  0
 11 12  2  0  0  0
 12 31  1  0  0  0
 13 14  2  0  0  0
 13 18  1  0  0  0
 14 15  1  0  0  0
 14 32  1  0  0  0
 15 16  2  0  0  0
 15 33  1  0  0  0
 16 17  1  0  0  0
 16 23  1  0  0  0
 17 18  2  0  0  0
 17 34  1  0  0  0
 18 35  1  0  0  0
 19 20  1  0  0  0
 19 21  2  0  0  0
 19 22  2  0  0  0
 20 36  1  0  0  0
 20 37  1  0  0  0
 20 38  1  0  0  0
 24 25  1  0  0  0
 24 26  1  0  0  0
 24 39  1  0  0  0
 25 40  1  0  0  0
 25 41  1  0  0  0
 25 42  1  0  0  0
 26 43  1  0  0  0
 26 44  1  0  0  0
 26 45  1  0  0  0
M  END
> <s_m_entry_id>
5240

> <s_m_entry_name>
dock_pv.231

> <s_m_Source_Path>
/home/csk/Desktop/cluster/DUD-E-result/pgh1

> <s_m_Source_File>
dock_pv.maegz

> <i_m_Source_File_Index>
231

> <chembl_id>
CHEMBL559056

> <chembl_pref_name>
None

> <i_lp_mmshare_version>
53161

> <r_lp_tautomer_probability>
1

> <s_lp_Force_Field>
OPLS_2005

> <r_lp_Energy>
8.348085

> <b_lp_Chiralities_Consistent>
1

> <s_lp_Variant>
CHEMBL221_lig755-1

> <s_i_glide_gridfile>
glide-grid_2oyu

> <i_i_glide_lignum>
924

> <i_i_glide_rotatable_bonds>
4

> <r_i_docking_score>
-8.65110686247633

> <r_i_glide_ligand_efficiency>
-0.332734879326013

> <r_i_glide_ligand_efficiency_sa>
-0.985725770754783

> <r_i_glide_ligand_efficiency_ln>
-2.03168406005563

> <r_i_glide_gscore>
-8.65110686247633

> <r_i_glide_lipo>
-4.47037793857721

> <r_i_glide_hbond>
0

> <r_i_glide_metal>
0

> <r_i_glide_rewards>
-2.9017467565527

> <r_i_glide_evdw>
-12.8330278396606

> <r_i_glide_ecoul>
-6.00556039810181

> <r_i_glide_erotb>
0.28117124079985

> <r_i_glide_esite>
-0.0176679564479628

> <r_i_glide_emodel>
-35.3459046317693

> <r_i_glide_energy>
-18.8385882377625

> <r_i_glide_einternal>
0.55802845954895

> <i_i_glide_confnum>
14

> <i_i_glide_posenum>
138

> <r_i_glide_eff_state_penalty>
0

> <s_user_duplicate_titles>
CHEMBL221_lig755

> <i_f3d_flags>
0

> <s_m_subgroup_title>
dock_pv

> <s_m_subgroupid>
dock_pv

> <b_m_subgroup_collapsed>
1

$$$$
CHEMBL221_lig978
                    3D
 Schrodinger Suite 2021-1.
 34 36  0  0  1  0            999 V2000
   20.8606   49.8730   13.8073 C   0  0  0  0  0  0
   20.0995   49.0936   13.0204 C   0  0  0  0  0  0
   19.1831   48.2846   13.8971 C   0  0  0  0  0  0
   19.5553   48.6562   15.2098 O   0  0  0  0  0  0
   20.5230   49.5894   15.1953 C   0  0  0  0  0  0
   20.0299   49.0970   11.5422 C   0  0  0  0  0  0
   20.3015   50.2492   10.7993 C   0  0  0  0  0  0
   20.3529   50.1921    9.4164 C   0  0  0  0  0  0
   20.1230   49.0024    8.7388 C   0  0  0  0  0  0
   19.7230   47.8730    9.4695 C   0  0  0  0  0  0
   19.7150   47.9205   10.8628 C   0  0  0  0  0  0
   21.9343   50.8082   13.3915 C   0  0  0  0  0  0
   21.9430   52.1308   13.8482 C   0  0  0  0  0  0
   22.9328   53.0121   13.4221 C   0  0  0  0  0  0
   23.9241   52.5699   12.5539 C   0  0  0  0  0  0
   23.9095   51.2689   12.0653 C   0  0  0  0  0  0
   22.9224   50.3879   12.4913 C   0  0  0  0  0  0
   20.9929   50.1187   16.2000 O   0  0  0  0  0  0
   20.1230   49.0825    7.3612 O   0  0  0  0  0  0
   19.5740   48.0176    6.6000 C   0  0  0  0  0  0
   24.9230   53.4031   12.2000 F   0  0  0  0  0  0
   18.1307   48.5136   13.7230 H   0  0  0  0  0  0
   19.3180   47.2111   13.7648 H   0  0  0  0  0  0
   20.4789   51.1987   11.2806 H   0  0  0  0  0  0
   20.5230   51.0871    8.8436 H   0  0  0  0  0  0
   19.4620   46.9504    8.9765 H   0  0  0  0  0  0
   19.4609   47.0361   11.4198 H   0  0  0  0  0  0
   21.1841   52.4785   14.5345 H   0  0  0  0  0  0
   22.9536   54.0266   13.7934 H   0  0  0  0  0  0
   24.6783   50.9379   11.3822 H   0  0  0  0  0  0
   22.9269   49.3740   12.1175 H   0  0  0  0  0  0
   19.6314   48.2730    5.5416 H   0  0  0  0  0  0
   18.5230   47.8570    6.8462 H   0  0  0  0  0  0
   20.1230   47.0885    6.7488 H   0  0  0  0  0  0
  1  2  2  0  0  0
  1  5  1  0  0  0
  1 12  1  0  0  0
  2  3  1  0  0  0
  2  6  1  0  0  0
  3  4  1  0  0  0
  3 22  1  0  0  0
  3 23  1  0  0  0
  4  5  1  0  0  0
  5 18  2  0  0  0
  6  7  2  0  0  0
  6 11  1  0  0  0
  7  8  1  0  0  0
  7 24  1  0  0  0
  8  9  2  0  0  0
  8 25  1  0  0  0
  9 10  1  0  0  0
  9 19  1  0  0  0
 10 11  2  0  0  0
 10 26  1  0  0  0
 11 27  1  0  0  0
 12 13  2  0  0  0
 12 17  1  0  0  0
 13 14  1  0  0  0
 13 28  1  0  0  0
 14 15  2  0  0  0
 14 29  1  0  0  0
 15 16  1  0  0  0
 15 21  1  0  0  0
 16 17  2  0  0  0
 16 30  1  0  0  0
 17 31  1  0  0  0
 19 20  1  0  0  0
 20 32  1  0  0  0
 20 33  1  0  0  0
 20 34  1  0  0  0
M  END
> <s_m_entry_id>
5241

> <s_m_entry_name>
dock_pv.232

> <s_m_Source_Path>
/home/csk/Desktop/cluster/DUD-E-result/pgh1

> <s_m_Source_File>
dock_pv.maegz

> <i_m_Source_File_Index>
232

> <chembl_id>
CHEMBL3357104

> <chembl_pref_name>
None

> <i_lp_mmshare_version>
53161

> <r_lp_tautomer_probability>
0.999841193423406

> <s_lp_Force_Field>
OPLS_2005

> <r_lp_Energy>
23.867146

> <b_lp_Chiralities_Consistent>
1

> <s_lp_Variant>
CHEMBL221_lig978-1

> <s_i_glide_gridfile>
glide-grid_2oyu

> <i_i_glide_lignum>
1215

> <i_i_glide_rotatable_bonds>
3

> <r_i_docking_score>
-8.64991783129645

> <r_i_glide_ligand_efficiency>
-0.411900849109355

> <r_i_glide_ligand_efficiency_sa>
-1.13640320972644

> <r_i_glide_ligand_efficiency_ln>
-2.13867470498329

> <r_i_glide_gscore>
-8.64991783129645

> <r_i_glide_lipo>
-4.33224431986692

> <r_i_glide_hbond>
0

> <r_i_glide_metal>
0

> <r_i_glide_rewards>
-2.89519491265067

> <r_i_glide_evdw>
-33.0272560119629

> <r_i_glide_ecoul>
-1.46434605121613

> <r_i_glide_erotb>
0.448536109501705

> <r_i_glide_esite>
0

> <r_i_glide_emodel>
-49.2789040173804

> <r_i_glide_energy>
-34.491602063179

> <r_i_glide_einternal>
3.09681820869446

> <i_i_glide_confnum>
14

> <i_i_glide_posenum>
284

> <r_i_glide_eff_state_penalty>
0

> <s_user_duplicate_titles>
CHEMBL221_lig978

> <i_f3d_flags>
0

> <s_m_subgroup_title>
dock_pv

> <s_m_subgroupid>
dock_pv

> <b_m_subgroup_collapsed>
1

$$$$
CHEMBL221_lig75
                    3D
 Schrodinger Suite 2021-1.
 35 37  0  0  1  0            999 V2000
   19.9972   49.2293   12.6867 N   0  0  0  0  0  0
   19.5417   48.6730   14.8186 N   0  0  0  0  0  0
   20.8849   49.9090   13.4920 C   0  0  0  0  0  0
   19.2228   48.5020   13.5637 C   0  0  0  0  0  0
   20.0458   48.7629    6.7452 S   0  0  0  0  0  0
   20.5230   49.5552   14.7834 C   0  0  0  0  0  0
   19.9290   49.2034   11.2850 C   0  0  0  0  0  0
   20.1046   49.0060    8.5195 C   0  0  0  0  0  0
   21.9888   50.8032   13.0476 C   0  0  0  0  0  0
   19.4231   47.4730    6.6000 O   0  0  0  0  0  0
   21.3230   49.0730    6.1330 O   0  0  0  0  0  0
   20.1230   50.2640    9.1222 C   0  0  0  0  0  0
   19.8069   47.8790    9.2968 C   0  0  0  0  0  0
   20.0900   50.3625   10.5136 C   0  0  0  0  0  0
   19.7230   47.9734   10.6721 C   0  0  0  0  0  0
   21.2444   50.1681   16.2000 Cl  0  0  0  0  0  0
   22.1316   52.0636   13.6337 C   0  0  0  0  0  0
   22.9230   50.3519   12.1135 C   0  0  0  0  0  0
   18.9230   49.8724    5.9044 C   0  0  0  0  0  0
   24.1843   52.3748   12.4253 C   0  0  0  0  0  0
   23.2339   52.8513   13.3218 C   0  0  0  0  0  0
   24.0190   51.1453   11.7959 C   0  0  0  0  0  0
   25.3061   53.0884   12.2000 F   0  0  0  0  0  0
   18.4347   47.8639   13.1913 H   0  0  0  0  0  0
   20.2250   51.1442    8.5083 H   0  0  0  0  0  0
   19.6825   46.9025    8.8541 H   0  0  0  0  0  0
   20.1906   51.3315   10.9813 H   0  0  0  0  0  0
   19.5625   47.0731   11.2483 H   0  0  0  0  0  0
   21.4120   52.4191   14.3573 H   0  0  0  0  0  0
   22.8223   49.3744   11.6655 H   0  0  0  0  0  0
   19.0546   49.6763    4.8467 H   0  0  0  0  0  0
   19.3245   50.8038    6.2000 H   0  0  0  0  0  0
   17.8944   49.7252    6.2000 H   0  0  0  0  0  0
   23.3725   53.8101   13.8001 H   0  0  0  0  0  0
   24.7630   50.7933   11.0979 H   0  0  0  0  0  0
  1  3  1  0  0  0
  1  4  1  0  0  0
  1  7  1  0  0  0
  2  4  2  0  0  0
  2  6  1  0  0  0
  3  6  2  0  0  0
  3  9  1  0  0  0
  4 24  1  0  0  0
  5  8  1  0  0  0
  5 10  2  0  0  0
  5 11  2  0  0  0
  5 19  1  0  0  0
  6 16  1  0  0  0
  7 14  1  0  0  0
  7 15  2  0  0  0
  8 13  2  0  0  0
  8 12  1  0  0  0
  9 17  2  0  0  0
  9 18  1  0  0  0
 12 14  2  0  0  0
 12 25  1  0  0  0
 13 15  1  0  0  0
 13 26  1  0  0  0
 14 27  1  0  0  0
 15 28  1  0  0  0
 17 21  1  0  0  0
 17 29  1  0  0  0
 18 22  2  0  0  0
 18 30  1  0  0  0
 19 31  1  0  0  0
 19 32  1  0  0  0
 19 33  1  0  0  0
 20 22  1  0  0  0
 20 23  1  0  0  0
 20 21  2  0  0  0
 21 34  1  0  0  0
 22 35  1  0  0  0
M  END
> <s_m_entry_id>
5242

> <s_m_entry_name>
dock_pv.233

> <s_m_Source_Path>
/home/csk/Desktop/cluster/DUD-E-result/pgh1

> <s_m_Source_File>
dock_pv.maegz

> <i_m_Source_File_Index>
233

> <chembl_id>
CHEMBL418859

> <chembl_pref_name>
None

> <i_lp_mmshare_version>
53161

> <r_lp_tautomer_probability>
1

> <s_lp_Force_Field>
OPLS_2005

> <r_lp_Energy>
12.112741

> <b_lp_Chiralities_Consistent>
1

> <s_lp_Variant>
CHEMBL221_lig75-1

> <s_i_glide_gridfile>
glide-grid_2oyu

> <i_i_glide_lignum>
92

> <i_i_glide_rotatable_bonds>
3

> <r_i_docking_score>
-8.64378511449699

> <r_i_glide_ligand_efficiency>
-0.375816744108565

> <r_i_glide_ligand_efficiency_sa>
-1.06877282792863

> <r_i_glide_ligand_efficiency_ln>
-2.09014561819546

> <r_i_glide_gscore>
-8.64378511449699

> <r_i_glide_lipo>
-4.12334352947707

> <r_i_glide_hbond>
0

> <r_i_glide_metal>
0

> <r_i_glide_rewards>
-3.07936884182902

> <r_i_glide_evdw>
-16.0263900756836

> <r_i_glide_ecoul>
-6.33073759078979

> <r_i_glide_erotb>
0.30985739921175

> <r_i_glide_esite>
0

> <r_i_glide_emodel>
-26.3712283288821

> <r_i_glide_energy>
-22.3571276664734

> <r_i_glide_einternal>
1.03753578662872

> <i_i_glide_confnum>
5

> <i_i_glide_posenum>
227

> <r_i_glide_eff_state_penalty>
0

> <s_user_duplicate_titles>
CHEMBL221_lig75

> <i_f3d_flags>
0

> <s_m_subgroup_title>
dock_pv

> <s_m_subgroupid>
dock_pv

> <b_m_subgroup_collapsed>
1

$$$$
CHEMBL221_lig472
                    3D
 Schrodinger Suite 2021-1.
 46 48  0  0  1  0            999 V2000
   20.5737   50.0944   12.8809 C   0  0  0  0  0  0
   20.0978   49.1197   12.0919 C   0  0  0  0  0  0
   20.5414   49.7001   14.2782 C   0  0  0  0  0  0
   19.6205   48.0242   13.0327 C   0  0  0  0  0  0
   19.8473   48.8676    6.0007 S   0  0  0  0  0  0
   19.9733   48.4905   14.3276 O   0  0  0  0  0  0
   20.9231   51.3721   12.6000 O   0  0  0  0  0  0
   19.9506   49.1290   10.6014 C   0  0  0  0  0  0
   19.8722   49.0094    7.7814 C   0  0  0  0  0  0
   22.2470   51.7229   12.4991 C   0  0  0  0  0  0
   20.1230   47.4730    5.7457 O   0  0  0  0  0  0
   20.7170   49.8730    5.4009 O   0  0  0  0  0  0
   20.9230   50.3320   15.2621 O   0  0  0  0  0  0
   20.1230   50.2173    8.4319 C   0  0  0  0  0  0
   19.6104   47.8730    8.5396 C   0  0  0  0  0  0
   22.7335   52.8234   13.2213 C   0  0  0  0  0  0
   19.6138   47.9520    9.9242 C   0  0  0  0  0  0
   20.1803   50.2730    9.8258 C   0  0  0  0  0  0
   18.0934   49.0933    5.4301 C   0  0  0  0  0  0
   18.0863   47.8867   13.0462 C   0  0  0  0  0  0
   20.3410   46.6730   12.8933 C   0  0  0  0  0  0
   23.0635   51.1023   11.5518 C   0  0  0  0  0  0
   21.8397   53.5633   14.2001 C   0  0  0  0  0  0
   24.0356   53.2799   13.0000 C   0  0  0  0  0  0
   24.3389   51.5917   11.3058 C   0  0  0  0  0  0
   24.8326   52.6730   12.0335 C   0  0  0  0  0  0
   20.2755   51.1158    7.8506 H   0  0  0  0  0  0
   19.3664   46.9362    8.0633 H   0  0  0  0  0  0
   19.3231   47.0730   10.4563 H   0  0  0  0  0  0
   20.4030   51.2224   10.2857 H   0  0  0  0  0  0
   18.0878   49.0730    4.3412 H   0  0  0  0  0  0
   17.7084   50.0388    5.8015 H   0  0  0  0  0  0
   17.5142   48.2539    5.7997 H   0  0  0  0  0  0
   17.7246   47.4765   12.1086 H   0  0  0  0  0  0
   17.7484   47.2277   13.8466 H   0  0  0  0  0  0
   17.5945   48.8483   13.1964 H   0  0  0  0  0  0
   20.5231   46.3450   11.8759 H   0  0  0  0  0  0
   21.3219   46.6738   13.3666 H   0  0  0  0  0  0
   19.7230   45.9046   13.3603 H   0  0  0  0  0  0
   22.6930   50.2766   10.9641 H   0  0  0  0  0  0
   22.3146   54.4603   14.5999 H   0  0  0  0  0  0
   20.9230   53.8684   13.6999 H   0  0  0  0  0  0
   21.5642   52.9146   15.0306 H   0  0  0  0  0  0
   24.4174   54.1294   13.5489 H   0  0  0  0  0  0
   24.9230   51.1308   10.5287 H   0  0  0  0  0  0
   25.8270   53.0468   11.8387 H   0  0  0  0  0  0
  1  2  2  0  0  0
  1  3  1  0  0  0
  1  7  1  0  0  0
  2  4  1  0  0  0
  2  8  1  0  0  0
  3  6  1  0  0  0
  3 13  2  0  0  0
  4 20  1  0  0  0
  4 21  1  0  0  0
  4  6  1  0  0  0
  5  9  1  0  0  0
  5 11  2  0  0  0
  5 12  2  0  0  0
  5 19  1  0  0  0
  7 10  1  0  0  0
  8 17  1  0  0  0
  8 18  2  0  0  0
  9 14  2  0  0  0
  9 15  1  0  0  0
 10 16  2  0  0  0
 10 22  1  0  0  0
 14 18  1  0  0  0
 14 27  1  0  0  0
 15 17  2  0  0  0
 15 28  1  0  0  0
 16 23  1  0  0  0
 16 24  1  0  0  0
 17 29  1  0  0  0
 18 30  1  0  0  0
 19 31  1  0  0  0
 19 32  1  0  0  0
 19 33  1  0  0  0
 20 34  1  0  0  0
 20 35  1  0  0  0
 20 36  1  0  0  0
 21 37  1  0  0  0
 21 38  1  0  0  0
 21 39  1  0  0  0
 22 25  2  0  0  0
 22 40  1  0  0  0
 23 41  1  0  0  0
 23 42  1  0  0  0
 23 43  1  0  0  0
 24 26  2  0  0  0
 24 44  1  0  0  0
 25 26  1  0  0  0
 25 45  1  0  0  0
 26 46  1  0  0  0
M  END
> <s_m_entry_id>
5243

> <s_m_entry_name>
dock_pv.234

> <s_m_Source_Path>
/home/csk/Desktop/cluster/DUD-E-result/pgh1

> <s_m_Source_File>
dock_pv.maegz

> <i_m_Source_File_Index>
234

> <chembl_id>
CHEMBL109047

> <chembl_pref_name>
None

> <i_lp_mmshare_version>
53161

> <r_lp_tautomer_probability>
1

> <s_lp_Force_Field>
OPLS_2005

> <r_lp_Energy>
19.012619

> <b_lp_Chiralities_Consistent>
1

> <s_lp_Variant>
CHEMBL221_lig472-1

> <s_i_glide_gridfile>
glide-grid_2oyu

> <i_i_glide_lignum>
587

> <i_i_glide_rotatable_bonds>
4

> <r_i_docking_score>
-8.64208475787675

> <r_i_glide_ligand_efficiency>
-0.332387875302952

> <r_i_glide_ligand_efficiency_sa>
-0.984697772701861

> <r_i_glide_ligand_efficiency_ln>
-2.02956524839436

> <r_i_glide_gscore>
-8.64208475787675

> <r_i_glide_lipo>
-4.48049249887268

> <r_i_glide_hbond>
0

> <r_i_glide_metal>
0

> <r_i_glide_rewards>
-2.393669904929

> <r_i_glide_evdw>
-23.1941547393799

> <r_i_glide_ecoul>
-6.71394395828247

> <r_i_glide_erotb>
0.417727549903097

> <r_i_glide_esite>
-0.0188505732667969

> <r_i_glide_emodel>
-28.5444106363068

> <r_i_glide_energy>
-29.9080986976624

> <r_i_glide_einternal>
8.23578834533691

> <i_i_glide_confnum>
12

> <i_i_glide_posenum>
261

> <r_i_glide_eff_state_penalty>
0

> <s_user_duplicate_titles>
CHEMBL221_lig472,178082

> <i_f3d_flags>
0

> <s_m_subgroup_title>
dock_pv

> <s_m_subgroupid>
dock_pv

> <b_m_subgroup_collapsed>
1

$$$$
CHEMBL221_lig448
                    3D
 Schrodinger Suite 2021-1.
 38 40  0  0  1  0            999 V2000
   20.0647   48.7543    6.8583 S   0  0  0  0  0  0
   20.1330   49.1960   12.9659 C   0  0  0  0  0  0
   20.9230   49.9901   13.7318 C   0  0  0  0  0  0
   20.6955   49.7369   15.1573 C   0  0  0  0  0  0
   19.2156   48.3442   13.8198 C   0  0  0  0  0  0
   20.1230   48.9674    8.6674 C   0  0  0  0  0  0
   20.0441   49.1661   11.4798 C   0  0  0  0  0  0
   19.4380   47.4730    6.6544 O   0  0  0  0  0  0
   21.3230   49.0730    6.2000 O   0  0  0  0  0  0
   21.9932   50.9200   13.2749 C   0  0  0  0  0  0
   19.6153   48.6728   15.2526 C   0  0  0  0  0  0
   21.2762   50.2934   16.0882 O   0  0  0  0  0  0
   20.3329   50.1942    9.2998 C   0  0  0  0  0  0
   19.7230   47.8743    9.4505 C   0  0  0  0  0  0
   20.2980   50.2928   10.6874 C   0  0  0  0  0  0
   19.7229   47.9668   10.8386 C   0  0  0  0  0  0
   18.8881   49.8730    6.0978 C   0  0  0  0  0  0
   22.0777   52.2162   13.8003 C   0  0  0  0  0  0
   22.9240   50.5186   12.3067 C   0  0  0  0  0  0
   23.9109   51.3956   11.8654 C   0  0  0  0  0  0
   23.0785   53.0868   13.3812 C   0  0  0  0  0  0
   23.9901   52.6730   12.4137 C   0  0  0  0  0  0
   18.1670   48.5891   13.6408 H   0  0  0  0  0  0
   19.3387   47.2777   13.6308 H   0  0  0  0  0  0
   18.7716   49.0525   15.8294 H   0  0  0  0  0  0
   20.0072   47.8007   15.7755 H   0  0  0  0  0  0
   20.5231   51.0731    8.7038 H   0  0  0  0  0  0
   19.4711   46.9278    8.9967 H   0  0  0  0  0  0
   20.4846   51.2555   11.1392 H   0  0  0  0  0  0
   19.4840   47.0790   11.4044 H   0  0  0  0  0  0
   18.7916   49.6038    5.0473 H   0  0  0  0  0  0
   19.3230   50.8605    6.2001 H   0  0  0  0  0  0
   17.9298   49.8106    6.5998 H   0  0  0  0  0  0
   21.3725   52.5521   14.5471 H   0  0  0  0  0  0
   22.8837   49.5226   11.8895 H   0  0  0  0  0  0
   24.6215   51.0791   11.1149 H   0  0  0  0  0  0
   23.1468   54.0795   13.8032 H   0  0  0  0  0  0
   24.7665   53.3494   12.0892 H   0  0  0  0  0  0
  1  6  1  0  0  0
  1  8  2  0  0  0
  1  9  2  0  0  0
  1 17  1  0  0  0
  2  7  1  0  0  0
  2  3  2  0  0  0
  2  5  1  0  0  0
  3  4  1  0  0  0
  3 10  1  0  0  0
  4 12  2  0  0  0
  4 11  1  0  0  0
  5 11  1  0  0  0
  5 23  1  0  0  0
  5 24  1  0  0  0
  6 13  1  0  0  0
  6 14  2  0  0  0
  7 16  2  0  0  0
  7 15  1  0  0  0
 10 18  2  0  0  0
 10 19  1  0  0  0
 11 25  1  0  0  0
 11 26  1  0  0  0
 13 15  2  0  0  0
 13 27  1  0  0  0
 14 16  1  0  0  0
 14 28  1  0  0  0
 15 29  1  0  0  0
 16 30  1  0  0  0
 17 31  1  0  0  0
 17 32  1  0  0  0
 17 33  1  0  0  0
 18 21  1  0  0  0
 18 34  1  0  0  0
 19 20  2  0  0  0
 19 35  1  0  0  0
 20 22  1  0  0  0
 20 36  1  0  0  0
 21 22  2  0  0  0
 21 37  1  0  0  0
 22 38  1  0  0  0
M  END
> <s_m_entry_id>
5244

> <s_m_entry_name>
dock_pv.235

> <s_m_Source_Path>
/home/csk/Desktop/cluster/DUD-E-result/pgh1

> <s_m_Source_File>
dock_pv.maegz

> <i_m_Source_File_Index>
235

> <chembl_id>
CHEMBL23170

> <chembl_pref_name>
None

> <i_lp_mmshare_version>
53161

> <r_lp_tautomer_probability>
0.499977396165832

> <s_lp_Force_Field>
OPLS_2005

> <r_lp_Energy>
20.878341

> <b_lp_Chiralities_Consistent>
1

> <s_lp_Variant>
CHEMBL221_lig448-1

> <s_i_glide_gridfile>
glide-grid_2oyu

> <i_i_glide_lignum>
535

> <i_i_glide_rotatable_bonds>
3

> <r_i_docking_score>
-8.63004985551541

> <r_i_glide_ligand_efficiency>
-0.392274993432519

> <r_i_glide_ligand_efficiency_sa>
-1.09916995889797

> <r_i_glide_ligand_efficiency_ln>
-2.10949897340494

> <r_i_glide_gscore>
-8.63004985551541

> <r_i_glide_lipo>
-4.42017434829204

> <r_i_glide_hbond>
0

> <r_i_glide_metal>
0

> <r_i_glide_rewards>
-2.69266710705322

> <r_i_glide_evdw>
-21.2430973052979

> <r_i_glide_ecoul>
-5.56948804855347

> <r_i_glide_erotb>
0.380369672377759

> <r_i_glide_esite>
0

> <r_i_glide_emodel>
-33.2441725307237

> <r_i_glide_energy>
-26.8125853538513

> <r_i_glide_einternal>
0.95280909538269

> <i_i_glide_confnum>
1

> <i_i_glide_posenum>
295

> <r_i_glide_eff_state_penalty>
0

> <s_user_duplicate_titles>
CHEMBL221_lig448

> <i_f3d_flags>
0

> <s_m_subgroup_title>
dock_pv

> <s_m_subgroupid>
dock_pv

> <b_m_subgroup_collapsed>
1

$$$$
CHEMBL221_lig647
                    3D
 Schrodinger Suite 2021-1.
 43 45  0  0  1  0            999 V2000
   19.3331   48.3434   15.2026 C   0  0  0  0  0  0
   20.3669   49.4162   15.0927 C   0  0  0  0  0  0
   20.7280   49.9177   13.7783 N   0  0  0  0  0  0
   21.5179   51.0605   13.5890 C   0  0  0  0  0  0
   21.8882   51.1828   12.2734 C   0  0  0  0  0  0
   20.3502   49.4870   12.4933 C   0  0  0  0  0  0
   21.0767   50.2730   11.5564 C   0  0  0  0  0  0
   20.9025   50.0580   10.1905 C   0  0  0  0  0  0
   20.1230   49.0126    9.7337 C   0  0  0  0  0  0
   19.4047   48.2551   10.6543 C   0  0  0  0  0  0
   19.4504   48.5100   12.0219 C   0  0  0  0  0  0
   21.9259   51.9952   14.6997 C   0  0  0  0  0  0
   20.1230   48.8097    8.3700 O   0  0  0  0  0  0
   22.9230   52.1103   11.6757 C   0  0  0  0  0  0
   19.5379   47.6225    7.8473 C   0  0  0  0  0  0
   24.3191   51.4988   11.7835 C   0  0  0  0  0  0
   25.2590   52.2730   11.0000 N   0  0  0  0  0  0
   19.5712   47.0730   14.6890 C   0  0  0  0  0  0
   18.5230   46.1605   14.6000 C   0  0  0  0  0  0
   17.2579   46.5202   15.0569 C   0  0  0  0  0  0
   17.0670   47.7324   15.7037 C   0  0  0  0  0  0
   18.1079   48.6326   15.8000 C   0  0  0  0  0  0
   20.8339   49.8730   16.1350 O   0  0  0  0  0  0
   15.9529   45.3911   15.0000 Cl  0  0  0  0  0  0
   21.3703   50.7037    9.4753 H   0  0  0  0  0  0
   18.7474   47.4730   10.3107 H   0  0  0  0  0  0
   18.7690   47.9612   12.6411 H   0  0  0  0  0  0
   22.5230   52.8434   14.3681 H   0  0  0  0  0  0
   21.0682   52.4008   15.2368 H   0  0  0  0  0  0
   22.5230   51.4390   15.3999 H   0  0  0  0  0  0
   22.7027   52.2730   10.6280 H   0  0  0  0  0  0
   22.9124   53.0953   12.1425 H   0  0  0  0  0  0
   19.7024   47.5866    6.7706 H   0  0  0  0  0  0
   19.9944   46.7313    8.2804 H   0  0  0  0  0  0
   18.4617   47.5893    8.0176 H   0  0  0  0  0  0
   24.6287   51.4730   12.8276 H   0  0  0  0  0  0
   24.3189   50.4717   11.4141 H   0  0  0  0  0  0
   26.0929   51.7111   10.8636 H   0  0  0  0  0  0
   24.8813   52.4030   10.0719 H   0  0  0  0  0  0
   20.5345   46.8298   14.2686 H   0  0  0  0  0  0
   18.6755   45.1879   14.1567 H   0  0  0  0  0  0
   16.1230   47.9900   16.1470 H   0  0  0  0  0  0
   17.9201   49.5532   16.3213 H   0  0  0  0  0  0
  1  2  1  0  0  0
  1 18  1  0  0  0
  1 22  2  0  0  0
  2  3  1  0  0  0
  2 23  2  0  0  0
  3  4  1  0  0  0
  3  6  1  0  0  0
  4  5  2  0  0  0
  4 12  1  0  0  0
  5  7  1  0  0  0
  5 14  1  0  0  0
  6  7  2  0  0  0
  6 11  1  0  0  0
  7  8  1  0  0  0
  8  9  2  0  0  0
  8 25  1  0  0  0
  9 10  1  0  0  0
  9 13  1  0  0  0
 10 11  2  0  0  0
 10 26  1  0  0  0
 11 27  1  0  0  0
 12 28  1  0  0  0
 12 29  1  0  0  0
 12 30  1  0  0  0
 13 15  1  0  0  0
 14 16  1  0  0  0
 14 31  1  0  0  0
 14 32  1  0  0  0
 15 33  1  0  0  0
 15 34  1  0  0  0
 15 35  1  0  0  0
 16 17  1  0  0  0
 16 36  1  0  0  0
 16 37  1  0  0  0
 17 38  1  0  0  0
 17 39  1  0  0  0
 18 19  2  0  0  0
 18 40  1  0  0  0
 19 20  1  0  0  0
 19 41  1  0  0  0
 20 21  2  0  0  0
 20 24  1  0  0  0
 21 22  1  0  0  0
 21 42  1  0  0  0
 22 43  1  0  0  0
M  END
> <s_m_entry_id>
5245

> <s_m_entry_name>
dock_pv.236

> <s_m_Source_Path>
/home/csk/Desktop/cluster/DUD-E-result/pgh1

> <s_m_Source_File>
dock_pv.maegz

> <i_m_Source_File_Index>
236

> <chembl_id>
CHEMBL557174

> <chembl_pref_name>
None

> <i_lp_mmshare_version>
53161

> <r_lp_tautomer_probability>
1

> <s_lp_Force_Field>
OPLS_2005

> <r_lp_Energy>
30.438221

> <b_lp_Chiralities_Consistent>
1

> <s_lp_Variant>
CHEMBL221_lig647-1

> <s_i_glide_gridfile>
glide-grid_2oyu

> <i_i_glide_lignum>
787

> <i_i_glide_rotatable_bonds>
5

> <r_i_docking_score>
-8.6201863678405

> <r_i_glide_ligand_efficiency>
-0.359174431993354

> <r_i_glide_ligand_efficiency_sa>
-1.03603833931812

> <r_i_glide_ligand_efficiency_ln>
-2.06320615240197

> <r_i_glide_gscore>
-8.6201863678405

> <r_i_glide_lipo>
-4.57062594232226

> <r_i_glide_hbond>
-0.244789429341006

> <r_i_glide_metal>
0

> <r_i_glide_rewards>
-2.65849597376639

> <r_i_glide_evdw>
-26.9896373748779

> <r_i_glide_ecoul>
-1.8730742931366

> <r_i_glide_erotb>
0.484167990303542

> <r_i_glide_esite>
0

> <r_i_glide_emodel>
-28.8831242752753

> <r_i_glide_energy>
-28.8627116680145

> <r_i_glide_einternal>
15.7076711654663

> <i_i_glide_confnum>
20

> <i_i_glide_posenum>
355

> <r_i_glide_eff_state_penalty>
0

> <s_user_duplicate_titles>
CHEMBL221_lig647

> <i_f3d_flags>
0

> <s_m_subgroup_title>
dock_pv

> <s_m_subgroupid>
dock_pv

> <b_m_subgroup_collapsed>
1

$$$$
CHEMBL221_lig415
                    3D
 Schrodinger Suite 2021-1.
 46 47  0  0  1  0            999 V2000
   19.7230   47.8483    8.3777 S   0  0  0  0  0  0
   20.1230   49.3327    9.2085 C   0  0  0  0  0  0
   19.7230   48.8006    6.9111 C   0  0  0  0  0  0
   20.1230   50.3707    8.4157 N   0  0  0  0  0  0
   20.0132   50.0498    7.0741 N   0  0  0  0  0  0
   20.0246   49.0253   13.0142 C   0  0  0  0  0  0
   21.8238   50.5951   12.3214 C   0  0  0  0  0  0
   21.0531   49.9631   13.3355 C   0  0  0  0  0  0
   20.4330   49.4730   10.6528 C   0  0  0  0  0  0
   21.4521   50.3484   11.0000 C   0  0  0  0  0  0
   19.7521   48.8001   11.6550 C   0  0  0  0  0  0
   23.1051   51.4874   12.5078 C   0  0  0  0  0  0
   19.2352   48.1256   14.0303 C   0  0  0  0  0  0
   19.3737   48.2730    5.7037 N   0  0  0  0  0  0
   21.3230   50.2730   14.6369 O   0  0  0  0  0  0
   18.1230   48.6730    5.1050 N   0  0  0  0  0  0
   19.4382   48.4446   15.5358 C   0  0  0  0  0  0
   23.4769   51.9015   13.9507 C   0  0  0  0  0  0
   22.9748   52.8395   11.8072 C   0  0  0  0  0  0
   19.7230   46.6829   13.8243 C   0  0  0  0  0  0
   24.3041   50.8134   11.7975 C   0  0  0  0  0  0
   17.7012   48.1225   13.7766 C   0  0  0  0  0  0
   21.9937   50.8270   10.2000 H   0  0  0  0  0  0
   18.9997   48.0875   11.3541 H   0  0  0  0  0  0
   20.0720   48.2731    4.9676 H   0  0  0  0  0  0
   21.9716   50.9787   14.6845 H   0  0  0  0  0  0
   17.3677   48.2730    5.6542 H   0  0  0  0  0  0
   18.0453   49.6851    5.1630 H   0  0  0  0  0  0
   19.1805   49.4730   15.7794 H   0  0  0  0  0  0
   18.8173   47.8102   16.1704 H   0  0  0  0  0  0
   20.4669   48.2730   15.8545 H   0  0  0  0  0  0
   24.3681   52.5317   13.9677 H   0  0  0  0  0  0
   23.7230   51.0730   14.5854 H   0  0  0  0  0  0
   22.6866   52.4821   14.4303 H   0  0  0  0  0  0
   22.9230   52.7245   10.7299 H   0  0  0  0  0  0
   22.1230   53.3834   12.2000 H   0  0  0  0  0  0
   23.8482   53.4730   11.9723 H   0  0  0  0  0  0
   19.4621   46.2903   12.8403 H   0  0  0  0  0  0
   20.8085   46.6730   13.9081 H   0  0  0  0  0  0
   19.3065   45.9984   14.5650 H   0  0  0  0  0  0
   24.1156   50.6598   10.7356 H   0  0  0  0  0  0
   25.1682   51.4730   11.8000 H   0  0  0  0  0  0
   24.5688   49.8399   12.2000 H   0  0  0  0  0  0
   17.4233   47.8731   12.7545 H   0  0  0  0  0  0
   17.1973   47.3907   14.4099 H   0  0  0  0  0  0
   17.2398   49.0730   14.0049 H   0  0  0  0  0  0
  1  2  1  0  0  0
  1  3  1  0  0  0
  2  4  2  0  0  0
  2  9  1  0  0  0
  3  5  2  0  0  0
  3 14  1  0  0  0
  4  5  1  0  0  0
  6 11  2  0  0  0
  6  8  1  0  0  0
  6 13  1  0  0  0
  7 10  1  0  0  0
  7 12  1  0  0  0
  7  8  2  0  0  0
  8 15  1  0  0  0
  9 10  2  0  0  0
  9 11  1  0  0  0
 10 23  1  0  0  0
 11 24  1  0  0  0
 12 18  1  0  0  0
 12 19  1  0  0  0
 12 21  1  0  0  0
 13 17  1  0  0  0
 13 20  1  0  0  0
 13 22  1  0  0  0
 14 16  1  0  0  0
 14 25  1  0  0  0
 15 26  1  0  0  0
 16 27  1  0  0  0
 16 28  1  0  0  0
 17 29  1  0  0  0
 17 30  1  0  0  0
 17 31  1  0  0  0
 18 32  1  0  0  0
 18 33  1  0  0  0
 18 34  1  0  0  0
 19 35  1  0  0  0
 19 36  1  0  0  0
 19 37  1  0  0  0
 20 38  1  0  0  0
 20 39  1  0  0  0
 20 40  1  0  0  0
 21 41  1  0  0  0
 21 42  1  0  0  0
 21 43  1  0  0  0
 22 44  1  0  0  0
 22 45  1  0  0  0
 22 46  1  0  0  0
M  END
> <s_m_entry_id>
5246

> <s_m_entry_name>
dock_pv.237

> <s_m_Source_Path>
/home/csk/Desktop/cluster/DUD-E-result/pgh1

> <s_m_Source_File>
dock_pv.maegz

> <i_m_Source_File_Index>
237

> <chembl_id>
CHEMBL16891

> <chembl_pref_name>
None

> <i_lp_mmshare_version>
53161

> <r_lp_tautomer_probability>
0.999999999997365

> <s_lp_Force_Field>
OPLS_2005

> <r_lp_Energy>
25.98166

> <b_lp_Chiralities_Consistent>
1

> <s_lp_Variant>
CHEMBL221_lig415-1

> <s_i_glide_gridfile>
glide-grid_2oyu

> <i_i_glide_lignum>
484

> <i_i_glide_rotatable_bonds>
5

> <r_i_docking_score>
-8.61865920690825

> <r_i_glide_ligand_efficiency>
-0.391757236677648

> <r_i_glide_ligand_efficiency_sa>
-1.09771918410861

> <r_i_glide_ligand_efficiency_ln>
-2.10671468340135

> <r_i_glide_gscore>
-8.61865920690825

> <r_i_glide_lipo>
-4.15077264279826

> <r_i_glide_hbond>
-0.774736252315312

> <r_i_glide_metal>
0

> <r_i_glide_rewards>
-2.01095771059124

> <r_i_glide_evdw>
-19.5036010742188

> <r_i_glide_ecoul>
-5.78025722503662

> <r_i_glide_erotb>
0.181836889791586

> <r_i_glide_esite>
-0.0218108535285869

> <r_i_glide_emodel>
-19.2373846676627

> <r_i_glide_energy>
-25.2838582992554

> <r_i_glide_einternal>
23.3510189056396

> <i_i_glide_confnum>
1

> <i_i_glide_posenum>
251

> <r_i_glide_eff_state_penalty>
0

> <s_user_duplicate_titles>
CHEMBL221_lig415

> <i_f3d_flags>
0

> <s_m_subgroup_title>
dock_pv

> <s_m_subgroupid>
dock_pv

> <b_m_subgroup_collapsed>
1

$$$$
CHEMBL221_lig977
                    3D
 Schrodinger Suite 2021-1.
 34 36  0  0  1  0            999 V2000
   19.9132   49.0556   13.2412 C   0  0  0  0  0  0
   20.7139   49.8024   14.0204 C   0  0  0  0  0  0
   20.4474   49.4730   15.4610 C   0  0  0  0  0  0
   19.4051   48.5218   15.3944 O   0  0  0  0  0  0
   19.0474   48.2730   14.1190 C   0  0  0  0  0  0
   21.8037   50.6923   13.5878 C   0  0  0  0  0  0
   22.7115   50.2922   12.6000 C   0  0  0  0  0  0
   23.7230   51.1491   12.1910 C   0  0  0  0  0  0
   23.8599   52.4029   12.7782 C   0  0  0  0  0  0
   22.9230   52.8211   13.7345 C   0  0  0  0  0  0
   21.9069   51.9666   14.1427 C   0  0  0  0  0  0
   19.8444   49.0707   11.7531 C   0  0  0  0  0  0
   19.6184   47.8939   11.0293 C   0  0  0  0  0  0
   19.7230   47.8730    9.6360 C   0  0  0  0  0  0
   20.1230   49.0186    8.9560 C   0  0  0  0  0  0
   20.2691   50.2134    9.6507 C   0  0  0  0  0  0
   20.1034   50.2456   11.0308 C   0  0  0  0  0  0
   18.1503   47.4971   13.8000 O   0  0  0  0  0  0
   24.9541   53.1404   12.3810 O   0  0  0  0  0  0
   25.2603   54.3456   13.0728 C   0  0  0  0  0  0
   19.5274   46.7265    8.9489 F   0  0  0  0  0  0
   21.3203   49.0523   15.9605 H   0  0  0  0  0  0
   20.1233   50.3379   16.0397 H   0  0  0  0  0  0
   22.6423   49.3118   12.1509 H   0  0  0  0  0  0
   24.4335   50.8244   11.4438 H   0  0  0  0  0  0
   22.9864   53.7934   14.1997 H   0  0  0  0  0  0
   21.2031   52.3025   14.8909 H   0  0  0  0  0  0
   19.3926   46.9817   11.5538 H   0  0  0  0  0  0
   20.2442   48.9956    7.8828 H   0  0  0  0  0  0
   20.5230   51.1073    9.1074 H   0  0  0  0  0  0
   20.2381   51.1880   11.5401 H   0  0  0  0  0  0
   26.1495   54.8008   12.6376 H   0  0  0  0  0  0
   25.4643   54.1563   14.1267 H   0  0  0  0  0  0
   24.4527   55.0730   13.0000 H   0  0  0  0  0  0
  1  2  2  0  0  0
  1  5  1  0  0  0
  1 12  1  0  0  0
  2  3  1  0  0  0
  2  6  1  0  0  0
  3  4  1  0  0  0
  3 22  1  0  0  0
  3 23  1  0  0  0
  4  5  1  0  0  0
  5 18  2  0  0  0
  6  7  2  0  0  0
  6 11  1  0  0  0
  7  8  1  0  0  0
  7 24  1  0  0  0
  8  9  2  0  0  0
  8 25  1  0  0  0
  9 10  1  0  0  0
  9 19  1  0  0  0
 10 11  2  0  0  0
 10 26  1  0  0  0
 11 27  1  0  0  0
 12 13  2  0  0  0
 12 17  1  0  0  0
 13 14  1  0  0  0
 13 28  1  0  0  0
 14 15  2  0  0  0
 14 21  1  0  0  0
 15 16  1  0  0  0
 15 29  1  0  0  0
 16 17  2  0  0  0
 16 30  1  0  0  0
 17 31  1  0  0  0
 19 20  1  0  0  0
 20 32  1  0  0  0
 20 33  1  0  0  0
 20 34  1  0  0  0
M  END
> <s_m_entry_id>
5247

> <s_m_entry_name>
dock_pv.238

> <s_m_Source_Path>
/home/csk/Desktop/cluster/DUD-E-result/pgh1

> <s_m_Source_File>
dock_pv.maegz

> <i_m_Source_File_Index>
238

> <chembl_id>
CHEMBL3357103

> <chembl_pref_name>
None

> <i_lp_mmshare_version>
53161

> <r_lp_tautomer_probability>
0.999841193423406

> <s_lp_Force_Field>
OPLS_2005

> <r_lp_Energy>
23.887775

> <b_lp_Chiralities_Consistent>
1

> <s_lp_Variant>
CHEMBL221_lig977-1

> <s_i_glide_gridfile>
glide-grid_2oyu

> <i_i_glide_lignum>
1214

> <i_i_glide_rotatable_bonds>
3

> <r_i_docking_score>
-8.61304307811005

> <r_i_glide_ligand_efficiency>
-0.410144908481431

> <r_i_glide_ligand_efficiency_sa>
-1.13155870268069

> <r_i_glide_ligand_efficiency_ln>
-2.12955749677041

> <r_i_glide_gscore>
-8.61304307811005

> <r_i_glide_lipo>
-4.46149514889355

> <r_i_glide_hbond>
0

> <r_i_glide_metal>
0

> <r_i_glide_rewards>
-2.56201479051874

> <r_i_glide_evdw>
-33.6198539733887

> <r_i_glide_ecoul>
-2.3805103302002

> <r_i_glide_erotb>
0.448536109501705

> <r_i_glide_esite>
0

> <r_i_glide_emodel>
-51.5060894827105

> <r_i_glide_energy>
-36.0003643035889

> <r_i_glide_einternal>
1.62993144989014

> <i_i_glide_confnum>
15

> <i_i_glide_posenum>
59

> <r_i_glide_eff_state_penalty>
0

> <s_user_duplicate_titles>
CHEMBL221_lig977

> <i_f3d_flags>
0

> <s_m_subgroup_title>
dock_pv

> <s_m_subgroupid>
dock_pv

> <b_m_subgroup_collapsed>
1

$$$$
CHEMBL221_lig144
                    3D
 Schrodinger Suite 2021-1.
 39 41  0  0  1  0            999 V2000
   19.7927   49.0860   12.4828 N   0  0  0  0  0  0
   20.5392   49.7442   13.4440 C   0  0  0  0  0  0
   19.1708   48.2959   14.5067 N   0  0  0  0  0  0
   18.9793   48.2461   13.2156 C   0  0  0  0  0  0
   19.9956   48.9676    6.4903 S   0  0  0  0  0  0
   20.1234   49.1908   14.6546 C   0  0  0  0  0  0
   21.5469   50.8086   13.2085 C   0  0  0  0  0  0
   23.3942   52.8721   12.8140 C   0  0  0  0  0  0
   22.3640   53.0288   13.7486 C   0  0  0  0  0  0
   23.4411   51.7246   12.0207 C   0  0  0  0  0  0
   21.4698   51.9846   13.9629 C   0  0  0  0  0  0
   22.5481   50.6803   12.2402 C   0  0  0  0  0  0
   19.8545   49.1525   11.0717 C   0  0  0  0  0  0
   20.1231   49.0669    8.2820 C   0  0  0  0  0  0
   21.3200   49.0731    5.8844 O   0  0  0  0  0  0
   19.1056   47.8681    6.2023 O   0  0  0  0  0  0
   20.1235   50.2823    8.9617 C   0  0  0  0  0  0
   19.8541   47.9006    8.9959 C   0  0  0  0  0  0
   20.0410   50.3368   10.3553 C   0  0  0  0  0  0
   19.7228   47.9604   10.3752 C   0  0  0  0  0  0
   20.6958   49.6339   16.1992 Cl  0  0  0  0  0  0
   24.5525   51.6182   10.7080 Cl  0  0  0  0  0  0
   22.1213   54.5218   14.5933 Cl  0  0  0  0  0  0
   24.3068   53.8725   12.6083 O   0  0  0  0  0  0
   18.9822   50.2755    5.7998 C   0  0  0  0  0  0
   25.4876   53.8153   13.3891 C   0  0  0  0  0  0
   18.2632   47.6108   12.7192 H   0  0  0  0  0  0
   20.7025   52.1090   14.7119 H   0  0  0  0  0  0
   22.6138   49.7845   11.6408 H   0  0  0  0  0  0
   20.1804   51.1714    8.3695 H   0  0  0  0  0  0
   19.7308   46.9563    8.4912 H   0  0  0  0  0  0
   20.0907   51.2873   10.8693 H   0  0  0  0  0  0
   19.5698   47.0717   10.9458 H   0  0  0  0  0  0
   19.2573   50.2706    4.7488 H   0  0  0  0  0  0
   17.9134   50.1146    5.9707 H   0  0  0  0  0  0
   19.3234   51.1969    6.2020 H   0  0  0  0  0  0
   26.2524   54.4130   12.9009 H   0  0  0  0  0  0
   25.8679   52.7977   13.5134 H   0  0  0  0  0  0
   25.3242   54.2598   14.3705 H   0  0  0  0  0  0
  1  2  1  0  0  0
  1  4  1  0  0  0
  1 13  1  0  0  0
  2  6  2  0  0  0
  2  7  1  0  0  0
  3  4  2  0  0  0
  3  6  1  0  0  0
  4 27  1  0  0  0
  5 14  1  0  0  0
  5 15  2  0  0  0
  5 16  2  0  0  0
  5 25  1  0  0  0
  6 21  1  0  0  0
  7 11  1  0  0  0
  7 12  2  0  0  0
  8 10  2  0  0  0
  8 24  1  0  0  0
  8  9  1  0  0  0
  9 11  2  0  0  0
  9 23  1  0  0  0
 10 12  1  0  0  0
 10 22  1  0  0  0
 11 28  1  0  0  0
 12 29  1  0  0  0
 13 19  1  0  0  0
 13 20  2  0  0  0
 14 18  2  0  0  0
 14 17  1  0  0  0
 17 19  2  0  0  0
 17 30  1  0  0  0
 18 20  1  0  0  0
 18 31  1  0  0  0
 19 32  1  0  0  0
 20 33  1  0  0  0
 24 26  1  0  0  0
 25 34  1  0  0  0
 25 35  1  0  0  0
 25 36  1  0  0  0
 26 37  1  0  0  0
 26 38  1  0  0  0
 26 39  1  0  0  0
M  END
> <s_m_entry_id>
5248

> <s_m_entry_name>
dock_pv.239

> <s_m_Source_Path>
/home/csk/Desktop/cluster/DUD-E-result/pgh1

> <s_m_Source_File>
dock_pv.maegz

> <i_m_Source_File_Index>
239

> <chembl_id>
CHEMBL116016

> <chembl_pref_name>
None

> <i_lp_mmshare_version>
53161

> <r_lp_tautomer_probability>
1

> <s_lp_Force_Field>
OPLS_2005

> <r_lp_Energy>
20.419476

> <b_lp_Chiralities_Consistent>
1

> <s_lp_Variant>
CHEMBL221_lig144-1

> <s_i_glide_gridfile>
glide-grid_2oyu

> <i_i_glide_lignum>
166

> <i_i_glide_rotatable_bonds>
4

> <r_i_docking_score>
-8.61253944356384

> <r_i_glide_ligand_efficiency>
-0.331251517060148

> <r_i_glide_ligand_efficiency_sa>
-0.981331315878907

> <r_i_glide_ligand_efficiency_ln>
-2.02262662827406

> <r_i_glide_gscore>
-8.61253944356384

> <r_i_glide_lipo>
-4.61319249122986

> <r_i_glide_hbond>
0

> <r_i_glide_metal>
0

> <r_i_glide_rewards>
-2.19417992355929

> <r_i_glide_evdw>
-25.8072490692139

> <r_i_glide_ecoul>
-4.38619089126587

> <r_i_glide_erotb>
0.213456518088357

> <r_i_glide_esite>
-0.0703324597124761

> <r_i_glide_emodel>
-30.4196458691518

> <r_i_glide_energy>
-30.1934399604797

> <r_i_glide_einternal>
1.78743028640747

> <i_i_glide_confnum>
15

> <i_i_glide_posenum>
302

> <r_i_glide_eff_state_penalty>
0

> <s_user_duplicate_titles>
CHEMBL221_lig144

> <i_f3d_flags>
0

> <s_m_subgroup_title>
dock_pv

> <s_m_subgroupid>
dock_pv

> <b_m_subgroup_collapsed>
1

$$$$
CHEMBL221_lig449
                    3D
 Schrodinger Suite 2021-1.
 40 43  0  0  1  0            999 V2000
   20.6206   49.5360   12.5284 C   0  0  0  0  0  0
   20.1457   49.0780   13.7773 C   0  0  0  0  0  0
   18.9814   47.9802   12.1825 N   0  0  0  0  0  0
   19.8629   48.7820   11.6020 C   0  0  0  0  0  0
   19.1220   48.1703   13.4958 N   0  0  0  0  0  0
   19.9788   48.7152    5.5358 S   0  0  0  0  0  0
   20.5000   49.3581   15.0334 N   0  0  0  0  0  0
   21.7043   50.5527   12.3575 C   0  0  0  0  0  0
   19.9236   48.7907   10.1121 C   0  0  0  0  0  0
   19.9814   48.7412    7.3181 C   0  0  0  0  0  0
   18.3938   47.5688   14.4858 C   0  0  0  0  0  0
   20.5230   47.4730    5.0000 O   0  0  0  0  0  0
   20.5975   49.9452    5.0786 O   0  0  0  0  0  0
   18.7294   47.8730   15.8000 C   0  0  0  0  0  0
   19.7899   48.7544   16.0103 C   0  0  0  0  0  0
   19.7230   47.5816    8.0263 C   0  0  0  0  0  0
   20.1230   49.9445    8.0041 C   0  0  0  0  0  0
   19.7223   47.5989    9.4097 C   0  0  0  0  0  0
   20.1230   49.9739    9.3994 C   0  0  0  0  0  0
   22.6482   50.4052   11.3443 C   0  0  0  0  0  0
   21.8518   51.5867   13.2906 C   0  0  0  0  0  0
   18.1292   48.7340    5.2936 C   0  0  0  0  0  0
   23.8970   52.2686   12.2277 C   0  0  0  0  0  0
   23.7475   51.2599   11.2777 C   0  0  0  0  0  0
   22.9440   52.4452   13.2245 C   0  0  0  0  0  0
   24.9824   53.0728   12.1999 F   0  0  0  0  0  0
   17.5988   46.8969   14.1999 H   0  0  0  0  0  0
   18.1941   47.4382   16.6318 H   0  0  0  0  0  0
   20.1230   49.0092   16.9996 H   0  0  0  0  0  0
   19.5492   46.6739    7.4985 H   0  0  0  0  0  0
   20.2268   50.8708    7.4550 H   0  0  0  0  0  0
   19.5762   46.6734    9.9387 H   0  0  0  0  0  0
   20.2351   50.9173    9.9143 H   0  0  0  0  0  0
   22.5272   49.6085   10.6265 H   0  0  0  0  0  0
   21.1326   51.7222   14.0843 H   0  0  0  0  0  0
   17.8625   48.7070    4.2402 H   0  0  0  0  0  0
   17.7443   49.6201    5.7999 H   0  0  0  0  0  0
   17.7230   47.8730    5.7996 H   0  0  0  0  0  0
   24.4940   51.1288   10.5072 H   0  0  0  0  0  0
   23.0650   53.2306   13.9564 H   0  0  0  0  0  0
  1  2  2  0  0  0
  1  4  1  0  0  0
  1  8  1  0  0  0
  2  5  1  0  0  0
  2  7  1  0  0  0
  3  4  2  0  0  0
  3  5  1  0  0  0
  4  9  1  0  0  0
  5 11  1  0  0  0
  6 10  1  0  0  0
  6 12  2  0  0  0
  6 13  2  0  0  0
  6 22  1  0  0  0
  7 15  2  0  0  0
  8 20  1  0  0  0
  8 21  2  0  0  0
  9 18  1  0  0  0
  9 19  2  0  0  0
 10 17  2  0  0  0
 10 16  1  0  0  0
 11 14  2  0  0  0
 11 27  1  0  0  0
 14 15  1  0  0  0
 14 28  1  0  0  0
 15 29  1  0  0  0
 16 18  2  0  0  0
 16 30  1  0  0  0
 17 19  1  0  0  0
 17 31  1  0  0  0
 18 32  1  0  0  0
 19 33  1  0  0  0
 20 24  2  0  0  0
 20 34  1  0  0  0
 21 25  1  0  0  0
 21 35  1  0  0  0
 22 36  1  0  0  0
 22 37  1  0  0  0
 22 38  1  0  0  0
 23 25  2  0  0  0
 23 26  1  0  0  0
 23 24  1  0  0  0
 24 39  1  0  0  0
 25 40  1  0  0  0
M  END
> <s_m_entry_id>
5249

> <s_m_entry_name>
dock_pv.240

> <s_m_Source_Path>
/home/csk/Desktop/cluster/DUD-E-result/pgh1

> <s_m_Source_File>
dock_pv.maegz

> <i_m_Source_File_Index>
240

> <chembl_id>
CHEMBL330976

> <chembl_pref_name>
None

> <i_lp_mmshare_version>
53161

> <r_lp_tautomer_probability>
1

> <s_lp_Force_Field>
OPLS_2005

> <r_lp_Energy>
15.927696

> <b_lp_Chiralities_Consistent>
1

> <s_lp_Variant>
CHEMBL221_lig449-1

> <s_i_glide_gridfile>
glide-grid_2oyu

> <i_i_glide_lignum>
540

> <i_i_glide_rotatable_bonds>
3

> <r_i_docking_score>
-8.59993358917342

> <r_i_glide_ligand_efficiency>
-0.33076667650667

> <r_i_glide_ligand_efficiency_sa>
-0.979894977646985

> <r_i_glide_ligand_efficiency_ln>
-2.01966618473365

> <r_i_glide_gscore>
-8.59993358917342

> <r_i_glide_lipo>
-4.6058837624218

> <r_i_glide_hbond>
0

> <r_i_glide_metal>
0

> <r_i_glide_rewards>
-3.11771610001041

> <r_i_glide_evdw>
-16.1834201812744

> <r_i_glide_ecoul>
-2.28771638870239

> <r_i_glide_erotb>
0.285346758162347

> <r_i_glide_esite>
-0.00935201753448003

> <r_i_glide_emodel>
-19.0572374609849

> <r_i_glide_energy>
-18.4711365699768

> <r_i_glide_einternal>
1.1848886013031

> <i_i_glide_confnum>
4

> <i_i_glide_posenum>
343

> <r_i_glide_eff_state_penalty>
0

> <s_user_duplicate_titles>
CHEMBL221_lig449

> <i_f3d_flags>
0

> <s_m_subgroup_title>
dock_pv

> <s_m_subgroupid>
dock_pv

> <b_m_subgroup_collapsed>
1

$$$$
CHEMBL221_lig592
                    3D
 Schrodinger Suite 2021-1.
 34 36  0  0  1  0            999 V2000
   20.9230   49.9905   15.2666 N   0  0  0  0  0  0
   20.1850   49.2473   13.2580 C   0  0  0  0  0  0
   21.0750   50.0868   13.9630 C   0  0  0  0  0  0
   19.9777   48.9942   15.4735 O   0  0  0  0  0  0
   19.5503   48.5349   14.2721 C   0  0  0  0  0  0
   20.0222   49.1596   11.7707 C   0  0  0  0  0  0
   22.1227   50.9976   13.4000 C   0  0  0  0  0  0
   18.5062   47.4400   14.3436 C   0  0  0  0  0  0
   20.2247   50.3042   10.9916 C   0  0  0  0  0  0
   19.7230   47.9539   11.1321 C   0  0  0  0  0  0
   22.9678   50.5363   12.3826 C   0  0  0  0  0  0
   22.2603   52.3064   13.8704 C   0  0  0  0  0  0
   17.0837   48.0035   14.3157 C   0  0  0  0  0  0
   19.7230   47.8730    9.7406 C   0  0  0  0  0  0
   20.3086   50.2051    9.6104 C   0  0  0  0  0  0
   23.9279   51.3767   11.8286 C   0  0  0  0  0  0
   23.2333   53.1429   13.3306 C   0  0  0  0  0  0
   20.1230   48.9756    8.9921 C   0  0  0  0  0  0
   24.0629   52.6731   12.3148 C   0  0  0  0  0  0
   18.6172   46.7188   13.5393 H   0  0  0  0  0  0
   18.6384   46.8593   15.2573 H   0  0  0  0  0  0
   20.3865   51.2679   11.4498 H   0  0  0  0  0  0
   19.5347   47.0596   11.6965 H   0  0  0  0  0  0
   22.8768   49.5248   12.0125 H   0  0  0  0  0  0
   21.6181   52.6777   14.6563 H   0  0  0  0  0  0
   16.3475   47.2026   14.3768 H   0  0  0  0  0  0
   16.9229   48.6730   15.1599 H   0  0  0  0  0  0
   16.8937   48.5653   13.3997 H   0  0  0  0  0  0
   19.5089   46.9364    9.2492 H   0  0  0  0  0  0
   20.5229   51.0730    9.0093 H   0  0  0  0  0  0
   24.5722   51.0208   11.0374 H   0  0  0  0  0  0
   23.3454   54.1514   13.7034 H   0  0  0  0  0  0
   20.1803   48.9030    7.9155 H   0  0  0  0  0  0
   24.8183   53.3227   11.9000 H   0  0  0  0  0  0
  1  3  2  0  0  0
  1  4  1  0  0  0
  2  3  1  0  0  0
  2  6  1  0  0  0
  2  5  2  0  0  0
  3  7  1  0  0  0
  4  5  1  0  0  0
  5  8  1  0  0  0
  6  9  2  0  0  0
  6 10  1  0  0  0
  7 11  1  0  0  0
  7 12  2  0  0  0
  8 13  1  0  0  0
  8 20  1  0  0  0
  8 21  1  0  0  0
  9 15  1  0  0  0
  9 22  1  0  0  0
 10 14  2  0  0  0
 10 23  1  0  0  0
 11 16  2  0  0  0
 11 24  1  0  0  0
 12 17  1  0  0  0
 12 25  1  0  0  0
 13 26  1  0  0  0
 13 27  1  0  0  0
 13 28  1  0  0  0
 14 18  1  0  0  0
 14 29  1  0  0  0
 15 18  2  0  0  0
 15 30  1  0  0  0
 16 19  1  0  0  0
 16 31  1  0  0  0
 17 19  2  0  0  0
 17 32  1  0  0  0
 18 33  1  0  0  0
 19 34  1  0  0  0
M  END
> <s_m_entry_id>
5250

> <s_m_entry_name>
dock_pv.241

> <s_m_Source_Path>
/home/csk/Desktop/cluster/DUD-E-result/pgh1

> <s_m_Source_File>
dock_pv.maegz

> <i_m_Source_File_Index>
241

> <chembl_id>
CHEMBL361504

> <chembl_pref_name>
None

> <i_lp_mmshare_version>
53161

> <r_lp_tautomer_probability>
1

> <s_lp_Force_Field>
OPLS_2005

> <r_lp_Energy>
15.768818

> <b_lp_Chiralities_Consistent>
1

> <s_lp_Variant>
CHEMBL221_lig592-1

> <s_i_glide_gridfile>
glide-grid_2oyu

> <i_i_glide_lignum>
730

> <i_i_glide_rotatable_bonds>
3

> <r_i_docking_score>
-8.59836245480622

> <r_i_glide_ligand_efficiency>
-0.452545392358222

> <r_i_glide_ligand_efficiency_sa>
-1.20757286990499

> <r_i_glide_ligand_efficiency_ln>
-2.17986955818576

> <r_i_glide_gscore>
-8.59836245480622

> <r_i_glide_lipo>
-4.67754004084647

> <r_i_glide_hbond>
0

> <r_i_glide_metal>
0

> <r_i_glide_rewards>
-2.56035511521522

> <r_i_glide_evdw>
-33.8901481628418

> <r_i_glide_ecoul>
-1.52420151233673

> <r_i_glide_erotb>
0.562670336248068

> <r_i_glide_esite>
0

> <r_i_glide_emodel>
-51.8341595311312

> <r_i_glide_energy>
-35.4143496751785

> <r_i_glide_einternal>
0.29149666428566

> <i_i_glide_confnum>
15

> <i_i_glide_posenum>
286

> <r_i_glide_eff_state_penalty>
0

> <s_user_duplicate_titles>
CHEMBL221_lig592,313213

> <i_f3d_flags>
0

> <s_m_subgroup_title>
dock_pv

> <s_m_subgroupid>
dock_pv

> <b_m_subgroup_collapsed>
1

$$$$
CHEMBL221_lig483
                    3D
 Schrodinger Suite 2021-1.
 46 48  0  0  1  0            999 V2000
   19.1108   48.2171   13.6008 C   0  0  1  0  0  0
   20.5223   49.4733   14.8143 C   0  0  0  0  0  0
   19.4576   48.6734   14.8638 O   0  0  0  0  0  0
   20.0433   48.9687   12.6434 C   0  0  0  0  0  0
   20.8322   49.7450   13.4167 C   0  0  0  0  0  0
   20.0043   48.8882    6.4885 S   0  0  0  0  0  0
   19.9966   48.9813    8.3041 C   0  0  0  0  0  0
   19.9479   49.0300   11.1459 C   0  0  0  0  0  0
   21.9386   50.6590   13.0284 C   0  0  0  0  0  0
   21.0606   49.9466   15.8112 O   0  0  0  0  0  0
   20.1230   47.4730    6.1790 O   0  0  0  0  0  0
   20.9230   49.8631    5.9108 O   0  0  0  0  0  0
   19.2799   46.8075   13.5658 O   0  0  0  0  0  0
   19.7230   47.8246    9.0400 C   0  0  0  0  0  0
   20.1230   50.1882    9.0005 C   0  0  0  0  0  0
   19.7229   47.8583   10.4356 C   0  0  0  0  0  0
   20.1230   50.2102   10.4026 C   0  0  0  0  0  0
   22.0745   51.9086   13.6496 C   0  0  0  0  0  0
   22.8763   50.2735   12.0640 C   0  0  0  0  0  0
   17.6199   48.4839   13.4000 C   0  0  0  0  0  0
   18.3673   49.3300    5.8000 C   0  0  0  0  0  0
   24.1051   52.3103   12.4287 C   0  0  0  0  0  0
   23.9535   51.0999   11.7599 C   0  0  0  0  0  0
   23.1581   52.7288   13.3557 C   0  0  0  0  0  0
   25.1949   53.0730   12.2001 F   0  0  0  0  0  0
   18.6195   46.0763   14.6338 C   0  0  0  0  0  0
   18.5230   44.5552   14.4180 C   0  0  0  0  0  0
   19.5625   46.8826    8.5372 H   0  0  0  0  0  0
   20.2560   51.1010    8.4420 H   0  0  0  0  0  0
   19.5979   46.9438   10.9858 H   0  0  0  0  0  0
   20.2674   51.1543   10.9068 H   0  0  0  0  0  0
   21.3580   52.2367   14.3896 H   0  0  0  0  0  0
   22.7880   49.3170   11.5705 H   0  0  0  0  0  0
   17.0494   48.4229   14.3272 H   0  0  0  0  0  0
   17.4864   49.4730   13.0000 H   0  0  0  0  0  0
   17.2028   47.8108   12.6571 H   0  0  0  0  0  0
   18.5014   49.4224    4.7238 H   0  0  0  0  0  0
   17.9996   50.2682    6.2000 H   0  0  0  0  0  0
   17.7230   48.4887    5.9966 H   0  0  0  0  0  0
   24.6879   50.7907   11.0318 H   0  0  0  0  0  0
   23.2801   53.6748   13.8629 H   0  0  0  0  0  0
   19.1537   46.2638   15.5672 H   0  0  0  0  0  0
   17.6019   46.4185   14.8139 H   0  0  0  0  0  0
   17.5041   44.2088   14.5992 H   0  0  0  0  0  0
   18.7931   44.2717   13.3995 H   0  0  0  0  0  0
   19.1491   43.9969   15.1121 H   0  0  0  0  0  0
  1  3  1  0  0  0
  1  4  1  0  0  0
  1 13  1  0  0  0
  1 20  1  0  0  0
  2  3  1  0  0  0
  2 10  2  0  0  0
  2  5  1  0  0  0
  4  5  2  0  0  0
  4  8  1  0  0  0
  5  9  1  0  0  0
  6  7  1  0  0  0
  6 11  2  0  0  0
  6 12  2  0  0  0
  6 21  1  0  0  0
  7 15  1  0  0  0
  7 14  2  0  0  0
  8 16  2  0  0  0
  8 17  1  0  0  0
  9 18  2  0  0  0
  9 19  1  0  0  0
 13 26  1  0  0  0
 14 16  1  0  0  0
 14 28  1  0  0  0
 15 17  2  0  0  0
 15 29  1  0  0  0
 16 30  1  0  0  0
 17 31  1  0  0  0
 18 24  1  0  0  0
 18 32  1  0  0  0
 19 23  2  0  0  0
 19 33  1  0  0  0
 20 34  1  0  0  0
 20 35  1  0  0  0
 20 36  1  0  0  0
 21 37  1  0  0  0
 21 38  1  0  0  0
 21 39  1  0  0  0
 22 23  1  0  0  0
 22 25  1  0  0  0
 22 24  2  0  0  0
 23 40  1  0  0  0
 24 41  1  0  0  0
 26 27  1  0  0  0
 26 42  1  0  0  0
 26 43  1  0  0  0
 27 44  1  0  0  0
 27 45  1  0  0  0
 27 46  1  0  0  0
M  END
> <s_m_entry_id>
5251

> <s_m_entry_name>
dock_pv.242

> <s_m_Source_Path>
/home/csk/Desktop/cluster/DUD-E-result/pgh1

> <s_m_Source_File>
dock_pv.maegz

> <i_m_Source_File_Index>
242

> <chembl_id>
CHEMBL278231

> <chembl_pref_name>
None

> <i_lp_mmshare_version>
53161

> <r_lp_tautomer_probability>
1

> <s_lp_Force_Field>
OPLS_2005

> <r_lp_Energy>
12.521348

> <b_lp_Chiralities_Consistent>
1

> <s_lp_Variant>
CHEMBL221_lig483-2

> <s_i_glide_gridfile>
glide-grid_2oyu

> <i_i_glide_lignum>
614

> <i_i_glide_rotatable_bonds>
5

> <r_i_docking_score>
-8.58958295846458

> <r_i_glide_ligand_efficiency>
-0.318132702165355

> <r_i_glide_ligand_efficiency_sa>
-0.954398105447551

> <r_i_glide_ligand_efficiency_ln>
-1.99951330238803

> <r_i_glide_gscore>
-8.58958295846458

> <r_i_glide_lipo>
-3.96141071880993

> <r_i_glide_hbond>
0

> <r_i_glide_metal>
0

> <r_i_glide_rewards>
-3.08359469550365

> <r_i_glide_evdw>
-19.2100429534912

> <r_i_glide_ecoul>
-6.37793016433716

> <r_i_glide_erotb>
0.383861535316745

> <r_i_glide_esite>
-0.011247407142611

> <r_i_glide_emodel>
-36.1578854943234

> <r_i_glide_energy>
-25.5879731178284

> <r_i_glide_einternal>
2.54365921020508

> <i_i_glide_confnum>
46

> <i_i_glide_posenum>
123

> <r_i_glide_eff_state_penalty>
0

> <s_user_duplicate_titles>
CHEMBL221_lig483

> <i_f3d_flags>
0

> <s_m_subgroup_title>
dock_pv

> <s_m_subgroupid>
dock_pv

> <b_m_subgroup_collapsed>
1

$$$$
CHEMBL221_lig71
                    3D
 Schrodinger Suite 2021-1.
 35 37  0  0  1  0            999 V2000
   19.9994   49.2655   12.5147 N   0  0  0  0  0  0
   19.5580   48.6801   14.6454 N   0  0  0  0  0  0
   20.8807   49.9479   13.3283 C   0  0  0  0  0  0
   19.2338   48.5233   13.3879 C   0  0  0  0  0  0
   20.1229   48.8360    6.5682 S   0  0  0  0  0  0
   20.5249   49.5826   14.6209 C   0  0  0  0  0  0
   19.9292   49.2446   11.1099 C   0  0  0  0  0  0
   20.1198   49.0592    8.3470 C   0  0  0  0  0  0
   21.9811   50.8534   12.9015 C   0  0  0  0  0  0
   19.7356   47.4748    6.3959 O   0  0  0  0  0  0
   21.3214   49.3309    5.9193 O   0  0  0  0  0  0
   20.1275   50.3112    8.9531 C   0  0  0  0  0  0
   19.8363   47.9214    9.1155 C   0  0  0  0  0  0
   20.0867   50.4091   10.3438 C   0  0  0  0  0  0
   19.7234   48.0167   10.4908 C   0  0  0  0  0  0
   21.3215   50.2695   16.2008 Br  0  0  0  0  0  0
   22.1230   52.0949   13.5337 C   0  0  0  0  0  0
   22.9227   50.4313   11.9594 C   0  0  0  0  0  0
   18.7035   49.6487    5.7998 C   0  0  0  0  0  0
   24.2026   52.4253   12.3773 C   0  0  0  0  0  0
   23.2398   52.8816   13.2729 C   0  0  0  0  0  0
   24.0320   51.2257   11.6954 C   0  0  0  0  0  0
   25.3379   53.1313   12.2004 F   0  0  0  0  0  0
   18.4535   47.8758   13.0121 H   0  0  0  0  0  0
   20.1950   51.2016    8.3391 H   0  0  0  0  0  0
   19.7351   46.9469    8.6694 H   0  0  0  0  0  0
   20.1783   51.3767   10.8149 H   0  0  0  0  0  0
   19.5718   47.1114   11.0673 H   0  0  0  0  0  0
   21.3997   52.4311   14.2594 H   0  0  0  0  0  0
   22.8217   49.4739   11.4736 H   0  0  0  0  0  0
   18.6952   49.3007    4.7706 H   0  0  0  0  0  0
   18.9258   50.6744    5.7999 H   0  0  0  0  0  0
   17.7236   49.4712    6.1994 H   0  0  0  0  0  0
   23.3811   53.8170   13.7931 H   0  0  0  0  0  0
   24.7885   50.8953   10.9996 H   0  0  0  0  0  0
  1  3  1  0  0  0
  1  4  1  0  0  0
  1  7  1  0  0  0
  2  4  2  0  0  0
  2  6  1  0  0  0
  3  6  2  0  0  0
  3  9  1  0  0  0
  4 24  1  0  0  0
  5  8  1  0  0  0
  5 10  2  0  0  0
  5 11  2  0  0  0
  5 19  1  0  0  0
  6 16  1  0  0  0
  7 14  1  0  0  0
  7 15  2  0  0  0
  8 13  2  0  0  0
  8 12  1  0  0  0
  9 17  2  0  0  0
  9 18  1  0  0  0
 12 14  2  0  0  0
 12 25  1  0  0  0
 13 15  1  0  0  0
 13 26  1  0  0  0
 14 27  1  0  0  0
 15 28  1  0  0  0
 17 21  1  0  0  0
 17 29  1  0  0  0
 18 22  2  0  0  0
 18 30  1  0  0  0
 19 31  1  0  0  0
 19 32  1  0  0  0
 19 33  1  0  0  0
 20 22  1  0  0  0
 20 23  1  0  0  0
 20 21  2  0  0  0
 21 34  1  0  0  0
 22 35  1  0  0  0
M  END
> <s_m_entry_id>
5252

> <s_m_entry_name>
dock_pv.243

> <s_m_Source_Path>
/home/csk/Desktop/cluster/DUD-E-result/pgh1

> <s_m_Source_File>
dock_pv.maegz

> <i_m_Source_File_Index>
243

> <chembl_id>
CHEMBL326577

> <chembl_pref_name>
None

> <i_lp_mmshare_version>
53161

> <r_lp_tautomer_probability>
1

> <s_lp_Force_Field>
OPLS_2005

> <r_lp_Energy>
13.561172

> <b_lp_Chiralities_Consistent>
1

> <s_lp_Variant>
CHEMBL221_lig71-1

> <s_i_glide_gridfile>
glide-grid_2oyu

> <i_i_glide_lignum>
88

> <i_i_glide_rotatable_bonds>
3

> <r_i_docking_score>
-8.58830801615552

> <r_i_glide_ligand_efficiency>
-0.373404696354588

> <r_i_glide_ligand_efficiency_sa>
-1.06191328497444

> <r_i_glide_ligand_efficiency_ln>
-2.07673075277798

> <r_i_glide_gscore>
-8.58830801615552

> <r_i_glide_lipo>
-4.05206355296107

> <r_i_glide_hbond>
0

> <r_i_glide_metal>
0

> <r_i_glide_rewards>
-2.91675933485603

> <r_i_glide_evdw>
-16.8223552703857

> <r_i_glide_ecoul>
-6.8327465057373

> <r_i_glide_erotb>
0.250325723678378

> <r_i_glide_esite>
-0.00378111263691652

> <r_i_glide_emodel>
-28.8493353136127

> <r_i_glide_energy>
-23.655101776123

> <r_i_glide_einternal>
0.804480969905853

> <i_i_glide_confnum>
9

> <i_i_glide_posenum>
91

> <r_i_glide_eff_state_penalty>
0

> <s_user_duplicate_titles>
CHEMBL221_lig71

> <i_f3d_flags>
0

> <s_m_subgroup_title>
dock_pv

> <s_m_subgroupid>
dock_pv

> <b_m_subgroup_collapsed>
1

$$$$
CHEMBL221_lig706
                    3D
 Schrodinger Suite 2021-1.
 38 40  0  0  1  0            999 V2000
   20.1233   49.1414   14.6356 C   0  0  0  0  0  0
   20.6023   49.6346   13.4234 C   0  0  0  0  0  0
   19.7947   49.0151   12.4876 N   0  0  0  0  0  0
   18.9039   48.2145   13.1002 N   0  0  0  0  0  0
   19.1280   48.2994   14.4576 N   0  0  0  0  0  0
   19.8460   49.0721   11.0745 C   0  0  0  0  0  0
   20.0342   50.2775   10.3875 C   0  0  0  0  0  0
   20.1231   50.2729    8.9937 C   0  0  0  0  0  0
   20.1230   49.0625    8.2900 C   0  0  0  0  0  0
   19.8652   47.8751    8.9789 C   0  0  0  0  0  0
   19.7230   47.8845   10.3578 C   0  0  0  0  0  0
   20.0094   48.9548    6.4913 S   0  0  0  0  0  0
   19.1206   50.3140    5.8000 C   0  0  0  0  0  0
   21.3230   49.0730    5.8772 O   0  0  0  0  0  0
   19.0977   47.8730    6.2000 O   0  0  0  0  0  0
   21.7231   50.5727   13.1332 C   0  0  0  0  0  0
   21.8282   51.7637   13.8502 C   0  0  0  0  0  0
   22.8859   52.6330   13.6009 C   0  0  0  0  0  0
   23.8576   52.3096   12.6418 C   0  0  0  0  0  0
   23.7304   51.1296   11.9123 C   0  0  0  0  0  0
   22.6773   50.2591   12.1630 C   0  0  0  0  0  0
   24.9732   53.0747   12.3721 O   0  0  0  0  0  0
   25.2040   54.2610   13.1270 C   0  0  0  0  0  0
   20.4979   49.3834   15.6195 H   0  0  0  0  0  0
   20.0867   51.2153   10.9222 H   0  0  0  0  0  0
   20.2179   51.2020    8.4561 H   0  0  0  0  0  0
   19.7752   46.9404    8.4450 H   0  0  0  0  0  0
   19.5815   46.9587   10.8843 H   0  0  0  0  0  0
   19.3230   50.2730    4.7304 H   0  0  0  0  0  0
   18.0641   50.2728    6.0586 H   0  0  0  0  0  0
   19.6614   51.0967    6.2729 H   0  0  0  0  0  0
   21.0943   52.0181   14.6014 H   0  0  0  0  0  0
   22.9467   53.5419   14.1805 H   0  0  0  0  0  0
   24.4744   50.8744   11.1707 H   0  0  0  0  0  0
   22.6118   49.3342   11.6090 H   0  0  0  0  0  0
   26.1234   54.7346   12.7834 H   0  0  0  0  0  0
   25.3230   54.0438   14.1891 H   0  0  0  0  0  0
   24.3987   54.9853   13.0017 H   0  0  0  0  0  0
  1  2  2  0  0  0
  1  5  1  0  0  0
  1 24  1  0  0  0
  2  3  1  0  0  0
  2 16  1  0  0  0
  3  6  1  0  0  0
  3  4  1  0  0  0
  4  5  2  0  0  0
  6 11  1  0  0  0
  6  7  2  0  0  0
  7  8  1  0  0  0
  7 25  1  0  0  0
  8  9  2  0  0  0
  8 26  1  0  0  0
  9 12  1  0  0  0
  9 10  1  0  0  0
 10 11  2  0  0  0
 10 27  1  0  0  0
 11 28  1  0  0  0
 12 13  1  0  0  0
 12 14  2  0  0  0
 12 15  2  0  0  0
 13 29  1  0  0  0
 13 30  1  0  0  0
 13 31  1  0  0  0
 16 17  2  0  0  0
 16 21  1  0  0  0
 17 18  1  0  0  0
 17 32  1  0  0  0
 18 19  2  0  0  0
 18 33  1  0  0  0
 19 20  1  0  0  0
 19 22  1  0  0  0
 20 21  2  0  0  0
 20 34  1  0  0  0
 21 35  1  0  0  0
 22 23  1  0  0  0
 23 36  1  0  0  0
 23 37  1  0  0  0
 23 38  1  0  0  0
M  END
> <s_m_entry_id>
5253

> <s_m_entry_name>
dock_pv.244

> <s_m_Source_Path>
/home/csk/Desktop/cluster/DUD-E-result/pgh1

> <s_m_Source_File>
dock_pv.maegz

> <i_m_Source_File_Index>
244

> <chembl_id>
CHEMBL514418

> <chembl_pref_name>
None

> <i_lp_mmshare_version>
53161

> <r_lp_tautomer_probability>
1

> <s_lp_Force_Field>
OPLS_2005

> <r_lp_Energy>
16.523232

> <b_lp_Chiralities_Consistent>
1

> <s_lp_Variant>
CHEMBL221_lig706-1

> <s_i_glide_gridfile>
glide-grid_2oyu

> <i_i_glide_lignum>
875

> <i_i_glide_rotatable_bonds>
4

> <r_i_docking_score>
-8.58116808994479

> <r_i_glide_ligand_efficiency>
-0.373094264780208

> <r_i_glide_ligand_efficiency_sa>
-1.06103045887148

> <r_i_glide_ligand_efficiency_ln>
-2.07500425387895

> <r_i_glide_gscore>
-8.58116808994479

> <r_i_glide_lipo>
-4.10035490066584

> <r_i_glide_hbond>
0

> <r_i_glide_metal>
0

> <r_i_glide_rewards>
-2.50353137162082

> <r_i_glide_evdw>
-27.473747253418

> <r_i_glide_ecoul>
-5.85750818252563

> <r_i_glide_erotb>
0.346473182347311

> <r_i_glide_esite>
-0.0714414099557004

> <r_i_glide_emodel>
-42.3502866103086

> <r_i_glide_energy>
-33.3312554359436

> <r_i_glide_einternal>
1.3533079624176

> <i_i_glide_confnum>
13

> <i_i_glide_posenum>
356

> <r_i_glide_eff_state_penalty>
0

> <s_user_duplicate_titles>
CHEMBL221_lig706,496811

> <i_f3d_flags>
0

> <s_m_subgroup_title>
dock_pv

> <s_m_subgroupid>
dock_pv

> <b_m_subgroup_collapsed>
1

$$$$
CHEMBL221_lig269
                    3D
 Schrodinger Suite 2021-1.
 35 37  0  0  1  0            999 V2000
   19.8840   49.2055   12.7425 C   0  0  0  0  0  0
   20.7742   49.8192   13.6331 C   0  0  0  0  0  0
   20.0548   48.7632    6.7257 S   0  0  0  0  0  0
   18.6606   48.2730   13.5542 S   0  0  0  0  0  0
   19.3572   48.6343   15.0752 C   0  0  0  0  0  0
   20.4659   49.4728   14.9657 C   0  0  0  0  0  0
   20.1228   49.0180    8.4954 C   0  0  0  0  0  0
   19.8720   49.2126   11.2599 C   0  0  0  0  0  0
   21.9104   50.6933   13.2123 C   0  0  0  0  0  0
   19.4275   47.4730    6.6000 O   0  0  0  0  0  0
   21.3230   49.0730    6.0955 O   0  0  0  0  0  0
   20.1230   50.2730    9.1018 C   0  0  0  0  0  0
   19.8473   47.8854    9.2667 C   0  0  0  0  0  0
   20.0523   50.3693   10.4928 C   0  0  0  0  0  0
   19.7230   47.9804   10.6349 C   0  0  0  0  0  0
   18.5230   47.8730   16.6000 Br  0  0  0  0  0  0
   22.0904   51.9453   13.8049 C   0  0  0  0  0  0
   22.7854   50.2720   12.2030 C   0  0  0  0  0  0
   18.9230   49.8688    5.8968 C   0  0  0  0  0  0
   24.0298   52.3142   12.4236 C   0  0  0  0  0  0
   23.1457   52.7587   13.4001 C   0  0  0  0  0  0
   23.8399   51.0843   11.8017 C   0  0  0  0  0  0
   25.0976   53.0730   12.1022 F   0  0  0  0  0  0
   21.0309   49.8187   15.8188 H   0  0  0  0  0  0
   20.2225   51.1561    8.4915 H   0  0  0  0  0  0
   19.7558   46.9036    8.8279 H   0  0  0  0  0  0
   20.1291   51.3356   10.9697 H   0  0  0  0  0  0
   19.5693   47.0733   11.2016 H   0  0  0  0  0  0
   21.4168   52.2916   14.5756 H   0  0  0  0  0  0
   22.6576   49.3059   11.7367 H   0  0  0  0  0  0
   19.0499   49.6782    4.8375 H   0  0  0  0  0  0
   19.3231   50.7988    6.2000 H   0  0  0  0  0  0
   17.8979   49.7139    6.2000 H   0  0  0  0  0  0
   23.3003   53.7209   13.8664 H   0  0  0  0  0  0
   24.5230   50.7504   11.0346 H   0  0  0  0  0  0
  1  2  2  0  0  0
  1  4  1  0  0  0
  1  8  1  0  0  0
  2  6  1  0  0  0
  2  9  1  0  0  0
  3  7  1  0  0  0
  3 10  2  0  0  0
  3 11  2  0  0  0
  3 19  1  0  0  0
  4  5  1  0  0  0
  5 16  1  0  0  0
  5  6  2  0  0  0
  6 24  1  0  0  0
  7 13  2  0  0  0
  7 12  1  0  0  0
  8 14  1  0  0  0
  8 15  2  0  0  0
  9 17  1  0  0  0
  9 18  2  0  0  0
 12 14  2  0  0  0
 12 25  1  0  0  0
 13 15  1  0  0  0
 13 26  1  0  0  0
 14 27  1  0  0  0
 15 28  1  0  0  0
 17 21  2  0  0  0
 17 29  1  0  0  0
 18 22  1  0  0  0
 18 30  1  0  0  0
 19 31  1  0  0  0
 19 32  1  0  0  0
 19 33  1  0  0  0
 20 22  2  0  0  0
 20 23  1  0  0  0
 20 21  1  0  0  0
 21 34  1  0  0  0
 22 35  1  0  0  0
M  END
> <s_m_entry_id>
5254

> <s_m_entry_name>
dock_pv.245

> <s_m_Source_Path>
/home/csk/Desktop/cluster/DUD-E-result/pgh1

> <s_m_Source_File>
dock_pv.maegz

> <i_m_Source_File_Index>
245

> <chembl_id>
CHEMBL65155

> <chembl_pref_name>
None

> <i_lp_mmshare_version>
53161

> <r_lp_tautomer_probability>
1

> <s_lp_Force_Field>
OPLS_2005

> <r_lp_Energy>
12.753565

> <b_lp_Chiralities_Consistent>
1

> <s_lp_Variant>
CHEMBL221_lig269-1

> <s_i_glide_gridfile>
glide-grid_2oyu

> <i_i_glide_lignum>
302

> <i_i_glide_rotatable_bonds>
3

> <r_i_docking_score>
-8.58113471887977

> <r_i_glide_ligand_efficiency>
-0.373092813864338

> <r_i_glide_ligand_efficiency_sa>
-1.06102633265975

> <r_i_glide_ligand_efficiency_ln>
-2.07499618445284

> <r_i_glide_gscore>
-8.58113471887977

> <r_i_glide_lipo>
-4.9722926595228

> <r_i_glide_hbond>
0

> <r_i_glide_metal>
0

> <r_i_glide_rewards>
-2.2405124738138

> <r_i_glide_evdw>
-16.2518653869629

> <r_i_glide_ecoul>
-5.25819158554077

> <r_i_glide_erotb>
0.232992421636092

> <r_i_glide_esite>
0

> <r_i_glide_emodel>
-24.4061314505684

> <r_i_glide_energy>
-21.5100569725037

> <r_i_glide_einternal>
1.02554202079773

> <i_i_glide_confnum>
2

> <i_i_glide_posenum>
254

> <r_i_glide_eff_state_penalty>
0

> <s_user_duplicate_titles>
CHEMBL221_lig269

> <i_f3d_flags>
0

> <s_m_subgroup_title>
dock_pv

> <s_m_subgroupid>
dock_pv

> <b_m_subgroup_collapsed>
1

$$$$
CHEMBL221_lig393
                    3D
 Schrodinger Suite 2021-1.
 49 50  0  0  1  0            999 V2000
   19.8978   48.5236    8.1270 C   0  0  0  0  0  0
   20.2223   49.2970    9.1802 O   0  0  0  0  0  0
   19.7628   48.5805   10.2103 C   0  0  0  0  0  0
   19.2266   47.4730    9.8351 N   0  0  0  0  0  0
   19.3230   47.4025    8.4642 N   0  0  0  0  0  0
   21.2060   50.5408   13.0410 C   0  0  0  0  0  0
   19.6306   48.8479   13.9390 C   0  0  0  0  0  0
   20.5874   49.8834   14.1402 C   0  0  0  0  0  0
   20.1756   49.0729    6.9566 N   0  0  0  0  0  0
   20.0053   49.0452   11.5668 C   0  0  0  0  0  0
   19.3717   49.0592    6.0143 C   0  0  0  0  0  0
   19.3287   48.4880   12.6272 C   0  0  0  0  0  0
   20.9468   50.0246   11.7735 C   0  0  0  0  0  0
   22.1046   51.8174   13.1455 C   0  0  0  0  0  0
   18.9920   48.0060   15.0779 C   0  0  0  0  0  0
   19.7230   49.8730    5.0000 N   0  0  0  0  0  0
   18.1233   48.4478    5.8000 N   0  0  0  0  0  0
   20.9229   50.2600   15.4137 O   0  0  0  0  0  0
   17.8852   47.0273   14.6000 C   0  0  0  0  0  0
   23.3529   51.5729   13.9642 C   0  0  0  0  0  0
   18.3105   48.8502   16.1777 C   0  0  0  0  0  0
   21.3217   52.9797   13.8000 C   0  0  0  0  0  0
   22.6797   52.2730   11.7741 C   0  0  0  0  0  0
   20.1230   47.1243   15.6177 C   0  0  0  0  0  0
   18.6120   47.7189   12.3880 H   0  0  0  0  0  0
   21.4587   50.3643   10.8923 H   0  0  0  0  0  0
   20.4816   50.4922    5.2358 H   0  0  0  0  0  0
   18.9645   50.4110    4.5997 H   0  0  0  0  0  0
   17.5814   48.2057    6.6252 H   0  0  0  0  0  0
   17.5041   48.9220    5.1590 H   0  0  0  0  0  0
   20.4495   49.7451   16.0690 H   0  0  0  0  0  0
   18.3128   46.2729   13.9438 H   0  0  0  0  0  0
   17.4221   46.4815   15.4202 H   0  0  0  0  0  0
   17.0794   47.5389   14.0701 H   0  0  0  0  0  0
   24.0762   52.3882   13.9037 H   0  0  0  0  0  0
   23.8231   50.6731   13.5984 H   0  0  0  0  0  0
   23.0966   51.4729   15.0000 H   0  0  0  0  0  0
   18.9497   49.6137   16.6000 H   0  0  0  0  0  0
   17.4215   49.3566   15.7993 H   0  0  0  0  0  0
   17.9757   48.2183   17.0003 H   0  0  0  0  0  0
   20.3163   53.0731   13.4001 H   0  0  0  0  0  0
   21.2026   52.8290   14.8733 H   0  0  0  0  0  0
   21.8254   53.9397   13.6779 H   0  0  0  0  0  0
   21.9231   52.2730   11.0000 H   0  0  0  0  0  0
   23.1330   53.2632   11.8198 H   0  0  0  0  0  0
   23.4552   51.5943   11.4128 H   0  0  0  0  0  0
   20.8371   47.7053   16.2000 H   0  0  0  0  0  0
   19.7498   46.2868   16.2002 H   0  0  0  0  0  0
   20.6690   46.6730   14.7920 H   0  0  0  0  0  0
  1  2  1  0  0  0
  1  5  2  0  0  0
  1  9  1  0  0  0
  2  3  1  0  0  0
  3 10  1  0  0  0
  3  4  2  0  0  0
  4  5  1  0  0  0
  6 13  2  0  0  0
  6  8  1  0  0  0
  6 14  1  0  0  0
  7 12  1  0  0  0
  7 15  1  0  0  0
  7  8  2  0  0  0
  8 18  1  0  0  0
  9 11  2  0  0  0
 10 12  2  0  0  0
 10 13  1  0  0  0
 11 16  1  0  0  0
 11 17  1  0  0  0
 12 25  1  0  0  0
 13 26  1  0  0  0
 14 20  1  0  0  0
 14 22  1  0  0  0
 14 23  1  0  0  0
 15 19  1  0  0  0
 15 21  1  0  0  0
 15 24  1  0  0  0
 16 27  1  0  0  0
 16 28  1  0  0  0
 17 29  1  0  0  0
 17 30  1  0  0  0
 18 31  1  0  0  0
 19 32  1  0  0  0
 19 33  1  0  0  0
 19 34  1  0  0  0
 20 35  1  0  0  0
 20 36  1  0  0  0
 20 37  1  0  0  0
 21 38  1  0  0  0
 21 39  1  0  0  0
 21 40  1  0  0  0
 22 41  1  0  0  0
 22 42  1  0  0  0
 22 43  1  0  0  0
 23 44  1  0  0  0
 23 45  1  0  0  0
 23 46  1  0  0  0
 24 47  1  0  0  0
 24 48  1  0  0  0
 24 49  1  0  0  0
M  END
> <s_m_entry_id>
5255

> <s_m_entry_name>
dock_pv.246

> <s_m_Source_Path>
/home/csk/Desktop/cluster/DUD-E-result/pgh1

> <s_m_Source_File>
dock_pv.maegz

> <i_m_Source_File_Index>
246

> <chembl_id>
CHEMBL16878

> <chembl_pref_name>
None

> <i_lp_mmshare_version>
53161

> <r_lp_tautomer_probability>
0.999999999997365

> <s_lp_Force_Field>
OPLS_2005

> <r_lp_Energy>
29.19353

> <b_lp_Chiralities_Consistent>
1

> <s_lp_Variant>
CHEMBL221_lig393-1

> <s_i_glide_gridfile>
glide-grid_2oyu

> <i_i_glide_lignum>
460

> <i_i_glide_rotatable_bonds>
5

> <r_i_docking_score>
-8.57052974035555

> <r_i_glide_ligand_efficiency>
-0.357105405848148

> <r_i_glide_ligand_efficiency_sa>
-1.03007023518668

> <r_i_glide_ligand_efficiency_ln>
-2.05132104285066

> <r_i_glide_gscore>
-8.57052974035555

> <r_i_glide_lipo>
-4.09150264658051

> <r_i_glide_hbond>
-0.565285863124658

> <r_i_glide_metal>
0

> <r_i_glide_rewards>
-1.86701870817874

> <r_i_glide_evdw>
-18.7927837371826

> <r_i_glide_ecoul>
-9.16525554656982

> <r_i_glide_erotb>
0.342715705653023

> <r_i_glide_esite>
-0.0750107092800489

> <r_i_glide_emodel>
-41.1297748613858

> <r_i_glide_energy>
-27.9580392837524

> <r_i_glide_einternal>
2.76275324821472

> <i_i_glide_confnum>
7

> <i_i_glide_posenum>
367

> <r_i_glide_eff_state_penalty>
0

> <s_user_duplicate_titles>
CHEMBL221_lig393

> <i_f3d_flags>
0

> <s_m_subgroup_title>
dock_pv

> <s_m_subgroupid>
dock_pv

> <b_m_subgroup_collapsed>
1

$$$$
CHEMBL221_lig163
                    3D
 Schrodinger Suite 2021-1.
 38 41  0  0  1  0            999 V2000
   19.8478   48.8499   11.9202 N   0  0  0  0  0  0
   20.5945   49.5217   12.8804 C   0  0  0  0  0  0
   19.1093   48.2135   13.9533 N   0  0  0  0  0  0
   18.9726   48.0891   12.6609 C   0  0  0  0  0  0
   19.9536   49.0292    5.9082 S   0  0  0  0  0  0
   20.0967   49.0730   14.1068 C   0  0  0  0  0  0
   21.7170   50.4701   12.6180 C   0  0  0  0  0  0
   21.8492   51.6715   13.3373 C   0  0  0  0  0  0
   22.9604   52.4667   13.0691 C   0  0  0  0  0  0
   19.9084   48.8960   10.5018 C   0  0  0  0  0  0
   19.9336   48.9446    7.6980 C   0  0  0  0  0  0
   23.9000   52.1077   12.1458 C   0  0  0  0  0  0
   20.4907   47.8223    5.3208 O   0  0  0  0  0  0
   20.6114   50.2730    5.5675 O   0  0  0  0  0  0
   23.3076   53.6688   13.5957 O   0  0  0  0  0  0
   24.8769   53.0484   12.1010 O   0  0  0  0  0  0
   22.6798   50.1257   11.6558 C   0  0  0  0  0  0
   24.6439   53.8636   13.2097 C   0  0  0  0  0  0
   23.7838   50.9464   11.4000 C   0  0  0  0  0  0
   19.7230   47.7424    8.3627 C   0  0  0  0  0  0
   20.1230   50.1180    8.4387 C   0  0  0  0  0  0
   19.7230   47.7244    9.7564 C   0  0  0  0  0  0
   20.1230   50.1010    9.8302 C   0  0  0  0  0  0
   20.6481   49.5000   15.6806 Cl  0  0  0  0  0  0
   18.1740   49.0267    5.4000 C   0  0  0  0  0  0
   18.2396   47.4729   12.1625 H   0  0  0  0  0  0
   21.1166   51.9628   14.0754 H   0  0  0  0  0  0
   22.5546   49.2064   11.1045 H   0  0  0  0  0  0
   25.3230   53.5552   14.0045 H   0  0  0  0  0  0
   24.8495   54.9121   13.0000 H   0  0  0  0  0  0
   24.5229   50.6730   10.6610 H   0  0  0  0  0  0
   19.5846   46.8321    7.8021 H   0  0  0  0  0  0
   20.2375   51.0657    7.9299 H   0  0  0  0  0  0
   19.6205   46.7798   10.2601 H   0  0  0  0  0  0
   20.2451   51.0297   10.3697 H   0  0  0  0  0  0
   18.1230   49.0729    4.3175 H   0  0  0  0  0  0
   17.6803   49.8730    5.8463 H   0  0  0  0  0  0
   17.7230   48.1007    5.7379 H   0  0  0  0  0  0
  1  2  1  0  0  0
  1  4  1  0  0  0
  1 10  1  0  0  0
  2  6  2  0  0  0
  2  7  1  0  0  0
  3  4  2  0  0  0
  3  6  1  0  0  0
  4 26  1  0  0  0
  5 11  1  0  0  0
  5 13  2  0  0  0
  5 14  2  0  0  0
  5 25  1  0  0  0
  6 24  1  0  0  0
  7  8  2  0  0  0
  7 17  1  0  0  0
  8  9  1  0  0  0
  8 27  1  0  0  0
  9 15  1  0  0  0
  9 12  2  0  0  0
 10 22  2  0  0  0
 10 23  1  0  0  0
 11 21  1  0  0  0
 11 20  2  0  0  0
 12 19  1  0  0  0
 12 16  1  0  0  0
 15 18  1  0  0  0
 16 18  1  0  0  0
 17 19  2  0  0  0
 17 28  1  0  0  0
 18 29  1  0  0  0
 18 30  1  0  0  0
 19 31  1  0  0  0
 20 22  1  0  0  0
 20 32  1  0  0  0
 21 23  2  0  0  0
 21 33  1  0  0  0
 22 34  1  0  0  0
 23 35  1  0  0  0
 25 36  1  0  0  0
 25 37  1  0  0  0
 25 38  1  0  0  0
M  END
> <s_m_entry_id>
5256

> <s_m_entry_name>
dock_pv.247

> <s_m_Source_Path>
/home/csk/Desktop/cluster/DUD-E-result/pgh1

> <s_m_Source_File>
dock_pv.maegz

> <i_m_Source_File_Index>
247

> <chembl_id>
CHEMBL326335

> <chembl_pref_name>
None

> <i_lp_mmshare_version>
53161

> <r_lp_tautomer_probability>
1

> <s_lp_Force_Field>
OPLS_2005

> <r_lp_Energy>
24.66823

> <b_lp_Chiralities_Consistent>
1

> <s_lp_Variant>
CHEMBL221_lig163-1

> <s_i_glide_gridfile>
glide-grid_2oyu

> <i_i_glide_lignum>
185

> <i_i_glide_rotatable_bonds>
3

> <r_i_docking_score>
-8.57012277468666

> <r_i_glide_ligand_efficiency>
-0.342804910987466

> <r_i_glide_ligand_efficiency_sa>
-1.00236763939834

> <r_i_glide_ligand_efficiency_ln>
-2.03137592345572

> <r_i_glide_gscore>
-8.57012277468666

> <r_i_glide_lipo>
-4.15542608273581

> <r_i_glide_hbond>
0

> <r_i_glide_metal>
0

> <r_i_glide_rewards>
-3.29206673769359

> <r_i_glide_evdw>
-18.3078212738037

> <r_i_glide_ecoul>
-3.0792920589447

> <r_i_glide_erotb>
0.272720861148425

> <r_i_glide_esite>
-0.0180659428737969

> <r_i_glide_emodel>
-25.9982004167356

> <r_i_glide_energy>
-21.3871133327484

> <r_i_glide_einternal>
1.21376931667328

> <i_i_glide_confnum>
4

> <i_i_glide_posenum>
298

> <r_i_glide_eff_state_penalty>
0

> <s_user_duplicate_titles>
CHEMBL221_lig163

> <i_f3d_flags>
0

> <s_m_subgroup_title>
dock_pv

> <s_m_subgroupid>
dock_pv

> <b_m_subgroup_collapsed>
1

$$$$
CHEMBL221_lig23
                    3D
 Schrodinger Suite 2021-1.
 28 30  0  0  1  0            999 V2000
   19.8405   48.9859   14.6071 C   0  0  0  0  0  0
   20.4637   49.6323   13.5362 C   0  0  0  0  0  0
   21.3230   50.5513   14.1761 C   0  0  0  0  0  0
   21.2323   50.5016   15.4855 N   0  0  0  0  0  0
   20.3434   49.4730   15.7701 O   0  0  0  0  0  0
   20.2511   49.4356   12.0623 C   0  0  0  0  0  0
   18.7670   47.9178   14.7576 C   0  0  0  0  0  0
   19.8183   48.2069   11.5503 C   0  0  0  0  0  0
   19.7230   48.0133   10.1743 C   0  0  0  0  0  0
   20.1230   49.0232    9.3065 C   0  0  0  0  0  0
   20.4654   50.2730    9.8000 C   0  0  0  0  0  0
   20.5042   50.4856   11.1703 C   0  0  0  0  0  0
   22.2493   51.5024   13.5738 C   0  0  0  0  0  0
   23.0625   51.0567   12.5763 O   0  0  0  0  0  0
   23.8331   52.1046   12.1803 C   0  0  0  0  0  0
   23.5614   53.2096   12.9623 C   0  0  0  0  0  0
   22.5181   52.8425   13.8026 C   0  0  0  0  0  0
   24.9230   51.8730   10.8779 Cl  0  0  0  0  0  0
   19.2942   46.6959   14.6860 F   0  0  0  0  0  0
   18.1410   48.0142   15.9316 F   0  0  0  0  0  0
   17.8321   48.0246   13.8140 F   0  0  0  0  0  0
   19.5883   47.3777   12.1999 H   0  0  0  0  0  0
   19.3967   47.0660    9.7784 H   0  0  0  0  0  0
   20.0898   48.8599    8.2388 H   0  0  0  0  0  0
   20.6881   51.0730    9.1144 H   0  0  0  0  0  0
   20.7628   51.4724   11.5186 H   0  0  0  0  0  0
   24.0394   54.1771   12.9107 H   0  0  0  0  0  0
   22.0432   53.4732   14.5406 H   0  0  0  0  0  0
  1  2  2  0  0  0
  1  5  1  0  0  0
  1  7  1  0  0  0
  2  3  1  0  0  0
  2  6  1  0  0  0
  3  4  2  0  0  0
  3 13  1  0  0  0
  4  5  1  0  0  0
  6  8  2  0  0  0
  6 12  1  0  0  0
  7 19  1  0  0  0
  7 20  1  0  0  0
  7 21  1  0  0  0
  8  9  1  0  0  0
  8 22  1  0  0  0
  9 10  2  0  0  0
  9 23  1  0  0  0
 10 11  1  0  0  0
 10 24  1  0  0  0
 11 12  2  0  0  0
 11 25  1  0  0  0
 12 26  1  0  0  0
 13 14  1  0  0  0
 13 17  2  0  0  0
 14 15  1  0  0  0
 15 16  2  0  0  0
 15 18  1  0  0  0
 16 17  1  0  0  0
 16 27  1  0  0  0
 17 28  1  0  0  0
M  END
> <s_m_entry_id>
5257

> <s_m_entry_name>
dock_pv.248

> <s_m_Source_Path>
/home/csk/Desktop/cluster/DUD-E-result/pgh1

> <s_m_Source_File>
dock_pv.maegz

> <i_m_Source_File_Index>
248

> <chembl_id>
CHEMBL2380864

> <chembl_pref_name>
None

> <i_lp_mmshare_version>
53161

> <r_lp_tautomer_probability>
1

> <s_lp_Force_Field>
OPLS_2005

> <r_lp_Energy>
11.216839

> <b_lp_Chiralities_Consistent>
1

> <s_lp_Variant>
CHEMBL221_lig23-1

> <s_i_glide_gridfile>
glide-grid_2oyu

> <i_i_glide_lignum>
27

> <i_i_glide_rotatable_bonds>
3

> <r_i_docking_score>
-8.56796824656102

> <r_i_glide_ligand_efficiency>
-0.407998487931477

> <r_i_glide_ligand_efficiency_sa>
-1.12563689113875

> <r_i_glide_ligand_efficiency_ln>
-2.11841283575218

> <r_i_glide_gscore>
-8.56796824656102

> <r_i_glide_lipo>
-4.06856109225726

> <r_i_glide_hbond>
0

> <r_i_glide_metal>
0

> <r_i_glide_rewards>
-2.98125591555873

> <r_i_glide_evdw>
-34.8147201538086

> <r_i_glide_ecoul>
-0.892001390457153

> <r_i_glide_erotb>
0.377655976979103

> <r_i_glide_esite>
-0.0212709994651221

> <r_i_glide_emodel>
-53.0153077897339

> <r_i_glide_energy>
-35.7067215442657

> <r_i_glide_einternal>
1.17334985733032

> <i_i_glide_confnum>
4

> <i_i_glide_posenum>
290

> <r_i_glide_eff_state_penalty>
0

> <s_user_duplicate_titles>
CHEMBL221_lig23

> <i_f3d_flags>
0

> <s_m_subgroup_title>
dock_pv

> <s_m_subgroupid>
dock_pv

> <b_m_subgroup_collapsed>
1

$$$$
CHEMBL221_lig484
                    3D
 Schrodinger Suite 2021-1.
 49 51  0  0  1  0            999 V2000
   19.5071   48.3987   13.8421 C   0  0  2  0  0  0
   20.8291   49.8731   14.8777 C   0  0  0  0  0  0
   20.1085   48.7749   15.0283 O   0  0  0  0  0  0
   20.1436   49.2896   12.7734 C   0  0  0  0  0  0
   20.9317   50.1553   13.4518 C   0  0  0  0  0  0
   20.0914   48.7187    6.6488 S   0  0  0  0  0  0
   18.1201   48.6028   13.9259 O   0  0  0  0  0  0
   20.0395   48.9708    8.4461 C   0  0  0  0  0  0
   19.9707   49.2130   11.2777 C   0  0  0  0  0  0
   21.9700   51.0954   12.9668 C   0  0  0  0  0  0
   21.3230   50.4903   15.8186 O   0  0  0  0  0  0
   20.1230   47.2849    6.5094 O   0  0  0  0  0  0
   21.1518   49.4730    6.0089 O   0  0  0  0  0  0
   19.7230   47.8731    9.2555 C   0  0  0  0  0  0
   20.1230   50.2259    9.0519 C   0  0  0  0  0  0
   19.7221   47.9911   10.6430 C   0  0  0  0  0  0
   20.1230   50.3394   10.4489 C   0  0  0  0  0  0
   22.9233   50.6580   12.0393 C   0  0  0  0  0  0
   22.0962   52.3713   13.5310 C   0  0  0  0  0  0
   19.7227   46.9095   13.6917 C   0  0  0  0  0  0
   18.5225   49.2743    5.8572 C   0  0  0  0  0  0
   24.1869   52.6725   12.3876 C   0  0  0  0  0  0
   23.2081   53.1555   13.2483 C   0  0  0  0  0  0
   24.0305   51.4475   11.7469 C   0  0  0  0  0  0
   25.3222   53.3768   12.2096 F   0  0  0  0  0  0
   17.3223   48.1209   15.0409 C   0  0  0  0  0  0
   17.7231   48.4814   16.4816 C   0  0  0  0  0  0
   16.8288   46.6717   15.0000 C   0  0  0  0  0  0
   19.5525   46.8988    8.8229 H   0  0  0  0  0  0
   20.2530   51.0996    8.4331 H   0  0  0  0  0  0
   19.5652   47.0821   11.1920 H   0  0  0  0  0  0
   20.2636   51.3180   10.8835 H   0  0  0  0  0  0
   22.8477   49.6755   11.5964 H   0  0  0  0  0  0
   21.3726   52.7292   14.2497 H   0  0  0  0  0  0
   19.7235   46.4254   14.6686 H   0  0  0  0  0  0
   18.9347   46.4571   13.0892 H   0  0  0  0  0  0
   20.6892   46.7273   13.2217 H   0  0  0  0  0  0
   18.6637   49.2726    4.7777 H   0  0  0  0  0  0
   18.2818   50.2730    6.1989 H   0  0  0  0  0  0
   17.7383   48.5723    6.1142 H   0  0  0  0  0  0
   23.3381   54.1108   13.7366 H   0  0  0  0  0  0
   24.7936   51.0878   11.0716 H   0  0  0  0  0  0
   16.4191   48.6730   14.8593 H   0  0  0  0  0  0
   16.9042   48.2897   17.1764 H   0  0  0  0  0  0
   18.5612   47.8730   16.8187 H   0  0  0  0  0  0
   17.9886   49.5294   16.5981 H   0  0  0  0  0  0
   16.2166   46.4472   15.8698 H   0  0  0  0  0  0
   16.1232   46.5261   14.1999 H   0  0  0  0  0  0
   17.6106   45.9186   14.9607 H   0  0  0  0  0  0
  1  3  1  0  0  0
  1  4  1  0  0  0
  1  7  1  0  0  0
  1 20  1  0  0  0
  2  3  1  0  0  0
  2 11  2  0  0  0
  2  5  1  0  0  0
  4  5  2  0  0  0
  4  9  1  0  0  0
  5 10  1  0  0  0
  6  8  1  0  0  0
  6 12  2  0  0  0
  6 13  2  0  0  0
  6 21  1  0  0  0
  7 26  1  0  0  0
  8 15  1  0  0  0
  8 14  2  0  0  0
  9 16  2  0  0  0
  9 17  1  0  0  0
 10 18  2  0  0  0
 10 19  1  0  0  0
 14 16  1  0  0  0
 14 29  1  0  0  0
 15 17  2  0  0  0
 15 30  1  0  0  0
 16 31  1  0  0  0
 17 32  1  0  0  0
 18 24  1  0  0  0
 18 33  1  0  0  0
 19 23  2  0  0  0
 19 34  1  0  0  0
 20 35  1  0  0  0
 20 36  1  0  0  0
 20 37  1  0  0  0
 21 38  1  0  0  0
 21 39  1  0  0  0
 21 40  1  0  0  0
 22 23  1  0  0  0
 22 25  1  0  0  0
 22 24  2  0  0  0
 23 41  1  0  0  0
 24 42  1  0  0  0
 26 27  1  0  0  0
 26 28  1  0  0  0
 26 43  1  0  0  0
 27 44  1  0  0  0
 27 45  1  0  0  0
 27 46  1  0  0  0
 28 47  1  0  0  0
 28 48  1  0  0  0
 28 49  1  0  0  0
M  END
> <s_m_entry_id>
5258

> <s_m_entry_name>
dock_pv.249

> <s_m_Source_Path>
/home/csk/Desktop/cluster/DUD-E-result/pgh1

> <s_m_Source_File>
dock_pv.maegz

> <i_m_Source_File_Index>
249

> <chembl_id>
CHEMBL18089

> <chembl_pref_name>
None

> <i_lp_mmshare_version>
53161

> <r_lp_tautomer_probability>
1

> <s_lp_Force_Field>
OPLS_2005

> <r_lp_Energy>
15.5807

> <b_lp_Chiralities_Consistent>
1

> <s_lp_Variant>
CHEMBL221_lig484-1

> <s_i_glide_gridfile>
glide-grid_2oyu

> <i_i_glide_lignum>
615

> <i_i_glide_rotatable_bonds>
5

> <r_i_docking_score>
-8.56786953369894

> <r_i_glide_ligand_efficiency>
-0.305995340489248

> <r_i_glide_ligand_efficiency_sa>
-0.929182075342913

> <r_i_glide_ligand_efficiency_ln>
-1.97771585195834

> <r_i_glide_gscore>
-8.56786953369894

> <r_i_glide_lipo>
-4.50283310028547

> <r_i_glide_hbond>
0

> <r_i_glide_metal>
0

> <r_i_glide_rewards>
-2.59326381353504

> <r_i_glide_evdw>
-18.6455230712891

> <r_i_glide_ecoul>
-5.99828147888184

> <r_i_glide_erotb>
0.360245755518294

> <r_i_glide_esite>
0

> <r_i_glide_emodel>
-50.0223885910677

> <r_i_glide_energy>
-24.6438045501709

> <r_i_glide_einternal>
9.39026832580566

> <i_i_glide_confnum>
19

> <i_i_glide_posenum>
172

> <r_i_glide_eff_state_penalty>
0

> <s_user_duplicate_titles>
CHEMBL221_lig484

> <i_f3d_flags>
0

> <s_m_subgroup_title>
dock_pv

> <s_m_subgroupid>
dock_pv

> <b_m_subgroup_collapsed>
1

$$$$
CHEMBL221_lig1045 
                    3D
 Schrodinger Suite 2021-1.
 35 36  0  0  1  0            999 V2000
   20.9227   49.8730    5.6806 O   0  0  0  0  0  0
   19.9955   48.9029    6.2595 S   0  0  0  0  0  0
   20.1230   47.4856    5.9573 O   0  0  0  0  0  0
   20.1230   50.2477    8.6827 C   0  0  0  0  0  0
   20.0162   49.0154    8.0403 C   0  0  0  0  0  0
   19.7459   47.8730    8.7948 C   0  0  0  0  0  0
   19.7230   47.9598   10.1795 C   0  0  0  0  0  0
   19.9591   49.1700   10.8349 C   0  0  0  0  0  0
   20.1230   50.3288   10.0731 C   0  0  0  0  0  0
   18.3957   49.3648    5.8000 N   0  0  0  0  0  0
   20.0291   49.1934   12.2548 N   0  0  0  0  0  0
   20.7680   50.0049   13.1080 C   0  0  0  0  0  0
   20.4725   49.5796   14.3901 C   0  0  0  0  0  0
   19.5969   48.5093   14.2215 C   0  0  0  0  0  0
   19.3221   48.2853   12.9620 N   0  0  0  0  0  0
   20.9230   50.1790   15.6250 C   0  0  0  0  0  0
   21.2747   50.6732   16.6000 N   0  0  0  0  0  0
   21.5833   51.0728   12.7638 N   0  0  0  0  0  0
   22.6902   50.9200   12.0208 C   0  0  0  0  0  0
   23.6746   52.0929   11.9446 C   0  0  0  0  0  0
   22.9230   49.8900   11.4003 O   0  0  0  0  0  0
   23.9130   52.7945   13.2994 C   0  0  0  0  0  0
   25.3230   53.8729   13.1882 Cl  0  0  0  0  0  0
   20.1590   51.1377    8.0810 H   0  0  0  0  0  0
   19.5873   46.9182    8.3193 H   0  0  0  0  0  0
   19.5910   47.0730   10.7634 H   0  0  0  0  0  0
   20.2254   51.2910   10.5484 H   0  0  0  0  0  0
   18.2271   50.3755    5.7602 H   0  0  0  0  0  0
   17.6370   48.8356    6.2458 H   0  0  0  0  0  0
   19.1373   47.9312   15.0108 H   0  0  0  0  0  0
   21.4635   51.9299   13.2815 H   0  0  0  0  0  0
   23.3229   52.8006   11.1947 H   0  0  0  0  0  0
   24.6217   51.6927   11.5777 H   0  0  0  0  0  0
   24.1219   52.0828   14.1000 H   0  0  0  0  0  0
   23.0620   53.4047   13.6056 H   0  0  0  0  0  0
  1  2  2  0  0  0
  2  3  2  0  0  0
  2  5  1  0  0  0
  2 10  1  0  0  0
  4  5  2  0  0  0
  4  9  1  0  0  0
  4 24  1  0  0  0
  5  6  1  0  0  0
  6  7  2  0  0  0
  6 25  1  0  0  0
  7  8  1  0  0  0
  7 26  1  0  0  0
  8  9  2  0  0  0
  8 11  1  0  0  0
  9 27  1  0  0  0
 10 28  1  0  0  0
 10 29  1  0  0  0
 11 12  1  0  0  0
 11 15  1  0  0  0
 12 13  2  0  0  0
 12 18  1  0  0  0
 13 14  1  0  0  0
 13 16  1  0  0  0
 14 15  2  0  0  0
 14 30  1  0  0  0
 16 17  3  0  0  0
 18 19  1  0  0  0
 18 31  1  0  0  0
 19 20  1  0  0  0
 19 21  2  0  0  0
 20 22  1  0  0  0
 20 32  1  0  0  0
 20 33  1  0  0  0
 22 23  1  0  0  0
 22 34  1  0  0  0
 22 35  1  0  0  0
M  END
> <s_m_entry_id>
5259

> <s_m_entry_name>
dock_pv.250

> <s_m_Source_Path>
/home/csk/Desktop/cluster/DUD-E-result/pgh1

> <s_m_Source_File>
dock_pv.maegz

> <i_m_Source_File_Index>
250

> <chembl_id>
CHEMBL4562695

> <chembl_pref_name>
None

> <i_lp_mmshare_version>
53161

> <r_lp_tautomer_probability>
1

> <s_lp_Force_Field>
OPLS_2005

> <r_lp_Energy>
22.070745

> <b_lp_Chiralities_Consistent>
1

> <s_lp_Variant>
CHEMBL221_lig1045 -1

> <s_i_glide_gridfile>
glide-grid_2oyu

> <i_i_glide_lignum>
1301

> <i_i_glide_rotatable_bonds>
6

> <r_i_docking_score>
-8.56263320155417

> <r_i_glide_ligand_efficiency>
-0.372288400067573

> <r_i_glide_ligand_efficiency_sa>
-1.05873868682738

> <r_i_glide_ligand_efficiency_ln>
-2.07052234980102

> <r_i_glide_gscore>
-8.56263320155417

> <r_i_glide_lipo>
-3.13721083811436

> <r_i_glide_hbond>
-0.513520945508276

> <r_i_glide_metal>
0

> <r_i_glide_rewards>
-3.14488428415163

> <r_i_glide_evdw>
-22.1603870391846

> <r_i_glide_ecoul>
-7.99033546447754

> <r_i_glide_erotb>
0.610431596183532

> <r_i_glide_esite>
-0.0708790583325723

> <r_i_glide_emodel>
-36.3616282026447

> <r_i_glide_energy>
-30.1507225036621

> <r_i_glide_einternal>
8.02193546295166

> <i_i_glide_confnum>
26

> <i_i_glide_posenum>
155

> <r_i_glide_eff_state_penalty>
0

> <s_user_duplicate_titles>
CHEMBL221_lig1045 

> <i_f3d_flags>
0

> <s_m_subgroup_title>
dock_pv

> <s_m_subgroupid>
dock_pv

> <b_m_subgroup_collapsed>
1

$$$$
CHEMBL221_lig476
                    3D
 Schrodinger Suite 2021-1.
 37 39  0  0  1  0            999 V2000
   20.7200   49.7528   13.0130 C   0  0  0  0  0  0
   19.8688   48.8669    6.0423 S   0  0  0  0  0  0
   19.9658   49.0267   12.1491 C   0  0  0  0  0  0
   20.4005   49.4034   14.4041 C   0  0  0  0  0  0
   19.0033   48.1189   12.8925 C   0  0  0  0  0  0
   19.9137   48.9934    7.8322 C   0  0  0  0  0  0
   21.8209   50.6966   12.6828 C   0  0  0  0  0  0
   19.9455   49.0731   10.6567 C   0  0  0  0  0  0
   20.1230   47.4730    5.7697 O   0  0  0  0  0  0
   20.7381   49.8730    5.4430 O   0  0  0  0  0  0
   21.8555   51.8608   13.3924 N   0  0  0  0  0  0
   19.2979   48.3617   14.3625 C   0  0  0  0  0  0
   20.9230   49.8730   15.4128 O   0  0  0  0  0  0
   20.1230   50.2007    8.5082 C   0  0  0  0  0  0
   19.7230   47.8321    8.5776 C   0  0  0  0  0  0
   20.1444   50.2414    9.9081 C   0  0  0  0  0  0
   19.7230   47.8816    9.9640 C   0  0  0  0  0  0
   18.1231   49.0730    5.4489 C   0  0  0  0  0  0
   22.8676   52.7334   13.1526 C   0  0  0  0  0  0
   22.7788   50.4004   11.7077 C   0  0  0  0  0  0
   23.8554   52.5001   12.1953 C   0  0  0  0  0  0
   23.8001   51.3174   11.4567 C   0  0  0  0  0  0
   17.9626   48.3463   12.6600 H   0  0  0  0  0  0
   19.1577   47.0659   12.6564 H   0  0  0  0  0  0
   18.4205   48.7328   14.8928 H   0  0  0  0  0  0
   19.6293   47.4546   14.8671 H   0  0  0  0  0  0
   20.2390   51.1135    7.9414 H   0  0  0  0  0  0
   19.5608   46.8832    8.0908 H   0  0  0  0  0  0
   20.2977   51.1882   10.4051 H   0  0  0  0  0  0
   19.6001   46.9636   10.5052 H   0  0  0  0  0  0
   18.1251   49.0730    4.3598 H   0  0  0  0  0  0
   17.7206   50.0066    5.8317 H   0  0  0  0  0  0
   17.5485   48.2226    5.8000 H   0  0  0  0  0  0
   22.8773   53.6345   13.7500 H   0  0  0  0  0  0
   22.7297   49.4731   11.1592 H   0  0  0  0  0  0
   24.6449   53.2182   12.0304 H   0  0  0  0  0  0
   24.5463   51.1051   10.7048 H   0  0  0  0  0  0
  1  3  2  0  0  0
  1  4  1  0  0  0
  1  7  1  0  0  0
  2  6  1  0  0  0
  2  9  2  0  0  0
  2 10  2  0  0  0
  2 18  1  0  0  0
  3  5  1  0  0  0
  3  8  1  0  0  0
  4 12  1  0  0  0
  4 13  2  0  0  0
  5 12  1  0  0  0
  5 23  1  0  0  0
  5 24  1  0  0  0
  6 15  1  0  0  0
  6 14  2  0  0  0
  7 11  2  0  0  0
  7 20  1  0  0  0
  8 16  2  0  0  0
  8 17  1  0  0  0
 11 19  1  0  0  0
 12 25  1  0  0  0
 12 26  1  0  0  0
 14 16  1  0  0  0
 14 27  1  0  0  0
 15 17  2  0  0  0
 15 28  1  0  0  0
 16 29  1  0  0  0
 17 30  1  0  0  0
 18 31  1  0  0  0
 18 32  1  0  0  0
 18 33  1  0  0  0
 19 21  2  0  0  0
 19 34  1  0  0  0
 20 22  2  0  0  0
 20 35  1  0  0  0
 21 22  1  0  0  0
 21 36  1  0  0  0
 22 37  1  0  0  0
M  END
> <s_m_entry_id>
5260

> <s_m_entry_name>
dock_pv.251

> <s_m_Source_Path>
/home/csk/Desktop/cluster/DUD-E-result/pgh1

> <s_m_Source_File>
dock_pv.maegz

> <i_m_Source_File_Index>
251

> <chembl_id>
CHEMBL23128

> <chembl_pref_name>
None

> <i_lp_mmshare_version>
53161

> <r_lp_tautomer_probability>
0.499977396165832

> <s_lp_Force_Field>
OPLS_2005

> <r_lp_Energy>
20.557915

> <b_lp_Chiralities_Consistent>
1

> <s_lp_Variant>
CHEMBL221_lig476-1

> <s_i_glide_gridfile>
glide-grid_2oyu

> <i_i_glide_lignum>
595

> <i_i_glide_rotatable_bonds>
3

> <r_i_docking_score>
-8.55676037203893

> <r_i_glide_ligand_efficiency>
-0.388943653274497

> <r_i_glide_ligand_efficiency_sa>
-1.08983541276102

> <r_i_glide_ligand_efficiency_ln>
-2.09158435034443

> <r_i_glide_gscore>
-8.55676037203893

> <r_i_glide_lipo>
-4.11577996113512

> <r_i_glide_hbond>
0

> <r_i_glide_metal>
0

> <r_i_glide_rewards>
-2.7477972290692

> <r_i_glide_evdw>
-21.7314624786377

> <r_i_glide_ecoul>
-6.44296789169312

> <r_i_glide_erotb>
0.378264058773064

> <r_i_glide_esite>
-0.0184289329218134

> <r_i_glide_emodel>
-35.3104259501192

> <r_i_glide_energy>
-28.1744303703308

> <r_i_glide_einternal>
0.614961266517639

> <i_i_glide_confnum>
5

> <i_i_glide_posenum>
179

> <r_i_glide_eff_state_penalty>
0

> <s_user_duplicate_titles>
CHEMBL221_lig476

> <i_f3d_flags>
0

> <s_m_subgroup_title>
dock_pv

> <s_m_subgroupid>
dock_pv

> <b_m_subgroup_collapsed>
1

$$$$
CHEMBL221_lig344
                    3D
 Schrodinger Suite 2021-1.
 39 41  0  0  1  0            999 V2000
   20.0422   49.1993   12.2293 N   0  0  0  0  0  0
   20.9046   49.8807   13.0782 C   0  0  0  0  0  0
   19.1815   48.4276   12.9207 N   0  0  0  0  0  0
   19.9813   48.9001    6.2240 S   0  0  0  0  0  0
   20.5230   49.4730   14.3481 C   0  0  0  0  0  0
   19.4837   48.5571   14.1898 C   0  0  0  0  0  0
   19.9748   49.1723   10.8106 C   0  0  0  0  0  0
   19.9662   49.0230    8.0105 C   0  0  0  0  0  0
   20.9229   49.8730    5.6734 O   0  0  0  0  0  0
   20.1230   47.4832    5.9275 O   0  0  0  0  0  0
   22.0080   50.8138   12.7128 C   0  0  0  0  0  0
   20.1376   50.3321   10.0506 C   0  0  0  0  0  0
   19.7229   47.9605   10.1579 C   0  0  0  0  0  0
   19.7231   47.8757    8.7702 C   0  0  0  0  0  0
   20.1230   50.2541    8.6571 C   0  0  0  0  0  0
   18.2895   49.3509    5.6269 C   0  0  0  0  0  0
   18.7367   47.7643   15.2390 C   0  0  0  0  0  0
   18.9198   46.3818   14.9999 O   0  0  0  0  0  0
   22.9017   50.5053   11.6866 C   0  0  0  0  0  0
   22.1811   51.9853   13.4561 C   0  0  0  0  0  0
   23.2380   52.8449   13.1699 C   0  0  0  0  0  0
   23.9568   51.3650   11.3970 C   0  0  0  0  0  0
   24.1235   52.5287   12.1430 C   0  0  0  0  0  0
   20.9690   49.7780   15.2831 H   0  0  0  0  0  0
   20.2849   51.2900   10.5286 H   0  0  0  0  0  0
   19.5566   47.0731   10.7407 H   0  0  0  0  0  0
   19.5527   46.9221    8.2934 H   0  0  0  0  0  0
   20.2413   51.1522    8.0677 H   0  0  0  0  0  0
   18.3916   49.4730    4.5533 H   0  0  0  0  0  0
   17.6190   48.5181    5.8000 H   0  0  0  0  0  0
   17.9519   50.2707    6.0970 H   0  0  0  0  0  0
   19.0835   48.0014   16.2441 H   0  0  0  0  0  0
   17.6682   47.9837   15.2134 H   0  0  0  0  0  0
   18.5219   46.1797   14.1486 H   0  0  0  0  0  0
   22.7818   49.5944   11.1209 H   0  0  0  0  0  0
   21.5028   52.2306   14.2604 H   0  0  0  0  0  0
   23.3741   53.7478   13.7490 H   0  0  0  0  0  0
   24.6463   51.1238   10.6010 H   0  0  0  0  0  0
   24.9496   53.1889   11.9267 H   0  0  0  0  0  0
  1  2  1  0  0  0
  1  3  1  0  0  0
  1  7  1  0  0  0
  2  5  2  0  0  0
  2 11  1  0  0  0
  3  6  2  0  0  0
  4  8  1  0  0  0
  4  9  2  0  0  0
  4 10  2  0  0  0
  4 16  1  0  0  0
  5  6  1  0  0  0
  5 24  1  0  0  0
  6 17  1  0  0  0
  7 12  1  0  0  0
  7 13  2  0  0  0
  8 14  2  0  0  0
  8 15  1  0  0  0
 11 19  2  0  0  0
 11 20  1  0  0  0
 12 15  2  0  0  0
 12 25  1  0  0  0
 13 14  1  0  0  0
 13 26  1  0  0  0
 14 27  1  0  0  0
 15 28  1  0  0  0
 16 29  1  0  0  0
 16 30  1  0  0  0
 16 31  1  0  0  0
 17 18  1  0  0  0
 17 32  1  0  0  0
 17 33  1  0  0  0
 18 34  1  0  0  0
 19 22  1  0  0  0
 19 35  1  0  0  0
 20 21  2  0  0  0
 20 36  1  0  0  0
 21 23  1  0  0  0
 21 37  1  0  0  0
 22 23  2  0  0  0
 22 38  1  0  0  0
 23 39  1  0  0  0
M  END
> <s_m_entry_id>
5261

> <s_m_entry_name>
dock_pv.252

> <s_m_Source_Path>
/home/csk/Desktop/cluster/DUD-E-result/pgh1

> <s_m_Source_File>
dock_pv.maegz

> <i_m_Source_File_Index>
252

> <chembl_id>
CHEMBL166156

> <chembl_pref_name>
None

> <i_lp_mmshare_version>
53161

> <r_lp_tautomer_probability>
1

> <s_lp_Force_Field>
OPLS_2005

> <r_lp_Energy>
12.420865

> <b_lp_Chiralities_Consistent>
1

> <s_lp_Variant>
CHEMBL221_lig344-1

> <s_i_glide_gridfile>
glide-grid_2oyu

> <i_i_glide_lignum>
410

> <i_i_glide_rotatable_bonds>
5

> <r_i_docking_score>
-8.55175012454776

> <r_i_glide_ligand_efficiency>
-0.371815222806424

> <r_i_glide_ligand_efficiency_sa>
-1.05739303364019

> <r_i_glide_ligand_efficiency_ln>
-2.06789072309859

> <r_i_glide_gscore>
-8.55175012454776

> <r_i_glide_lipo>
-4.41412382433184

> <r_i_glide_hbond>
0

> <r_i_glide_metal>
0

> <r_i_glide_rewards>
-2.53120883362027

> <r_i_glide_evdw>
-24.361499786377

> <r_i_glide_ecoul>
-5.96595478057861

> <r_i_glide_erotb>
0.522475793847298

> <r_i_glide_esite>
-0.0159250540373061

> <r_i_glide_emodel>
-39.7599259997294

> <r_i_glide_energy>
-30.3274545669556

> <r_i_glide_einternal>
1.07972812652588

> <i_i_glide_confnum>
12

> <i_i_glide_posenum>
314

> <r_i_glide_eff_state_penalty>
0

> <s_user_duplicate_titles>
CHEMBL221_lig344

> <i_f3d_flags>
0

> <s_m_subgroup_title>
dock_pv

> <s_m_subgroupid>
dock_pv

> <b_m_subgroup_collapsed>
1

$$$$
CHEMBL221_lig77
                    3D
 Schrodinger Suite 2021-1.
 35 37  0  0  1  0            999 V2000
   19.9822   49.2507   12.6589 N   0  0  0  0  0  0
   19.5241   48.6730   14.7860 N   0  0  0  0  0  0
   20.8810   49.9037   13.4744 C   0  0  0  0  0  0
   19.1992   48.5244   13.5290 C   0  0  0  0  0  0
   20.0563   48.7782    6.6997 S   0  0  0  0  0  0
   20.5230   49.5360   14.7650 C   0  0  0  0  0  0
   19.9205   49.2332   11.2541 C   0  0  0  0  0  0
   20.1133   49.0371    8.4801 C   0  0  0  0  0  0
   21.9961   50.7790   13.0331 C   0  0  0  0  0  0
   19.4862   47.4730    6.6000 O   0  0  0  0  0  0
   21.3230   49.0730    6.0549 O   0  0  0  0  0  0
   20.1230   50.2913    9.0861 C   0  0  0  0  0  0
   19.8277   47.9101    9.2650 C   0  0  0  0  0  0
   20.0869   50.3910   10.4802 C   0  0  0  0  0  0
   19.7230   48.0042   10.6387 C   0  0  0  0  0  0
   21.2500   50.1106   16.2000 Cl  0  0  0  0  0  0
   22.1658   52.0318   13.6263 C   0  0  0  0  0  0
   22.9163   50.3100   12.0947 C   0  0  0  0  0  0
   18.7956   49.6907    5.8000 C   0  0  0  0  0  0
   24.2331   52.2890   12.4328 C   0  0  0  0  0  0
   23.2897   52.7910   13.3236 C   0  0  0  0  0  0
   24.0337   51.0736   11.7864 C   0  0  0  0  0  0
   25.7131   53.1304   12.2000 Cl  0  0  0  0  0  0
   18.4025   47.9011   13.1498 H   0  0  0  0  0  0
   20.2187   51.1715    8.4701 H   0  0  0  0  0  0
   19.7163   46.9278    8.8323 H   0  0  0  0  0  0
   20.1847   51.3602   10.9482 H   0  0  0  0  0  0
   19.5634   47.1017   11.2120 H   0  0  0  0  0  0
   21.4542   52.3990   14.3518 H   0  0  0  0  0  0
   22.7912   49.3378   11.6414 H   0  0  0  0  0  0
   18.8123   49.3042    4.7841 H   0  0  0  0  0  0
   19.1444   50.6730    5.8000 H   0  0  0  0  0  0
   17.8021   49.5904    6.2000 H   0  0  0  0  0  0
   23.4513   53.7411   13.8118 H   0  0  0  0  0  0
   24.7701   50.6978   11.0931 H   0  0  0  0  0  0
  1  3  1  0  0  0
  1  4  1  0  0  0
  1  7  1  0  0  0
  2  4  2  0  0  0
  2  6  1  0  0  0
  3  6  2  0  0  0
  3  9  1  0  0  0
  4 24  1  0  0  0
  5  8  1  0  0  0
  5 10  2  0  0  0
  5 11  2  0  0  0
  5 19  1  0  0  0
  6 16  1  0  0  0
  7 14  1  0  0  0
  7 15  2  0  0  0
  8 13  2  0  0  0
  8 12  1  0  0  0
  9 17  2  0  0  0
  9 18  1  0  0  0
 12 14  2  0  0  0
 12 25  1  0  0  0
 13 15  1  0  0  0
 13 26  1  0  0  0
 14 27  1  0  0  0
 15 28  1  0  0  0
 17 21  1  0  0  0
 17 29  1  0  0  0
 18 22  2  0  0  0
 18 30  1  0  0  0
 19 31  1  0  0  0
 19 32  1  0  0  0
 19 33  1  0  0  0
 20 22  1  0  0  0
 20 23  1  0  0  0
 20 21  2  0  0  0
 21 34  1  0  0  0
 22 35  1  0  0  0
M  END
> <s_m_entry_id>
5262

> <s_m_entry_name>
dock_pv.253

> <s_m_Source_Path>
/home/csk/Desktop/cluster/DUD-E-result/pgh1

> <s_m_Source_File>
dock_pv.maegz

> <i_m_Source_File_Index>
253

> <chembl_id>
CHEMBL325437

> <chembl_pref_name>
None

> <i_lp_mmshare_version>
53161

> <r_lp_tautomer_probability>
1

> <s_lp_Force_Field>
OPLS_2005

> <r_lp_Energy>
12.081002

> <b_lp_Chiralities_Consistent>
1

> <s_lp_Variant>
CHEMBL221_lig77-1

> <s_i_glide_gridfile>
glide-grid_2oyu

> <i_i_glide_lignum>
94

> <i_i_glide_rotatable_bonds>
3

> <r_i_docking_score>
-8.55094753795544

> <r_i_glide_ligand_efficiency>
-0.371780327737193

> <r_i_glide_ligand_efficiency_sa>
-1.05729379670515

> <r_i_glide_ligand_efficiency_ln>
-2.06769665038311

> <r_i_glide_gscore>
-8.55094753795544

> <r_i_glide_lipo>
-4.27951252181114

> <r_i_glide_hbond>
0

> <r_i_glide_metal>
0

> <r_i_glide_rewards>
-2.56779373640214

> <r_i_glide_evdw>
-20.9624576568604

> <r_i_glide_ecoul>
-6.27380084991455

> <r_i_glide_erotb>
0.285551730588042

> <r_i_glide_esite>
0

> <r_i_glide_emodel>
-30.2964221384166

> <r_i_glide_energy>
-27.2362585067749

> <r_i_glide_einternal>
0.790171921253204

> <i_i_glide_confnum>
9

> <i_i_glide_posenum>
62

> <r_i_glide_eff_state_penalty>
0

> <s_user_duplicate_titles>
CHEMBL221_lig77

> <i_f3d_flags>
0

> <s_m_subgroup_title>
dock_pv

> <s_m_subgroupid>
dock_pv

> <b_m_subgroup_collapsed>
1

$$$$
CHEMBL221_lig748
                    3D
 Schrodinger Suite 2021-1.
 43 45  0  0  1  0            999 V2000
   19.1125   47.8818   12.6000 C   0  0  0  0  0  0
   19.8429   48.8095   11.8418 C   0  0  0  0  0  0
   20.5313   49.8025   12.4463 N   0  0  0  0  0  0
   20.5233   49.8592   13.7980 C   0  0  0  0  0  0
   19.8491   49.0160   14.6118 N   0  0  0  0  0  0
   19.1247   48.0382   13.9974 C   0  0  0  0  0  0
   19.8892   48.8539   10.3519 C   0  0  0  0  0  0
   19.7007   47.7032    9.5801 C   0  0  0  0  0  0
   19.7231   47.7529    8.1904 C   0  0  0  0  0  0
   19.9821   48.9607    7.5519 C   0  0  0  0  0  0
   20.1230   50.1208    8.3038 C   0  0  0  0  0  0
   20.1230   50.0668    9.6879 C   0  0  0  0  0  0
   18.2757   47.1531   14.9054 C   0  0  0  0  0  0
   18.5230   45.8682   14.6523 F   0  0  0  0  0  0
   18.5196   47.3792   16.1984 F   0  0  0  0  0  0
   16.9857   47.3965   14.6739 F   0  0  0  0  0  0
   20.0368   49.0728    5.7783 S   0  0  0  0  0  0
   18.2429   49.2878    5.4001 C   0  0  0  0  0  0
   20.3761   47.7891    5.1971 O   0  0  0  0  0  0
   20.8453   50.2291    5.4010 O   0  0  0  0  0  0
   21.1937   50.8944   14.4179 O   0  0  0  0  0  0
   22.1207   51.6637   13.7435 C   0  0  0  0  0  0
   22.1229   53.0446   13.9328 C   0  0  0  0  0  0
   23.1816   53.8080   13.4454 C   0  0  0  0  0  0
   24.2437   53.1694   12.8102 C   0  0  0  0  0  0
   24.1339   51.8375   12.4318 C   0  0  0  0  0  0
   23.0990   51.0733   12.9376 C   0  0  0  0  0  0
   25.5727   53.8713   12.6547 C   0  0  0  0  0  0
   18.5228   47.1075   12.1333 H   0  0  0  0  0  0
   19.5634   46.7501   10.0577 H   0  0  0  0  0  0
   19.5790   46.8560    7.6169 H   0  0  0  0  0  0
   20.2448   51.0747    7.8097 H   0  0  0  0  0  0
   20.2529   50.9912   10.2327 H   0  0  0  0  0  0
   18.1226   49.1886    4.3234 H   0  0  0  0  0  0
   17.8977   50.2398    5.8000 H   0  0  0  0  0  0
   17.7230   48.4577    5.8599 H   0  0  0  0  0  0
   21.3581   53.5089   14.5372 H   0  0  0  0  0  0
   23.2454   54.8549   13.7081 H   0  0  0  0  0  0
   24.9230   51.3534   11.8749 H   0  0  0  0  0  0
   23.1082   50.0076   12.7638 H   0  0  0  0  0  0
   25.4634   54.9538   12.5858 H   0  0  0  0  0  0
   26.1672   53.6713   13.5443 H   0  0  0  0  0  0
   26.1230   53.4730   11.8000 H   0  0  0  0  0  0
  1  2  2  0  0  0
  1  6  1  0  0  0
  1 29  1  0  0  0
  2  7  1  0  0  0
  2  3  1  0  0  0
  3  4  2  0  0  0
  4  5  1  0  0  0
  4 21  1  0  0  0
  5  6  2  0  0  0
  6 13  1  0  0  0
  7  8  2  0  0  0
  7 12  1  0  0  0
  8  9  1  0  0  0
  8 30  1  0  0  0
  9 10  2  0  0  0
  9 31  1  0  0  0
 10 17  1  0  0  0
 10 11  1  0  0  0
 11 12  2  0  0  0
 11 32  1  0  0  0
 12 33  1  0  0  0
 13 14  1  0  0  0
 13 15  1  0  0  0
 13 16  1  0  0  0
 17 18  1  0  0  0
 17 19  2  0  0  0
 17 20  2  0  0  0
 18 34  1  0  0  0
 18 35  1  0  0  0
 18 36  1  0  0  0
 21 22  1  0  0  0
 22 23  2  0  0  0
 22 27  1  0  0  0
 23 24  1  0  0  0
 23 37  1  0  0  0
 24 25  2  0  0  0
 24 38  1  0  0  0
 25 26  1  0  0  0
 25 28  1  0  0  0
 26 27  2  0  0  0
 26 39  1  0  0  0
 27 40  1  0  0  0
 28 41  1  0  0  0
 28 42  1  0  0  0
 28 43  1  0  0  0
M  END
> <s_m_entry_id>
5263

> <s_m_entry_name>
dock_pv.254

> <s_m_Source_Path>
/home/csk/Desktop/cluster/DUD-E-result/pgh1

> <s_m_Source_File>
dock_pv.maegz

> <i_m_Source_File_Index>
254

> <chembl_id>
CHEMBL564993

> <chembl_pref_name>
None

> <i_lp_mmshare_version>
53161

> <r_lp_tautomer_probability>
1

> <s_lp_Force_Field>
OPLS_2005

> <r_lp_Energy>
11.369127

> <b_lp_Chiralities_Consistent>
1

> <s_lp_Variant>
CHEMBL221_lig748-1

> <s_i_glide_gridfile>
glide-grid_2oyu

> <i_i_glide_lignum>
917

> <i_i_glide_rotatable_bonds>
5

> <r_i_docking_score>
-8.54360126128891

> <r_i_glide_ligand_efficiency>
-0.305128616474604

> <r_i_glide_ligand_efficiency_sa>
-0.926550190761309

> <r_i_glide_ligand_efficiency_ln>
-1.97211402213867

> <r_i_glide_gscore>
-8.54360126128891

> <r_i_glide_lipo>
-4.19518439847193

> <r_i_glide_hbond>
0

> <r_i_glide_metal>
0

> <r_i_glide_rewards>
-2.85573542199744

> <r_i_glide_evdw>
-20.8634376525879

> <r_i_glide_ecoul>
-5.0065484046936

> <r_i_glide_erotb>
0.354001621459922

> <r_i_glide_esite>
-0.0525289189460247

> <r_i_glide_emodel>
-25.5379909227999

> <r_i_glide_energy>
-25.8699860572815

> <r_i_glide_einternal>
9.37982749938965

> <i_i_glide_confnum>
5

> <i_i_glide_posenum>
325

> <r_i_glide_eff_state_penalty>
0

> <s_user_duplicate_titles>
CHEMBL221_lig748

> <i_f3d_flags>
0

> <s_m_subgroup_title>
dock_pv

> <s_m_subgroupid>
dock_pv

> <b_m_subgroup_collapsed>
1

$$$$
CHEMBL221_lig168
                    3D
 Schrodinger Suite 2021-1.
 33 35  0  0  1  0            999 V2000
   21.1936   49.8728   12.2901 N   0  0  0  0  0  0
   21.3231   51.6480   14.8127 S   0  0  0  0  0  0
   20.5244   49.3776   13.4405 C   0  0  0  0  0  0
   22.2310   50.8433   12.3169 C   0  0  0  0  0  0
   20.6714   50.0229   14.6828 C   0  0  0  0  0  0
   22.3665   51.7255   13.4102 C   0  0  0  0  0  0
   21.0348   49.0730   11.0651 C   0  0  0  0  0  0
   19.7236   47.9311    9.0008 S   0  0  0  0  0  0
   19.7930   49.2960   10.2250 C   0  0  2  0  0  0
   23.2578   50.9173   11.3433 C   0  0  0  0  0  0
   19.7565   48.1826   13.4397 C   0  0  0  0  0  0
   20.1234   49.4728   15.8406 C   0  0  0  0  0  0
   23.3272   52.7396   13.4003 C   0  0  0  0  0  0
   19.8247   50.6732    9.5573 C   0  0  0  0  0  0
   24.2573   51.8843   11.3751 C   0  0  0  0  0  0
   19.1871   47.6564   14.5918 C   0  0  0  0  0  0
   19.3789   48.2994   15.8002 C   0  0  0  0  0  0
   24.2796   52.8171   12.3970 C   0  0  0  0  0  0
   21.0018   48.0478   11.4000 H   0  0  0  0  0  0
   21.8856   49.0729   10.4005 H   0  0  0  0  0  0
   20.7575   48.3437    8.2622 H   0  0  0  0  0  0
   18.9236   49.1950   10.8591 H   0  0  0  0  0  0
   23.3255   50.2791   10.4855 H   0  0  0  0  0  0
   19.5192   47.6267   12.5481 H   0  0  0  0  0  0
   20.2229   50.0031   16.7756 H   0  0  0  0  0  0
   23.3553   53.4638   14.1985 H   0  0  0  0  0  0
   19.3446   51.4146   10.1999 H   0  0  0  0  0  0
   19.3230   50.6731    8.5943 H   0  0  0  0  0  0
   20.8441   51.0188    9.3916 H   0  0  0  0  0  0
   25.0040   51.9151   10.5938 H   0  0  0  0  0  0
   18.5882   46.7584   14.5425 H   0  0  0  0  0  0
   18.9230   47.9011   16.6935 H   0  0  0  0  0  0
   25.0367   53.5882   12.4228 H   0  0  0  0  0  0
  1  3  1  0  0  0
  1  4  1  0  0  0
  1  7  1  0  0  0
  2  6  1  0  0  0
  2  5  1  0  0  0
  3  5  1  0  0  0
  3 11  2  0  0  0
  4  6  2  0  0  0
  4 10  1  0  0  0
  5 12  2  0  0  0
  6 13  1  0  0  0
  7  9  1  0  0  0
  7 19  1  0  0  0
  7 20  1  0  0  0
  8  9  1  0  0  0
  8 21  1  0  0  0
  9 14  1  0  0  0
  9 22  1  0  0  0
 10 15  2  0  0  0
 10 23  1  0  0  0
 11 16  1  0  0  0
 11 24  1  0  0  0
 12 17  1  0  0  0
 12 25  1  0  0  0
 13 18  2  0  0  0
 13 26  1  0  0  0
 14 27  1  0  0  0
 14 28  1  0  0  0
 14 29  1  0  0  0
 15 18  1  0  0  0
 15 30  1  0  0  0
 16 17  2  0  0  0
 16 31  1  0  0  0
 17 32  1  0  0  0
 18 33  1  0  0  0
M  END
> <s_m_entry_id>
5264

> <s_m_entry_name>
dock_pv.255

> <s_m_Source_Path>
/home/csk/Desktop/cluster/DUD-E-result/pgh1

> <s_m_Source_File>
dock_pv.maegz

> <i_m_Source_File_Index>
255

> <chembl_id>
CHEMBL149032

> <chembl_pref_name>
None

> <i_lp_mmshare_version>
53161

> <r_lp_tautomer_probability>
1

> <s_lp_Force_Field>
OPLS_2005

> <r_lp_Energy>
20.449389

> <b_lp_Chiralities_Consistent>
1

> <s_lp_Variant>
CHEMBL221_lig168-2

> <s_i_glide_gridfile>
glide-grid_2oyu

> <i_i_glide_lignum>
192

> <i_i_glide_rotatable_bonds>
3

> <r_i_docking_score>
-8.54188861911168

> <r_i_glide_ligand_efficiency>
-0.474549367728427

> <r_i_glide_ligand_efficiency_sa>
-1.24367117040332

> <r_i_glide_ligand_efficiency_ln>
-2.19564842402901

> <r_i_glide_gscore>
-8.54188861911168

> <r_i_glide_lipo>
-4.15133649013815

> <r_i_glide_hbond>
0

> <r_i_glide_metal>
0

> <r_i_glide_rewards>
-3.08663958711247

> <r_i_glide_evdw>
-27.7910537719727

> <r_i_glide_ecoul>
-1.02881395816803

> <r_i_glide_erotb>
0.239962240462771

> <r_i_glide_esite>
0

> <r_i_glide_emodel>
-33.6861504217947

> <r_i_glide_energy>
-28.8198677301407

> <r_i_glide_einternal>
1.31408941745758

> <i_i_glide_confnum>
1

> <i_i_glide_posenum>
310

> <r_i_glide_eff_state_penalty>
0

> <s_user_duplicate_titles>
CHEMBL221_lig168,249955

> <i_f3d_flags>
0

> <s_m_subgroup_title>
dock_pv

> <s_m_subgroupid>
dock_pv

> <b_m_subgroup_collapsed>
1

$$$$
CHEMBL221_lig996
                    3D
 Schrodinger Suite 2021-1.
 38 39  0  0  1  0            999 V2000
   22.9223   52.0369   11.4659 C   0  0  2  0  0  0
   22.8285   52.3916   12.9556 C   0  0  0  0  0  0
   22.0149   51.6833   13.7614 C   0  0  0  0  0  0
   21.2282   50.5651   13.2330 C   0  0  0  0  0  0
   20.5560   49.6635   14.0629 C   0  0  0  0  0  0
   19.7764   48.6445   13.5015 C   0  0  0  0  0  0
   19.7172   48.5065   12.1120 C   0  0  0  0  0  0
   20.4009   49.3783   11.2651 C   0  0  0  0  0  0
   21.1580   50.4074   11.8435 C   0  0  0  0  0  0
   21.7494   51.3292   11.0000 O   0  0  0  0  0  0
   23.5137   53.5779   13.4000 C   0  0  0  0  0  0
   24.7323   53.7244   13.3751 O   0  0  0  0  0  0
   22.6499   54.5522   13.8000 O   0  0  0  0  0  0
   24.2283   51.3433   11.0458 C   0  0  0  0  0  0
   18.8172   47.5184   14.5316 S   0  0  0  0  0  0
   20.1230   47.1376   15.4000 F   0  0  0  0  0  0
   18.4454   48.6730   15.6009 F   0  0  0  0  0  0
   17.4807   47.8730   13.6917 F   0  0  0  0  0  0
   17.9401   46.4885   15.4000 F   0  0  0  0  0  0
   19.1709   46.2730   13.5608 F   0  0  0  0  0  0
   25.2611   52.1882   11.0666 F   0  0  0  0  0  0
   24.5056   50.2859   11.8000 F   0  0  0  0  0  0
   24.1230   50.9084    9.8000 F   0  0  0  0  0  0
   20.3252   49.2277    9.7423 C   0  0  0  0  0  0
   19.6193   47.9610    9.1816 C   0  0  0  0  0  0
   19.5395   47.9339    7.6478 C   0  0  0  0  0  0
   22.9230   52.9679   10.9114 H   0  0  0  0  0  0
   21.8972   51.9718   14.7977 H   0  0  0  0  0  0
   20.6100   49.7750   15.1371 H   0  0  0  0  0  0
   19.1073   47.7191   11.6971 H   0  0  0  0  0  0
   23.1408   55.3238   14.1011 H   0  0  0  0  0  0
   19.8600   50.1283    9.3371 H   0  0  0  0  0  0
   21.3566   49.2322    9.4000 H   0  0  0  0  0  0
   20.1230   47.0603    9.5262 H   0  0  0  0  0  0
   18.6012   47.8730    9.5588 H   0  0  0  0  0  0
   18.9629   47.0730    7.3121 H   0  0  0  0  0  0
   19.0478   48.8222    7.2510 H   0  0  0  0  0  0
   20.5230   47.8730    7.1862 H   0  0  0  0  0  0
  1  2  1  0  0  0
  1 10  1  0  0  0
  1 14  1  0  0  0
  1 27  1  0  0  0
  2  3  2  0  0  0
  2 11  1  0  0  0
  3  4  1  0  0  0
  3 28  1  0  0  0
  4  5  1  0  0  0
  4  9  2  0  0  0
  5  6  2  0  0  0
  5 29  1  0  0  0
  6  7  1  0  0  0
  6 15  1  0  0  0
  7  8  2  0  0  0
  7 30  1  0  0  0
  8  9  1  0  0  0
  8 24  1  0  0  0
  9 10  1  0  0  0
 11 12  2  0  0  0
 11 13  1  0  0  0
 13 31  1  0  0  0
 14 21  1  0  0  0
 14 22  1  0  0  0
 14 23  1  0  0  0
 15 16  1  0  0  0
 15 17  1  0  0  0
 15 18  1  0  0  0
 15 19  1  0  0  0
 15 20  1  0  0  0
 24 25  1  0  0  0
 24 32  1  0  0  0
 24 33  1  0  0  0
 25 26  1  0  0  0
 25 34  1  0  0  0
 25 35  1  0  0  0
 26 36  1  0  0  0
 26 37  1  0  0  0
 26 38  1  0  0  0
M  END
> <s_m_entry_id>
5265

> <s_m_entry_name>
dock_pv.256

> <s_m_Source_Path>
/home/csk/Desktop/cluster/DUD-E-result/pgh1

> <s_m_Source_File>
dock_pv.maegz

> <i_m_Source_File_Index>
256

> <chembl_id>
CHEMBL4069602

> <chembl_pref_name>
None

> <i_lp_mmshare_version>
53161

> <r_lp_tautomer_probability>
1

> <s_lp_Force_Field>
OPLS_2005

> <r_lp_Energy>
12.814521

> <b_lp_Chiralities_Consistent>
1

> <s_lp_Variant>
CHEMBL221_lig996-1

> <s_i_glide_gridfile>
glide-grid_2oyu

> <i_i_glide_lignum>
1243

> <i_i_glide_rotatable_bonds>
6

> <r_i_docking_score>
-8.53518855747885

> <r_i_glide_ligand_efficiency>
-0.328276482979956

> <r_i_glide_ligand_efficiency_sa>
-0.972517789122533

> <r_i_glide_ligand_efficiency_ln>
-2.00446102648596

> <r_i_glide_gscore>
-8.53518855747885

> <r_i_glide_lipo>
-3.89276336796739

> <r_i_glide_hbond>
0

> <r_i_glide_metal>
0

> <r_i_glide_rewards>
-2.61055918872252

> <r_i_glide_evdw>
-33.729663848877

> <r_i_glide_ecoul>
-3.32107257843018

> <r_i_glide_erotb>
0.23198774079407

> <r_i_glide_esite>
-0.0792096623746378

> <r_i_glide_emodel>
-50.6521593932542

> <r_i_glide_energy>
-37.0507364273071

> <r_i_glide_einternal>
5.75762701034546

> <i_i_glide_confnum>
2

> <i_i_glide_posenum>
303

> <r_i_glide_eff_state_penalty>
0

> <s_user_duplicate_titles>
CHEMBL221_lig996

> <i_f3d_flags>
0

> <s_m_subgroup_title>
dock_pv

> <s_m_subgroupid>
dock_pv

> <b_m_subgroup_collapsed>
1

$$$$
CHEMBL221_lig852
                    3D
 Schrodinger Suite 2021-1.
 35 37  0  0  1  0            999 V2000
   20.0063   48.8129   14.1283 C   0  0  0  0  0  0
   19.7533   48.6182   12.7690 C   0  0  0  0  0  0
   20.3313   49.4351   11.7776 C   0  0  0  0  0  0
   20.8122   49.8684   14.5462 C   0  0  0  0  0  0
   19.3150   47.7466   15.2969 Cl  0  0  0  0  0  0
   21.3540   50.7321   13.6000 C   0  0  0  0  0  0
   21.1485   50.4948   12.2338 C   0  0  0  0  0  0
   21.6900   51.3746   11.3128 O   0  0  0  0  0  0
   22.9230   52.0461   11.6261 C   0  0  1  0  0  0
   22.9651   52.4889   13.0868 C   0  0  0  0  0  0
   22.1927   51.8628   13.9905 C   0  0  0  0  0  0
   24.1278   51.2429   11.1602 C   0  0  0  0  0  0
   25.1954   52.0248   11.0000 F   0  0  0  0  0  0
   24.4204   50.2730   12.0098 F   0  0  0  0  0  0
   23.8840   50.6730    9.9886 F   0  0  0  0  0  0
   23.6919   53.6860   13.4000 C   0  0  0  0  0  0
   22.8502   54.6730   13.8000 O   0  0  0  0  0  0
   24.9040   53.8277   13.2657 O   0  0  0  0  0  0
   20.0927   49.1409   10.3125 C   0  0  0  0  0  0
   20.2177   50.1149    9.3151 C   0  0  0  0  0  0
   20.1230   49.7989    7.9597 C   0  0  0  0  0  0
   19.7230   48.5290    7.5707 C   0  0  0  0  0  0
   19.5266   47.5487    8.5359 C   0  0  0  0  0  0
   19.7230   47.8587    9.8829 C   0  0  0  0  0  0
   19.4997   48.2730    6.2461 O   0  0  0  0  0  0
   19.0949   47.8061   12.5014 H   0  0  0  0  0  0
   20.9928   50.0212   15.6008 H   0  0  0  0  0  0
   22.9232   52.9316   11.0000 H   0  0  0  0  0  0
   22.1495   52.2290   15.0055 H   0  0  0  0  0  0
   23.3230   55.4931   13.9930 H   0  0  0  0  0  0
   20.4106   51.1441    9.5406 H   0  0  0  0  0  0
   20.2317   50.5820    7.2228 H   0  0  0  0  0  0
   19.2106   46.5623    8.2434 H   0  0  0  0  0  0
   19.5927   47.0730   10.6026 H   0  0  0  0  0  0
   19.5379   49.0683    5.7088 H   0  0  0  0  0  0
  1  2  2  0  0  0
  1  4  1  0  0  0
  1  5  1  0  0  0
  2  3  1  0  0  0
  2 26  1  0  0  0
  3  7  2  0  0  0
  3 19  1  0  0  0
  4  6  2  0  0  0
  4 27  1  0  0  0
  6  7  1  0  0  0
  6 11  1  0  0  0
  7  8  1  0  0  0
  8  9  1  0  0  0
  9 12  1  0  0  0
  9 10  1  0  0  0
  9 28  1  0  0  0
 10 16  1  0  0  0
 10 11  2  0  0  0
 11 29  1  0  0  0
 12 13  1  0  0  0
 12 14  1  0  0  0
 12 15  1  0  0  0
 16 17  1  0  0  0
 16 18  2  0  0  0
 17 30  1  0  0  0
 19 20  2  0  0  0
 19 24  1  0  0  0
 20 21  1  0  0  0
 20 31  1  0  0  0
 21 22  2  0  0  0
 21 32  1  0  0  0
 22 23  1  0  0  0
 22 25  1  0  0  0
 23 24  2  0  0  0
 23 33  1  0  0  0
 24 34  1  0  0  0
 25 35  1  0  0  0
M  END
> <s_m_entry_id>
5266

> <s_m_entry_name>
dock_pv.257

> <s_m_Source_Path>
/home/csk/Desktop/cluster/DUD-E-result/pgh1

> <s_m_Source_File>
dock_pv.maegz

> <i_m_Source_File_Index>
257

> <chembl_id>
CHEMBL1669030

> <chembl_pref_name>
None

> <i_lp_mmshare_version>
53161

> <r_lp_tautomer_probability>
0.999999999997365

> <s_lp_Force_Field>
OPLS_2005

> <r_lp_Energy>
19.266373

> <b_lp_Chiralities_Consistent>
1

> <s_lp_Variant>
CHEMBL221_lig852-2

> <s_i_glide_gridfile>
glide-grid_2oyu

> <i_i_glide_lignum>
1048

> <i_i_glide_rotatable_bonds>
5

> <r_i_docking_score>
-8.52352668295612

> <r_i_glide_ligand_efficiency>
-0.340941067318245

> <r_i_glide_ligand_efficiency_sa>
-0.996917727454123

> <r_i_glide_ligand_efficiency_ln>
-2.0203312533434

> <r_i_glide_gscore>
-8.52352668295612

> <r_i_glide_lipo>
-4.49441323274167

> <r_i_glide_hbond>
-0.175930951866163

> <r_i_glide_metal>
0

> <r_i_glide_rewards>
-2.03003828554806

> <r_i_glide_evdw>
-26.2125625610352

> <r_i_glide_ecoul>
-5.28002834320068

> <r_i_glide_erotb>
0.280811595030422

> <r_i_glide_esite>
-0.00132342829878726

> <r_i_glide_emodel>
-40.8240966480961

> <r_i_glide_energy>
-31.4925909042358

> <r_i_glide_einternal>
8.89896488189697

> <i_i_glide_confnum>
1

> <i_i_glide_posenum>
257

> <r_i_glide_eff_state_penalty>
0

> <s_user_duplicate_titles>
CHEMBL221_lig852

> <i_f3d_flags>
0

> <s_m_subgroup_title>
dock_pv

> <s_m_subgroupid>
dock_pv

> <b_m_subgroup_collapsed>
1

$$$$
CHEMBL221_lig477
                    3D
 Schrodinger Suite 2021-1.
 38 40  0  0  1  0            999 V2000
   20.7436   49.8727   13.4806 C   0  0  0  0  0  0
   20.1212   48.7618    6.5228 S   0  0  0  0  0  0
   20.0399   49.0935   12.6261 C   0  0  0  0  0  0
   21.6804   50.9855   13.1782 C   0  0  0  0  0  0
   20.5217   49.4712   14.8733 C   0  0  0  0  0  0
   19.1902   48.0931   13.3954 C   0  0  0  0  0  0
   20.0801   49.0051    8.3196 C   0  0  0  0  0  0
   19.9602   49.1628   11.1369 C   0  0  0  0  0  0
   20.1230   47.3333    6.3589 O   0  0  0  0  0  0
   21.1915   49.4796    5.8570 O   0  0  0  0  0  0
   22.7343   50.8746   12.2581 C   0  0  0  0  0  0
   21.5110   52.1985   13.8584 C   0  0  0  0  0  0
   22.3767   53.2641   13.6636 C   0  0  0  0  0  0
   23.6075   51.9506   12.0572 C   0  0  0  0  0  0
   19.5250   48.3299   14.8583 C   0  0  0  0  0  0
   23.4429   53.1287   12.7809 C   0  0  0  0  0  0
   21.0312   49.9907   15.8635 O   0  0  0  0  0  0
   20.1232   50.2490    8.9639 C   0  0  0  0  0  0
   19.7518   47.8825    9.0844 C   0  0  0  0  0  0
   20.1279   50.3234   10.3651 C   0  0  0  0  0  0
   19.7124   47.9692   10.4644 C   0  0  0  0  0  0
   18.5257   49.3141    5.7982 C   0  0  0  0  0  0
   22.1008   54.7426   14.5076 Cl  0  0  0  0  0  0
   24.8847   51.8619   10.9037 Cl  0  0  0  0  0  0
   18.1262   48.2478   13.2080 H   0  0  0  0  0  0
   19.4162   47.0578   13.1407 H   0  0  0  0  0  0
   22.8820   49.9569   11.7075 H   0  0  0  0  0  0
   20.6992   52.3161   14.5627 H   0  0  0  0  0  0
   18.6416   48.6037   15.4355 H   0  0  0  0  0  0
   19.9670   47.4500   15.3255 H   0  0  0  0  0  0
   24.1256   53.9513   12.6351 H   0  0  0  0  0  0
   20.2327   51.1407    8.3672 H   0  0  0  0  0  0
   19.5820   46.9188    8.6293 H   0  0  0  0  0  0
   20.2518   51.2854   10.8404 H   0  0  0  0  0  0
   19.5198   47.0715   11.0142 H   0  0  0  0  0  0
   18.6608   49.3952    4.7211 H   0  0  0  0  0  0
   18.2413   50.2704    6.1988 H   0  0  0  0  0  0
   17.7581   48.5696    5.9911 H   0  0  0  0  0  0
  1  3  2  0  0  0
  1  4  1  0  0  0
  1  5  1  0  0  0
  2  7  1  0  0  0
  2  9  2  0  0  0
  2 10  2  0  0  0
  2 22  1  0  0  0
  3  6  1  0  0  0
  3  8  1  0  0  0
  4 11  2  0  0  0
  4 12  1  0  0  0
  5 15  1  0  0  0
  5 17  2  0  0  0
  6 15  1  0  0  0
  6 25  1  0  0  0
  6 26  1  0  0  0
  7 19  1  0  0  0
  7 18  2  0  0  0
  8 20  2  0  0  0
  8 21  1  0  0  0
 11 14  1  0  0  0
 11 27  1  0  0  0
 12 13  2  0  0  0
 12 28  1  0  0  0
 13 16  1  0  0  0
 13 23  1  0  0  0
 14 24  1  0  0  0
 14 16  2  0  0  0
 15 29  1  0  0  0
 15 30  1  0  0  0
 16 31  1  0  0  0
 18 20  1  0  0  0
 18 32  1  0  0  0
 19 21  2  0  0  0
 19 33  1  0  0  0
 20 34  1  0  0  0
 21 35  1  0  0  0
 22 36  1  0  0  0
 22 37  1  0  0  0
 22 38  1  0  0  0
M  END
> <s_m_entry_id>
5267

> <s_m_entry_name>
dock_pv.258

> <s_m_Source_Path>
/home/csk/Desktop/cluster/DUD-E-result/pgh1

> <s_m_Source_File>
dock_pv.maegz

> <i_m_Source_File_Index>
258

> <chembl_id>
CHEMBL282924

> <chembl_pref_name>
None

> <i_lp_mmshare_version>
53161

> <r_lp_tautomer_probability>
0.499977396165832

> <s_lp_Force_Field>
OPLS_2005

> <r_lp_Energy>
19.989986

> <b_lp_Chiralities_Consistent>
1

> <s_lp_Variant>
CHEMBL221_lig477-1

> <s_i_glide_gridfile>
glide-grid_2oyu

> <i_i_glide_lignum>
600

> <i_i_glide_rotatable_bonds>
3

> <r_i_docking_score>
-8.5052765813971

> <r_i_glide_ligand_efficiency>
-0.354386524224879

> <r_i_glide_ligand_efficiency_sa>
-1.02222762348924

> <r_i_glide_ligand_efficiency_ln>
-2.03570296763955

> <r_i_glide_gscore>
-8.5052765813971

> <r_i_glide_lipo>
-4.44065207115774

> <r_i_glide_hbond>
0

> <r_i_glide_metal>
0

> <r_i_glide_rewards>
-2.60514960900634

> <r_i_glide_evdw>
-22.3518466949463

> <r_i_glide_ecoul>
-4.04101371765137

> <r_i_glide_erotb>
0.267034758937991

> <r_i_glide_esite>
-0.00276526777599276

> <r_i_glide_emodel>
-31.17469187415

> <r_i_glide_energy>
-26.3928604125977

> <r_i_glide_einternal>
1.75307536125183

> <i_i_glide_confnum>
2

> <i_i_glide_posenum>
311

> <r_i_glide_eff_state_penalty>
0

> <s_user_duplicate_titles>
CHEMBL221_lig477

> <i_f3d_flags>
0

> <s_m_subgroup_title>
dock_pv

> <s_m_subgroupid>
dock_pv

> <b_m_subgroup_collapsed>
1

$$$$
CHEMBL221_lig747
                    3D
 Schrodinger Suite 2021-1.
 43 45  0  0  1  0            999 V2000
   19.1196   47.8735   12.7727 C   0  0  0  0  0  0
   19.8677   48.7997   12.0342 C   0  0  0  0  0  0
   20.5779   49.7645   12.6581 N   0  0  0  0  0  0
   20.5856   49.7887   14.0137 C   0  0  0  0  0  0
   19.8843   48.9441   14.8097 N   0  0  0  0  0  0
   19.1235   48.0064   14.1712 C   0  0  0  0  0  0
   19.9024   48.8652   10.5452 C   0  0  0  0  0  0
   19.7230   47.7174    9.7676 C   0  0  0  0  0  0
   19.7230   47.7719    8.3787 C   0  0  0  0  0  0
   19.9307   48.9925    7.7481 C   0  0  0  0  0  0
   20.1230   50.1459    8.5049 C   0  0  0  0  0  0
   20.1230   50.0840    9.8890 C   0  0  0  0  0  0
   18.2029   47.1477   15.0360 C   0  0  0  0  0  0
   18.2366   47.4905   16.3243 F   0  0  0  0  0  0
   16.9463   47.2794   14.6096 F   0  0  0  0  0  0
   18.5555   45.8678   14.9323 F   0  0  0  0  0  0
   19.8914   49.1235    5.9806 S   0  0  0  0  0  0
   18.1231   49.3900    5.5543 C   0  0  0  0  0  0
   20.1756   47.8288    5.4000 O   0  0  0  0  0  0
   20.7074   50.2726    5.6082 O   0  0  0  0  0  0
   21.3087   50.7817   14.6559 O   0  0  0  0  0  0
   22.1157   51.6607   13.9541 C   0  0  0  0  0  0
   22.0216   53.0302   14.2001 C   0  0  0  0  0  0
   22.8833   53.9264   13.5673 C   0  0  0  0  0  0
   23.8301   53.4558   12.6605 C   0  0  0  0  0  0
   23.8559   52.1068   12.3234 C   0  0  0  0  0  0
   23.0430   51.2101   13.0084 C   0  0  0  0  0  0
   24.7608   51.5977   11.2321 C   0  0  0  0  0  0
   18.5209   47.1199   12.2838 H   0  0  0  0  0  0
   19.6271   46.7586   10.2439 H   0  0  0  0  0  0
   19.5768   46.8746    7.8001 H   0  0  0  0  0  0
   20.2403   51.1017    8.0145 H   0  0  0  0  0  0
   20.2592   51.0019   10.4431 H   0  0  0  0  0  0
   18.1230   49.4730    4.4761 H   0  0  0  0  0  0
   17.7320   50.2730    6.0496 H   0  0  0  0  0  0
   17.5725   48.4906    5.8000 H   0  0  0  0  0  0
   21.3230   53.3964   14.9354 H   0  0  0  0  0  0
   22.8440   54.9787   13.8108 H   0  0  0  0  0  0
   24.5230   54.1433   12.2001 H   0  0  0  0  0  0
   23.1238   50.1540   12.7978 H   0  0  0  0  0  0
   25.7229   52.1095   11.2371 H   0  0  0  0  0  0
   24.9230   50.5333   11.3988 H   0  0  0  0  0  0
   24.3036   51.7367   10.2519 H   0  0  0  0  0  0
  1  2  2  0  0  0
  1  6  1  0  0  0
  1 29  1  0  0  0
  2  7  1  0  0  0
  2  3  1  0  0  0
  3  4  2  0  0  0
  4  5  1  0  0  0
  4 21  1  0  0  0
  5  6  2  0  0  0
  6 13  1  0  0  0
  7  8  2  0  0  0
  7 12  1  0  0  0
  8  9  1  0  0  0
  8 30  1  0  0  0
  9 10  2  0  0  0
  9 31  1  0  0  0
 10 17  1  0  0  0
 10 11  1  0  0  0
 11 12  2  0  0  0
 11 32  1  0  0  0
 12 33  1  0  0  0
 13 14  1  0  0  0
 13 15  1  0  0  0
 13 16  1  0  0  0
 17 18  1  0  0  0
 17 19  2  0  0  0
 17 20  2  0  0  0
 18 34  1  0  0  0
 18 35  1  0  0  0
 18 36  1  0  0  0
 21 22  1  0  0  0
 22 23  2  0  0  0
 22 27  1  0  0  0
 23 24  1  0  0  0
 23 37  1  0  0  0
 24 25  2  0  0  0
 24 38  1  0  0  0
 25 26  1  0  0  0
 25 39  1  0  0  0
 26 27  2  0  0  0
 26 28  1  0  0  0
 27 40  1  0  0  0
 28 41  1  0  0  0
 28 42  1  0  0  0
 28 43  1  0  0  0
M  END
> <s_m_entry_id>
5268

> <s_m_entry_name>
dock_pv.259

> <s_m_Source_Path>
/home/csk/Desktop/cluster/DUD-E-result/pgh1

> <s_m_Source_File>
dock_pv.maegz

> <i_m_Source_File_Index>
259

> <chembl_id>
CHEMBL550737

> <chembl_pref_name>
None

> <i_lp_mmshare_version>
53161

> <r_lp_tautomer_probability>
1

> <s_lp_Force_Field>
OPLS_2005

> <r_lp_Energy>
15.178838

> <b_lp_Chiralities_Consistent>
1

> <s_lp_Variant>
CHEMBL221_lig747-1

> <s_i_glide_gridfile>
glide-grid_2oyu

> <i_i_glide_lignum>
916

> <i_i_glide_rotatable_bonds>
5

> <r_i_docking_score>
-8.49967160740626

> <r_i_glide_ligand_efficiency>
-0.303559700264509

> <r_i_glide_ligand_efficiency_sa>
-0.921786037105231

> <r_i_glide_ligand_efficiency_ln>
-1.96197376819187

> <r_i_glide_gscore>
-8.49967160740626

> <r_i_glide_lipo>
-4.06447934452841

> <r_i_glide_hbond>
0

> <r_i_glide_metal>
0

> <r_i_glide_rewards>
-2.84746576453236

> <r_i_glide_evdw>
-19.4355983734131

> <r_i_glide_ecoul>
-6.03790235519409

> <r_i_glide_erotb>
0.354001621459922

> <r_i_glide_esite>
-0.0642628478556512

> <r_i_glide_emodel>
-30.3313273454661

> <r_i_glide_energy>
-25.4735007286072

> <r_i_glide_einternal>
5.77319097518921

> <i_i_glide_confnum>
3

> <i_i_glide_posenum>
38

> <r_i_glide_eff_state_penalty>
0

> <s_user_duplicate_titles>
CHEMBL221_lig747

> <i_f3d_flags>
0

> <s_m_subgroup_title>
dock_pv

> <s_m_subgroupid>
dock_pv

> <b_m_subgroup_collapsed>
1

$$$$
CHEMBL221_lig453
                    3D
 Schrodinger Suite 2021-1.
 39 41  0  0  1  0            999 V2000
   20.6588   49.5183   13.2883 C   0  0  0  0  0  0
   20.0131   48.8877    6.3734 S   0  0  0  0  0  0
   19.7521   49.0125   12.4425 C   0  0  0  0  0  0
   20.3087   49.2888   14.6891 C   0  0  0  0  0  0
   21.8923   49.9907   12.9713 O   0  0  0  0  0  0
   22.3022   51.2940   13.1551 C   0  0  0  0  0  0
   18.6078   48.3649   13.1947 C   0  0  0  0  0  0
   20.0054   48.9879    8.1660 C   0  0  0  0  0  0
   19.8386   49.0615   10.9690 C   0  0  0  0  0  0
   20.1230   47.4737    6.0514 O   0  0  0  0  0  0
   20.9229   49.8728    5.8001 O   0  0  0  0  0  0
   21.5467   52.3213   13.7381 C   0  0  0  0  0  0
   23.5855   51.5813   12.6933 C   0  0  0  0  0  0
   24.1268   52.8541   12.8340 C   0  0  0  0  0  0
   22.0737   53.6114   13.8331 C   0  0  0  0  0  0
   18.9926   48.5227   14.6658 C   0  0  0  0  0  0
   23.3690   53.8732   13.4000 C   0  0  0  0  0  0
   20.9383   49.6562   15.6760 O   0  0  0  0  0  0
   19.7230   47.8281    8.8878 C   0  0  0  0  0  0
   20.1230   50.2022    8.8525 C   0  0  0  0  0  0
   19.6457   47.8756   10.2729 C   0  0  0  0  0  0
   20.1079   50.2324   10.2507 C   0  0  0  0  0  0
   18.3410   49.3196    5.8000 C   0  0  0  0  0  0
   25.3890   53.0932   12.4229 F   0  0  0  0  0  0
   21.3290   54.6158   14.3445 F   0  0  0  0  0  0
   17.6522   48.8533   13.0000 H   0  0  0  0  0  0
   18.4960   47.3110   12.9373 H   0  0  0  0  0  0
   20.5517   52.1405   14.1074 H   0  0  0  0  0  0
   24.1776   50.7992   12.2403 H   0  0  0  0  0  0
   18.2332   49.0722   15.2225 H   0  0  0  0  0  0
   19.1209   47.5574   15.1557 H   0  0  0  0  0  0
   23.7815   54.8666   13.5032 H   0  0  0  0  0  0
   19.5717   46.8852    8.3840 H   0  0  0  0  0  0
   20.2683   51.1135    8.2918 H   0  0  0  0  0  0
   19.4533   46.9827   10.8309 H   0  0  0  0  0  0
   20.2483   51.1706   10.7681 H   0  0  0  0  0  0
   18.3760   49.3529    4.7138 H   0  0  0  0  0  0
   18.0163   50.2729    6.1998 H   0  0  0  0  0  0
   17.7231   48.4922    6.1042 H   0  0  0  0  0  0
  1  3  2  0  0  0
  1  4  1  0  0  0
  1  5  1  0  0  0
  2  8  1  0  0  0
  2 10  2  0  0  0
  2 11  2  0  0  0
  2 23  1  0  0  0
  3  7  1  0  0  0
  3  9  1  0  0  0
  4 16  1  0  0  0
  4 18  2  0  0  0
  5  6  1  0  0  0
  6 12  2  0  0  0
  6 13  1  0  0  0
  7 16  1  0  0  0
  7 26  1  0  0  0
  7 27  1  0  0  0
  8 20  2  0  0  0
  8 19  1  0  0  0
  9 21  1  0  0  0
  9 22  2  0  0  0
 12 15  1  0  0  0
 12 28  1  0  0  0
 13 14  2  0  0  0
 13 29  1  0  0  0
 14 17  1  0  0  0
 14 24  1  0  0  0
 15 25  1  0  0  0
 15 17  2  0  0  0
 16 30  1  0  0  0
 16 31  1  0  0  0
 17 32  1  0  0  0
 19 21  2  0  0  0
 19 33  1  0  0  0
 20 22  1  0  0  0
 20 34  1  0  0  0
 21 35  1  0  0  0
 22 36  1  0  0  0
 23 37  1  0  0  0
 23 38  1  0  0  0
 23 39  1  0  0  0
M  END
> <s_m_entry_id>
5269

> <s_m_entry_name>
dock_pv.260

> <s_m_Source_Path>
/home/csk/Desktop/cluster/DUD-E-result/pgh1

> <s_m_Source_File>
dock_pv.maegz

> <i_m_Source_File_Index>
260

> <chembl_id>
CHEMBL23610

> <chembl_pref_name>
None

> <i_lp_mmshare_version>
53161

> <r_lp_tautomer_probability>
0.999999999918485

> <s_lp_Force_Field>
OPLS_2005

> <r_lp_Energy>
25.994037

> <b_lp_Chiralities_Consistent>
1

> <s_lp_Variant>
CHEMBL221_lig453-1

> <s_i_glide_gridfile>
glide-grid_2oyu

> <i_i_glide_lignum>
544

> <i_i_glide_rotatable_bonds>
4

> <r_i_docking_score>
-8.49348555721983

> <r_i_glide_ligand_efficiency>
-0.339739422288793

> <r_i_glide_ligand_efficiency_sa>
-0.993404096076742

> <r_i_glide_ligand_efficiency_ln>
-2.013210606284

> <r_i_glide_gscore>
-8.49348555721983

> <r_i_glide_lipo>
-3.99064833945014

> <r_i_glide_hbond>
0

> <r_i_glide_metal>
0

> <r_i_glide_rewards>
-3.08608137743894

> <r_i_glide_evdw>
-18.000415802002

> <r_i_glide_ecoul>
-6.24882316589355

> <r_i_glide_erotb>
0.43440316552257

> <r_i_glide_esite>
-0.0138147408691888

> <r_i_glide_emodel>
-26.3224036068153

> <r_i_glide_energy>
-24.2492389678955

> <r_i_glide_einternal>
4.57870769500732

> <i_i_glide_confnum>
25

> <i_i_glide_posenum>
98

> <r_i_glide_eff_state_penalty>
0

> <s_user_duplicate_titles>
CHEMBL221_lig453

> <i_f3d_flags>
0

> <s_m_subgroup_title>
dock_pv

> <s_m_subgroupid>
dock_pv

> <b_m_subgroup_collapsed>
1

$$$$
CHEMBL221_lig143
                    3D
 Schrodinger Suite 2021-1.
 42 44  0  0  1  0            999 V2000
   19.6277   48.7798   12.2683 N   0  0  0  0  0  0
   18.7158   48.0415   14.2001 N   0  0  0  0  0  0
   20.3120   49.3548   13.3205 C   0  0  0  0  0  0
   18.6701   48.0154   12.8961 C   0  0  0  0  0  0
   19.9786   48.8812    6.2653 S   0  0  0  0  0  0
   19.7232   48.8426   14.4760 C   0  0  0  0  0  0
   19.8157   48.8812   10.8638 C   0  0  0  0  0  0
   19.9603   48.9253    8.0613 C   0  0  0  0  0  0
   21.4574   50.2745   13.1816 C   0  0  0  0  0  0
   20.9228   49.8730    5.7580 O   0  0  0  0  0  0
   20.1230   47.4794    5.9034 O   0  0  0  0  0  0
   20.1230   50.1097    8.7995 C   0  0  0  0  0  0
   19.7376   47.7275    8.7364 C   0  0  0  0  0  0
   20.0538   50.0925   10.1999 C   0  0  0  0  0  0
   19.7230   47.7094   10.1210 C   0  0  0  0  0  0
   20.1830   49.1571   16.1003 Cl  0  0  0  0  0  0
   22.4915   49.9088   12.3277 C   0  0  0  0  0  0
   21.5230   51.4619   13.9143 C   0  0  0  0  0  0
   18.2869   49.3350    5.6646 C   0  0  0  0  0  0
   23.6382   51.9519   12.8850 C   0  0  0  0  0  0
   24.9817   53.0730   12.6267 S   0  0  0  0  0  0
   22.6115   52.3117   13.7536 C   0  0  0  0  0  0
   23.5892   50.7322   12.2001 C   0  0  0  0  0  0
   25.6312   52.5725   11.0022 C   0  0  0  0  0  0
   24.5475   52.6730    9.9371 C   0  0  0  0  0  0
   17.9528   47.4732   12.3017 H   0  0  0  0  0  0
   20.2582   51.0495    8.2815 H   0  0  0  0  0  0
   19.6287   46.7972    8.2003 H   0  0  0  0  0  0
   20.1374   51.0188   10.7511 H   0  0  0  0  0  0
   19.6671   46.7633   10.6312 H   0  0  0  0  0  0
   22.4675   48.9711   11.7921 H   0  0  0  0  0  0
   20.7290   51.7354   14.5935 H   0  0  0  0  0  0
   18.3967   49.4730    4.5941 H   0  0  0  0  0  0
   17.6223   48.4906    5.8000 H   0  0  0  0  0  0
   17.9320   50.2391    6.1511 H   0  0  0  0  0  0
   22.6515   53.2484   14.2904 H   0  0  0  0  0  0
   24.3843   50.3785   11.5678 H   0  0  0  0  0  0
   25.9624   51.5491   11.0000 H   0  0  0  0  0  0
   26.5534   53.0749   10.7401 H   0  0  0  0  0  0
   24.9232   53.0728    9.0002 H   0  0  0  0  0  0
   23.7232   53.3228   10.2361 H   0  0  0  0  0  0
   24.1234   51.6856    9.7625 H   0  0  0  0  0  0
  1  3  1  0  0  0
  1  4  1  0  0  0
  1  7  1  0  0  0
  2  4  2  0  0  0
  2  6  1  0  0  0
  3  6  2  0  0  0
  3  9  1  0  0  0
  4 26  1  0  0  0
  5  8  1  0  0  0
  5 10  2  0  0  0
  5 11  2  0  0  0
  5 19  1  0  0  0
  6 16  1  0  0  0
  7 14  1  0  0  0
  7 15  2  0  0  0
  8 13  2  0  0  0
  8 12  1  0  0  0
  9 17  2  0  0  0
  9 18  1  0  0  0
 12 14  2  0  0  0
 12 27  1  0  0  0
 13 15  1  0  0  0
 13 28  1  0  0  0
 14 29  1  0  0  0
 15 30  1  0  0  0
 17 23  1  0  0  0
 17 31  1  0  0  0
 18 22  2  0  0  0
 18 32  1  0  0  0
 19 33  1  0  0  0
 19 34  1  0  0  0
 19 35  1  0  0  0
 20 22  1  0  0  0
 20 21  1  0  0  0
 20 23  2  0  0  0
 21 24  1  0  0  0
 22 36  1  0  0  0
 23 37  1  0  0  0
 24 25  1  0  0  0
 24 38  1  0  0  0
 24 39  1  0  0  0
 25 40  1  0  0  0
 25 41  1  0  0  0
 25 42  1  0  0  0
M  END
> <s_m_entry_id>
5270

> <s_m_entry_name>
dock_pv.261

> <s_m_Source_Path>
/home/csk/Desktop/cluster/DUD-E-result/pgh1

> <s_m_Source_File>
dock_pv.maegz

> <i_m_Source_File_Index>
261

> <chembl_id>
CHEMBL117547

> <chembl_pref_name>
None

> <i_lp_mmshare_version>
53161

> <r_lp_tautomer_probability>
1

> <s_lp_Force_Field>
OPLS_2005

> <r_lp_Energy>
11.855642

> <b_lp_Chiralities_Consistent>
1

> <s_lp_Variant>
CHEMBL221_lig143-1

> <s_i_glide_gridfile>
glide-grid_2oyu

> <i_i_glide_lignum>
165

> <i_i_glide_rotatable_bonds>
5

> <r_i_docking_score>
-8.48400732049069

> <r_i_glide_ligand_efficiency>
-0.339360292819628

> <r_i_glide_ligand_efficiency_sa>
-0.992295514785012

> <r_i_glide_ligand_efficiency_ln>
-2.01096398013936

> <r_i_glide_gscore>
-8.48400732049069

> <r_i_glide_lipo>
-4.38487265041913

> <r_i_glide_hbond>
0

> <r_i_glide_metal>
0

> <r_i_glide_rewards>
-2.6776079992992

> <r_i_glide_evdw>
-15.6843614578247

> <r_i_glide_ecoul>
-6.67027378082275

> <r_i_glide_erotb>
0.379487840661516

> <r_i_glide_esite>
-0.016255371419228

> <r_i_glide_emodel>
-42.559520480213

> <r_i_glide_energy>
-22.3546352386475

> <r_i_glide_einternal>
0.920361936092377

> <i_i_glide_confnum>
20

> <i_i_glide_posenum>
399

> <r_i_glide_eff_state_penalty>
0

> <s_user_duplicate_titles>
CHEMBL221_lig143

> <i_f3d_flags>
0

> <s_m_subgroup_title>
dock_pv

> <s_m_subgroupid>
dock_pv

> <b_m_subgroup_collapsed>
1

$$$$
CHEMBL221_lig128
                    3D
 Schrodinger Suite 2021-1.
 50 52  0  0  1  0            999 V2000
   19.8573   48.5234   11.6955 N   0  0  0  0  0  0
   20.5344   49.0606   12.7805 C   0  0  0  0  0  0
   20.0947   49.1332    5.7743 S   0  0  0  0  0  0
   19.0152   47.6038   12.2551 C   0  0  0  0  0  0
   19.1575   47.4234   13.5198 N   0  0  0  0  0  0
   20.0285   48.3386   13.8770 C   0  0  0  0  0  0
   19.9224   48.7558   10.3041 C   0  0  0  0  0  0
   19.9951   49.0361    7.5404 C   0  0  0  0  0  0
   21.5572   50.1541   12.7293 C   0  0  0  0  0  0
   20.9218   50.2730    5.4001 O   0  0  0  0  0  0
   20.4478   47.8471    5.2051 O   0  0  0  0  0  0
   20.1229   50.1596    8.3651 C   0  0  0  0  0  0
   19.7242   47.7989    8.0893 C   0  0  0  0  0  0
   20.1229   50.0238    9.7544 C   0  0  0  0  0  0
   19.7227   47.6586    9.4589 C   0  0  0  0  0  0
   21.5520   51.1801   13.6793 C   0  0  0  0  0  0
   22.5508   50.1334   11.7488 C   0  0  0  0  0  0
   18.2978   49.3402    5.3854 C   0  0  0  0  0  0
   23.5083   52.1454   12.6544 C   0  0  0  0  0  0
   22.5236   52.1778   13.6392 C   0  0  0  0  0  0
   23.5257   51.1260   11.7067 C   0  0  0  0  0  0
   24.4591   53.1052   12.6215 F   0  0  0  0  0  0
   20.2356   48.4854   15.3592 C   0  0  0  0  0  0
   18.9160   48.9467   15.9911 C   0  0  0  0  0  0
   16.6547   48.2729   16.9931 C   0  0  0  0  0  0
   18.0899   47.8436   16.6924 C   0  0  0  0  0  0
   16.5230   49.6518   17.6648 C   0  0  0  0  0  0
   18.3230   47.0730   11.6361 H   0  0  0  0  0  0
   20.2479   51.1371    7.9206 H   0  0  0  0  0  0
   19.5770   46.9483    7.4514 H   0  0  0  0  0  0
   20.2330   50.8987   10.3792 H   0  0  0  0  0  0
   19.5853   46.6730    9.8568 H   0  0  0  0  0  0
   20.7958   51.2107   14.4494 H   0  0  0  0  0  0
   22.5564   49.3449   11.0133 H   0  0  0  0  0  0
   18.2078   49.2864    4.3044 H   0  0  0  0  0  0
   17.7382   48.5065    5.7997 H   0  0  0  0  0  0
   17.9386   50.2742    5.8000 H   0  0  0  0  0  0
   22.5224   52.9719   14.3721 H   0  0  0  0  0  0
   24.2939   51.1053   10.9467 H   0  0  0  0  0  0
   21.0403   49.1830   15.5900 H   0  0  0  0  0  0
   20.5230   47.5325   15.8000 H   0  0  0  0  0  0
   18.2608   49.3342   15.2114 H   0  0  0  0  0  0
   19.1212   49.8161   16.6001 H   0  0  0  0  0  0
   16.1675   47.5083   17.6007 H   0  0  0  0  0  0
   16.1235   48.2731   16.0436 H   0  0  0  0  0  0
   18.5229   47.4730   17.6169 H   0  0  0  0  0  0
   18.0490   46.9741   16.0366 H   0  0  0  0  0  0
   15.4675   49.8717   17.8000 H   0  0  0  0  0  0
   16.9232   50.4524   17.0427 H   0  0  0  0  0  0
   17.0237   49.7095   18.6285 H   0  0  0  0  0  0
  1  2  1  0  0  0
  1  4  1  0  0  0
  1  7  1  0  0  0
  2  6  2  0  0  0
  2  9  1  0  0  0
  3  8  1  0  0  0
  3 10  2  0  0  0
  3 11  2  0  0  0
  3 18  1  0  0  0
  4  5  2  0  0  0
  4 28  1  0  0  0
  5  6  1  0  0  0
  6 23  1  0  0  0
  7 14  1  0  0  0
  7 15  2  0  0  0
  8 13  2  0  0  0
  8 12  1  0  0  0
  9 16  1  0  0  0
  9 17  2  0  0  0
 12 14  2  0  0  0
 12 29  1  0  0  0
 13 15  1  0  0  0
 13 30  1  0  0  0
 14 31  1  0  0  0
 15 32  1  0  0  0
 16 20  2  0  0  0
 16 33  1  0  0  0
 17 21  1  0  0  0
 17 34  1  0  0  0
 18 35  1  0  0  0
 18 36  1  0  0  0
 18 37  1  0  0  0
 19 21  2  0  0  0
 19 22  1  0  0  0
 19 20  1  0  0  0
 20 38  1  0  0  0
 21 39  1  0  0  0
 23 24  1  0  0  0
 23 40  1  0  0  0
 23 41  1  0  0  0
 24 26  1  0  0  0
 24 42  1  0  0  0
 24 43  1  0  0  0
 25 26  1  0  0  0
 25 27  1  0  0  0
 25 44  1  0  0  0
 25 45  1  0  0  0
 26 46  1  0  0  0
 26 47  1  0  0  0
 27 48  1  0  0  0
 27 49  1  0  0  0
 27 50  1  0  0  0
M  END
> <s_m_entry_id>
5271

> <s_m_entry_name>
dock_pv.262

> <s_m_Source_Path>
/home/csk/Desktop/cluster/DUD-E-result/pgh1

> <s_m_Source_File>
dock_pv.maegz

> <i_m_Source_File_Index>
262

> <chembl_id>
CHEMBL119076

> <chembl_pref_name>
None

> <i_lp_mmshare_version>
53161

> <r_lp_tautomer_probability>
1

> <s_lp_Force_Field>
OPLS_2005

> <r_lp_Energy>
9.631612

> <b_lp_Chiralities_Consistent>
1

> <s_lp_Variant>
CHEMBL221_lig128-1

> <s_i_glide_gridfile>
glide-grid_2oyu

> <i_i_glide_lignum>
150

> <i_i_glide_rotatable_bonds>
7

> <r_i_docking_score>
-8.48387377071318

> <r_i_glide_ligand_efficiency>
-0.314217547063451

> <r_i_glide_ligand_efficiency_sa>
-0.942652640154744

> <r_i_glide_ligand_efficiency_ln>
-1.97490594623167

> <r_i_glide_gscore>
-8.48387377071318

> <r_i_glide_lipo>
-4.59120412226433

> <r_i_glide_hbond>
0

> <r_i_glide_metal>
0

> <r_i_glide_rewards>
-2.98987268894942

> <r_i_glide_evdw>
-17.1453609466553

> <r_i_glide_ecoul>
-4.4888858795166

> <r_i_glide_erotb>
0.651532618664564

> <r_i_glide_esite>
-0.0237286489037454

> <r_i_glide_emodel>
-34.7638004927839

> <r_i_glide_energy>
-21.6342468261719

> <r_i_glide_einternal>
4.88766765594482

> <i_i_glide_confnum>
379

> <i_i_glide_posenum>
288

> <r_i_glide_eff_state_penalty>
0

> <s_user_duplicate_titles>
CHEMBL221_lig128

> <i_f3d_flags>
0

> <s_m_subgroup_title>
dock_pv

> <s_m_subgroupid>
dock_pv

> <b_m_subgroup_collapsed>
1

$$$$
CHEMBL221_lig467
                    3D
 Schrodinger Suite 2021-1.
 38 40  0  0  1  0            999 V2000
   20.4486   49.5812   13.4103 C   0  0  0  0  0  0
   20.0161   48.8920    6.3607 S   0  0  0  0  0  0
   19.8038   48.8707   12.4567 C   0  0  0  0  0  0
   21.4447   50.6641   13.2201 C   0  0  0  0  0  0
   23.3192   52.7349   12.8999 C   0  0  0  0  0  0
   23.3820   51.5925   12.0961 C   0  0  0  0  0  0
   22.2423   52.8955   13.7762 C   0  0  0  0  0  0
   20.1230   49.0730   14.7486 C   0  0  0  0  0  0
   22.4726   50.5535   12.2792 C   0  0  0  0  0  0
   21.3326   51.8562   13.9485 C   0  0  0  0  0  0
   18.8496   47.8697   13.0868 C   0  0  0  0  0  0
   20.0237   48.9995    8.1540 C   0  0  0  0  0  0
   19.8671   49.0131   10.9724 C   0  0  0  0  0  0
   20.1230   47.4765    6.0374 O   0  0  0  0  0  0
   20.9230   49.8730    5.7794 O   0  0  0  0  0  0
   19.0532   48.0139   14.5846 C   0  0  0  0  0  0
   20.6223   49.4691   15.8000 O   0  0  0  0  0  0
   19.7656   47.8269    8.8537 C   0  0  0  0  0  0
   20.1230   50.2033    8.8650 C   0  0  0  0  0  0
   19.7230   47.8433   10.2353 C   0  0  0  0  0  0
   20.0778   50.2088   10.2670 C   0  0  0  0  0  0
   24.5733   53.9247   12.8264 Cl  0  0  0  0  0  0
   21.9679   54.3906   14.6000 Cl  0  0  0  0  0  0
   24.5230   51.4730   10.8130 Cl  0  0  0  0  0  0
   18.3385   49.3205    5.8000 C   0  0  0  0  0  0
   22.5565   49.6662   11.6679 H   0  0  0  0  0  0
   20.5230   51.9906   14.6509 H   0  0  0  0  0  0
   17.8138   48.0803   12.8144 H   0  0  0  0  0  0
   19.0540   46.8401   12.7940 H   0  0  0  0  0  0
   18.1402   48.3316   15.0891 H   0  0  0  0  0  0
   19.3796   47.0814   15.0443 H   0  0  0  0  0  0
   19.6428   46.8856    8.3397 H   0  0  0  0  0  0
   20.2447   51.1272    8.3201 H   0  0  0  0  0  0
   19.6256   46.8999   10.7361 H   0  0  0  0  0  0
   20.1684   51.1477   10.7929 H   0  0  0  0  0  0
   18.3653   49.3544    4.7134 H   0  0  0  0  0  0
   18.0142   50.2729    6.2000 H   0  0  0  0  0  0
   17.7230   48.4924    6.1086 H   0  0  0  0  0  0
  1  3  2  0  0  0
  1  4  1  0  0  0
  1  8  1  0  0  0
  2 12  1  0  0  0
  2 14  2  0  0  0
  2 15  2  0  0  0
  2 25  1  0  0  0
  3 11  1  0  0  0
  3 13  1  0  0  0
  4  9  2  0  0  0
  4 10  1  0  0  0
  5  7  1  0  0  0
  5 22  1  0  0  0
  5  6  2  0  0  0
  6  9  1  0  0  0
  6 24  1  0  0  0
  7 10  2  0  0  0
  7 23  1  0  0  0
  8 16  1  0  0  0
  8 17  2  0  0  0
  9 26  1  0  0  0
 10 27  1  0  0  0
 11 16  1  0  0  0
 11 28  1  0  0  0
 11 29  1  0  0  0
 12 19  1  0  0  0
 12 18  2  0  0  0
 13 20  2  0  0  0
 13 21  1  0  0  0
 16 30  1  0  0  0
 16 31  1  0  0  0
 18 20  1  0  0  0
 18 32  1  0  0  0
 19 21  2  0  0  0
 19 33  1  0  0  0
 20 34  1  0  0  0
 21 35  1  0  0  0
 25 36  1  0  0  0
 25 37  1  0  0  0
 25 38  1  0  0  0
M  END
> <s_m_entry_id>
5272

> <s_m_entry_name>
dock_pv.263

> <s_m_Source_Path>
/home/csk/Desktop/cluster/DUD-E-result/pgh1

> <s_m_Source_File>
dock_pv.maegz

> <i_m_Source_File_Index>
263

> <chembl_id>
CHEMBL278392

> <chembl_pref_name>
None

> <i_lp_mmshare_version>
53161

> <r_lp_tautomer_probability>
0.499977396165832

> <s_lp_Force_Field>
OPLS_2005

> <r_lp_Energy>
21.076152

> <b_lp_Chiralities_Consistent>
1

> <s_lp_Variant>
CHEMBL221_lig467-1

> <s_i_glide_gridfile>
glide-grid_2oyu

> <i_i_glide_lignum>
578

> <i_i_glide_rotatable_bonds>
3

> <r_i_docking_score>
-8.48038087478554

> <r_i_glide_ligand_efficiency>
-0.339215234991421

> <r_i_glide_ligand_efficiency_sa>
-0.991871363122725

> <r_i_glide_ligand_efficiency_ln>
-2.01010440383143

> <r_i_glide_gscore>
-8.48038087478554

> <r_i_glide_lipo>
-4.60589569653759

> <r_i_glide_hbond>
0

> <r_i_glide_metal>
0

> <r_i_glide_rewards>
-2.12069420456855

> <r_i_glide_evdw>
-25.6601371765137

> <r_i_glide_ecoul>
-4.57016468048096

> <r_i_glide_erotb>
0.228551846626263

> <r_i_glide_esite>
-0.01381125940783

> <r_i_glide_emodel>
-31.8156345514081

> <r_i_glide_energy>
-30.2303018569946

> <r_i_glide_einternal>
0.309296011924744

> <i_i_glide_confnum>
12

> <i_i_glide_posenum>
210

> <r_i_glide_eff_state_penalty>
0

> <s_user_duplicate_titles>
CHEMBL221_lig467

> <i_f3d_flags>
0

> <s_m_subgroup_title>
dock_pv

> <s_m_subgroupid>
dock_pv

> <b_m_subgroup_collapsed>
1

$$$$
CHEMBL221_lig268
                    3D
 Schrodinger Suite 2021-1.
 33 35  0  0  1  0            999 V2000
   19.7131   48.8733   12.6618 C   0  0  0  0  0  0
   20.5228   49.4730   13.6313 C   0  0  0  0  0  0
   18.4936   47.8730   13.4000 S   0  0  0  0  0  0
   19.7746   48.9920   11.1708 C   0  0  0  0  0  0
   21.6306   50.4110   13.3306 C   0  0  0  0  0  0
   19.0883   48.2155   14.9804 C   0  0  0  0  0  0
   20.1678   49.0758   14.9343 C   0  0  0  0  0  0
   22.5719   50.0881   12.3489 C   0  0  0  0  0  0
   21.7230   51.6141   14.0311 C   0  0  0  0  0  0
   19.9566   50.2253   10.5391 C   0  0  0  0  0  0
   19.7229   47.8362   10.3951 C   0  0  0  0  0  0
   23.7489   52.1158   12.8398 C   0  0  0  0  0  0
   20.1230   49.1009    8.4004 C   0  0  0  0  0  0
   25.1983   53.0730   12.6000 S   0  0  0  0  0  0
   22.7819   52.4754   13.7774 C   0  0  0  0  0  0
   23.6354   50.9412   12.1057 C   0  0  0  0  0  0
   20.1230   50.2730    9.1562 C   0  0  0  0  0  0
   19.8625   47.8815    9.0109 C   0  0  0  0  0  0
   20.2734   49.1568    7.0573 F   0  0  0  0  0  0
   25.0293   54.6730   13.4000 C   0  0  0  0  0  0
   18.6156   47.7841   15.8507 H   0  0  0  0  0  0
   20.6825   49.4214   15.8192 H   0  0  0  0  0  0
   22.5044   49.1596   11.8002 H   0  0  0  0  0  0
   20.9863   51.8783   14.7762 H   0  0  0  0  0  0
   19.9893   51.1389   11.1147 H   0  0  0  0  0  0
   19.6427   46.8819   10.8835 H   0  0  0  0  0  0
   22.8589   53.3921   14.3389 H   0  0  0  0  0  0
   24.3881   50.6718   11.3776 H   0  0  0  0  0  0
   20.2768   51.2090    8.6468 H   0  0  0  0  0  0
   19.8346   46.9777    8.4221 H   0  0  0  0  0  0
   25.6969   55.3725   12.8982 H   0  0  0  0  0  0
   25.3230   54.6186   14.4460 H   0  0  0  0  0  0
   24.0160   55.0670   13.3318 H   0  0  0  0  0  0
  1  2  2  0  0  0
  1  3  1  0  0  0
  1  4  1  0  0  0
  2  5  1  0  0  0
  2  7  1  0  0  0
  3  6  1  0  0  0
  4 10  2  0  0  0
  4 11  1  0  0  0
  5  8  2  0  0  0
  5  9  1  0  0  0
  6  7  2  0  0  0
  6 21  1  0  0  0
  7 22  1  0  0  0
  8 16  1  0  0  0
  8 23  1  0  0  0
  9 15  2  0  0  0
  9 24  1  0  0  0
 10 17  1  0  0  0
 10 25  1  0  0  0
 11 18  2  0  0  0
 11 26  1  0  0  0
 12 15  1  0  0  0
 12 14  1  0  0  0
 12 16  2  0  0  0
 13 18  1  0  0  0
 13 19  1  0  0  0
 13 17  2  0  0  0
 14 20  1  0  0  0
 15 27  1  0  0  0
 16 28  1  0  0  0
 17 29  1  0  0  0
 18 30  1  0  0  0
 20 31  1  0  0  0
 20 32  1  0  0  0
 20 33  1  0  0  0
M  END
> <s_m_entry_id>
5273

> <s_m_entry_name>
dock_pv.264

> <s_m_Source_Path>
/home/csk/Desktop/cluster/DUD-E-result/pgh1

> <s_m_Source_File>
dock_pv.maegz

> <i_m_Source_File_Index>
264

> <chembl_id>
CHEMBL63286

> <chembl_pref_name>
None

> <i_lp_mmshare_version>
53161

> <r_lp_tautomer_probability>
1

> <s_lp_Force_Field>
OPLS_2005

> <r_lp_Energy>
15.507268

> <b_lp_Chiralities_Consistent>
1

> <s_lp_Variant>
CHEMBL221_lig268-1

> <s_i_glide_gridfile>
glide-grid_2oyu

> <i_i_glide_lignum>
301

> <i_i_glide_rotatable_bonds>
3

> <r_i_docking_score>
-8.47929307944149

> <r_i_glide_ligand_efficiency>
-0.423964653972075

> <r_i_glide_ligand_efficiency_sa>
-1.15081712440618

> <r_i_glide_ligand_efficiency_ln>
-2.12208739198125

> <r_i_glide_gscore>
-8.47929307944149

> <r_i_glide_lipo>
-4.98342001514658

> <r_i_glide_hbond>
0

> <r_i_glide_metal>
0

> <r_i_glide_rewards>
-2.27774828013013

> <r_i_glide_evdw>
-28.3523063659668

> <r_i_glide_ecoul>
-1.38569903373718

> <r_i_glide_erotb>
0.407345389194137

> <r_i_glide_esite>
0

> <r_i_glide_emodel>
-40.0978594192081

> <r_i_glide_energy>
-29.738005399704

> <r_i_glide_einternal>
0.481768310070038

> <i_i_glide_confnum>
14

> <i_i_glide_posenum>
108

> <r_i_glide_eff_state_penalty>
0

> <s_user_duplicate_titles>
CHEMBL221_lig268,104228

> <i_f3d_flags>
0

> <s_m_subgroup_title>
dock_pv

> <s_m_subgroupid>
dock_pv

> <b_m_subgroup_collapsed>
1

$$$$
CHEMBL221_lig160
                    3D
 Schrodinger Suite 2021-1.
 35 37  0  0  1  0            999 V2000
   20.0041   49.2181   12.7709 N   0  0  0  0  0  0
   20.0412   48.7607    6.7847 S   0  0  0  0  0  0
   20.8997   49.8730   13.5971 C   0  0  0  0  0  0
   19.4960   48.6730   14.9016 N   0  0  0  0  0  0
   19.1943   48.5167   13.6389 C   0  0  0  0  0  0
   20.5230   49.4972   14.8848 C   0  0  0  0  0  0
   19.9463   49.1904   11.3601 C   0  0  0  0  0  0
   20.1007   48.9925    8.5749 C   0  0  0  0  0  0
   22.0158   50.7483   13.1553 C   0  0  0  0  0  0
   19.4244   47.4730    6.6000 O   0  0  0  0  0  0
   21.3230   49.0730    6.1848 O   0  0  0  0  0  0
   19.7741   47.8733    9.3537 C   0  0  0  0  0  0
   20.1629   50.2438    9.1920 C   0  0  0  0  0  0
   19.7230   47.9664   10.7363 C   0  0  0  0  0  0
   20.1230   50.3441   10.5849 C   0  0  0  0  0  0
   22.1849   51.9926   13.7643 C   0  0  0  0  0  0
   22.9068   50.3199   12.1670 C   0  0  0  0  0  0
   18.9229   49.8705    5.9242 C   0  0  0  0  0  0
   24.1654   52.3459   12.4473 C   0  0  0  0  0  0
   23.2590   52.7969   13.4000 C   0  0  0  0  0  0
   23.9766   51.1283   11.8002 C   0  0  0  0  0  0
   25.2712   53.0731   12.1901 F   0  0  0  0  0  0
   18.3897   47.9080   13.2532 H   0  0  0  0  0  0
   21.0011   49.8136   15.8005 H   0  0  0  0  0  0
   19.6144   46.9055    8.9028 H   0  0  0  0  0  0
   20.2921   51.1237    8.5834 H   0  0  0  0  0  0
   19.5438   47.0730   11.3154 H   0  0  0  0  0  0
   20.2418   51.3112   11.0521 H   0  0  0  0  0  0
   21.4978   52.3302   14.5270 H   0  0  0  0  0  0
   22.7836   49.3538   11.7002 H   0  0  0  0  0  0
   19.0615   49.6635    4.8693 H   0  0  0  0  0  0
   19.3230   50.8081    6.2000 H   0  0  0  0  0  0
   17.8881   49.7310    6.2000 H   0  0  0  0  0  0
   23.4130   53.7506   13.8832 H   0  0  0  0  0  0
   24.6825   50.7948   11.0550 H   0  0  0  0  0  0
  1  3  1  0  0  0
  1  5  1  0  0  0
  1  7  1  0  0  0
  2  8  1  0  0  0
  2 10  2  0  0  0
  2 11  2  0  0  0
  2 18  1  0  0  0
  3  6  2  0  0  0
  3  9  1  0  0  0
  4  5  2  0  0  0
  4  6  1  0  0  0
  5 23  1  0  0  0
  6 24  1  0  0  0
  7 14  1  0  0  0
  7 15  2  0  0  0
  8 13  2  0  0  0
  8 12  1  0  0  0
  9 16  1  0  0  0
  9 17  2  0  0  0
 12 14  2  0  0  0
 12 25  1  0  0  0
 13 15  1  0  0  0
 13 26  1  0  0  0
 14 27  1  0  0  0
 15 28  1  0  0  0
 16 20  2  0  0  0
 16 29  1  0  0  0
 17 21  1  0  0  0
 17 30  1  0  0  0
 18 31  1  0  0  0
 18 32  1  0  0  0
 18 33  1  0  0  0
 19 21  2  0  0  0
 19 22  1  0  0  0
 19 20  1  0  0  0
 20 34  1  0  0  0
 21 35  1  0  0  0
M  END
> <s_m_entry_id>
5274

> <s_m_entry_name>
dock_pv.265

> <s_m_Source_Path>
/home/csk/Desktop/cluster/DUD-E-result/pgh1

> <s_m_Source_File>
dock_pv.maegz

> <i_m_Source_File_Index>
265

> <chembl_id>
CHEMBL325492

> <chembl_pref_name>
None

> <i_lp_mmshare_version>
53161

> <r_lp_tautomer_probability>
1

> <s_lp_Force_Field>
OPLS_2005

> <r_lp_Energy>
12.00454

> <b_lp_Chiralities_Consistent>
1

> <s_lp_Variant>
CHEMBL221_lig160-1

> <s_i_glide_gridfile>
glide-grid_2oyu

> <i_i_glide_lignum>
182

> <i_i_glide_rotatable_bonds>
3

> <r_i_docking_score>
-8.46791588264102

> <r_i_glide_ligand_efficiency>
-0.384905267392774

> <r_i_glide_ligand_efficiency_sa>
-1.07851969669973

> <r_i_glide_ligand_efficiency_ln>
-2.06986751645409

> <r_i_glide_gscore>
-8.46791588264102

> <r_i_glide_lipo>
-3.95280458707895

> <r_i_glide_hbond>
0

> <r_i_glide_metal>
0

> <r_i_glide_rewards>
-3.32243988976056

> <r_i_glide_evdw>
-13.904275894165

> <r_i_glide_ecoul>
-5.79652261734009

> <r_i_glide_erotb>
0.372020781507764

> <r_i_glide_esite>
0

> <r_i_glide_emodel>
-23.0156672950153

> <r_i_glide_energy>
-19.7007985115051

> <r_i_glide_einternal>
1.12811851501465

> <i_i_glide_confnum>
4

> <i_i_glide_posenum>
204

> <r_i_glide_eff_state_penalty>
0

> <s_user_duplicate_titles>
CHEMBL221_lig160

> <i_f3d_flags>
0

> <s_m_subgroup_title>
dock_pv

> <s_m_subgroupid>
dock_pv

> <b_m_subgroup_collapsed>
1

$$$$
CHEMBL221_lig1046 
                    3D
 Schrodinger Suite 2021-1.
 35 36  0  0  1  0            999 V2000
   20.9226   49.8730    5.6844 O   0  0  0  0  0  0
   19.9951   48.9041    6.2640 S   0  0  0  0  0  0
   20.1230   47.4868    5.9620 O   0  0  0  0  0  0
   19.7464   47.8730    8.7956 C   0  0  0  0  0  0
   20.0191   49.0168    8.0463 C   0  0  0  0  0  0
   20.1230   50.2450    8.6969 C   0  0  0  0  0  0
   20.1230   50.3170   10.0890 C   0  0  0  0  0  0
   19.9584   49.1529   10.8456 C   0  0  0  0  0  0
   19.7230   47.9523   10.1802 C   0  0  0  0  0  0
   18.3961   49.3646    5.8000 N   0  0  0  0  0  0
   20.0165   49.1568   12.2677 N   0  0  0  0  0  0
   20.7449   49.9714   13.1157 C   0  0  0  0  0  0
   20.4680   49.5549   14.4029 C   0  0  0  0  0  0
   19.6024   48.4733   14.2381 C   0  0  0  0  0  0
   19.3232   48.2414   12.9785 N   0  0  0  0  0  0
   20.9230   50.1684   15.6300 C   0  0  0  0  0  0
   21.2760   50.6731   16.6000 N   0  0  0  0  0  0
   21.5261   51.0295   12.7057 N   0  0  0  0  0  0
   22.7617   50.8420   12.2197 C   0  0  0  0  0  0
   23.4465   52.0856   11.6574 C   0  0  1  0  0  0
   23.3230   49.7499   12.2000 O   0  0  0  0  0  0
   24.1574   53.0730   12.9629 Cl  0  0  0  0  0  0
   24.5090   51.7755   10.6000 C   0  0  0  0  0  0
   19.5834   46.9207    8.3165 H   0  0  0  0  0  0
   20.1512   51.1378    8.0991 H   0  0  0  0  0  0
   20.2117   51.2807   10.5629 H   0  0  0  0  0  0
   19.5791   47.0730   10.7654 H   0  0  0  0  0  0
   18.2257   50.3750    5.7628 H   0  0  0  0  0  0
   17.6309   48.8433    6.2441 H   0  0  0  0  0  0
   19.1534   47.8920   15.0312 H   0  0  0  0  0  0
   21.2015   51.9676   12.8863 H   0  0  0  0  0  0
   22.6711   52.6730   11.1877 H   0  0  0  0  0  0
   24.1297   51.1290    9.8062 H   0  0  0  0  0  0
   25.3230   51.2558   11.0816 H   0  0  0  0  0  0
   24.9101   52.6730   10.1346 H   0  0  0  0  0  0
  1  2  2  0  0  0
  2  3  2  0  0  0
  2  5  1  0  0  0
  2 10  1  0  0  0
  4  5  2  0  0  0
  4  9  1  0  0  0
  4 24  1  0  0  0
  5  6  1  0  0  0
  6  7  2  0  0  0
  6 25  1  0  0  0
  7  8  1  0  0  0
  7 26  1  0  0  0
  8  9  2  0  0  0
  8 11  1  0  0  0
  9 27  1  0  0  0
 10 28  1  0  0  0
 10 29  1  0  0  0
 11 12  1  0  0  0
 11 15  1  0  0  0
 12 13  2  0  0  0
 12 18  1  0  0  0
 13 14  1  0  0  0
 13 16  1  0  0  0
 14 15  2  0  0  0
 14 30  1  0  0  0
 16 17  3  0  0  0
 18 19  1  0  0  0
 18 31  1  0  0  0
 19 20  1  0  0  0
 19 21  2  0  0  0
 20 22  1  0  0  0
 20 23  1  0  0  0
 20 32  1  0  0  0
 23 33  1  0  0  0
 23 34  1  0  0  0
 23 35  1  0  0  0
M  END
> <s_m_entry_id>
5275

> <s_m_entry_name>
dock_pv.266

> <s_m_Source_Path>
/home/csk/Desktop/cluster/DUD-E-result/pgh1

> <s_m_Source_File>
dock_pv.maegz

> <i_m_Source_File_Index>
266

> <chembl_id>
CHEMBL4436821

> <chembl_pref_name>
None

> <i_lp_mmshare_version>
53161

> <r_lp_tautomer_probability>
1

> <s_lp_Force_Field>
OPLS_2005

> <r_lp_Energy>
22.388641

> <b_lp_Chiralities_Consistent>
1

> <s_lp_Variant>
CHEMBL221_lig1046 -2

> <s_i_glide_gridfile>
glide-grid_2oyu

> <i_i_glide_lignum>
1303

> <i_i_glide_rotatable_bonds>
5

> <r_i_docking_score>
-8.46107591200893

> <r_i_glide_ligand_efficiency>
-0.367872865739519

> <r_i_glide_ligand_efficiency_sa>
-1.04618149456655

> <r_i_glide_ligand_efficiency_ln>
-2.0459648763184

> <r_i_glide_gscore>
-8.46107591200893

> <r_i_glide_lipo>
-3.1401677146212

> <r_i_glide_hbond>
-0.51366099309675

> <r_i_glide_metal>
0

> <r_i_glide_rewards>
-3.04545388159463

> <r_i_glide_evdw>
-21.8188495635986

> <r_i_glide_ecoul>
-7.05215930938721

> <r_i_glide_erotb>
0.457823697137649

> <r_i_glide_esite>
-0.0708506452459852

> <r_i_glide_emodel>
-35.7071795451148

> <r_i_glide_energy>
-28.8710088729858

> <r_i_glide_einternal>
1.8097208738327

> <i_i_glide_confnum>
11

> <i_i_glide_posenum>
215

> <r_i_glide_eff_state_penalty>
0

> <s_user_duplicate_titles>
CHEMBL221_lig1046 

> <i_f3d_flags>
0

> <s_m_subgroup_title>
dock_pv

> <s_m_subgroupid>
dock_pv

> <b_m_subgroup_collapsed>
1

$$$$
CHEMBL221_lig260
                    3D
 Schrodinger Suite 2021-1.
 35 37  0  0  1  0            999 V2000
   20.5499   49.5345   12.9156 N   0  0  0  0  0  0
   19.8873   48.7634   11.9981 C   0  0  0  0  0  0
   20.1676   49.0730   14.1948 C   0  0  0  0  0  0
   19.9588   49.0269    5.9043 S   0  0  0  0  0  0
   19.1821   47.8730   12.6862 C   0  0  0  0  0  0
   19.3181   48.0503   13.9949 O   0  0  0  0  0  0
   21.6078   50.4597   12.7168 C   0  0  0  0  0  0
   19.9468   48.9339    7.6944 C   0  0  0  0  0  0
   19.9405   48.8593   10.5106 C   0  0  0  0  0  0
   20.5038   47.8269    5.3088 O   0  0  0  0  0  0
   20.6148   50.2730    5.5709 O   0  0  0  0  0  0
   20.5230   49.4218   15.3224 O   0  0  0  0  0  0
   20.1230   50.1023    8.4463 C   0  0  0  0  0  0
   19.7230   47.7318    8.3520 C   0  0  0  0  0  0
   20.1230   50.0698    9.8390 C   0  0  0  0  0  0
   19.7229   47.7074    9.7426 C   0  0  0  0  0  0
   22.5835   50.2182   11.7423 C   0  0  0  0  0  0
   21.7230   51.5992   13.5300 C   0  0  0  0  0  0
   18.1772   49.0253    5.4000 C   0  0  0  0  0  0
   23.7478   52.2249   12.3873 C   0  0  0  0  0  0
   22.7904   52.4777   13.3649 C   0  0  0  0  0  0
   23.6486   51.0997   11.5739 C   0  0  0  0  0  0
   24.7895   53.0724   12.2354 F   0  0  0  0  0  0
   18.5226   47.0717   12.3925 H   0  0  0  0  0  0
   20.2294   51.0556    7.9465 H   0  0  0  0  0  0
   19.5745   46.8196    7.7999 H   0  0  0  0  0  0
   20.2375   50.9938   10.3865 H   0  0  0  0  0  0
   19.6171   46.7562   10.2311 H   0  0  0  0  0  0
   22.5232   49.3378   11.1207 H   0  0  0  0  0  0
   20.9903   51.8100   14.2963 H   0  0  0  0  0  0
   18.1232   49.0728    4.3176 H   0  0  0  0  0  0
   17.6876   49.8730    5.8489 H   0  0  0  0  0  0
   17.7230   48.1009    5.7384 H   0  0  0  0  0  0
   22.8828   53.3494   13.9973 H   0  0  0  0  0  0
   24.4034   50.9086   10.8243 H   0  0  0  0  0  0
  1  2  1  0  0  0
  1  3  1  0  0  0
  1  7  1  0  0  0
  2  5  2  0  0  0
  2  9  1  0  0  0
  3  6  1  0  0  0
  3 12  2  0  0  0
  4  8  1  0  0  0
  4 10  2  0  0  0
  4 11  2  0  0  0
  4 19  1  0  0  0
  5  6  1  0  0  0
  5 24  1  0  0  0
  7 17  2  0  0  0
  7 18  1  0  0  0
  8 14  1  0  0  0
  8 13  2  0  0  0
  9 15  2  0  0  0
  9 16  1  0  0  0
 13 15  1  0  0  0
 13 25  1  0  0  0
 14 16  2  0  0  0
 14 26  1  0  0  0
 15 27  1  0  0  0
 16 28  1  0  0  0
 17 22  1  0  0  0
 17 29  1  0  0  0
 18 21  2  0  0  0
 18 30  1  0  0  0
 19 31  1  0  0  0
 19 32  1  0  0  0
 19 33  1  0  0  0
 20 21  1  0  0  0
 20 23  1  0  0  0
 20 22  2  0  0  0
 21 34  1  0  0  0
 22 35  1  0  0  0
M  END
> <s_m_entry_id>
5276

> <s_m_entry_name>
dock_pv.267

> <s_m_Source_Path>
/home/csk/Desktop/cluster/DUD-E-result/pgh1

> <s_m_Source_File>
dock_pv.maegz

> <i_m_Source_File_Index>
267

> <chembl_id>
CHEMBL302771

> <chembl_pref_name>
None

> <i_lp_mmshare_version>
53161

> <r_lp_tautomer_probability>
1

> <s_lp_Force_Field>
OPLS_2005

> <r_lp_Energy>
28.129746

> <b_lp_Chiralities_Consistent>
1

> <s_lp_Variant>
CHEMBL221_lig260-1

> <s_i_glide_gridfile>
glide-grid_2oyu

> <i_i_glide_lignum>
293

> <i_i_glide_rotatable_bonds>
3

> <r_i_docking_score>
-8.45694418697529

> <r_i_glide_ligand_efficiency>
-0.367693225520665

> <r_i_glide_ligand_efficiency_sa>
-1.04567062168044

> <r_i_glide_ligand_efficiency_ln>
-2.04496578774085

> <r_i_glide_gscore>
-8.45694418697529

> <r_i_glide_lipo>
-4.1183226540683

> <r_i_glide_hbond>
0

> <r_i_glide_metal>
0

> <r_i_glide_rewards>
-3.21059222547773

> <r_i_glide_evdw>
-15.8971033096313

> <r_i_glide_ecoul>
-4.36579084396362

> <r_i_glide_erotb>
0.3392274388704

> <r_i_glide_esite>
-0.017532954223554

> <r_i_glide_emodel>
-23.7340990797709

> <r_i_glide_energy>
-20.262894153595

> <r_i_glide_einternal>
0.557069718837738

> <i_i_glide_confnum>
9

> <i_i_glide_posenum>
88

> <r_i_glide_eff_state_penalty>
0

> <s_user_duplicate_titles>
CHEMBL221_lig260

> <i_f3d_flags>
0

> <s_m_subgroup_title>
dock_pv

> <s_m_subgroupid>
dock_pv

> <b_m_subgroup_collapsed>
1

$$$$
CHEMBL221_lig496
                    3D
 Schrodinger Suite 2021-1.
 43 46  0  0  1  0            999 V2000
   24.4114   53.1425   12.9310 S   0  0  0  0  0  0
   19.3681   48.5899   12.6901 C   0  0  0  0  0  0
   18.2276   47.8732   12.8929 N   0  0  0  0  0  0
   20.1202   49.0732   13.7814 C   0  0  0  0  0  0
   19.9104   47.8906    8.9990 N   0  0  0  0  0  0
   20.2322   49.2295    6.9712 C   0  0  0  0  0  0
   19.6811   48.8372   11.2377 C   0  0  0  0  0  0
   19.5573   48.2469    6.0694 C   0  0  0  0  0  0
   19.0962   49.6630    6.0792 C   0  0  0  0  0  0
   23.2717   51.8728   13.3158 C   0  0  0  0  0  0
   20.1231   49.1302    8.4955 C   0  0  0  0  0  0
   21.2479   50.0188   13.6175 C   0  0  0  0  0  0
   24.5229   53.0623   11.4752 O   0  0  0  0  0  0
   25.5891   53.0731   13.7962 O   0  0  0  0  0  0
   19.7216   47.7728   10.3340 C   0  0  0  0  0  0
   19.6849   48.7446   15.0810 C   0  0  0  0  0  0
   19.8866   50.1149   10.6898 C   0  0  0  0  0  0
   20.1244   50.2644    9.3181 C   0  0  0  0  0  0
   23.2279   50.7796   12.4622 C   0  0  0  0  0  0
   22.3255   52.0461   14.3179 C   0  0  0  0  0  0
   22.2040   49.8728   12.6036 C   0  0  0  0  0  0
   21.3231   51.1138   14.4813 C   0  0  0  0  0  0
   17.7795   47.6598   14.1542 C   0  0  0  0  0  0
   18.4783   48.0809   15.2750 C   0  0  0  0  0  0
   23.4862   54.6727   13.4007 C   0  0  0  0  0  0
   17.8156   47.8726   16.8533 Cl  0  0  0  0  0  0
   21.2375   49.4707    6.6136 H   0  0  0  0  0  0
   20.1108   47.8757    5.2065 H   0  0  0  0  0  0
   18.9513   47.4828    6.5617 H   0  0  0  0  0  0
   18.1188   49.8727    6.5116 H   0  0  0  0  0  0
   19.3132   50.2725    5.2035 H   0  0  0  0  0  0
   19.6799   46.7639   10.7043 H   0  0  0  0  0  0
   20.2202   49.1018   15.9501 H   0  0  0  0  0  0
   19.8560   50.9892   11.3251 H   0  0  0  0  0  0
   20.2737   51.2330    8.8728 H   0  0  0  0  0  0
   23.9500   50.6538   11.6670 H   0  0  0  0  0  0
   22.3374   52.9073   14.9676 H   0  0  0  0  0  0
   22.1852   49.0253   11.9381 H   0  0  0  0  0  0
   20.5860   51.2743   15.2530 H   0  0  0  0  0  0
   16.8271   47.1600   14.2516 H   0  0  0  0  0  0
   24.0866   55.4728   13.0001 H   0  0  0  0  0  0
   23.4460   54.7844   14.4795 H   0  0  0  0  0  0
   22.4797   54.6704   12.9958 H   0  0  0  0  0  0
  1 10  1  0  0  0
  1 13  2  0  0  0
  1 14  2  0  0  0
  1 25  1  0  0  0
  2  4  1  0  0  0
  2  3  2  0  0  0
  2  7  1  0  0  0
  3 23  1  0  0  0
  4 12  1  0  0  0
  4 16  2  0  0  0
  5 15  1  0  0  0
  5 11  2  0  0  0
  6 11  1  0  0  0
  6  8  1  0  0  0
  6  9  1  0  0  0
  6 27  1  0  0  0
  7 15  2  0  0  0
  7 17  1  0  0  0
  8  9  1  0  0  0
  8 28  1  0  0  0
  8 29  1  0  0  0
  9 30  1  0  0  0
  9 31  1  0  0  0
 10 19  1  0  0  0
 10 20  2  0  0  0
 11 18  1  0  0  0
 12 22  2  0  0  0
 12 21  1  0  0  0
 15 32  1  0  0  0
 16 24  1  0  0  0
 16 33  1  0  0  0
 17 18  2  0  0  0
 17 34  1  0  0  0
 18 35  1  0  0  0
 19 21  2  0  0  0
 19 36  1  0  0  0
 20 22  1  0  0  0
 20 37  1  0  0  0
 21 38  1  0  0  0
 22 39  1  0  0  0
 23 24  2  0  0  0
 23 40  1  0  0  0
 24 26  1  0  0  0
 25 41  1  0  0  0
 25 42  1  0  0  0
 25 43  1  0  0  0
M  END
> <s_m_entry_id>
5277

> <s_m_entry_name>
dock_pv.268

> <s_m_Source_Path>
/home/csk/Desktop/cluster/DUD-E-result/pgh1

> <s_m_Source_File>
dock_pv.maegz

> <i_m_Source_File_Index>
268

> <chembl_id>
CHEMBL95156

> <chembl_pref_name>
None

> <i_lp_mmshare_version>
53161

> <r_lp_tautomer_probability>
1

> <s_lp_Force_Field>
OPLS_2005

> <r_lp_Energy>
20.77596

> <b_lp_Chiralities_Consistent>
1

> <s_lp_Variant>
CHEMBL221_lig496-1

> <s_i_glide_gridfile>
glide-grid_2oyu

> <i_i_glide_lignum>
630

> <i_i_glide_rotatable_bonds>
4

> <r_i_docking_score>
-8.44304826043869

> <r_i_glide_ligand_efficiency>
-0.324732625401488

> <r_i_glide_ligand_efficiency_sa>
-0.962019124990728

> <r_i_glide_ligand_efficiency_ln>
-1.98282218006305

> <r_i_glide_gscore>
-8.44304826043869

> <r_i_glide_lipo>
-4.85430912613944

> <r_i_glide_hbond>
0

> <r_i_glide_metal>
0

> <r_i_glide_rewards>
-2.13490990909091

> <r_i_glide_evdw>
-22.280309677124

> <r_i_glide_ecoul>
-4.89107418060303

> <r_i_glide_erotb>
0.393847385738317

> <r_i_glide_esite>
0

> <r_i_glide_emodel>
-32.8807865930019

> <r_i_glide_energy>
-27.1713838577271

> <r_i_glide_einternal>
3.20621609687805

> <i_i_glide_confnum>
14

> <i_i_glide_posenum>
332

> <r_i_glide_eff_state_penalty>
0

> <s_user_duplicate_titles>
CHEMBL221_lig496

> <i_f3d_flags>
0

> <s_m_subgroup_title>
dock_pv

> <s_m_subgroupid>
dock_pv

> <b_m_subgroup_collapsed>
1

$$$$
CHEMBL221_lig165
                    3D
 Schrodinger Suite 2021-1.
 41 44  0  0  1  0            999 V2000
   18.6861   47.7949   14.1789 C   0  0  0  0  0  0
   18.6056   47.7636   12.8615 N   0  0  0  0  0  0
   19.5327   48.5751   12.4209 C   0  0  0  0  0  0
   20.2596   49.1184   13.4618 N   0  0  0  0  0  0
   19.7219   48.5905   14.5946 C   0  0  0  0  0  0
   24.4159   53.1563   12.9440 S   0  0  0  0  0  0
   17.7647   47.0001   15.0316 C   0  0  0  0  0  0
   19.7230   48.8778   10.9702 C   0  0  0  0  0  0
   21.3099   50.0251   13.4337 C   0  0  0  0  0  0
   19.7333   48.2197    8.6595 C   0  0  0  0  0  0
   19.5715   47.8752    9.9947 C   0  0  0  0  0  0
   23.3200   51.8587   13.3042 C   0  0  0  0  0  0
   20.1230   49.4727    8.2941 C   0  0  0  0  0  0
   24.5230   53.0730   11.4885 O   0  0  0  0  0  0
   25.5993   53.0730   13.7998 O   0  0  0  0  0  0
   19.5654   47.4730    7.5407 O   0  0  0  0  0  0
   20.1598   49.5628    6.9397 O   0  0  0  0  0  0
   19.5727   48.3858    6.4753 C   0  0  0  0  0  0
   20.0159   50.1941   10.5689 C   0  0  0  0  0  0
   16.5230   47.0854   14.6000 F   0  0  0  0  0  0
   18.1228   45.7164   15.0000 F   0  0  0  0  0  0
   17.7840   47.4724   16.2822 F   0  0  0  0  0  0
   22.3139   49.8730   12.4831 C   0  0  0  0  0  0
   21.3230   51.0745   14.3498 C   0  0  0  0  0  0
   20.2386   50.4894    9.2284 C   0  0  0  0  0  0
   22.3287   52.0125   14.2658 C   0  0  0  0  0  0
   23.3330   50.7838   12.4244 C   0  0  0  0  0  0
   23.4426   54.6730   13.4000 C   0  0  0  0  0  0
   20.1001   48.8397   15.5755 H   0  0  0  0  0  0
   19.3230   46.8743   10.2738 H   0  0  0  0  0  0
   18.5453   48.6041    6.1718 H   0  0  0  0  0  0
   20.1229   47.9968    5.6182 H   0  0  0  0  0  0
   20.0859   50.9952   11.2897 H   0  0  0  0  0  0
   22.3144   49.0430   11.7910 H   0  0  0  0  0  0
   20.5378   51.1996   15.0823 H   0  0  0  0  0  0
   20.5224   51.4728    8.9036 H   0  0  0  0  0  0
   22.3076   52.8610   14.9323 H   0  0  0  0  0  0
   24.0962   50.6759   11.6651 H   0  0  0  0  0  0
   24.0482   55.4714   13.0001 H   0  0  0  0  0  0
   23.3309   54.8409   14.4596 H   0  0  0  0  0  0
   22.4361   54.6268   13.0000 H   0  0  0  0  0  0
  1  2  1  0  0  0
  1  5  2  0  0  0
  1  7  1  0  0  0
  2  3  2  0  0  0
  3  8  1  0  0  0
  3  4  1  0  0  0
  4  5  1  0  0  0
  4  9  1  0  0  0
  5 29  1  0  0  0
  6 12  1  0  0  0
  6 14  2  0  0  0
  6 15  2  0  0  0
  6 28  1  0  0  0
  7 20  1  0  0  0
  7 21  1  0  0  0
  7 22  1  0  0  0
  8 11  2  0  0  0
  8 19  1  0  0  0
  9 23  2  0  0  0
  9 24  1  0  0  0
 10 11  1  0  0  0
 10 16  1  0  0  0
 10 13  2  0  0  0
 11 30  1  0  0  0
 12 26  1  0  0  0
 12 27  2  0  0  0
 13 25  1  0  0  0
 13 17  1  0  0  0
 16 18  1  0  0  0
 17 18  1  0  0  0
 18 31  1  0  0  0
 18 32  1  0  0  0
 19 25  2  0  0  0
 19 33  1  0  0  0
 23 27  1  0  0  0
 23 34  1  0  0  0
 24 26  2  0  0  0
 24 35  1  0  0  0
 25 36  1  0  0  0
 26 37  1  0  0  0
 27 38  1  0  0  0
 28 39  1  0  0  0
 28 40  1  0  0  0
 28 41  1  0  0  0
M  END
> <s_m_entry_id>
5278

> <s_m_entry_name>
dock_pv.269

> <s_m_Source_Path>
/home/csk/Desktop/cluster/DUD-E-result/pgh1

> <s_m_Source_File>
dock_pv.maegz

> <i_m_Source_File_Index>
269

> <chembl_id>
CHEMBL296447

> <chembl_pref_name>
None

> <i_lp_mmshare_version>
53161

> <r_lp_tautomer_probability>
1

> <s_lp_Force_Field>
OPLS_2005

> <r_lp_Energy>
29.597684

> <b_lp_Chiralities_Consistent>
1

> <s_lp_Variant>
CHEMBL221_lig165-1

> <s_i_glide_gridfile>
glide-grid_2oyu

> <i_i_glide_lignum>
188

> <i_i_glide_rotatable_bonds>
4

> <r_i_docking_score>
-8.44193991393867

> <r_i_glide_ligand_efficiency>
-0.301497854069238

> <r_i_glide_ligand_efficiency_sa>
-0.915525057693921

> <r_i_glide_ligand_efficiency_ln>
-1.94864759826338

> <r_i_glide_gscore>
-8.44193991393867

> <r_i_glide_lipo>
-3.88362524546229

> <r_i_glide_hbond>
0

> <r_i_glide_metal>
0

> <r_i_glide_rewards>
-3.311127075

> <r_i_glide_evdw>
-16.3665447235107

> <r_i_glide_ecoul>
-4.31044340133667

> <r_i_glide_erotb>
0.233958646723763

> <r_i_glide_esite>
-0.016252493824115

> <r_i_glide_emodel>
-38.6269718823404

> <r_i_glide_energy>
-20.6769881248474

> <r_i_glide_einternal>
4.19525384902954

> <i_i_glide_confnum>
4

> <i_i_glide_posenum>
41

> <r_i_glide_eff_state_penalty>
0

> <s_user_duplicate_titles>
CHEMBL221_lig165

> <i_f3d_flags>
0

> <s_m_subgroup_title>
dock_pv

> <s_m_subgroupid>
dock_pv

> <b_m_subgroup_collapsed>
1

$$$$
CHEMBL221_lig1046 
                    3D
 Schrodinger Suite 2021-1.
 35 36  0  0  1  0            999 V2000
   20.8356   49.8731    5.6534 O   0  0  0  0  0  0
   19.9445   48.8848    6.2531 S   0  0  0  0  0  0
   20.1230   47.4730    5.9644 O   0  0  0  0  0  0
   20.1230   50.2403    8.6713 C   0  0  0  0  0  0
   19.9901   49.0092    8.0326 C   0  0  0  0  0  0
   19.7242   47.8730    8.7953 C   0  0  0  0  0  0
   19.7230   47.9607   10.1801 C   0  0  0  0  0  0
   20.0026   49.1660   10.8302 C   0  0  0  0  0  0
   20.1490   50.3234   10.0622 C   0  0  0  0  0  0
   18.3232   49.2808    5.8000 N   0  0  0  0  0  0
   20.1062   49.1897   12.2490 N   0  0  0  0  0  0
   20.8208   50.0359   13.0855 C   0  0  0  0  0  0
   20.5230   49.6366   14.3805 C   0  0  0  0  0  0
   19.6964   48.5261   14.2274 C   0  0  0  0  0  0
   19.4355   48.2671   12.9720 N   0  0  0  0  0  0
   20.9229   50.2728   15.6183 C   0  0  0  0  0  0
   21.2220   50.7924   16.6000 N   0  0  0  0  0  0
   21.5723   51.1278   12.6905 N   0  0  0  0  0  0
   22.8628   51.0341   12.3231 C   0  0  0  0  0  0
   23.5832   52.3747   12.0972 C   0  0  2  0  0  0
   23.4576   49.9646   12.1998 O   0  0  0  0  0  0
   24.9226   52.2730   10.9333 Cl  0  0  0  0  0  0
   24.1170   52.9827   13.4005 C   0  0  0  0  0  0
   20.1503   51.1290    8.0659 H   0  0  0  0  0  0
   19.5431   46.9198    8.3241 H   0  0  0  0  0  0
   19.5876   47.0730   10.7636 H   0  0  0  0  0  0
   20.2680   51.2882   10.5261 H   0  0  0  0  0  0
   18.1253   50.2850    5.7375 H   0  0  0  0  0  0
   17.5815   48.7564    6.2810 H   0  0  0  0  0  0
   19.2535   47.9477   15.0265 H   0  0  0  0  0  0
   21.2002   52.0416   12.8987 H   0  0  0  0  0  0
   22.8849   53.0730   11.6588 H   0  0  0  0  0  0
   23.3339   53.0649   14.1569 H   0  0  0  0  0  0
   24.5142   53.9856   13.2352 H   0  0  0  0  0  0
   24.9200   52.3784   13.8189 H   0  0  0  0  0  0
  1  2  2  0  0  0
  2  3  2  0  0  0
  2  5  1  0  0  0
  2 10  1  0  0  0
  4  5  2  0  0  0
  4  9  1  0  0  0
  4 24  1  0  0  0
  5  6  1  0  0  0
  6  7  2  0  0  0
  6 25  1  0  0  0
  7  8  1  0  0  0
  7 26  1  0  0  0
  8  9  2  0  0  0
  8 11  1  0  0  0
  9 27  1  0  0  0
 10 28  1  0  0  0
 10 29  1  0  0  0
 11 12  1  0  0  0
 11 15  1  0  0  0
 12 13  2  0  0  0
 12 18  1  0  0  0
 13 14  1  0  0  0
 13 16  1  0  0  0
 14 15  2  0  0  0
 14 30  1  0  0  0
 16 17  3  0  0  0
 18 19  1  0  0  0
 18 31  1  0  0  0
 19 20  1  0  0  0
 19 21  2  0  0  0
 20 22  1  0  0  0
 20 23  1  0  0  0
 20 32  1  0  0  0
 23 33  1  0  0  0
 23 34  1  0  0  0
 23 35  1  0  0  0
M  END
> <s_m_entry_id>
5279

> <s_m_entry_name>
dock_pv.270

> <s_m_Source_Path>
/home/csk/Desktop/cluster/DUD-E-result/pgh1

> <s_m_Source_File>
dock_pv.maegz

> <i_m_Source_File_Index>
270

> <chembl_id>
CHEMBL4436821

> <chembl_pref_name>
None

> <i_lp_mmshare_version>
53161

> <r_lp_tautomer_probability>
1

> <s_lp_Force_Field>
OPLS_2005

> <r_lp_Energy>
22.152359

> <b_lp_Chiralities_Consistent>
1

> <s_lp_Variant>
CHEMBL221_lig1046 -1

> <s_i_glide_gridfile>
glide-grid_2oyu

> <i_i_glide_lignum>
1302

> <i_i_glide_rotatable_bonds>
5

> <r_i_docking_score>
-8.43330513636388

> <r_i_glide_ligand_efficiency>
-0.366665440711473

> <r_i_glide_ligand_efficiency_sa>
-1.04274773840224

> <r_i_glide_ligand_efficiency_ln>
-2.03924965095595

> <r_i_glide_gscore>
-8.43330513636388

> <r_i_glide_lipo>
-2.95619103097153

> <r_i_glide_hbond>
-0.50402570964636

> <r_i_glide_metal>
0

> <r_i_glide_rewards>
-3.1609629728262

> <r_i_glide_evdw>
-21.5285301208496

> <r_i_glide_ecoul>
-7.49573373794556

> <r_i_glide_erotb>
0.457823697137649

> <r_i_glide_esite>
-0.069162553323131

> <r_i_glide_emodel>
-36.4116897914584

> <r_i_glide_energy>
-29.0242638587952

> <r_i_glide_einternal>
2.20770597457886

> <i_i_glide_confnum>
4

> <i_i_glide_posenum>
40

> <r_i_glide_eff_state_penalty>
0

> <s_user_duplicate_titles>
CHEMBL221_lig1046 

> <i_f3d_flags>
0

> <s_m_subgroup_title>
dock_pv

> <s_m_subgroupid>
dock_pv

> <b_m_subgroup_collapsed>
1

$$$$
CHEMBL221_lig383
                    3D
 Schrodinger Suite 2021-1.
 34 35  0  0  1  0            999 V2000
   19.7230   48.6846    6.9491 S   0  0  0  0  0  0
   21.0960   49.8731   13.1257 C   0  0  0  0  0  0
   20.5230   49.5109   14.4505 C   0  0  0  0  0  0
   20.1231   49.6896    8.3684 C   0  0  0  0  0  0
   24.8246   52.6730   11.7990 N   0  0  0  0  0  0
   23.8840   52.0048   11.8279 C   0  0  0  0  0  0
   20.5526   49.0757    9.4880 C   0  0  0  0  0  0
   19.1766   47.4320    7.4594 O   0  0  0  0  0  0
   20.8476   48.7236    6.0152 O   0  0  0  0  0  0
   22.1265   50.8204   13.0794 C   0  0  0  0  0  0
   20.6861   49.2563   11.9344 C   0  0  0  0  0  0
   22.7086   51.1521   11.8664 C   0  0  0  0  0  0
   21.1374   49.6939   10.7006 C   0  0  0  0  0  0
   18.4482   49.4732    6.1428 N   0  0  0  0  0  0
   21.0857   49.9051   15.4784 O   0  0  0  0  0  0
   19.2649   48.7046   14.5709 C   0  0  0  0  0  0
   22.1873   50.6188   10.6934 C   0  0  0  0  0  0
   19.0077   48.1449   15.8114 C   0  0  0  0  0  0
   18.2578   48.6469   13.5957 C   0  0  0  0  0  0
   17.1030   47.9124   13.8130 C   0  0  0  0  0  0
   17.8322   47.4730   16.0627 C   0  0  0  0  0  0
   16.9215   47.2818   15.0357 C   0  0  0  0  0  0
   20.0749   50.7597    8.2352 H   0  0  0  0  0  0
   20.5212   47.9960    9.4945 H   0  0  0  0  0  0
   22.5084   51.2694   13.9886 H   0  0  0  0  0  0
   20.0127   48.4156   11.9241 H   0  0  0  0  0  0
   18.6243   49.7015    5.1611 H   0  0  0  0  0  0
   17.5417   49.0101    6.2794 H   0  0  0  0  0  0
   22.6883   50.8875    9.8000 H   0  0  0  0  0  0
   19.7213   48.2729   16.6001 H   0  0  0  0  0  0
   18.3111   49.2093   12.6808 H   0  0  0  0  0  0
   16.3417   47.8697   13.0468 H   0  0  0  0  0  0
   17.6584   47.0736   17.0472 H   0  0  0  0  0  0
   16.0507   46.6735   15.2079 H   0  0  0  0  0  0
  1  4  1  0  0  0
  1  8  2  0  0  0
  1  9  2  0  0  0
  1 14  1  0  0  0
  2 11  2  0  0  0
  2  3  1  0  0  0
  2 10  1  0  0  0
  3 15  2  0  0  0
  3 16  1  0  0  0
  4  7  2  0  0  0
  4 23  1  0  0  0
  5  6  3  0  0  0
  6 12  1  0  0  0
  7 13  1  0  0  0
  7 24  1  0  0  0
 10 12  2  0  0  0
 10 25  1  0  0  0
 11 13  1  0  0  0
 11 26  1  0  0  0
 12 17  1  0  0  0
 13 17  2  0  0  0
 14 27  1  0  0  0
 14 28  1  0  0  0
 16 18  2  0  0  0
 16 19  1  0  0  0
 17 29  1  0  0  0
 18 21  1  0  0  0
 18 30  1  0  0  0
 19 20  2  0  0  0
 19 31  1  0  0  0
 20 22  1  0  0  0
 20 32  1  0  0  0
 21 22  2  0  0  0
 21 33  1  0  0  0
 22 34  1  0  0  0
M  END
> <s_m_entry_id>
5280

> <s_m_entry_name>
dock_pv.271

> <s_m_Source_Path>
/home/csk/Desktop/cluster/DUD-E-result/pgh1

> <s_m_Source_File>
dock_pv.maegz

> <i_m_Source_File_Index>
271

> <chembl_id>
CHEMBL151710

> <chembl_pref_name>
None

> <i_lp_mmshare_version>
53161

> <r_lp_tautomer_probability>
1

> <s_lp_Force_Field>
OPLS_2005

> <r_lp_Energy>
13.588136

> <b_lp_Chiralities_Consistent>
1

> <s_lp_Variant>
CHEMBL221_lig383-1

> <s_i_glide_gridfile>
glide-grid_2oyu

> <i_i_glide_lignum>
449

> <i_i_glide_rotatable_bonds>
4

> <r_i_docking_score>
-8.42308819686171

> <r_i_glide_ligand_efficiency>
-0.382867645311896

> <r_i_glide_ligand_efficiency_sa>
-1.07281019949398

> <r_i_glide_ligand_efficiency_ln>
-2.05890999492006

> <r_i_glide_gscore>
-8.42308819686171

> <r_i_glide_lipo>
-3.42819250360321

> <r_i_glide_hbond>
-0.40767763811728

> <r_i_glide_metal>
0

> <r_i_glide_rewards>
-3.45106259491575

> <r_i_glide_evdw>
-22.0143241882324

> <r_i_glide_ecoul>
-4.92147397994995

> <r_i_glide_erotb>
0.76090954657712

> <r_i_glide_esite>
-0.0581277003984761

> <r_i_glide_emodel>
-28.1030386624912

> <r_i_glide_energy>
-26.9357981681824

> <r_i_glide_einternal>
5.10389995574951

> <i_i_glide_confnum>
53

> <i_i_glide_posenum>
385

> <r_i_glide_eff_state_penalty>
0

> <s_user_duplicate_titles>
CHEMBL221_lig383

> <i_f3d_flags>
0

> <s_m_subgroup_title>
dock_pv

> <s_m_subgroupid>
dock_pv

> <b_m_subgroup_collapsed>
1

$$$$
CHEMBL221_lig42
                    3D
 Schrodinger Suite 2021-1.
 43 45  0  0  1  0            999 V2000
   20.7911   49.8735   13.1341 C   0  0  0  0  0  0
   20.1316   49.1197   12.2171 C   0  0  0  0  0  0
   20.2594   49.2577   14.2273 C   0  0  0  0  0  0
   19.4236   48.3587   13.3267 C   0  0  0  0  0  0
   20.0146   48.8840    6.2004 S   0  0  0  0  0  0
   19.9802   49.1052   10.7580 C   0  0  0  0  0  0
   19.9992   48.9910    7.9748 C   0  0  0  0  0  0
   21.7611   50.9751   13.0325 C   0  0  0  0  0  0
   20.9230   49.8730    5.6246 O   0  0  0  0  0  0
   20.1230   47.4730    5.8707 O   0  0  0  0  0  0
   20.3672   49.3142   15.5660 C   0  0  0  0  0  0
   19.7230   47.9071   10.1016 C   0  0  0  0  0  0
   20.1511   50.2730   10.0138 C   0  0  0  0  0  0
   20.1230   50.2193    8.6243 C   0  0  0  0  0  0
   19.7231   47.8414    8.7156 C   0  0  0  0  0  0
   19.7230   46.8644   13.4430 C   0  0  0  0  0  0
   17.8946   48.5098   13.4000 C   0  0  0  0  0  0
   18.3120   49.3141    5.7504 C   0  0  0  0  0  0
   22.7095   50.9754   12.0027 C   0  0  0  0  0  0
   21.7231   52.0365   13.9393 C   0  0  0  0  0  0
   22.6064   53.1000   13.8000 C   0  0  0  0  0  0
   23.6261   52.0158   11.8917 C   0  0  0  0  0  0
   23.5707   53.0730   12.7951 C   0  0  0  0  0  0
   19.7896   48.6569   16.1987 H   0  0  0  0  0  0
   21.0328   50.0159   16.0464 H   0  0  0  0  0  0
   19.5777   47.0144   10.6752 H   0  0  0  0  0  0
   20.3103   51.2217   10.5057 H   0  0  0  0  0  0
   20.2381   51.1244    8.0454 H   0  0  0  0  0  0
   19.5544   46.8935    8.2270 H   0  0  0  0  0  0
   20.7865   46.6731   13.3010 H   0  0  0  0  0  0
   19.4411   46.4881   14.4272 H   0  0  0  0  0  0
   19.1852   46.2732   12.7043 H   0  0  0  0  0  0
   17.5902   49.4730   13.0001 H   0  0  0  0  0  0
   17.3768   47.7809   12.7800 H   0  0  0  0  0  0
   17.5183   48.4153   14.4191 H   0  0  0  0  0  0
   18.2655   49.3532    4.6656 H   0  0  0  0  0  0
   17.7230   48.4822    6.0995 H   0  0  0  0  0  0
   18.0204   50.2603    6.1979 H   0  0  0  0  0  0
   22.7526   50.1590   11.2961 H   0  0  0  0  0  0
   20.9839   52.0636   14.7267 H   0  0  0  0  0  0
   22.5532   53.9346   14.4848 H   0  0  0  0  0  0
   24.3688   52.0052   11.1067 H   0  0  0  0  0  0
   24.2739   53.8884   12.7088 H   0  0  0  0  0  0
  1  2  2  0  0  0
  1  3  1  0  0  0
  1  8  1  0  0  0
  2  6  1  0  0  0
  2  4  1  0  0  0
  3  4  1  0  0  0
  3 11  2  0  0  0
  4 16  1  0  0  0
  4 17  1  0  0  0
  5  7  1  0  0  0
  5  9  2  0  0  0
  5 10  2  0  0  0
  5 18  1  0  0  0
  6 12  2  0  0  0
  6 13  1  0  0  0
  7 14  1  0  0  0
  7 15  2  0  0  0
  8 19  1  0  0  0
  8 20  2  0  0  0
 11 24  1  0  0  0
 11 25  1  0  0  0
 12 15  1  0  0  0
 12 26  1  0  0  0
 13 14  2  0  0  0
 13 27  1  0  0  0
 14 28  1  0  0  0
 15 29  1  0  0  0
 16 30  1  0  0  0
 16 31  1  0  0  0
 16 32  1  0  0  0
 17 33  1  0  0  0
 17 34  1  0  0  0
 17 35  1  0  0  0
 18 36  1  0  0  0
 18 37  1  0  0  0
 18 38  1  0  0  0
 19 22  2  0  0  0
 19 39  1  0  0  0
 20 21  1  0  0  0
 20 40  1  0  0  0
 21 23  2  0  0  0
 21 41  1  0  0  0
 22 23  1  0  0  0
 22 42  1  0  0  0
 23 43  1  0  0  0
M  END
> <s_m_entry_id>
5281

> <s_m_entry_name>
dock_pv.272

> <s_m_Source_Path>
/home/csk/Desktop/cluster/DUD-E-result/pgh1

> <s_m_Source_File>
dock_pv.maegz

> <i_m_Source_File_Index>
272

> <chembl_id>
CHEMBL92443

> <chembl_pref_name>
None

> <i_lp_mmshare_version>
53161

> <r_lp_tautomer_probability>
1

> <s_lp_Force_Field>
OPLS_2005

> <r_lp_Energy>
17.920971

> <b_lp_Chiralities_Consistent>
1

> <s_lp_Variant>
CHEMBL221_lig42-1

> <s_i_glide_gridfile>
glide-grid_2oyu

> <i_i_glide_lignum>
49

> <i_i_glide_rotatable_bonds>
3

> <r_i_docking_score>
-8.42240648385579

> <r_i_glide_ligand_efficiency>
-0.366191586254599

> <r_i_glide_ligand_efficiency_sa>
-1.04140015936049

> <r_i_glide_ligand_efficiency_ln>
-2.03661425795598

> <r_i_glide_gscore>
-8.42240648385579

> <r_i_glide_lipo>
-4.64586572224679

> <r_i_glide_hbond>
0

> <r_i_glide_metal>
0

> <r_i_glide_rewards>
-2.48030116691377

> <r_i_glide_evdw>
-15.5054082870483

> <r_i_glide_ecoul>
-5.73432683944702

> <r_i_glide_erotb>
0.355836955502787

> <r_i_glide_esite>
-0.0166571099285437

> <r_i_glide_emodel>
-33.547847097218

> <r_i_glide_energy>
-21.2397351264954

> <r_i_glide_einternal>
2.39988374710083

> <i_i_glide_confnum>
1

> <i_i_glide_posenum>
35

> <r_i_glide_eff_state_penalty>
0

> <s_user_duplicate_titles>
CHEMBL221_lig42,146266

> <i_f3d_flags>
0

> <s_m_subgroup_title>
dock_pv

> <s_m_subgroupid>
dock_pv

> <b_m_subgroup_collapsed>
1

$$$$
CHEMBL221_lig980
                    3D
 Schrodinger Suite 2021-1.
 40 42  0  0  1  0            999 V2000
   19.1396   48.3491   13.7303 N   0  0  0  0  0  0
   19.5075   48.6706   14.9647 C   0  0  0  0  0  0
   20.5230   49.4935   15.0915 N   0  0  0  0  0  0
   20.7977   49.7859   13.8133 N   0  0  0  0  0  0
   19.9483   49.0730   12.9945 C   0  0  0  0  0  0
   21.8360   50.6717   13.4714 C   0  0  0  0  0  0
   21.8990   51.9317   14.0659 C   0  0  0  0  0  0
   22.9230   52.8017   13.7121 C   0  0  0  0  0  0
   23.8957   52.4120   12.7782 C   0  0  0  0  0  0
   23.7939   51.1686   12.1603 C   0  0  0  0  0  0
   22.7818   50.2893   12.5158 C   0  0  0  0  0  0
   19.9489   49.0914   11.5014 C   0  0  0  0  0  0
   20.2317   50.2535   10.7819 C   0  0  0  0  0  0
   20.3329   50.2021    9.4000 C   0  0  0  0  0  0
   20.1230   49.0140    8.7090 C   0  0  0  0  0  0
   19.7230   47.8731    9.4222 C   0  0  0  0  0  0
   19.6637   47.9154   10.8127 C   0  0  0  0  0  0
   18.8766   48.2009   16.0922 O   0  0  0  0  0  0
   17.5801   47.6339   15.9138 C   0  0  0  0  0  0
   24.9943   53.1688   12.4328 O   0  0  0  0  0  0
   25.2433   54.3807   13.1333 C   0  0  0  0  0  0
   20.1231   49.1037    7.3318 O   0  0  0  0  0  0
   19.5807   48.0388    6.5642 C   0  0  0  0  0  0
   21.1647   52.2384   14.7978 H   0  0  0  0  0  0
   22.9627   53.7640   14.2000 H   0  0  0  0  0  0
   24.5323   50.8682   11.4305 H   0  0  0  0  0  0
   22.7401   49.3163   12.0469 H   0  0  0  0  0  0
   20.3916   51.1959   11.2841 H   0  0  0  0  0  0
   20.5230   51.1001    8.8380 H   0  0  0  0  0  0
   19.4786   46.9514    8.9193 H   0  0  0  0  0  0
   19.3904   47.0382   11.3713 H   0  0  0  0  0  0
   17.1200   47.4730   16.8884 H   0  0  0  0  0  0
   16.9209   48.2955   15.3492 H   0  0  0  0  0  0
   17.6351   46.6730   15.4001 H   0  0  0  0  0  0
   26.1517   54.8452   12.7502 H   0  0  0  0  0  0
   25.3820   54.2045   14.2000 H   0  0  0  0  0  0
   24.4293   55.0913   13.0000 H   0  0  0  0  0  0
   19.6509   48.2890    5.5054 H   0  0  0  0  0  0
   20.1230   47.1071    6.7192 H   0  0  0  0  0  0
   18.5265   47.8800    6.7981 H   0  0  0  0  0  0
  1  2  1  0  0  0
  1  5  2  0  0  0
  2  3  2  0  0  0
  2 18  1  0  0  0
  3  4  1  0  0  0
  4  5  1  0  0  0
  4  6  1  0  0  0
  5 12  1  0  0  0
  6  7  2  0  0  0
  6 11  1  0  0  0
  7  8  1  0  0  0
  7 24  1  0  0  0
  8  9  2  0  0  0
  8 25  1  0  0  0
  9 10  1  0  0  0
  9 20  1  0  0  0
 10 11  2  0  0  0
 10 26  1  0  0  0
 11 27  1  0  0  0
 12 13  2  0  0  0
 12 17  1  0  0  0
 13 14  1  0  0  0
 13 28  1  0  0  0
 14 15  2  0  0  0
 14 29  1  0  0  0
 15 16  1  0  0  0
 15 22  1  0  0  0
 16 17  2  0  0  0
 16 30  1  0  0  0
 17 31  1  0  0  0
 18 19  1  0  0  0
 19 32  1  0  0  0
 19 33  1  0  0  0
 19 34  1  0  0  0
 20 21  1  0  0  0
 21 35  1  0  0  0
 21 36  1  0  0  0
 21 37  1  0  0  0
 22 23  1  0  0  0
 23 38  1  0  0  0
 23 39  1  0  0  0
 23 40  1  0  0  0
M  END
> <s_m_entry_id>
5282

> <s_m_entry_name>
dock_pv.273

> <s_m_Source_Path>
/home/csk/Desktop/cluster/DUD-E-result/pgh1

> <s_m_Source_File>
dock_pv.maegz

> <i_m_Source_File_Index>
273

> <chembl_id>
CHEMBL3427203

> <chembl_pref_name>
None

> <i_lp_mmshare_version>
53161

> <r_lp_tautomer_probability>
1

> <s_lp_Force_Field>
OPLS_2005

> <r_lp_Energy>
29.48498

> <b_lp_Chiralities_Consistent>
1

> <s_lp_Variant>
CHEMBL221_lig980-1

> <s_i_glide_gridfile>
glide-grid_2oyu

> <i_i_glide_lignum>
1217

> <i_i_glide_rotatable_bonds>
5

> <r_i_docking_score>
-8.38729937644744

> <r_i_glide_ligand_efficiency>
-0.364665190280323

> <r_i_glide_ligand_efficiency_sa>
-1.0370592922556

> <r_i_glide_ligand_efficiency_ln>
-2.02812504105099

> <r_i_glide_gscore>
-8.38729937644744

> <r_i_glide_lipo>
-3.98242646139468

> <r_i_glide_hbond>
0

> <r_i_glide_metal>
0

> <r_i_glide_rewards>
-2.55384410536128

> <r_i_glide_evdw>
-39.6296882629395

> <r_i_glide_ecoul>
-1.6811215877533

> <r_i_glide_erotb>
0.382623841618481

> <r_i_glide_esite>
0

> <r_i_glide_emodel>
-59.9829591109363

> <r_i_glide_energy>
-41.3108098506927

> <r_i_glide_einternal>
2.50263905525208

> <i_i_glide_confnum>
6

> <i_i_glide_posenum>
85

> <r_i_glide_eff_state_penalty>
0

> <s_user_duplicate_titles>
CHEMBL221_lig980

> <i_f3d_flags>
0

> <s_m_subgroup_title>
dock_pv

> <s_m_subgroupid>
dock_pv

> <b_m_subgroup_collapsed>
1

$$$$
CHEMBL221_lig323
                    3D
 Schrodinger Suite 2021-1.
 41 43  0  0  1  0            999 V2000
   20.0846   48.7667    5.5955 S   0  0  0  0  0  0
   19.1780   48.2331   13.8876 C   0  0  0  0  0  0
   20.9586   49.7299   12.3895 C   0  0  0  0  0  0
   18.1952   47.4388   14.7389 C   0  0  0  0  0  0
   20.0281   48.9227   11.7054 C   0  0  0  0  0  0
   19.1422   48.1658   12.4900 C   0  0  0  0  0  0
   20.9912   49.8172   13.7502 N   0  0  0  0  0  0
   19.9999   48.7504    7.3920 C   0  0  0  0  0  0
   21.9116   50.4310   11.6649 O   0  0  0  0  0  0
   20.1230   49.0734   14.4724 C   0  0  0  0  0  0
   19.9627   48.8729   10.2097 C   0  0  0  0  0  0
   20.5227   47.5048    5.0000 O   0  0  0  0  0  0
   20.8138   49.9671    5.2067 O   0  0  0  0  0  0
   20.1230   49.9669    8.0563 C   0  0  0  0  0  0
   19.7230   47.6089    8.1365 C   0  0  0  0  0  0
   18.5230   46.1485   14.6759 F   0  0  0  0  0  0
   18.2165   47.8178   16.0182 F   0  0  0  0  0  0
   16.9545   47.5987   14.2800 F   0  0  0  0  0  0
   19.7230   47.6715    9.5294 C   0  0  0  0  0  0
   20.1230   50.0321    9.4469 C   0  0  0  0  0  0
   18.2696   48.9642    5.2672 C   0  0  0  0  0  0
   22.6690   51.4756   12.1585 C   0  0  0  0  0  0
   23.9773   51.6076   11.6899 C   0  0  0  0  0  0
   22.1494   52.4397   13.0311 C   0  0  0  0  0  0
   22.9361   53.5107   13.4379 C   0  0  0  0  0  0
   24.7704   52.6730   12.1127 C   0  0  0  0  0  0
   24.2528   53.6097   13.0000 C   0  0  0  0  0  0
   18.4073   47.5322   12.0128 H   0  0  0  0  0  0
   20.1964   49.1810   15.5456 H   0  0  0  0  0  0
   20.2309   50.8838    7.4926 H   0  0  0  0  0  0
   19.5632   46.6730    7.6463 H   0  0  0  0  0  0
   19.6062   46.7586   10.0862 H   0  0  0  0  0  0
   20.2475   50.9942    9.9221 H   0  0  0  0  0  0
   18.1229   49.0730    4.2000 H   0  0  0  0  0  0
   17.9283   49.8498    5.8000 H   0  0  0  0  0  0
   17.7270   48.0934    5.6193 H   0  0  0  0  0  0
   24.3792   50.8815   10.9976 H   0  0  0  0  0  0
   21.1290   52.3791   13.3786 H   0  0  0  0  0  0
   22.5363   54.2539   14.1131 H   0  0  0  0  0  0
   25.7850   52.7650   11.7546 H   0  0  0  0  0  0
   24.8648   54.4373   13.3300 H   0  0  0  0  0  0
  1  8  1  0  0  0
  1 12  2  0  0  0
  1 13  2  0  0  0
  1 21  1  0  0  0
  2  6  1  0  0  0
  2  4  1  0  0  0
  2 10  2  0  0  0
  3  5  1  0  0  0
  3  7  2  0  0  0
  3  9  1  0  0  0
  4 16  1  0  0  0
  4 17  1  0  0  0
  4 18  1  0  0  0
  5 11  1  0  0  0
  5  6  2  0  0  0
  6 28  1  0  0  0
  7 10  1  0  0  0
  8 14  1  0  0  0
  8 15  2  0  0  0
  9 22  1  0  0  0
 10 29  1  0  0  0
 11 19  2  0  0  0
 11 20  1  0  0  0
 14 20  2  0  0  0
 14 30  1  0  0  0
 15 19  1  0  0  0
 15 31  1  0  0  0
 19 32  1  0  0  0
 20 33  1  0  0  0
 21 34  1  0  0  0
 21 35  1  0  0  0
 21 36  1  0  0  0
 22 23  2  0  0  0
 22 24  1  0  0  0
 23 26  1  0  0  0
 23 37  1  0  0  0
 24 25  2  0  0  0
 24 38  1  0  0  0
 25 27  1  0  0  0
 25 39  1  0  0  0
 26 27  2  0  0  0
 26 40  1  0  0  0
 27 41  1  0  0  0
M  END
> <s_m_entry_id>
5283

> <s_m_entry_name>
dock_pv.274

> <s_m_Source_Path>
/home/csk/Desktop/cluster/DUD-E-result/pgh1

> <s_m_Source_File>
dock_pv.maegz

> <i_m_Source_File_Index>
274

> <chembl_id>
CHEMBL296220

> <chembl_pref_name>
None

> <i_lp_mmshare_version>
53161

> <r_lp_tautomer_probability>
1

> <s_lp_Force_Field>
OPLS_2005

> <r_lp_Energy>
18.207855

> <b_lp_Chiralities_Consistent>
1

> <s_lp_Variant>
CHEMBL221_lig323-1

> <s_i_glide_gridfile>
glide-grid_2oyu

> <i_i_glide_lignum>
380

> <i_i_glide_rotatable_bonds>
5

> <r_i_docking_score>
-8.38514118815442

> <r_i_glide_ligand_efficiency>
-0.31056078474646

> <r_i_glide_ligand_efficiency_sa>
-0.931682353215823

> <r_i_glide_ligand_efficiency_ln>
-1.95192262874583

> <r_i_glide_gscore>
-8.38514118815442

> <r_i_glide_lipo>
-4.65617354835822

> <r_i_glide_hbond>
0

> <r_i_glide_metal>
0

> <r_i_glide_rewards>
-2.66279194294095

> <r_i_glide_evdw>
-18.9726581573486

> <r_i_glide_ecoul>
-3.23210859298706

> <r_i_glide_erotb>
0.378697461028213

> <r_i_glide_esite>
-0.0114239610679762

> <r_i_glide_emodel>
-20.8217106221441

> <r_i_glide_energy>
-22.2047667503357

> <r_i_glide_einternal>
6.86465692520142

> <i_i_glide_confnum>
13

> <i_i_glide_posenum>
370

> <r_i_glide_eff_state_penalty>
0

> <s_user_duplicate_titles>
CHEMBL221_lig323

> <i_f3d_flags>
0

> <s_m_subgroup_title>
dock_pv

> <s_m_subgroupid>
dock_pv

> <b_m_subgroup_collapsed>
1

$$$$
CHEMBL221_lig640
                    3D
 Schrodinger Suite 2021-1.
 41 43  0  0  1  0            999 V2000
   24.8176   53.4659   12.5862 C   0  0  0  0  0  0
   25.1270   52.5382   11.5843 C   0  0  0  0  0  0
   24.3525   51.4087   11.3993 C   0  0  0  0  0  0
   23.3406   51.1362   12.2753 C   0  0  0  0  0  0
   22.9086   52.1091   13.1778 C   0  0  0  0  0  0
   23.6466   53.2921   13.3150 C   0  0  0  0  0  0
   26.5342   52.6730   10.6008 Cl  0  0  0  0  0  0
   21.6742   51.8868   14.0049 C   0  0  0  0  0  0
   21.3230   52.7130   14.8449 O   0  0  0  0  0  0
   20.9530   50.6615   13.8376 N   0  0  0  0  0  0
   20.5711   49.8576   14.8991 C   0  0  0  0  0  0
   20.0334   48.6685   14.4353 C   0  0  0  0  0  0
   20.5230   50.0530   12.6623 C   0  0  0  0  0  0
   20.0079   48.7769   13.0006 C   0  0  0  0  0  0
   19.5818   47.9365   11.9624 C   0  0  0  0  0  0
   19.6386   48.3656   10.6353 C   0  0  0  0  0  0
   20.1230   49.6443   10.3355 C   0  0  0  0  0  0
   20.5599   50.5012   11.3337 C   0  0  0  0  0  0
   20.8013   50.2732   16.3363 C   0  0  0  0  0  0
   18.9865   47.5924    9.7035 O   0  0  0  0  0  0
   19.6101   47.4958   15.3131 C   0  0  0  0  0  0
   18.4364   46.6734   14.8084 C   0  0  0  0  0  0
   17.3226   47.4356   14.6227 O   0  0  0  0  0  0
   18.5230   45.4672   14.6001 O   0  0  0  0  0  0
   19.7164   47.0732    8.6067 C   0  0  0  0  0  0
   20.1230   50.2727    8.7276 Cl  0  0  0  0  0  0
   25.4292   54.3437   12.7364 H   0  0  0  0  0  0
   24.5230   50.6912   10.6178 H   0  0  0  0  0  0
   22.9020   50.1594   12.1757 H   0  0  0  0  0  0
   23.3277   54.0746   13.9890 H   0  0  0  0  0  0
   19.1447   46.9838   12.1987 H   0  0  0  0  0  0
   20.9360   51.4730   11.0663 H   0  0  0  0  0  0
   20.2943   49.5945   17.0000 H   0  0  0  0  0  0
   21.8578   50.2734   16.6000 H   0  0  0  0  0  0
   20.3919   51.2525   16.5821 H   0  0  0  0  0  0
   20.4534   46.8228   15.4637 H   0  0  0  0  0  0
   19.3138   47.8281   16.3038 H   0  0  0  0  0  0
   17.4932   48.3602   14.8088 H   0  0  0  0  0  0
   19.0242   46.9470    7.7762 H   0  0  0  0  0  0
   20.1208   46.0940    8.8487 H   0  0  0  0  0  0
   20.5229   47.7080    8.2605 H   0  0  0  0  0  0
  1  6  1  0  0  0
  1  2  2  0  0  0
  1 27  1  0  0  0
  2  7  1  0  0  0
  2  3  1  0  0  0
  3  4  2  0  0  0
  3 28  1  0  0  0
  4  5  1  0  0  0
  4 29  1  0  0  0
  5  8  1  0  0  0
  5  6  2  0  0  0
  6 30  1  0  0  0
  8  9  2  0  0  0
  8 10  1  0  0  0
 10 13  1  0  0  0
 10 11  1  0  0  0
 11 19  1  0  0  0
 11 12  2  0  0  0
 12 21  1  0  0  0
 12 14  1  0  0  0
 13 14  2  0  0  0
 13 18  1  0  0  0
 14 15  1  0  0  0
 15 16  2  0  0  0
 15 31  1  0  0  0
 16 17  1  0  0  0
 16 20  1  0  0  0
 17 18  2  0  0  0
 17 26  1  0  0  0
 18 32  1  0  0  0
 19 33  1  0  0  0
 19 34  1  0  0  0
 19 35  1  0  0  0
 20 25  1  0  0  0
 21 22  1  0  0  0
 21 36  1  0  0  0
 21 37  1  0  0  0
 22 23  1  0  0  0
 22 24  2  0  0  0
 23 38  1  0  0  0
 25 39  1  0  0  0
 25 40  1  0  0  0
 25 41  1  0  0  0
M  END
> <s_m_entry_id>
5284

> <s_m_entry_name>
dock_pv.275

> <s_m_Source_Path>
/home/csk/Desktop/cluster/DUD-E-result/pgh1

> <s_m_Source_File>
dock_pv.maegz

> <i_m_Source_File_Index>
275

> <chembl_id>
CHEMBL237399

> <chembl_pref_name>
None

> <i_lp_mmshare_version>
53161

> <r_lp_tautomer_probability>
1

> <s_lp_Force_Field>
OPLS_2005

> <r_lp_Energy>
28.227513

> <b_lp_Chiralities_Consistent>
1

> <s_lp_Variant>
CHEMBL221_lig640-1

> <s_i_glide_gridfile>
glide-grid_2oyu

> <i_i_glide_lignum>
780

> <i_i_glide_rotatable_bonds>
6

> <r_i_docking_score>
-8.38071323697669

> <r_i_glide_ligand_efficiency>
-0.322335124499103

> <r_i_glide_ligand_efficiency_sa>
-0.954916538001124

> <r_i_glide_ligand_efficiency_ln>
-1.9681830043409

> <r_i_glide_gscore>
-8.38071323697669

> <r_i_glide_lipo>
-4.67955031372784

> <r_i_glide_hbond>
0

> <r_i_glide_metal>
0

> <r_i_glide_rewards>
-2.42779997369509

> <r_i_glide_evdw>
-34.6135292053223

> <r_i_glide_ecoul>
-0.335176229476929

> <r_i_glide_erotb>
0.507589945133891

> <r_i_glide_esite>
0

> <r_i_glide_emodel>
-21.918702203667

> <r_i_glide_energy>
-34.9487054347992

> <r_i_glide_einternal>
26.4168167114258

> <i_i_glide_confnum>
58

> <i_i_glide_posenum>
207

> <r_i_glide_eff_state_penalty>
0

> <s_user_duplicate_titles>
CHEMBL221_lig640

> <i_f3d_flags>
0

> <s_m_subgroup_title>
dock_pv

> <s_m_subgroupid>
dock_pv

> <b_m_subgroup_collapsed>
1

$$$$
CHEMBL221_lig932
                    3D
 Schrodinger Suite 2021-1.
 44 46  0  0  1  0            999 V2000
   19.9346   49.0730   10.4311 C   0  0  0  0  0  0
   21.7943   50.6793   12.7173 C   0  0  0  0  0  0
   19.9395   49.0287   11.9062 C   0  0  0  0  0  0
   20.7010   49.6737   12.8933 C   0  0  0  0  0  0
   20.3616   49.2466   14.1036 N   0  0  0  0  0  0
   19.4117   48.3704   13.8991 C   0  0  0  0  0  0
   19.0886   48.2073   12.5972 N   0  0  0  0  0  0
   18.6234   47.3928   15.1634 S   0  0  0  0  0  0
   17.9477   48.7511   16.2312 C   0  0  0  0  0  0
   17.4859   46.6735   14.6000 O   0  0  0  0  0  0
   19.7230   46.6730   15.8000 O   0  0  0  0  0  0
   20.1235   50.2491    9.7089 C   0  0  0  0  0  0
   20.1230   50.1988    8.3156 C   0  0  0  0  0  0
   19.9252   48.9834    7.6570 C   0  0  0  0  0  0
   19.7230   47.8184    8.3865 C   0  0  0  0  0  0
   19.7230   47.8710    9.7650 C   0  0  0  0  0  0
   21.9123   51.7681   13.5884 C   0  0  0  0  0  0
   22.9230   52.7077   13.4000 C   0  0  0  0  0  0
   23.8272   52.5519   12.3522 C   0  0  0  0  0  0
   23.7265   51.4660   11.4864 C   0  0  0  0  0  0
   22.7103   50.5329   11.6714 C   0  0  0  0  0  0
   19.8831   48.8609    5.8898 S   0  0  0  0  0  0
   18.1230   49.0730    5.4000 C   0  0  0  0  0  0
   20.1230   47.4730    5.5874 O   0  0  0  0  0  0
   20.7484   49.8732    5.3008 O   0  0  0  0  0  0
   17.1461   48.2012   17.4000 C   0  0  0  0  0  0
   18.3962   47.5760   12.2156 H   0  0  0  0  0  0
   18.7946   49.3503   16.5604 H   0  0  0  0  0  0
   17.3231   49.3761   15.5967 H   0  0  0  0  0  0
   20.2672   51.1903   10.2188 H   0  0  0  0  0  0
   20.2356   51.1084    7.7422 H   0  0  0  0  0  0
   19.5626   46.8720    7.8959 H   0  0  0  0  0  0
   19.5997   46.9582   10.3193 H   0  0  0  0  0  0
   21.2135   51.8981   14.4020 H   0  0  0  0  0  0
   23.0061   53.5527   14.0688 H   0  0  0  0  0  0
   24.6133   53.2793   12.2114 H   0  0  0  0  0  0
   24.4334   51.3458   10.6773 H   0  0  0  0  0  0
   22.6341   49.6916   11.0000 H   0  0  0  0  0  0
   18.0668   49.0730    4.3123 H   0  0  0  0  0  0
   17.7496   50.0118    5.8001 H   0  0  0  0  0  0
   17.5659   48.2318    5.7999 H   0  0  0  0  0  0
   16.9230   49.0271   18.0743 H   0  0  0  0  0  0
   16.2143   47.7329   17.0835 H   0  0  0  0  0  0
   17.7230   47.4730   17.9689 H   0  0  0  0  0  0
  1  3  1  0  0  0
  1 12  2  0  0  0
  1 16  1  0  0  0
  2  4  1  0  0  0
  2 17  2  0  0  0
  2 21  1  0  0  0
  3  4  2  0  0  0
  3  7  1  0  0  0
  4  5  1  0  0  0
  5  6  2  0  0  0
  6  7  1  0  0  0
  6  8  1  0  0  0
  7 27  1  0  0  0
  8  9  1  0  0  0
  8 10  2  0  0  0
  8 11  2  0  0  0
  9 26  1  0  0  0
  9 28  1  0  0  0
  9 29  1  0  0  0
 12 13  1  0  0  0
 12 30  1  0  0  0
 13 14  2  0  0  0
 13 31  1  0  0  0
 14 15  1  0  0  0
 14 22  1  0  0  0
 15 16  2  0  0  0
 15 32  1  0  0  0
 16 33  1  0  0  0
 17 18  1  0  0  0
 17 34  1  0  0  0
 18 19  2  0  0  0
 18 35  1  0  0  0
 19 20  1  0  0  0
 19 36  1  0  0  0
 20 21  2  0  0  0
 20 37  1  0  0  0
 21 38  1  0  0  0
 22 23  1  0  0  0
 22 24  2  0  0  0
 22 25  2  0  0  0
 23 39  1  0  0  0
 23 40  1  0  0  0
 23 41  1  0  0  0
 26 42  1  0  0  0
 26 43  1  0  0  0
 26 44  1  0  0  0
M  END
> <s_m_entry_id>
5285

> <s_m_entry_name>
dock_pv.276

> <s_m_Source_Path>
/home/csk/Desktop/cluster/DUD-E-result/pgh1

> <s_m_Source_File>
dock_pv.maegz

> <i_m_Source_File_Index>
276

> <chembl_id>
CHEMBL2347674

> <chembl_pref_name>
None

> <i_lp_mmshare_version>
53161

> <r_lp_tautomer_probability>
0.499999999999999

> <s_lp_Force_Field>
OPLS_2005

> <r_lp_Energy>
12.403741

> <b_lp_Chiralities_Consistent>
1

> <s_lp_Variant>
CHEMBL221_lig932-1

> <s_i_glide_gridfile>
glide-grid_2oyu

> <i_i_glide_lignum>
1156

> <i_i_glide_rotatable_bonds>
5

> <r_i_docking_score>
-8.37749820567886

> <r_i_glide_ligand_efficiency>
-0.322211469449187

> <r_i_glide_ligand_efficiency_sa>
-0.954550210402306

> <r_i_glide_ligand_efficiency_ln>
-1.96742796478998

> <r_i_glide_gscore>
-8.37749820567886

> <r_i_glide_lipo>
-4.34626085120553

> <r_i_glide_hbond>
0

> <r_i_glide_metal>
0

> <r_i_glide_rewards>
-2.26035695900045

> <r_i_glide_evdw>
-20.1534385681152

> <r_i_glide_ecoul>
-7.38010835647583

> <r_i_glide_erotb>
0.383769271610412

> <r_i_glide_esite>
-0.0399614852061684

> <r_i_glide_emodel>
-33.0339536525865

> <r_i_glide_energy>
-27.5335469245911

> <r_i_glide_einternal>
2.39026927947998

> <i_i_glide_confnum>
14

> <i_i_glide_posenum>
212

> <r_i_glide_eff_state_penalty>
0

> <s_user_duplicate_titles>
CHEMBL221_lig932,CHEMBL221_lig932

> <i_f3d_flags>
0

> <s_m_subgroup_title>
dock_pv

> <s_m_subgroupid>
dock_pv

> <b_m_subgroup_collapsed>
1

$$$$
CHEMBL221_lig196
                    3D
 Schrodinger Suite 2021-1.
 50 52  0  0  1  0            999 V2000
   20.6276   49.6713   12.8702 C   0  0  0  0  0  0
   20.5060   49.4735   14.3317 C   0  0  0  0  0  0
   19.8888   48.8981   11.9934 C   0  0  0  0  0  0
   19.9207   49.0747    5.8793 S   0  0  0  0  0  0
   19.4560   48.6478   14.6708 N   0  0  0  0  0  0
   18.7309   47.8595   13.8000 N   0  0  0  0  0  0
   18.9231   47.9641   12.5460 C   0  0  0  0  0  0
   19.9378   49.0213    7.6657 C   0  0  0  0  0  0
   21.7059   50.6329   12.4766 C   0  0  0  0  0  0
   19.9331   48.9660   10.4904 C   0  0  0  0  0  0
   20.6456   50.2730    5.4919 O   0  0  0  0  0  0
   20.3813   47.8159    5.3382 O   0  0  0  0  0  0
   19.1701   48.4394   16.0899 C   0  0  0  0  0  0
   17.7559   48.7919   16.5437 C   0  0  0  0  0  0
   21.2508   50.0020   15.1660 O   0  0  0  0  0  0
   17.3236   49.8490   17.2711 C   0  0  0  0  0  0
   19.7230   47.8246    8.3305 C   0  0  0  0  0  0
   20.1230   50.1922    8.4078 C   0  0  0  0  0  0
   19.7230   47.8087    9.7180 C   0  0  0  0  0  0
   20.1231   50.1681    9.8014 C   0  0  0  0  0  0
   22.6736   50.2651   11.5409 C   0  0  0  0  0  0
   21.8217   51.8866   13.0997 C   0  0  0  0  0  0
   18.1229   49.1269    5.4007 C   0  0  0  0  0  0
   23.9051   52.2829   11.9792 C   0  0  0  0  0  0
   22.9237   52.7000   12.8685 C   0  0  0  0  0  0
   23.7691   51.0835   11.2882 C   0  0  0  0  0  0
   25.0019   53.0474   11.7999 F   0  0  0  0  0  0
   18.1226   51.0730   17.7375 C   0  0  0  0  0  0
   15.9395   49.8730   17.8000 C   0  0  0  0  0  0
   18.2980   47.3427   11.9160 H   0  0  0  0  0  0
   19.9152   48.9076   16.7229 H   0  0  0  0  0  0
   19.2913   47.3663   16.2360 H   0  0  0  0  0  0
   17.0273   48.0405   16.2725 H   0  0  0  0  0  0
   19.5724   46.9098    7.7833 H   0  0  0  0  0  0
   20.2326   51.1378    7.8963 H   0  0  0  0  0  0
   19.6174   46.8513   10.1954 H   0  0  0  0  0  0
   20.2357   51.0988   10.3358 H   0  0  0  0  0  0
   22.5848   49.3146   11.0387 H   0  0  0  0  0  0
   21.0830   52.2136   13.8178 H   0  0  0  0  0  0
   18.0582   49.0730    4.3146 H   0  0  0  0  0  0
   17.6533   48.2361    5.8000 H   0  0  0  0  0  0
   17.6621   50.0272    5.8001 H   0  0  0  0  0  0
   23.0299   53.6385   13.3926 H   0  0  0  0  0  0
   24.5231   50.7763   10.5807 H   0  0  0  0  0  0
   17.6426   51.9875   17.4002 H   0  0  0  0  0  0
   19.1580   51.0730   17.3999 H   0  0  0  0  0  0
   18.1229   51.0967   18.8249 H   0  0  0  0  0  0
   15.4344   50.7616   17.4000 H   0  0  0  0  0  0
   15.3606   48.9848   17.5428 H   0  0  0  0  0  0
   16.1230   49.8730   18.8621 H   0  0  0  0  0  0
  1  2  1  0  0  0
  1  3  2  0  0  0
  1  9  1  0  0  0
  2  5  1  0  0  0
  2 15  2  0  0  0
  3  7  1  0  0  0
  3 10  1  0  0  0
  4  8  1  0  0  0
  4 11  2  0  0  0
  4 12  2  0  0  0
  4 23  1  0  0  0
  5 13  1  0  0  0
  5  6  1  0  0  0
  6  7  2  0  0  0
  7 30  1  0  0  0
  8 18  2  0  0  0
  8 17  1  0  0  0
  9 21  1  0  0  0
  9 22  2  0  0  0
 10 19  1  0  0  0
 10 20  2  0  0  0
 13 14  1  0  0  0
 13 31  1  0  0  0
 13 32  1  0  0  0
 14 16  2  0  0  0
 14 33  1  0  0  0
 16 28  1  0  0  0
 16 29  1  0  0  0
 17 19  2  0  0  0
 17 34  1  0  0  0
 18 20  1  0  0  0
 18 35  1  0  0  0
 19 36  1  0  0  0
 20 37  1  0  0  0
 21 26  2  0  0  0
 21 38  1  0  0  0
 22 25  1  0  0  0
 22 39  1  0  0  0
 23 40  1  0  0  0
 23 41  1  0  0  0
 23 42  1  0  0  0
 24 25  2  0  0  0
 24 27  1  0  0  0
 24 26  1  0  0  0
 25 43  1  0  0  0
 26 44  1  0  0  0
 28 45  1  0  0  0
 28 46  1  0  0  0
 28 47  1  0  0  0
 29 48  1  0  0  0
 29 49  1  0  0  0
 29 50  1  0  0  0
M  END
> <s_m_entry_id>
5286

> <s_m_entry_name>
dock_pv.277

> <s_m_Source_Path>
/home/csk/Desktop/cluster/DUD-E-result/pgh1

> <s_m_Source_File>
dock_pv.maegz

> <i_m_Source_File_Index>
277

> <chembl_id>
CHEMBL158310

> <chembl_pref_name>
None

> <i_lp_mmshare_version>
53161

> <r_lp_tautomer_probability>
1

> <s_lp_Force_Field>
OPLS_2005

> <r_lp_Energy>
41.164289

> <b_lp_Chiralities_Consistent>
1

> <s_lp_Variant>
CHEMBL221_lig196-1

> <s_i_glide_gridfile>
glide-grid_2oyu

> <i_i_glide_lignum>
223

> <i_i_glide_rotatable_bonds>
5

> <r_i_docking_score>
-8.37705292066474

> <r_i_glide_ligand_efficiency>
-0.288863893816025

> <r_i_glide_ligand_efficiency_sa>
-0.887481400307967

> <r_i_glide_ligand_efficiency_ln>
-1.91813269509858

> <r_i_glide_gscore>
-8.37705292066474

> <r_i_glide_lipo>
-4.90406955793865

> <r_i_glide_hbond>
0

> <r_i_glide_metal>
0

> <r_i_glide_rewards>
-2.63835931960424

> <r_i_glide_evdw>
-10.1858587265015

> <r_i_glide_ecoul>
-5.09603071212769

> <r_i_glide_erotb>
0.463606789549037

> <r_i_glide_esite>
-0.0245332895266556

> <r_i_glide_emodel>
-45.0401205845467

> <r_i_glide_energy>
-15.2818894386292

> <r_i_glide_einternal>
6.60996055603027

> <i_i_glide_confnum>
44

> <i_i_glide_posenum>
197

> <r_i_glide_eff_state_penalty>
0

> <s_user_duplicate_titles>
CHEMBL221_lig196

> <i_f3d_flags>
0

> <s_m_subgroup_title>
dock_pv

> <s_m_subgroupid>
dock_pv

> <b_m_subgroup_collapsed>
1

$$$$
CHEMBL221_lig939
                    3D
 Schrodinger Suite 2021-1.
 39 41  0  0  1  0            999 V2000
   19.9216   49.0669   10.5972 C   0  0  0  0  0  0
   21.6595   50.6731   13.0007 C   0  0  0  0  0  0
   19.8741   49.0144   12.0838 C   0  0  0  0  0  0
   20.5716   49.6605   13.1087 C   0  0  0  0  0  0
   20.1559   49.2564   14.3062 N   0  0  0  0  0  0
   19.2085   48.3804   14.0963 C   0  0  0  0  0  0
   18.9880   48.2165   12.7603 N   0  0  0  0  0  0
   18.2854   47.5947   15.3672 S   0  0  0  0  0  0
   18.5191   45.8759   14.8291 C   0  0  0  0  0  0
   20.1231   50.2472    9.8796 C   0  0  0  0  0  0
   20.1230   50.2156    8.4824 C   0  0  0  0  0  0
   19.9478   49.0073    7.8000 C   0  0  0  0  0  0
   19.7230   47.8384    8.5246 C   0  0  0  0  0  0
   19.7229   47.8730    9.9090 C   0  0  0  0  0  0
   21.6507   51.7801   13.8533 C   0  0  0  0  0  0
   22.6795   52.7087   13.8000 C   0  0  0  0  0  0
   23.7442   52.5118   12.9277 C   0  0  0  0  0  0
   23.7437   51.4343   12.0423 C   0  0  0  0  0  0
   22.6965   50.5160   12.0760 C   0  0  0  0  0  0
   19.9658   48.8988    6.0166 S   0  0  0  0  0  0
   18.2524   49.2884    5.4424 C   0  0  0  0  0  0
   20.1230   47.4864    5.7198 O   0  0  0  0  0  0
   20.9079   49.8730    5.4655 O   0  0  0  0  0  0
   25.0956   53.5810   13.0000 Cl  0  0  0  0  0  0
   18.2916   47.6144   12.3444 H   0  0  0  0  0  0
   17.6083   45.3020   15.0000 H   0  0  0  0  0  0
   18.7841   45.7909   13.7776 H   0  0  0  0  0  0
   19.3230   45.4225   15.4000 H   0  0  0  0  0  0
   20.2582   51.1846   10.3990 H   0  0  0  0  0  0
   20.2467   51.1319    7.9227 H   0  0  0  0  0  0
   19.5696   46.8948    8.0255 H   0  0  0  0  0  0
   19.5921   46.9585   10.4565 H   0  0  0  0  0  0
   20.8524   51.9207   14.5672 H   0  0  0  0  0  0
   22.6686   53.5565   14.4694 H   0  0  0  0  0  0
   24.5675   51.2887   11.3578 H   0  0  0  0  0  0
   22.7110   49.6644   11.4118 H   0  0  0  0  0  0
   18.2700   49.2312    4.3566 H   0  0  0  0  0  0
   17.9643   50.2730    5.8000 H   0  0  0  0  0  0
   17.5853   48.5153    5.8000 H   0  0  0  0  0  0
  1  3  1  0  0  0
  1 10  2  0  0  0
  1 14  1  0  0  0
  2  4  1  0  0  0
  2 15  2  0  0  0
  2 19  1  0  0  0
  3  4  2  0  0  0
  3  7  1  0  0  0
  4  5  1  0  0  0
  5  6  2  0  0  0
  6  7  1  0  0  0
  6  8  1  0  0  0
  7 25  1  0  0  0
  8  9  1  0  0  0
  9 26  1  0  0  0
  9 27  1  0  0  0
  9 28  1  0  0  0
 10 11  1  0  0  0
 10 29  1  0  0  0
 11 12  2  0  0  0
 11 30  1  0  0  0
 12 13  1  0  0  0
 12 20  1  0  0  0
 13 14  2  0  0  0
 13 31  1  0  0  0
 14 32  1  0  0  0
 15 16  1  0  0  0
 15 33  1  0  0  0
 16 17  2  0  0  0
 16 34  1  0  0  0
 17 18  1  0  0  0
 17 24  1  0  0  0
 18 19  2  0  0  0
 18 35  1  0  0  0
 19 36  1  0  0  0
 20 21  1  0  0  0
 20 22  2  0  0  0
 20 23  2  0  0  0
 21 37  1  0  0  0
 21 38  1  0  0  0
 21 39  1  0  0  0
M  END
> <s_m_entry_id>
5287

> <s_m_entry_name>
dock_pv.278

> <s_m_Source_Path>
/home/csk/Desktop/cluster/DUD-E-result/pgh1

> <s_m_Source_File>
dock_pv.maegz

> <i_m_Source_File_Index>
278

> <chembl_id>
CHEMBL2347668

> <chembl_pref_name>
None

> <i_lp_mmshare_version>
53161

> <r_lp_tautomer_probability>
0.999999999976373

> <s_lp_Force_Field>
OPLS_2005

> <r_lp_Energy>
9.080334

> <b_lp_Chiralities_Consistent>
1

> <s_lp_Variant>
CHEMBL221_lig939-1

> <s_i_glide_gridfile>
glide-grid_2oyu

> <i_i_glide_lignum>
1167

> <i_i_glide_rotatable_bonds>
4

> <r_i_docking_score>
-8.36664158897082

> <r_i_glide_ligand_efficiency>
-0.348610066207117

> <r_i_glide_ligand_efficiency_sa>
-1.00556543531886

> <r_i_glide_ligand_efficiency_ln>
-2.00252125240666

> <r_i_glide_gscore>
-8.36664158897082

> <r_i_glide_lipo>
-4.29508179755627

> <r_i_glide_hbond>
0

> <r_i_glide_metal>
0

> <r_i_glide_rewards>
-1.93801419459327

> <r_i_glide_evdw>
-28.1906051635742

> <r_i_glide_ecoul>
-6.49547243118286

> <r_i_glide_erotb>
0.270041771997929

> <r_i_glide_esite>
-0.0197362459630616

> <r_i_glide_emodel>
-45.2020030775505

> <r_i_glide_energy>
-34.6860775947571

> <r_i_glide_einternal>
2.85592889785767

> <i_i_glide_confnum>
2

> <i_i_glide_posenum>
178

> <r_i_glide_eff_state_penalty>
0

> <s_user_duplicate_titles>
CHEMBL221_lig939

> <i_f3d_flags>
0

> <s_m_subgroup_title>
dock_pv

> <s_m_subgroupid>
dock_pv

> <b_m_subgroup_collapsed>
1

$$$$
CHEMBL221_lig930
                    3D
 Schrodinger Suite 2021-1.
 44 46  0  0  1  0            999 V2000
   19.9355   48.7692   10.1715 C   0  0  0  0  0  0
   21.5410   50.4523   12.6975 C   0  0  0  0  0  0
   19.9102   48.6473   11.6465 C   0  0  0  0  0  0
   20.5197   49.3535   12.7038 C   0  0  0  0  0  0
   20.1231   48.8694   13.8712 N   0  0  0  0  0  0
   19.3948   47.8278   13.5870 C   0  0  0  0  0  0
   19.1971   47.6488   12.2617 N   0  0  0  0  0  0
   18.8121   46.6729   14.8102 S   0  0  0  0  0  0
   17.2012   47.4614   15.3987 C   0  0  0  0  0  0
   18.5230   45.3774   14.2000 O   0  0  0  0  0  0
   19.8718   46.7434   15.8000 O   0  0  0  0  0  0
   19.7230   47.6300    9.3919 C   0  0  0  0  0  0
   19.7230   47.7023    8.0115 C   0  0  0  0  0  0
   19.9924   48.9138    7.4001 C   0  0  0  0  0  0
   20.1230   50.0715    8.1649 C   0  0  0  0  0  0
   20.1230   50.0030    9.5543 C   0  0  0  0  0  0
   21.5564   51.4023   13.7267 C   0  0  0  0  0  0
   22.5663   52.3539   13.7945 C   0  0  0  0  0  0
   23.5849   52.3498   12.8460 C   0  0  0  0  0  0
   23.5709   51.4266   11.8006 C   0  0  0  0  0  0
   22.5463   50.4832   11.7256 C   0  0  0  0  0  0
   20.0426   49.0158    5.6369 S   0  0  0  0  0  0
   18.2071   49.0730    5.3387 C   0  0  0  0  0  0
   20.5230   47.7793    5.0353 O   0  0  0  0  0  0
   20.7394   50.2533    5.3017 O   0  0  0  0  0  0
   24.8878   53.4730   13.0000 Cl  0  0  0  0  0  0
   17.3996   48.2730   16.6778 C   0  0  0  0  0  0
   18.6787   46.9002   11.8168 H   0  0  0  0  0  0
   16.8027   48.0652   14.5831 H   0  0  0  0  0  0
   16.5064   46.6427   15.5751 H   0  0  0  0  0  0
   19.5796   46.6730    9.8520 H   0  0  0  0  0  0
   19.5668   46.8233    7.4189 H   0  0  0  0  0  0
   20.2314   51.0336    7.6823 H   0  0  0  0  0  0
   20.2390   50.9053   10.1371 H   0  0  0  0  0  0
   20.7991   51.3940   14.4965 H   0  0  0  0  0  0
   22.5709   53.0741   14.5998 H   0  0  0  0  0  0
   24.3633   51.4227   11.0655 H   0  0  0  0  0  0
   22.5576   49.7484   10.9350 H   0  0  0  0  0  0
   18.0310   49.0730    4.2638 H   0  0  0  0  0  0
   17.8090   49.9750    5.8000 H   0  0  0  0  0  0
   17.7326   48.2043    5.7899 H   0  0  0  0  0  0
   16.4528   48.6730   17.0389 H   0  0  0  0  0  0
   17.8152   47.6541   17.4735 H   0  0  0  0  0  0
   18.0804   49.1084   16.5136 H   0  0  0  0  0  0
  1  3  1  0  0  0
  1 12  2  0  0  0
  1 16  1  0  0  0
  2  4  1  0  0  0
  2 17  2  0  0  0
  2 21  1  0  0  0
  3  4  2  0  0  0
  3  7  1  0  0  0
  4  5  1  0  0  0
  5  6  2  0  0  0
  6  7  1  0  0  0
  6  8  1  0  0  0
  7 28  1  0  0  0
  8  9  1  0  0  0
  8 10  2  0  0  0
  8 11  2  0  0  0
  9 27  1  0  0  0
  9 29  1  0  0  0
  9 30  1  0  0  0
 12 13  1  0  0  0
 12 31  1  0  0  0
 13 14  2  0  0  0
 13 32  1  0  0  0
 14 15  1  0  0  0
 14 22  1  0  0  0
 15 16  2  0  0  0
 15 33  1  0  0  0
 16 34  1  0  0  0
 17 18  1  0  0  0
 17 35  1  0  0  0
 18 19  2  0  0  0
 18 36  1  0  0  0
 19 20  1  0  0  0
 19 26  1  0  0  0
 20 21  2  0  0  0
 20 37  1  0  0  0
 21 38  1  0  0  0
 22 23  1  0  0  0
 22 24  2  0  0  0
 22 25  2  0  0  0
 23 39  1  0  0  0
 23 40  1  0  0  0
 23 41  1  0  0  0
 27 42  1  0  0  0
 27 43  1  0  0  0
 27 44  1  0  0  0
M  END
> <s_m_entry_id>
5288

> <s_m_entry_name>
dock_pv.279

> <s_m_Source_Path>
/home/csk/Desktop/cluster/DUD-E-result/pgh1

> <s_m_Source_File>
dock_pv.maegz

> <i_m_Source_File_Index>
279

> <chembl_id>
CHEMBL2347676

> <chembl_pref_name>
None

> <i_lp_mmshare_version>
53161

> <r_lp_tautomer_probability>
0.499999999999999

> <s_lp_Force_Field>
OPLS_2005

> <r_lp_Energy>
11.445634

> <b_lp_Chiralities_Consistent>
1

> <s_lp_Variant>
CHEMBL221_lig930-1

> <s_i_glide_gridfile>
glide-grid_2oyu

> <i_i_glide_lignum>
1152

> <i_i_glide_rotatable_bonds>
5

> <r_i_docking_score>
-8.36599690296252

> <r_i_glide_ligand_efficiency>
-0.30985173714676

> <r_i_glide_ligand_efficiency_sa>
-0.92955521041906

> <r_i_glide_ligand_efficiency_ln>
-1.94746615477136

> <r_i_glide_gscore>
-8.36599690296252

> <r_i_glide_lipo>
-4.5819691742789

> <r_i_glide_hbond>
-0.248890105841777

> <r_i_glide_metal>
0

> <r_i_glide_rewards>
-1.82445500245133

> <r_i_glide_evdw>
-21.0367603302002

> <r_i_glide_ecoul>
-6.20168113708496

> <r_i_glide_erotb>
0.329519393846336

> <r_i_glide_esite>
-0.0581118271640996

> <r_i_glide_emodel>
-32.7765469217992

> <r_i_glide_energy>
-27.2384414672852

> <r_i_glide_einternal>
1.36035168170929

> <i_i_glide_confnum>
2

> <i_i_glide_posenum>
4

> <r_i_glide_eff_state_penalty>
0

> <s_user_duplicate_titles>
CHEMBL221_lig930,CHEMBL221_lig930

> <i_f3d_flags>
0

> <s_m_subgroup_title>
dock_pv

> <s_m_subgroupid>
dock_pv

> <b_m_subgroup_collapsed>
1

$$$$
CHEMBL221_lig152
                    3D
 Schrodinger Suite 2021-1.
 43 45  0  0  1  0            999 V2000
   19.8019   48.6041   11.9706 N   0  0  0  0  0  0
   20.4831   49.1894   13.0273 C   0  0  0  0  0  0
   19.0280   47.6972   13.8947 N   0  0  0  0  0  0
   18.9233   47.7517   12.6000 C   0  0  0  0  0  0
   19.9237   49.0059    5.9805 S   0  0  0  0  0  0
   19.9844   48.5513   14.1728 C   0  0  0  0  0  0
   21.5030   50.2732   12.9628 C   0  0  0  0  0  0
   23.4001   51.4357   11.9925 C   0  0  0  0  0  0
   23.3386   52.4055   13.0118 C   0  0  0  0  0  0
   22.5064   50.3601   11.9939 C   0  0  0  0  0  0
   19.8985   48.7575   10.5616 C   0  0  0  0  0  0
   19.9247   48.8941    7.7632 C   0  0  0  0  0  0
   22.3403   52.2898   13.9854 C   0  0  0  0  0  0
   20.5321   50.2730    5.6822 O   0  0  0  0  0  0
   20.5136   47.8415    5.3562 O   0  0  0  0  0  0
   21.4311   51.2497   13.9541 C   0  0  0  0  0  0
   24.1595   53.5505   13.0001 N   0  0  0  0  0  0
   19.7229   47.6735    8.3825 C   0  0  0  0  0  0
   20.1230   50.0471    8.5427 C   0  0  0  0  0  0
   19.7230   47.6212    9.7676 C   0  0  0  0  0  0
   20.1230   49.9861    9.9378 C   0  0  0  0  0  0
   20.4848   48.7680   15.8014 Cl  0  0  0  0  0  0
   24.5228   51.5608   10.6824 Cl  0  0  0  0  0  0
   18.1518   49.0129    5.4655 C   0  0  0  0  0  0
   23.5379   54.8018   13.4000 C   0  0  0  0  0  0
   25.5607   53.4011   13.3668 C   0  0  0  0  0  0
   18.2230   47.1815   12.0142 H   0  0  0  0  0  0
   22.5705   49.6114   11.2190 H   0  0  0  0  0  0
   22.2417   53.0263   14.7692 H   0  0  0  0  0  0
   20.6591   51.2236   14.7083 H   0  0  0  0  0  0
   19.5867   46.7776    7.8002 H   0  0  0  0  0  0
   20.2374   51.0099    8.0631 H   0  0  0  0  0  0
   19.6273   46.6730   10.2442 H   0  0  0  0  0  0
   20.2382   50.8946   10.5118 H   0  0  0  0  0  0
   18.1196   49.0729    4.3830 H   0  0  0  0  0  0
   17.7230   48.0762    5.7976 H   0  0  0  0  0  0
   17.6789   49.8729    5.9155 H   0  0  0  0  0  0
   24.1358   55.6073   13.0000 H   0  0  0  0  0  0
   23.4829   54.9261   14.4809 H   0  0  0  0  0  0
   22.5271   54.9003   13.0001 H   0  0  0  0  0  0
   26.0974   54.3449   13.2586 H   0  0  0  0  0  0
   25.6627   53.0730   14.3992 H   0  0  0  0  0  0
   26.0527   52.6730   12.7313 H   0  0  0  0  0  0
  1  2  1  0  0  0
  1  4  1  0  0  0
  1 11  1  0  0  0
  2  6  2  0  0  0
  2  7  1  0  0  0
  3  4  2  0  0  0
  3  6  1  0  0  0
  4 27  1  0  0  0
  5 12  1  0  0  0
  5 14  2  0  0  0
  5 15  2  0  0  0
  5 24  1  0  0  0
  6 22  1  0  0  0
  7 10  2  0  0  0
  7 16  1  0  0  0
  8 10  1  0  0  0
  8 23  1  0  0  0
  8  9  2  0  0  0
  9 13  1  0  0  0
  9 17  1  0  0  0
 10 28  1  0  0  0
 11 20  2  0  0  0
 11 21  1  0  0  0
 12 19  1  0  0  0
 12 18  2  0  0  0
 13 16  2  0  0  0
 13 29  1  0  0  0
 16 30  1  0  0  0
 17 25  1  0  0  0
 17 26  1  0  0  0
 18 20  1  0  0  0
 18 31  1  0  0  0
 19 21  2  0  0  0
 19 32  1  0  0  0
 20 33  1  0  0  0
 21 34  1  0  0  0
 24 35  1  0  0  0
 24 36  1  0  0  0
 24 37  1  0  0  0
 25 38  1  0  0  0
 25 39  1  0  0  0
 25 40  1  0  0  0
 26 41  1  0  0  0
 26 42  1  0  0  0
 26 43  1  0  0  0
M  END
> <s_m_entry_id>
5289

> <s_m_entry_name>
dock_pv.280

> <s_m_Source_Path>
/home/csk/Desktop/cluster/DUD-E-result/pgh1

> <s_m_Source_File>
dock_pv.maegz

> <i_m_Source_File_Index>
280

> <chembl_id>
CHEMBL324048

> <chembl_pref_name>
None

> <i_lp_mmshare_version>
53161

> <r_lp_tautomer_probability>
1

> <s_lp_Force_Field>
OPLS_2005

> <r_lp_Energy>
20.022525

> <b_lp_Chiralities_Consistent>
1

> <s_lp_Variant>
CHEMBL221_lig152-1

> <s_i_glide_gridfile>
glide-grid_2oyu

> <i_i_glide_lignum>
174

> <i_i_glide_rotatable_bonds>
4

> <r_i_docking_score>
-8.36361762059962

> <r_i_glide_ligand_efficiency>
-0.321677600792293

> <r_i_glide_ligand_efficiency_sa>
-0.952968626606929

> <r_i_glide_ligand_efficiency_ln>
-1.96416815493003

> <r_i_glide_gscore>
-8.36361762059962

> <r_i_glide_lipo>
-4.47552025989681

> <r_i_glide_hbond>
0

> <r_i_glide_metal>
0

> <r_i_glide_rewards>
-2.60821362484933

> <r_i_glide_evdw>
-21.4123649597168

> <r_i_glide_ecoul>
-2.84673452377319

> <r_i_glide_erotb>
0.2340102350749

> <r_i_glide_esite>
-0.0162655443765583

> <r_i_glide_emodel>
-28.6005656393273

> <r_i_glide_energy>
-24.25909948349

> <r_i_glide_einternal>
3.7320876121521

> <i_i_glide_confnum>
17

> <i_i_glide_posenum>
327

> <r_i_glide_eff_state_penalty>
0

> <s_user_duplicate_titles>
CHEMBL221_lig152

> <i_f3d_flags>
0

> <s_m_subgroup_title>
dock_pv

> <s_m_subgroupid>
dock_pv

> <b_m_subgroup_collapsed>
1

$$$$
CHEMBL221_lig59
                    3D
 Schrodinger Suite 2021-1.
 28 29  0  0  1  0            999 V2000
   21.0491   50.5611   11.7410 C   0  0  0  0  0  0
   21.2706   49.2333   11.8116 N   0  0  0  0  0  0
   22.2338   51.4173   12.0737 C   0  0  0  0  0  0
   20.2042   48.3358   12.0560 N   0  0  0  0  0  0
   19.9519   51.0700   11.4962 O   0  0  0  0  0  0
   23.4369   51.2928   11.3667 C   0  0  0  0  0  0
   22.1239   52.3668   13.0939 C   0  0  0  0  0  0
   19.5226   48.3208   13.2852 C   0  0  0  0  0  0
   24.3887   53.0692   12.6871 C   0  0  0  0  0  0
   18.0769   48.2652   15.6721 C   0  0  0  0  0  0
   24.5091   52.1302   11.6658 C   0  0  0  0  0  0
   23.1993   53.1931   13.3998 C   0  0  0  0  0  0
   25.7215   54.0915   13.0774 Cl  0  0  0  0  0  0
   17.1605   48.2691   17.1355 Cl  0  0  0  0  0  0
   18.1977   47.8894   13.2995 C   0  0  0  0  0  0
   20.1235   48.7176   14.4862 C   0  0  0  0  0  0
   19.4089   48.6732   15.6804 C   0  0  0  0  0  0
   17.4694   47.8725   14.4848 C   0  0  0  0  0  0
   22.1852   48.8397   11.9916 H   0  0  0  0  0  0
   19.6450   48.2442   11.2166 H   0  0  0  0  0  0
   23.5431   50.5807   10.5624 H   0  0  0  0  0  0
   21.2016   52.4783   13.6485 H   0  0  0  0  0  0
   25.4272   52.0451   11.1061 H   0  0  0  0  0  0
   23.1075   53.9280   14.1855 H   0  0  0  0  0  0
   17.7214   47.5899   12.3791 H   0  0  0  0  0  0
   21.1431   49.0730   14.5010 H   0  0  0  0  0  0
   19.8808   48.9840   16.5995 H   0  0  0  0  0  0
   16.4374   47.5591   14.4807 H   0  0  0  0  0  0
  1  2  1  0  0  0
  1  3  1  0  0  0
  1  5  2  0  0  0
  2  4  1  0  0  0
  2 19  1  0  0  0
  3  6  1  0  0  0
  3  7  2  0  0  0
  4  8  1  0  0  0
  4 20  1  0  0  0
  6 11  2  0  0  0
  6 21  1  0  0  0
  7 12  1  0  0  0
  7 22  1  0  0  0
  8 15  2  0  0  0
  8 16  1  0  0  0
  9 12  2  0  0  0
  9 13  1  0  0  0
  9 11  1  0  0  0
 10 17  1  0  0  0
 10 14  1  0  0  0
 10 18  2  0  0  0
 11 23  1  0  0  0
 12 24  1  0  0  0
 15 18  1  0  0  0
 15 25  1  0  0  0
 16 17  2  0  0  0
 16 26  1  0  0  0
 17 27  1  0  0  0
 18 28  1  0  0  0
M  END
> <s_m_entry_id>
5290

> <s_m_entry_name>
dock_pv.281

> <s_m_Source_Path>
/home/csk/Desktop/cluster/DUD-E-result/pgh1

> <s_m_Source_File>
dock_pv.maegz

> <i_m_Source_File_Index>
281

> <chembl_id>
CHEMBL422530

> <chembl_pref_name>
None

> <i_lp_mmshare_version>
53161

> <r_lp_tautomer_probability>
1

> <s_lp_Force_Field>
OPLS_2005

> <r_lp_Energy>
15.721303

> <b_lp_Chiralities_Consistent>
1

> <s_lp_Variant>
CHEMBL221_lig59-1

> <s_i_glide_gridfile>
glide-grid_2oyu

> <i_i_glide_lignum>
76

> <i_i_glide_rotatable_bonds>
4

> <r_i_docking_score>
-8.36045157051772

> <r_i_glide_ligand_efficiency>
-0.464469531695429

> <r_i_glide_ligand_efficiency_sa>
-1.21725452689026

> <r_i_glide_ligand_efficiency_ln>
-2.14901096625246

> <r_i_glide_gscore>
-8.36045157051772

> <r_i_glide_lipo>
-3.96678346102762

> <r_i_glide_hbond>
0

> <r_i_glide_metal>
0

> <r_i_glide_rewards>
-2.74098432816576

> <r_i_glide_evdw>
-37.4631118774414

> <r_i_glide_ecoul>
-1.57883048057556

> <r_i_glide_erotb>
0.457296384634056

> <r_i_glide_esite>
0

> <r_i_glide_emodel>
-55.6368265086493

> <r_i_glide_energy>
-39.041942358017

> <r_i_glide_einternal>
5.96321868896484

> <i_i_glide_confnum>
2

> <i_i_glide_posenum>
327

> <r_i_glide_eff_state_penalty>
0

> <s_user_duplicate_titles>
CHEMBL221_lig59

> <i_f3d_flags>
0

> <s_m_subgroup_title>
dock_pv

> <s_m_subgroupid>
dock_pv

> <b_m_subgroup_collapsed>
1

$$$$
CHEMBL221_lig499
                    3D
 Schrodinger Suite 2021-1.
 36 38  0  0  1  0            999 V2000
   19.9511   49.0198    5.9176 S   0  0  0  0  0  0
   20.5399   49.4730   12.9343 C   0  0  0  0  0  0
   19.8804   48.7456   12.0081 C   0  0  0  0  0  0
   20.1230   49.0063   14.2574 C   0  0  0  0  0  0
   19.1795   48.0703   14.0952 O   0  0  0  0  0  0
   18.9230   47.8364   12.7293 C   0  0  0  0  0  0
   19.9384   48.9119    7.7081 C   0  0  0  0  0  0
   19.9075   48.8338   10.5231 C   0  0  0  0  0  0
   21.6444   50.4541   12.7519 C   0  0  0  0  0  0
   20.5065   47.8304    5.3102 O   0  0  0  0  0  0
   20.5994   50.2730    5.6007 O   0  0  0  0  0  0
   20.5338   49.3764   15.3567 O   0  0  0  0  0  0
   19.7230   47.7057    8.3623 C   0  0  0  0  0  0
   20.1230   50.0766    8.4636 C   0  0  0  0  0  0
   19.7230   47.6766    9.7553 C   0  0  0  0  0  0
   20.1230   50.0406    9.8555 C   0  0  0  0  0  0
   22.6415   50.2195   11.8000 C   0  0  0  0  0  0
   21.7230   51.6101   13.5421 C   0  0  0  0  0  0
   18.1738   49.0225    5.4000 C   0  0  0  0  0  0
   23.7809   52.2323   12.4585 C   0  0  0  0  0  0
   22.7900   52.4938   13.3999 C   0  0  0  0  0  0
   23.7076   51.1021   11.6509 C   0  0  0  0  0  0
   24.8312   53.0730   12.3366 F   0  0  0  0  0  0
   17.8788   48.0549   12.5040 H   0  0  0  0  0  0
   19.0956   46.7840   12.5034 H   0  0  0  0  0  0
   19.5861   46.7971    7.8000 H   0  0  0  0  0  0
   20.2387   51.0310    7.9681 H   0  0  0  0  0  0
   19.6341   46.7226   10.2425 H   0  0  0  0  0  0
   20.2524   50.9619   10.4049 H   0  0  0  0  0  0
   22.5916   49.3368   11.1820 H   0  0  0  0  0  0
   20.9656   51.8208   14.2837 H   0  0  0  0  0  0
   18.1240   49.0730    4.3175 H   0  0  0  0  0  0
   17.6840   49.8730    5.8458 H   0  0  0  0  0  0
   17.7230   48.0963    5.7362 H   0  0  0  0  0  0
   22.8587   53.3725   14.0254 H   0  0  0  0  0  0
   24.4826   50.9065   10.9234 H   0  0  0  0  0  0
  1  7  1  0  0  0
  1 10  2  0  0  0
  1 11  2  0  0  0
  1 19  1  0  0  0
  2  3  2  0  0  0
  2  4  1  0  0  0
  2  9  1  0  0  0
  3  8  1  0  0  0
  3  6  1  0  0  0
  4 12  2  0  0  0
  4  5  1  0  0  0
  5  6  1  0  0  0
  6 24  1  0  0  0
  6 25  1  0  0  0
  7 13  1  0  0  0
  7 14  2  0  0  0
  8 16  2  0  0  0
  8 15  1  0  0  0
  9 17  2  0  0  0
  9 18  1  0  0  0
 13 15  2  0  0  0
 13 26  1  0  0  0
 14 16  1  0  0  0
 14 27  1  0  0  0
 15 28  1  0  0  0
 16 29  1  0  0  0
 17 22  1  0  0  0
 17 30  1  0  0  0
 18 21  2  0  0  0
 18 31  1  0  0  0
 19 32  1  0  0  0
 19 33  1  0  0  0
 19 34  1  0  0  0
 20 21  1  0  0  0
 20 23  1  0  0  0
 20 22  2  0  0  0
 21 35  1  0  0  0
 22 36  1  0  0  0
M  END
> <s_m_entry_id>
5291

> <s_m_entry_name>
dock_pv.282

> <s_m_Source_Path>
/home/csk/Desktop/cluster/DUD-E-result/pgh1

> <s_m_Source_File>
dock_pv.maegz

> <i_m_Source_File_Index>
282

> <chembl_id>
CHEMBL51434

> <chembl_pref_name>
None

> <i_lp_mmshare_version>
53161

> <r_lp_tautomer_probability>
0.999841193423406

> <s_lp_Force_Field>
OPLS_2005

> <r_lp_Energy>
17.531247

> <b_lp_Chiralities_Consistent>
1

> <s_lp_Variant>
CHEMBL221_lig499-1

> <s_i_glide_gridfile>
glide-grid_2oyu

> <i_i_glide_lignum>
634

> <i_i_glide_rotatable_bonds>
3

> <r_i_docking_score>
-8.35819591668925

> <r_i_glide_ligand_efficiency>
-0.36339982246475

> <r_i_glide_ligand_efficiency_sa>
-1.03346075451129

> <r_i_glide_ligand_efficiency_ln>
-2.02108756058588

> <r_i_glide_gscore>
-8.35819591668925

> <r_i_glide_lipo>
-4.13512420922044

> <r_i_glide_hbond>
0

> <r_i_glide_metal>
0

> <r_i_glide_rewards>
-3.1245872976464

> <r_i_glide_evdw>
-15.937352180481

> <r_i_glide_ecoul>
-4.1682300567627

> <r_i_glide_erotb>
0.341013508581793

> <r_i_glide_esite>
-0.0173958008657551

> <r_i_glide_emodel>
-22.6269772882678

> <r_i_glide_energy>
-20.1055822372437

> <r_i_glide_einternal>
2.90226697921753

> <i_i_glide_confnum>
1

> <i_i_glide_posenum>
158

> <r_i_glide_eff_state_penalty>
0

> <s_user_duplicate_titles>
CHEMBL221_lig499

> <i_f3d_flags>
0

> <s_m_subgroup_title>
dock_pv

> <s_m_subgroupid>
dock_pv

> <b_m_subgroup_collapsed>
1

$$$$
CHEMBL221_lig718
                    3D
 Schrodinger Suite 2021-1.
 31 32  0  0  1  0            999 V2000
   20.6831   49.8520   14.3420 C   0  0  0  0  0  0
   21.1293   50.2319   13.1178 C   0  0  0  0  0  0
   19.5308   48.9159   14.5076 C   0  0  0  0  0  0
   22.1407   51.2556   12.8229 C   0  0  0  0  0  0
   19.2677   48.3212   15.7471 C   0  0  0  0  0  0
   18.1820   47.4780   15.9287 C   0  0  0  0  0  0
   17.3371   47.1889   14.8643 C   0  0  0  0  0  0
   17.5115   47.8730   13.6623 C   0  0  0  0  0  0
   18.6274   48.6730   13.4648 C   0  0  0  0  0  0
   23.1306   51.0179   11.8626 C   0  0  0  0  0  0
   23.0819   53.4453   13.2243 C   0  0  0  0  0  0
   22.0949   52.5007   13.4612 C   0  0  0  0  0  0
   21.3018   50.3814   15.6384 C   0  0  0  0  0  0
   24.1165   53.1619   12.3520 C   0  0  0  0  0  0
   24.0932   51.9952   11.6084 C   0  0  0  0  0  0
   24.9963   51.8730   10.6003 O   0  0  0  0  0  0
   23.0227   54.6730   13.8071 O   0  0  0  0  0  0
   16.1437   45.9269   15.0000 Cl  0  0  0  0  0  0
   20.6965   49.7965   12.2312 H   0  0  0  0  0  0
   19.8907   48.5178   16.6000 H   0  0  0  0  0  0
   18.0192   47.0730   16.9103 H   0  0  0  0  0  0
   16.8177   47.7377   12.8488 H   0  0  0  0  0  0
   18.7364   49.1491   12.5053 H   0  0  0  0  0  0
   23.1374   50.0936   11.3055 H   0  0  0  0  0  0
   21.2907   52.7410   14.1414 H   0  0  0  0  0  0
   20.5534   50.8887   16.2485 H   0  0  0  0  0  0
   21.7230   49.5521   16.2000 H   0  0  0  0  0  0
   22.1230   51.0730   15.4901 H   0  0  0  0  0  0
   24.8869   53.9011   12.2000 H   0  0  0  0  0  0
   25.2334   50.9654   10.3731 H   0  0  0  0  0  0
   23.1872   54.6164   14.7565 H   0  0  0  0  0  0
  1  3  1  0  0  0
  1  2  2  0  0  0
  1 13  1  0  0  0
  2  4  1  0  0  0
  2 19  1  0  0  0
  3  9  1  0  0  0
  3  5  2  0  0  0
  4 10  2  0  0  0
  4 12  1  0  0  0
  5  6  1  0  0  0
  5 20  1  0  0  0
  6  7  2  0  0  0
  6 21  1  0  0  0
  7  8  1  0  0  0
  7 18  1  0  0  0
  8  9  2  0  0  0
  8 22  1  0  0  0
  9 23  1  0  0  0
 10 15  1  0  0  0
 10 24  1  0  0  0
 11 14  1  0  0  0
 11 12  2  0  0  0
 11 17  1  0  0  0
 12 25  1  0  0  0
 13 26  1  0  0  0
 13 27  1  0  0  0
 13 28  1  0  0  0
 14 15  2  0  0  0
 14 29  1  0  0  0
 15 16  1  0  0  0
 16 30  1  0  0  0
 17 31  1  0  0  0
M  END
> <s_m_entry_id>
5292

> <s_m_entry_name>
dock_pv.283

> <s_m_Source_Path>
/home/csk/Desktop/cluster/DUD-E-result/pgh1

> <s_m_Source_File>
dock_pv.maegz

> <i_m_Source_File_Index>
283

> <chembl_id>
CHEMBL475539

> <chembl_pref_name>
None

> <i_lp_mmshare_version>
53161

> <r_lp_tautomer_probability>
1

> <s_lp_Force_Field>
OPLS_2005

> <r_lp_Energy>
19.404399

> <b_lp_Chiralities_Consistent>
1

> <s_lp_Variant>
CHEMBL221_lig718-1

> <s_i_glide_gridfile>
glide-grid_2oyu

> <i_i_glide_lignum>
887

> <i_i_glide_rotatable_bonds>
4

> <r_i_docking_score>
-8.35647027351767

> <r_i_glide_ligand_efficiency>
-0.464248348528759

> <r_i_glide_ligand_efficiency_sa>
-1.21667486301022

> <r_i_glide_ligand_efficiency_ln>
-2.14798759438781

> <r_i_glide_gscore>
-8.35647027351767

> <r_i_glide_lipo>
-4.12345731223067

> <r_i_glide_hbond>
-0.571659808564476

> <r_i_glide_metal>
0

> <r_i_glide_rewards>
-2.28982046969697

> <r_i_glide_evdw>
-18.5613269805908

> <r_i_glide_ecoul>
-6.4299955368042

> <r_i_glide_erotb>
0.521032996524616

> <r_i_glide_esite>
0

> <r_i_glide_emodel>
-28.7934563153676

> <r_i_glide_energy>
-24.991322517395

> <r_i_glide_einternal>
4.27504539489746

> <i_i_glide_confnum>
13

> <i_i_glide_posenum>
139

> <r_i_glide_eff_state_penalty>
0

> <s_user_duplicate_titles>
CHEMBL221_lig718

> <i_f3d_flags>
0

> <s_m_subgroup_title>
dock_pv

> <s_m_subgroupid>
dock_pv

> <b_m_subgroup_collapsed>
1

$$$$
CHEMBL221_lig104
                    3D
 Schrodinger Suite 2021-1.
 36 38  0  0  1  0            999 V2000
   20.5924   49.5347   12.7681 N   0  0  0  0  0  0
   19.8974   48.7529   11.8533 C   0  0  0  0  0  0
   20.0040   49.0240    5.8000 S   0  0  0  0  0  0
   19.2797   48.0882   13.9179 N   0  0  0  0  0  0
   20.1300   49.0772   13.9955 C   0  0  0  0  0  0
   19.1528   47.8730   12.6299 C   0  0  0  0  0  0
   20.5662   49.6795   15.2365 C   0  0  0  0  0  0
   20.9230   50.1956   16.2000 N   0  0  0  0  0  0
   21.6098   50.5110   12.5259 C   0  0  0  0  0  0
   19.9732   48.9229    7.5777 C   0  0  0  0  0  0
   19.9385   48.8420   10.3663 C   0  0  0  0  0  0
   20.5230   47.8128    5.1933 O   0  0  0  0  0  0
   20.6653   50.2729    5.4621 O   0  0  0  0  0  0
   19.7230   47.7194    8.2243 C   0  0  0  0  0  0
   20.1230   50.0934    8.3255 C   0  0  0  0  0  0
   19.7230   47.6846    9.6127 C   0  0  0  0  0  0
   20.1230   50.0583    9.7135 C   0  0  0  0  0  0
   22.6406   50.2047   11.6357 C   0  0  0  0  0  0
   21.6484   51.7308   13.2201 C   0  0  0  0  0  0
   18.1973   49.0314    5.4000 C   0  0  0  0  0  0
   23.7704   52.2512   12.2138 C   0  0  0  0  0  0
   23.7181   51.0730   11.4740 C   0  0  0  0  0  0
   22.7323   52.5907   13.0733 C   0  0  0  0  0  0
   24.8436   53.0651   12.1147 F   0  0  0  0  0  0
   18.5063   47.0942   12.2546 H   0  0  0  0  0  0
   19.5716   46.8153    7.6638 H   0  0  0  0  0  0
   20.2264   51.0476    7.8267 H   0  0  0  0  0  0
   19.6022   46.7371   10.1062 H   0  0  0  0  0  0
   20.2331   50.9807   10.2644 H   0  0  0  0  0  0
   22.6088   49.2761   11.0883 H   0  0  0  0  0  0
   20.8686   52.0159   13.9088 H   0  0  0  0  0  0
   18.0925   49.0730    4.3213 H   0  0  0  0  0  0
   17.7230   49.8730    5.8795 H   0  0  0  0  0  0
   17.7577   48.1074    5.7598 H   0  0  0  0  0  0
   24.5230   50.8220   10.7992 H   0  0  0  0  0  0
   22.7806   53.5096   13.6401 H   0  0  0  0  0  0
  1  2  1  0  0  0
  1  5  1  0  0  0
  1  9  1  0  0  0
  2  6  2  0  0  0
  2 11  1  0  0  0
  3 10  1  0  0  0
  3 12  2  0  0  0
  3 13  2  0  0  0
  3 20  1  0  0  0
  4  5  2  0  0  0
  4  6  1  0  0  0
  5  7  1  0  0  0
  6 25  1  0  0  0
  7  8  3  0  0  0
  9 18  1  0  0  0
  9 19  2  0  0  0
 10 15  2  0  0  0
 10 14  1  0  0  0
 11 16  1  0  0  0
 11 17  2  0  0  0
 14 16  2  0  0  0
 14 26  1  0  0  0
 15 17  1  0  0  0
 15 27  1  0  0  0
 16 28  1  0  0  0
 17 29  1  0  0  0
 18 22  2  0  0  0
 18 30  1  0  0  0
 19 23  1  0  0  0
 19 31  1  0  0  0
 20 32  1  0  0  0
 20 33  1  0  0  0
 20 34  1  0  0  0
 21 23  2  0  0  0
 21 24  1  0  0  0
 21 22  1  0  0  0
 22 35  1  0  0  0
 23 36  1  0  0  0
M  END
> <s_m_entry_id>
5293

> <s_m_entry_name>
dock_pv.284

> <s_m_Source_Path>
/home/csk/Desktop/cluster/DUD-E-result/pgh1

> <s_m_Source_File>
dock_pv.maegz

> <i_m_Source_File_Index>
284

> <chembl_id>
CHEMBL117146

> <chembl_pref_name>
None

> <i_lp_mmshare_version>
53161

> <r_lp_tautomer_probability>
1

> <s_lp_Force_Field>
OPLS_2005

> <r_lp_Energy>
14.204225

> <b_lp_Chiralities_Consistent>
1

> <s_lp_Variant>
CHEMBL221_lig104-1

> <s_i_glide_gridfile>
glide-grid_2oyu

> <i_i_glide_lignum>
124

> <i_i_glide_rotatable_bonds>
3

> <r_i_docking_score>
-8.35593597034741

> <r_i_glide_ligand_efficiency>
-0.348163998764475

> <r_i_glide_ligand_efficiency_sa>
-1.00427875416526

> <r_i_glide_ligand_efficiency_ln>
-1.99995890662125

> <r_i_glide_gscore>
-8.35593597034741

> <r_i_glide_lipo>
-3.8752908297739

> <r_i_glide_hbond>
0

> <r_i_glide_metal>
0

> <r_i_glide_rewards>
-3.42745361003923

> <r_i_glide_evdw>
-15.0250949859619

> <r_i_glide_ecoul>
-4.06182050704956

> <r_i_glide_erotb>
0.325229094111472

> <r_i_glide_esite>
-0.0178927992902262

> <r_i_glide_emodel>
-20.7477879273003

> <r_i_glide_energy>
-19.0869154930115

> <r_i_glide_einternal>
1.54386305809021

> <i_i_glide_confnum>
16

> <i_i_glide_posenum>
122

> <r_i_glide_eff_state_penalty>
0

> <s_user_duplicate_titles>
CHEMBL221_lig104

> <i_f3d_flags>
0

> <s_m_subgroup_title>
dock_pv

> <s_m_subgroupid>
dock_pv

> <b_m_subgroup_collapsed>
1

$$$$
CHEMBL221_lig105
                    3D
 Schrodinger Suite 2021-1.
 42 45  0  0  1  0            999 V2000
   20.3697   49.2050   10.7843 N   0  0  0  0  0  0
   19.6142   48.5076   11.6152 N   0  0  0  0  0  0
   20.8578   49.9283   12.8243 C   0  0  0  0  0  0
   21.2485   50.0135   11.4849 C   0  0  0  0  0  0
   19.8442   48.9539   12.8153 C   0  0  0  0  0  0
   20.1230   49.0066    9.4019 C   0  0  0  0  0  0
   19.0003   48.4241   13.9144 C   0  0  0  0  0  0
   21.3634   50.7634   13.9932 C   0  0  0  0  0  0
   22.3546   50.8364   10.8718 C   0  0  0  0  0  0
   19.7230   47.7461    8.9395 C   0  0  0  0  0  0
   20.1230   50.0795    8.5095 C   0  0  0  0  0  0
   17.7361   47.9115   13.6041 C   0  0  0  0  0  0
   19.4400   48.4052   15.2358 C   0  0  0  0  0  0
   22.0083   52.1124   13.6264 C   0  0  0  0  0  0
   23.5689   51.0274   11.8001 C   0  0  0  0  0  0
   19.8365   49.8729    7.1558 C   0  0  0  0  0  0
   18.5844   47.9296   16.2182 C   0  0  0  0  0  0
   16.9230   47.4091   14.5984 C   0  0  0  0  0  0
   19.3150   47.5868    7.6248 C   0  0  0  0  0  0
   17.3204   47.4731   15.9116 C   0  0  0  0  0  0
   19.4106   48.6316    6.7179 C   0  0  0  0  0  0
   23.3861   52.0560   12.9373 C   0  0  0  0  0  0
   22.0591   50.1952   14.5975 H   0  0  0  0  0  0
   20.5247   50.9866   14.6531 H   0  0  0  0  0  0
   21.9601   51.8128   10.6000 H   0  0  0  0  0  0
   22.7074   50.3639    9.9553 H   0  0  0  0  0  0
   19.6454   46.9068    9.6139 H   0  0  0  0  0  0
   20.3735   51.0730    8.8464 H   0  0  0  0  0  0
   17.3739   47.8731   12.5884 H   0  0  0  0  0  0
   20.4262   48.7470   15.5083 H   0  0  0  0  0  0
   22.1112   52.7097   14.5341 H   0  0  0  0  0  0
   21.3199   52.6730   13.0000 H   0  0  0  0  0  0
   24.4298   51.3306   11.2014 H   0  0  0  0  0  0
   23.8475   50.0600   12.2222 H   0  0  0  0  0  0
   19.8699   50.6966    6.4622 H   0  0  0  0  0  0
   18.8912   47.8730   17.2404 H   0  0  0  0  0  0
   16.0043   46.9283   14.3331 H   0  0  0  0  0  0
   18.8523   46.6730    7.3264 H   0  0  0  0  0  0
   16.6654   47.1000   16.6845 H   0  0  0  0  0  0
   19.1018   48.5028    5.6909 H   0  0  0  0  0  0
   23.6071   53.0512   12.5478 H   0  0  0  0  0  0
   24.1458   51.8730   13.6969 H   0  0  0  0  0  0
  1  2  1  0  0  0
  1  4  1  0  0  0
  1  6  1  0  0  0
  2  5  2  0  0  0
  3  4  2  0  0  0
  3  8  1  0  0  0
  3  5  1  0  0  0
  4  9  1  0  0  0
  5  7  1  0  0  0
  6 10  2  0  0  0
  6 11  1  0  0  0
  7 12  1  0  0  0
  7 13  2  0  0  0
  8 14  1  0  0  0
  8 23  1  0  0  0
  8 24  1  0  0  0
  9 15  1  0  0  0
  9 25  1  0  0  0
  9 26  1  0  0  0
 10 19  1  0  0  0
 10 27  1  0  0  0
 11 16  2  0  0  0
 11 28  1  0  0  0
 12 18  2  0  0  0
 12 29  1  0  0  0
 13 17  1  0  0  0
 13 30  1  0  0  0
 14 22  1  0  0  0
 14 31  1  0  0  0
 14 32  1  0  0  0
 15 22  1  0  0  0
 15 33  1  0  0  0
 15 34  1  0  0  0
 16 21  1  0  0  0
 16 35  1  0  0  0
 17 20  2  0  0  0
 17 36  1  0  0  0
 18 20  1  0  0  0
 18 37  1  0  0  0
 19 21  2  0  0  0
 19 38  1  0  0  0
 20 39  1  0  0  0
 21 40  1  0  0  0
 22 41  1  0  0  0
 22 42  1  0  0  0
M  END
> <s_m_entry_id>
5294

> <s_m_entry_name>
dock_pv.285

> <s_m_Source_Path>
/home/csk/Desktop/cluster/DUD-E-result/pgh1

> <s_m_Source_File>
dock_pv.maegz

> <i_m_Source_File_Index>
285

> <chembl_id>
CHEMBL348390

> <chembl_pref_name>
None

> <i_lp_mmshare_version>
53161

> <r_lp_tautomer_probability>
1

> <s_lp_Force_Field>
OPLS_2005

> <r_lp_Energy>
23.787844

> <b_lp_Chiralities_Consistent>
1

> <s_lp_Variant>
CHEMBL221_lig105-1

> <s_i_glide_gridfile>
glide-grid_2oyu

> <i_i_glide_lignum>
125

> <i_i_glide_rotatable_bonds>
2

> <r_i_docking_score>
-8.34885133084211

> <r_i_glide_ligand_efficiency>
-0.379493242311005

> <r_i_glide_ligand_efficiency_sa>
-1.06335498957775

> <r_i_glide_ligand_efficiency_ln>
-2.04076379700938

> <r_i_glide_gscore>
-8.34885133084211

> <r_i_glide_lipo>
-5.04885462727814

> <r_i_glide_hbond>
0

> <r_i_glide_metal>
0

> <r_i_glide_rewards>
-2.6462398239994

> <r_i_glide_evdw>
-23.1624431610107

> <r_i_glide_ecoul>
0.445904463529587

> <r_i_glide_erotb>
0.437479608956526

> <r_i_glide_esite>
0

> <r_i_glide_emodel>
-24.1872376384812

> <r_i_glide_energy>
-22.7165386974812

> <r_i_glide_einternal>
1.11338901519775

> <i_i_glide_confnum>
13

> <i_i_glide_posenum>
95

> <r_i_glide_eff_state_penalty>
0

> <s_user_duplicate_titles>
CHEMBL221_lig105,259601

> <i_f3d_flags>
0

> <s_m_subgroup_title>
dock_pv

> <s_m_subgroupid>
dock_pv

> <b_m_subgroup_collapsed>
1

$$$$
CHEMBL221_lig707
                    3D
 Schrodinger Suite 2021-1.
 37 39  0  0  1  0            999 V2000
   20.1283   49.1361   14.3679 C   0  0  0  0  0  0
   20.6276   49.6403   13.1671 C   0  0  0  0  0  0
   19.8530   49.0091   12.2107 N   0  0  0  0  0  0
   18.9499   48.2080   12.8112 N   0  0  0  0  0  0
   19.1436   48.2891   14.1716 N   0  0  0  0  0  0
   19.9113   49.0532   10.7939 C   0  0  0  0  0  0
   20.1228   50.2372   10.0779 C   0  0  0  0  0  0
   20.1230   50.2033    8.6785 C   0  0  0  0  0  0
   19.9617   48.9915    7.9923 C   0  0  0  0  0  0
   19.7262   47.8242    8.7125 C   0  0  0  0  0  0
   19.7230   47.8625   10.0963 C   0  0  0  0  0  0
   19.9652   48.8847    6.2071 S   0  0  0  0  0  0
   18.2480   49.3034    5.6608 C   0  0  0  0  0  0
   20.8899   49.8730    5.6560 O   0  0  0  0  0  0
   20.1230   47.4730    5.8910 O   0  0  0  0  0  0
   21.7383   50.6023   12.9334 C   0  0  0  0  0  0
   21.8006   51.7580   13.7132 C   0  0  0  0  0  0
   22.8691   52.6358   13.5673 C   0  0  0  0  0  0
   23.8878   52.3499   12.6597 C   0  0  0  0  0  0
   23.8048   51.2197   11.8440 C   0  0  0  0  0  0
   22.7355   50.3412   11.9903 C   0  0  0  0  0  0
   25.1023   53.2562   12.5993 C   0  0  0  0  0  0
   20.4779   49.3820   15.3598 H   0  0  0  0  0  0
   20.2504   51.1794   10.5919 H   0  0  0  0  0  0
   20.2457   51.1181    8.1168 H   0  0  0  0  0  0
   19.5732   46.8816    8.2090 H   0  0  0  0  0  0
   19.5907   46.9478   10.6447 H   0  0  0  0  0  0
   18.3192   49.4729    4.5928 H   0  0  0  0  0  0
   17.6174   48.4332    5.7998 H   0  0  0  0  0  0
   17.8820   50.1771    6.1967 H   0  0  0  0  0  0
   21.0329   51.9711   14.4426 H   0  0  0  0  0  0
   22.9227   53.5189   14.1876 H   0  0  0  0  0  0
   24.5850   50.9962   11.1302 H   0  0  0  0  0  0
   22.6972   49.4440   11.3917 H   0  0  0  0  0  0
   25.7046   53.0730   11.7105 H   0  0  0  0  0  0
   25.7247   53.0987   13.4803 H   0  0  0  0  0  0
   24.8021   54.3046   12.5998 H   0  0  0  0  0  0
  1  2  2  0  0  0
  1  5  1  0  0  0
  1 23  1  0  0  0
  2  3  1  0  0  0
  2 16  1  0  0  0
  3  6  1  0  0  0
  3  4  1  0  0  0
  4  5  2  0  0  0
  6 11  1  0  0  0
  6  7  2  0  0  0
  7  8  1  0  0  0
  7 24  1  0  0  0
  8  9  2  0  0  0
  8 25  1  0  0  0
  9 12  1  0  0  0
  9 10  1  0  0  0
 10 11  2  0  0  0
 10 26  1  0  0  0
 11 27  1  0  0  0
 12 13  1  0  0  0
 12 14  2  0  0  0
 12 15  2  0  0  0
 13 28  1  0  0  0
 13 29  1  0  0  0
 13 30  1  0  0  0
 16 17  2  0  0  0
 16 21  1  0  0  0
 17 18  1  0  0  0
 17 31  1  0  0  0
 18 19  2  0  0  0
 18 32  1  0  0  0
 19 20  1  0  0  0
 19 22  1  0  0  0
 20 21  2  0  0  0
 20 33  1  0  0  0
 21 34  1  0  0  0
 22 35  1  0  0  0
 22 36  1  0  0  0
 22 37  1  0  0  0
M  END
> <s_m_entry_id>
5295

> <s_m_entry_name>
dock_pv.286

> <s_m_Source_Path>
/home/csk/Desktop/cluster/DUD-E-result/pgh1

> <s_m_Source_File>
dock_pv.maegz

> <i_m_Source_File_Index>
286

> <chembl_id>
CHEMBL512917

> <chembl_pref_name>
None

> <i_lp_mmshare_version>
53161

> <r_lp_tautomer_probability>
1

> <s_lp_Force_Field>
OPLS_2005

> <r_lp_Energy>
12.897805

> <b_lp_Chiralities_Consistent>
1

> <s_lp_Variant>
CHEMBL221_lig707-1

> <s_i_glide_gridfile>
glide-grid_2oyu

> <i_i_glide_lignum>
876

> <i_i_glide_rotatable_bonds>
3

> <r_i_docking_score>
-8.34815422903635

> <r_i_glide_ligand_efficiency>
-0.379461555865288

> <r_i_glide_ligand_efficiency_sa>
-1.06326620291069

> <r_i_glide_ligand_efficiency_ln>
-2.04059339990065

> <r_i_glide_gscore>
-8.34815422903635

> <r_i_glide_lipo>
-4.06663273699846

> <r_i_glide_hbond>
0

> <r_i_glide_metal>
0

> <r_i_glide_rewards>
-2.69017763015939

> <r_i_glide_evdw>
-22.9606742858887

> <r_i_glide_ecoul>
-5.36844158172607

> <r_i_glide_erotb>
0.378257055786657

> <r_i_glide_esite>
-0.0163009661118007

> <r_i_glide_emodel>
-34.4945052105391

> <r_i_glide_energy>
-28.3291158676147

> <r_i_glide_einternal>
0.176769569516182

> <i_i_glide_confnum>
7

> <i_i_glide_posenum>
195

> <r_i_glide_eff_state_penalty>
0

> <s_user_duplicate_titles>
CHEMBL221_lig707,496810

> <i_f3d_flags>
0

> <s_m_subgroup_title>
dock_pv

> <s_m_subgroupid>
dock_pv

> <b_m_subgroup_collapsed>
1

$$$$
CHEMBL221_lig947
                    3D
 Schrodinger Suite 2021-1.
 31 33  0  0  1  0            999 V2000
   19.4736   48.3430   14.4722 C   0  0  0  0  0  0
   20.1462   49.1366   13.5500 C   0  0  0  0  0  0
   20.9229   49.9805   14.3755 C   0  0  0  0  0  0
   20.8150   49.6748   15.6511 N   0  0  0  0  0  0
   19.9015   48.6319   15.7237 O   0  0  0  0  0  0
   20.0306   49.1209   12.0516 C   0  0  0  0  0  0
   18.4026   47.2869   14.3841 C   0  0  0  0  0  0
   21.7372   51.1632   13.9859 C   0  0  0  0  0  0
   20.2648   50.2730   11.2904 C   0  0  0  0  0  0
   20.3474   50.1986    9.9050 C   0  0  0  0  0  0
   20.1230   48.9876    9.2649 C   0  0  0  0  0  0
   19.7230   47.8730    9.9951 C   0  0  0  0  0  0
   19.7230   47.9282   11.3878 C   0  0  0  0  0  0
   21.4440   52.3925   14.5833 C   0  0  0  0  0  0
   22.1230   53.5461   14.2000 C   0  0  0  0  0  0
   23.1253   53.4730   13.2403 C   0  0  0  0  0  0
   23.4043   52.2589   12.6145 C   0  0  0  0  0  0
   22.7291   51.1003   13.0000 C   0  0  0  0  0  0
   24.5505   52.2001   11.3340 Cl  0  0  0  0  0  0
   17.7391   47.4730   13.5391 H   0  0  0  0  0  0
   18.8234   46.2894   14.2671 H   0  0  0  0  0  0
   17.7745   47.2732   15.2751 H   0  0  0  0  0  0
   20.4211   51.2309   11.7586 H   0  0  0  0  0  0
   20.5748   51.0731    9.3194 H   0  0  0  0  0  0
   20.1708   48.9349    8.1867 H   0  0  0  0  0  0
   19.4922   46.9515    9.4837 H   0  0  0  0  0  0
   19.5059   47.0278   11.9393 H   0  0  0  0  0  0
   20.6800   52.4567   15.3443 H   0  0  0  0  0  0
   21.9054   54.4892   14.6801 H   0  0  0  0  0  0
   23.6784   54.3675   13.0000 H   0  0  0  0  0  0
   22.9502   50.1624   12.5105 H   0  0  0  0  0  0
  1  2  2  0  0  0
  1  5  1  0  0  0
  1  7  1  0  0  0
  2  3  1  0  0  0
  2  6  1  0  0  0
  3  4  2  0  0  0
  3  8  1  0  0  0
  4  5  1  0  0  0
  6  9  2  0  0  0
  6 13  1  0  0  0
  7 20  1  0  0  0
  7 21  1  0  0  0
  7 22  1  0  0  0
  8 14  2  0  0  0
  8 18  1  0  0  0
  9 10  1  0  0  0
  9 23  1  0  0  0
 10 11  2  0  0  0
 10 24  1  0  0  0
 11 12  1  0  0  0
 11 25  1  0  0  0
 12 13  2  0  0  0
 12 26  1  0  0  0
 13 27  1  0  0  0
 14 15  1  0  0  0
 14 28  1  0  0  0
 15 16  2  0  0  0
 15 29  1  0  0  0
 16 17  1  0  0  0
 16 30  1  0  0  0
 17 18  2  0  0  0
 17 19  1  0  0  0
 18 31  1  0  0  0
M  END
> <s_m_entry_id>
5296

> <s_m_entry_name>
dock_pv.287

> <s_m_Source_Path>
/home/csk/Desktop/cluster/DUD-E-result/pgh1

> <s_m_Source_File>
dock_pv.maegz

> <i_m_Source_File_Index>
287

> <chembl_id>
CHEMBL2380862

> <chembl_pref_name>
None

> <i_lp_mmshare_version>
53161

> <r_lp_tautomer_probability>
1

> <s_lp_Force_Field>
OPLS_2005

> <r_lp_Energy>
14.129992

> <b_lp_Chiralities_Consistent>
1

> <s_lp_Variant>
CHEMBL221_lig947-1

> <s_i_glide_gridfile>
glide-grid_2oyu

> <i_i_glide_lignum>
1175

> <i_i_glide_rotatable_bonds>
2

> <r_i_docking_score>
-8.34767189138636

> <r_i_glide_ligand_efficiency>
-0.43935115217823

> <r_i_glide_ligand_efficiency_sa>
-1.17236533768962

> <r_i_glide_ligand_efficiency_ln>
-2.11631411601922

> <r_i_glide_gscore>
-8.34767189138636

> <r_i_glide_lipo>
-4.54350908723213

> <r_i_glide_hbond>
0

> <r_i_glide_metal>
0

> <r_i_glide_rewards>
-2.44823170337986

> <r_i_glide_evdw>
-34.8430404663086

> <r_i_glide_ecoul>
-0.700893104076385

> <r_i_glide_erotb>
0.491354888152508

> <r_i_glide_esite>
0

> <r_i_glide_emodel>
-49.9201837805746

> <r_i_glide_energy>
-35.543933570385

> <r_i_glide_einternal>
2.07496619224548

> <i_i_glide_confnum>
3

> <i_i_glide_posenum>
230

> <r_i_glide_eff_state_penalty>
0

> <s_user_duplicate_titles>
CHEMBL221_lig947

> <i_f3d_flags>
0

> <s_m_subgroup_title>
dock_pv

> <s_m_subgroupid>
dock_pv

> <b_m_subgroup_collapsed>
1

$$$$
CHEMBL221_lig338
                    3D
 Schrodinger Suite 2021-1.
 33 35  0  0  1  0            999 V2000
   20.6203   49.6511   13.4936 C   0  0  0  0  0  0
   19.8831   48.9623   12.6146 C   0  0  0  0  0  0
   18.9836   48.1229   13.1801 O   0  0  0  0  0  0
   18.9011   48.5173   14.5680 N   0  0  2  0  0  0
   20.1952   49.1350   14.8329 C   0  0  0  0  0  0
   21.7061   50.6174   13.2391 C   0  0  0  0  0  0
   19.8565   49.0411   11.1375 C   0  0  0  0  0  0
   22.6989   50.3483   12.2884 C   0  0  0  0  0  0
   21.7226   51.8322   13.9277 C   0  0  0  0  0  0
   23.7238   52.4739   12.7508 C   0  0  0  0  0  0
   23.7107   51.2735   12.0470 C   0  0  0  0  0  0
   22.7246   52.7632   13.6742 C   0  0  0  0  0  0
   24.7227   53.3607   12.5495 F   0  0  0  0  0  0
   18.7059   47.2772   15.3071 C   0  0  0  0  0  0
   19.7151   47.8725   10.3876 C   0  0  0  0  0  0
   20.0259   50.2561   10.4678 C   0  0  0  0  0  0
   20.1281   50.2731    9.0801 C   0  0  0  0  0  0
   19.8387   47.8811    9.0006 C   0  0  0  0  0  0
   20.1223   49.0806    8.3590 C   0  0  0  0  0  0
   20.0911   49.9160   15.5849 H   0  0  0  0  0  0
   20.9216   48.4202   15.2155 H   0  0  0  0  0  0
   22.6956   49.4142   11.7467 H   0  0  0  0  0  0
   20.9534   52.0635   14.6509 H   0  0  0  0  0  0
   24.4882   51.0574   11.3291 H   0  0  0  0  0  0
   22.7441   53.7050   14.2023 H   0  0  0  0  0  0
   18.6850   47.4791   16.3787 H   0  0  0  0  0  0
   17.7497   46.8258   15.0389 H   0  0  0  0  0  0
   19.4954   46.5511   15.1076 H   0  0  0  0  0  0
   19.6109   46.9364   10.9026 H   0  0  0  0  0  0
   20.0963   51.1832   11.0181 H   0  0  0  0  0  0
   20.2660   51.2009    8.5503 H   0  0  0  0  0  0
   19.7771   46.9623    8.4375 H   0  0  0  0  0  0
   20.2438   49.1018    7.2853 H   0  0  0  0  0  0
  1  2  2  0  0  0
  1  5  1  0  0  0
  1  6  1  0  0  0
  2  3  1  0  0  0
  2  7  1  0  0  0
  3  4  1  0  0  0
  4  5  1  0  0  0
  4 14  1  0  0  0
  5 20  1  0  0  0
  5 21  1  0  0  0
  6  8  2  0  0  0
  6  9  1  0  0  0
  7 15  2  0  0  0
  7 16  1  0  0  0
  8 11  1  0  0  0
  8 22  1  0  0  0
  9 12  2  0  0  0
  9 23  1  0  0  0
 10 12  1  0  0  0
 10 13  1  0  0  0
 10 11  2  0  0  0
 11 24  1  0  0  0
 12 25  1  0  0  0
 14 26  1  0  0  0
 14 27  1  0  0  0
 14 28  1  0  0  0
 15 18  1  0  0  0
 15 29  1  0  0  0
 16 17  2  0  0  0
 16 30  1  0  0  0
 17 19  1  0  0  0
 17 31  1  0  0  0
 18 19  2  0  0  0
 18 32  1  0  0  0
 19 33  1  0  0  0
M  END
> <s_m_entry_id>
5297

> <s_m_entry_name>
dock_pv.288

> <s_m_Source_Path>
/home/csk/Desktop/cluster/DUD-E-result/pgh1

> <s_m_Source_File>
dock_pv.maegz

> <i_m_Source_File_Index>
288

> <chembl_id>
CHEMBL319326

> <chembl_pref_name>
None

> <i_lp_mmshare_version>
53161

> <r_lp_tautomer_probability>
1

> <s_lp_Force_Field>
OPLS_2005

> <r_lp_Energy>
30.384676

> <b_lp_Chiralities_Consistent>
1

> <s_lp_Variant>
CHEMBL221_lig338-1

> <s_i_glide_gridfile>
glide-grid_2oyu

> <i_i_glide_lignum>
403

> <i_i_glide_rotatable_bonds>
2

> <r_i_docking_score>
-8.34297487933531

> <r_i_glide_ligand_efficiency>
-0.439103941017648

> <r_i_glide_ligand_efficiency_sa>
-1.17170567902179

> <r_i_glide_ligand_efficiency_ln>
-2.1151233225817

> <r_i_glide_gscore>
-8.34297487933531

> <r_i_glide_lipo>
-4.23957382299999

> <r_i_glide_hbond>
0

> <r_i_glide_metal>
0

> <r_i_glide_rewards>
-3.1661540612849

> <r_i_glide_evdw>
-26.3674545288086

> <r_i_glide_ecoul>
-1.06077611446381

> <r_i_glide_erotb>
0.540242148559579

> <r_i_glide_esite>
0

> <r_i_glide_emodel>
-37.7237168761578

> <r_i_glide_energy>
-27.4282306432724

> <r_i_glide_einternal>
3.52204155921936

> <i_i_glide_confnum>
16

> <i_i_glide_posenum>
73

> <r_i_glide_eff_state_penalty>
0

> <s_user_duplicate_titles>
CHEMBL221_lig338

> <i_f3d_flags>
0

> <s_m_subgroup_title>
dock_pv

> <s_m_subgroupid>
dock_pv

> <b_m_subgroup_collapsed>
1

$$$$
CHEMBL221_lig339
                    3D
 Schrodinger Suite 2021-1.
 47 49  0  0  1  0            999 V2000
   19.8969   48.8854   11.9438 N   0  0  0  0  0  0
   20.6475   49.5499   12.9038 C   0  0  0  0  0  0
   19.0027   48.0517   12.5122 N   0  0  0  0  0  0
   19.9675   49.1404    5.9319 S   0  0  0  0  0  0
   20.1501   49.0730   14.1087 C   0  0  0  0  0  0
   19.1439   48.1580   13.8092 C   0  0  0  0  0  0
   19.9282   48.9708   10.5246 C   0  0  0  0  0  0
   19.9439   49.0730    7.7208 C   0  0  0  0  0  0
   20.7893   50.2729    5.5225 O   0  0  0  0  0  0
   20.2882   47.8323    5.4069 O   0  0  0  0  0  0
   21.7442   50.5395   12.6845 C   0  0  0  0  0  0
   20.1230   50.1915    9.8727 C   0  0  0  0  0  0
   19.7230   47.8179    9.7563 C   0  0  0  0  0  0
   19.7230   47.8625    8.3673 C   0  0  0  0  0  0
   20.1230   50.2356    8.4790 C   0  0  0  0  0  0
   18.2026   49.3385    5.4251 C   0  0  0  0  0  0
   18.2521   47.3609   14.7393 C   0  0  0  0  0  0
   21.8300   51.6597   13.5173 C   0  0  0  0  0  0
   22.7049   50.3413   11.6907 C   0  0  0  0  0  0
   17.2048   48.2386   15.4507 C   0  0  0  0  0  0
   17.7230   48.7420   16.7961 C   0  0  0  0  0  0
   16.8856   49.7904   17.5442 C   0  0  0  0  0  0
   22.8585   52.5825   13.3445 C   0  0  0  0  0  0
   23.7310   51.2644   11.5115 C   0  0  0  0  0  0
   23.8030   52.3820   12.3400 C   0  0  0  0  0  0
   20.4839   49.3592   15.0947 H   0  0  0  0  0  0
   20.2492   51.1074   10.4317 H   0  0  0  0  0  0
   19.5956   46.8666   10.2414 H   0  0  0  0  0  0
   19.5725   46.9590    7.7999 H   0  0  0  0  0  0
   20.2455   51.1844    7.9761 H   0  0  0  0  0  0
   18.1857   49.2771    4.3406 H   0  0  0  0  0  0
   17.6507   48.4862    5.8000 H   0  0  0  0  0  0
   17.8041   50.2730    5.8004 H   0  0  0  0  0  0
   18.8522   46.8096   15.4645 H   0  0  0  0  0  0
   17.7230   46.5841   14.2000 H   0  0  0  0  0  0
   21.0993   51.8204   14.2969 H   0  0  0  0  0  0
   22.6490   49.4730   11.0529 H   0  0  0  0  0  0
   16.3044   47.6537   15.6137 H   0  0  0  0  0  0
   16.9230   49.0729   14.8095 H   0  0  0  0  0  0
   18.7018   49.1807   16.6000 H   0  0  0  0  0  0
   17.8828   47.8753   17.4431 H   0  0  0  0  0  0
   17.3230   50.0234   18.5146 H   0  0  0  0  0  0
   15.8709   49.4436   17.7399 H   0  0  0  0  0  0
   16.8349   50.7326   17.0000 H   0  0  0  0  0  0
   22.9230   53.4487   13.9878 H   0  0  0  0  0  0
   24.4712   51.1100   10.7387 H   0  0  0  0  0  0
   24.6008   53.0979   12.2057 H   0  0  0  0  0  0
  1  2  1  0  0  0
  1  3  1  0  0  0
  1  7  1  0  0  0
  2  5  2  0  0  0
  2 11  1  0  0  0
  3  6  2  0  0  0
  4  8  1  0  0  0
  4  9  2  0  0  0
  4 10  2  0  0  0
  4 16  1  0  0  0
  5  6  1  0  0  0
  5 26  1  0  0  0
  6 17  1  0  0  0
  7 12  2  0  0  0
  7 13  1  0  0  0
  8 14  1  0  0  0
  8 15  2  0  0  0
 11 18  1  0  0  0
 11 19  2  0  0  0
 12 15  1  0  0  0
 12 27  1  0  0  0
 13 14  2  0  0  0
 13 28  1  0  0  0
 14 29  1  0  0  0
 15 30  1  0  0  0
 16 31  1  0  0  0
 16 32  1  0  0  0
 16 33  1  0  0  0
 17 20  1  0  0  0
 17 34  1  0  0  0
 17 35  1  0  0  0
 18 23  2  0  0  0
 18 36  1  0  0  0
 19 24  1  0  0  0
 19 37  1  0  0  0
 20 21  1  0  0  0
 20 38  1  0  0  0
 20 39  1  0  0  0
 21 22  1  0  0  0
 21 40  1  0  0  0
 21 41  1  0  0  0
 22 42  1  0  0  0
 22 43  1  0  0  0
 22 44  1  0  0  0
 23 25  1  0  0  0
 23 45  1  0  0  0
 24 25  2  0  0  0
 24 46  1  0  0  0
 25 47  1  0  0  0
M  END
> <s_m_entry_id>
5298

> <s_m_entry_name>
dock_pv.289

> <s_m_Source_Path>
/home/csk/Desktop/cluster/DUD-E-result/pgh1

> <s_m_Source_File>
dock_pv.maegz

> <i_m_Source_File_Index>
289

> <chembl_id>
CHEMBL165946

> <chembl_pref_name>
None

> <i_lp_mmshare_version>
53161

> <r_lp_tautomer_probability>
1

> <s_lp_Force_Field>
OPLS_2005

> <r_lp_Energy>
10.670407

> <b_lp_Chiralities_Consistent>
1

> <s_lp_Variant>
CHEMBL221_lig339-1

> <s_i_glide_gridfile>
glide-grid_2oyu

> <i_i_glide_lignum>
404

> <i_i_glide_rotatable_bonds>
6

> <r_i_docking_score>
-8.32266888560565

> <r_i_glide_ligand_efficiency>
-0.332906755424226

> <r_i_glide_ligand_efficiency_sa>
-0.973425256986885

> <r_i_glide_ligand_efficiency_ln>
-1.97272193614887

> <r_i_glide_gscore>
-8.32266888560565

> <r_i_glide_lipo>
-4.63085885538543

> <r_i_glide_hbond>
0

> <r_i_glide_metal>
0

> <r_i_glide_rewards>
-2.5633025760825

> <r_i_glide_evdw>
-20.9940586090088

> <r_i_glide_ecoul>
-4.38569307327271

> <r_i_glide_erotb>
0.608342522500451

> <r_i_glide_esite>
-0.0292930851968293

> <r_i_glide_emodel>
-31.0507730180993

> <r_i_glide_energy>
-25.3797516822815

> <r_i_glide_einternal>
2.30935955047607

> <i_i_glide_confnum>
12

> <i_i_glide_posenum>
98

> <r_i_glide_eff_state_penalty>
0

> <s_user_duplicate_titles>
CHEMBL221_lig339

> <i_f3d_flags>
0

> <s_m_subgroup_title>
dock_pv

> <s_m_subgroupid>
dock_pv

> <b_m_subgroup_collapsed>
1

$$$$
CHEMBL221_lig164
                    3D
 Schrodinger Suite 2021-1.
 33 35  0  0  1  0            999 V2000
   21.3230   51.0502   14.8528 S   0  0  0  0  0  0
   20.1230   50.0760    8.7564 O   0  0  0  0  0  0
   21.2789   49.4888   12.1540 N   0  0  0  0  0  0
   20.5230   48.9333   13.2159 C   0  0  0  0  0  0
   22.2462   50.5210   12.2843 C   0  0  0  0  0  0
   20.5427   49.5101   14.5070 C   0  0  0  0  0  0
   22.3652   51.2754   13.4688 C   0  0  0  0  0  0
   19.9272   47.6549   13.1130 C   0  0  0  0  0  0
   23.2213   50.7837   11.2909 C   0  0  0  0  0  0
   20.9235   49.0979   10.7689 C   0  0  0  0  0  0
   19.8628   48.9109   15.5695 C   0  0  0  0  0  0
   23.2734   52.3299   13.5568 C   0  0  0  0  0  0
   19.2356   47.0730   14.1707 C   0  0  0  0  0  0
   24.1495   51.8144   11.4000 C   0  0  0  0  0  0
   19.1910   47.7084   15.4000 C   0  0  0  0  0  0
   24.1633   52.6097   12.5321 C   0  0  0  0  0  0
   19.8368   49.9479   10.1331 C   0  0  1  0  0  0
   19.6909   51.3393   10.7169 C   0  0  0  0  0  0
   19.4806   50.6682    8.3488 H   0  0  0  0  0  0
   19.9450   47.0664   12.2133 H   0  0  0  0  0  0
   23.2713   50.2730   10.3502 H   0  0  0  0  0  0
   20.5230   48.0935   10.7054 H   0  0  0  0  0  0
   21.7872   49.0730   10.1145 H   0  0  0  0  0  0
   19.8527   49.3885   16.5383 H   0  0  0  0  0  0
   23.2820   52.9455   14.4378 H   0  0  0  0  0  0
   18.7454   46.1199   14.0384 H   0  0  0  0  0  0
   24.8476   51.9999   10.5960 H   0  0  0  0  0  0
   18.6573   47.2612   16.2260 H   0  0  0  0  0  0
   24.8642   53.4269   12.6226 H   0  0  0  0  0  0
   18.9230   49.3854   10.2403 H   0  0  0  0  0  0
   19.4170   51.3265   11.7718 H   0  0  0  0  0  0
   18.9230   51.8730   10.2000 H   0  0  0  0  0  0
   20.6310   51.8730   10.6000 H   0  0  0  0  0  0
  1  6  1  0  0  0
  1  7  1  0  0  0
  2 17  1  0  0  0
  2 19  1  0  0  0
  3  4  1  0  0  0
  3  5  1  0  0  0
  3 10  1  0  0  0
  4  6  2  0  0  0
  4  8  1  0  0  0
  5  7  2  0  0  0
  5  9  1  0  0  0
  6 11  1  0  0  0
  7 12  1  0  0  0
  8 13  2  0  0  0
  8 20  1  0  0  0
  9 14  2  0  0  0
  9 21  1  0  0  0
 10 17  1  0  0  0
 10 22  1  0  0  0
 10 23  1  0  0  0
 11 15  2  0  0  0
 11 24  1  0  0  0
 12 16  2  0  0  0
 12 25  1  0  0  0
 13 15  1  0  0  0
 13 26  1  0  0  0
 14 16  1  0  0  0
 14 27  1  0  0  0
 15 28  1  0  0  0
 16 29  1  0  0  0
 17 18  1  0  0  0
 17 30  1  0  0  0
 18 31  1  0  0  0
 18 32  1  0  0  0
 18 33  1  0  0  0
M  END
> <s_m_entry_id>
5299

> <s_m_entry_name>
dock_pv.290

> <s_m_Source_Path>
/home/csk/Desktop/cluster/DUD-E-result/pgh1

> <s_m_Source_File>
dock_pv.maegz

> <i_m_Source_File_Index>
290

> <chembl_id>
CHEMBL151658

> <chembl_pref_name>
None

> <i_lp_mmshare_version>
53161

> <r_lp_tautomer_probability>
1

> <s_lp_Force_Field>
OPLS_2005

> <r_lp_Energy>
23.928086

> <b_lp_Chiralities_Consistent>
1

> <s_lp_Variant>
CHEMBL221_lig164-2

> <s_i_glide_gridfile>
glide-grid_2oyu

> <i_i_glide_lignum>
187

> <i_i_glide_rotatable_bonds>
3

> <r_i_docking_score>
-8.30513292215072

> <r_i_glide_ligand_efficiency>
-0.461396273452818

> <r_i_glide_ligand_efficiency_sa>
-1.20920031180651

> <r_i_glide_ligand_efficiency_ln>
-2.13479159293557

> <r_i_glide_gscore>
-8.30513292215072

> <r_i_glide_lipo>
-4.05984693819976

> <r_i_glide_hbond>
-0.245596969100435

> <r_i_glide_metal>
0

> <r_i_glide_rewards>
-2.53463389818322

> <r_i_glide_evdw>
-26.4760494232178

> <r_i_glide_ecoul>
-2.7177209854126

> <r_i_glide_erotb>
0.266405502305472

> <r_i_glide_esite>
0

> <r_i_glide_emodel>
-36.2579715364066

> <r_i_glide_energy>
-29.1937704086304

> <r_i_glide_einternal>
6.21279907226562

> <i_i_glide_confnum>
2

> <i_i_glide_posenum>
266

> <r_i_glide_eff_state_penalty>
0

> <s_user_duplicate_titles>
CHEMBL221_lig164

> <i_f3d_flags>
0

> <s_m_subgroup_title>
dock_pv

> <s_m_subgroupid>
dock_pv

> <b_m_subgroup_collapsed>
1

$$$$
CHEMBL221_lig997
                    3D
 Schrodinger Suite 2021-1.
 35 36  0  0  1  0            999 V2000
   22.9230   52.0447   11.4668 C   0  0  2  0  0  0
   22.8282   52.3985   12.9564 C   0  0  0  0  0  0
   22.0137   51.6903   13.7616 C   0  0  0  0  0  0
   21.2263   50.5725   13.2326 C   0  0  0  0  0  0
   20.5533   49.6694   14.0608 C   0  0  0  0  0  0
   19.7723   48.6517   13.4979 C   0  0  0  0  0  0
   19.7120   48.5171   12.1073 C   0  0  0  0  0  0
   20.4017   49.3872   11.2635 C   0  0  0  0  0  0
   21.1578   50.4157   11.8432 C   0  0  0  0  0  0
   21.7508   51.3369   11.0000 O   0  0  0  0  0  0
   23.5131   53.5853   13.4000 C   0  0  0  0  0  0
   24.7316   53.7322   13.3749 O   0  0  0  0  0  0
   22.6490   54.5594   13.8000 O   0  0  0  0  0  0
   24.2295   51.3525   11.0460 C   0  0  0  0  0  0
   18.8173   47.5215   14.5288 S   0  0  0  0  0  0
   18.4417   48.6730   15.5994 F   0  0  0  0  0  0
   19.1752   46.2782   13.5566 F   0  0  0  0  0  0
   17.9450   46.4892   15.4000 F   0  0  0  0  0  0
   17.4790   47.8730   13.6905 F   0  0  0  0  0  0
   20.1230   47.1457   15.4000 F   0  0  0  0  0  0
   25.2620   52.1981   11.0665 F   0  0  0  0  0  0
   24.5082   50.2955   11.8000 F   0  0  0  0  0  0
   24.1230   50.9179    9.8000 F   0  0  0  0  0  0
   20.3397   49.2300    9.7419 C   0  0  0  0  0  0
   19.6788   47.9437    9.1836 C   0  0  0  0  0  0
   22.9233   52.9759   10.9128 H   0  0  0  0  0  0
   21.8952   51.9789   14.7978 H   0  0  0  0  0  0
   20.6079   49.7788   15.1351 H   0  0  0  0  0  0
   19.0997   47.7343   11.6852 H   0  0  0  0  0  0
   23.1401   55.3311   14.1007 H   0  0  0  0  0  0
   19.8593   50.1138    9.3186 H   0  0  0  0  0  0
   21.3717   49.2530    9.4000 H   0  0  0  0  0  0
   19.7857   47.9008    8.0992 H   0  0  0  0  0  0
   20.1230   47.0378    9.5881 H   0  0  0  0  0  0
   18.6132   47.8730    9.4000 H   0  0  0  0  0  0
  1  2  1  0  0  0
  1 10  1  0  0  0
  1 14  1  0  0  0
  1 26  1  0  0  0
  2  3  2  0  0  0
  2 11  1  0  0  0
  3  4  1  0  0  0
  3 27  1  0  0  0
  4  5  1  0  0  0
  4  9  2  0  0  0
  5  6  2  0  0  0
  5 28  1  0  0  0
  6  7  1  0  0  0
  6 15  1  0  0  0
  7  8  2  0  0  0
  7 29  1  0  0  0
  8  9  1  0  0  0
  8 24  1  0  0  0
  9 10  1  0  0  0
 11 12  2  0  0  0
 11 13  1  0  0  0
 13 30  1  0  0  0
 14 21  1  0  0  0
 14 22  1  0  0  0
 14 23  1  0  0  0
 15 16  1  0  0  0
 15 17  1  0  0  0
 15 18  1  0  0  0
 15 19  1  0  0  0
 15 20  1  0  0  0
 24 25  1  0  0  0
 24 31  1  0  0  0
 24 32  1  0  0  0
 25 33  1  0  0  0
 25 34  1  0  0  0
 25 35  1  0  0  0
M  END
> <s_m_entry_id>
5301

> <s_m_entry_name>
dock_pv.292

> <s_m_Source_Path>
/home/csk/Desktop/cluster/DUD-E-result/pgh1

> <s_m_Source_File>
dock_pv.maegz

> <i_m_Source_File_Index>
292

> <chembl_id>
CHEMBL4068589

> <chembl_pref_name>
None

> <i_lp_mmshare_version>
53161

> <r_lp_tautomer_probability>
1

> <s_lp_Force_Field>
OPLS_2005

> <r_lp_Energy>
12.667046

> <b_lp_Chiralities_Consistent>
1

> <s_lp_Variant>
CHEMBL221_lig997-1

> <s_i_glide_gridfile>
glide-grid_2oyu

> <i_i_glide_lignum>
1245

> <i_i_glide_rotatable_bonds>
5

> <r_i_docking_score>
-8.28994149550955

> <r_i_glide_ligand_efficiency>
-0.331597659820382

> <r_i_glide_ligand_efficiency_sa>
-0.969597438224335

> <r_i_glide_ligand_efficiency_ln>
-1.96496456393535

> <r_i_glide_gscore>
-8.28994149550955

> <r_i_glide_lipo>
-3.57046370123827

> <r_i_glide_hbond>
0

> <r_i_glide_metal>
0

> <r_i_glide_rewards>
-2.67276294999292

> <r_i_glide_evdw>
-31.8350524902344

> <r_i_glide_ecoul>
-3.3276641368866

> <r_i_glide_erotb>
0.12345932540194

> <r_i_glide_esite>
-0.0792719246355916

> <r_i_glide_emodel>
-47.6056631606093

> <r_i_glide_energy>
-35.162716627121

> <r_i_glide_einternal>
5.26291179656982

> <i_i_glide_confnum>
1

> <i_i_glide_posenum>
174

> <r_i_glide_eff_state_penalty>
0

> <s_user_duplicate_titles>
CHEMBL221_lig997

> <i_f3d_flags>
0

> <s_m_subgroup_title>
dock_pv

> <s_m_subgroupid>
dock_pv

> <b_m_subgroup_collapsed>
1

$$$$
CHEMBL221_lig744
                    3D
 Schrodinger Suite 2021-1.
 49 51  0  0  1  0            999 V2000
   18.8421   47.9332   12.6645 C   0  0  0  0  0  0
   19.6583   48.7612   11.8852 C   0  0  0  0  0  0
   20.4254   49.6847   12.4827 N   0  0  0  0  0  0
   20.5434   49.6879   13.8204 C   0  0  0  0  0  0
   19.8296   48.9052   14.6593 N   0  0  0  0  0  0
   18.9450   48.0525   14.0646 C   0  0  0  0  0  0
   19.7722   48.7700   10.3921 C   0  0  0  0  0  0
   19.5677   47.6194    9.6203 C   0  0  0  0  0  0
   19.6723   47.6426    8.2313 C   0  0  0  0  0  0
   19.9370   48.8466    7.5888 C   0  0  0  0  0  0
   20.1225   50.0008    8.3427 C   0  0  0  0  0  0
   20.1233   49.9532    9.7240 C   0  0  0  0  0  0
   18.0535   47.2449   15.0006 C   0  0  0  0  0  0
   18.0930   47.6942   16.2571 F   0  0  0  0  0  0
   16.7894   47.3050   14.5862 F   0  0  0  0  0  0
   18.4608   45.9744   14.9984 F   0  0  0  0  0  0
   19.9588   49.0084    5.8163 S   0  0  0  0  0  0
   18.1536   49.0650    5.3980 C   0  0  0  0  0  0
   20.4766   47.8138    5.1757 O   0  0  0  0  0  0
   20.6222   50.2686    5.5275 O   0  0  0  0  0  0
   21.5274   50.4685   14.3985 O   0  0  0  0  0  0
   22.5186   51.2290   13.6570 C   0  0  0  0  0  0
   22.8307   50.8599   12.1731 C   0  0  0  0  0  0
   24.1871   51.2101   11.6098 C   0  0  0  0  0  0
   22.1204   52.6827   13.9381 C   0  0  0  0  0  0
   24.6097   52.6728   11.6577 C   0  0  0  0  0  0
   23.0331   53.7933   13.4011 C   0  0  0  0  0  0
   24.4762   53.4244   12.9978 C   0  0  0  0  0  0
   18.1216   47.2842   12.2031 H   0  0  0  0  0  0
   19.3439   46.6838   10.0960 H   0  0  0  0  0  0
   19.5080   46.7415    7.6704 H   0  0  0  0  0  0
   20.2706   50.9587    7.8611 H   0  0  0  0  0  0
   20.2712   50.8811   10.2601 H   0  0  0  0  0  0
   18.0532   49.0697    4.3141 H   0  0  0  0  0  0
   17.7055   49.9548    5.8357 H   0  0  0  0  0  0
   17.6894   48.1656    5.7830 H   0  0  0  0  0  0
   23.4432   51.0719   14.2025 H   0  0  0  0  0  0
   22.7866   49.7734   12.0526 H   0  0  0  0  0  0
   22.0838   51.3065   11.5200 H   0  0  0  0  0  0
   24.9203   50.5853   12.1113 H   0  0  0  0  0  0
   24.2236   50.8848   10.5667 H   0  0  0  0  0  0
   21.0901   52.8487   13.6104 H   0  0  0  0  0  0
   22.1103   52.8033   15.0206 H   0  0  0  0  0  0
   25.6553   52.7097   11.3568 H   0  0  0  0  0  0
   24.0702   53.2086   10.8785 H   0  0  0  0  0  0
   23.0879   54.5788   14.1577 H   0  0  0  0  0  0
   22.5054   54.2745   12.5974 H   0  0  0  0  0  0
   24.9618   52.8655   13.7976 H   0  0  0  0  0  0
   25.0435   54.3512   12.9109 H   0  0  0  0  0  0
  1  2  2  0  0  0
  1  6  1  0  0  0
  1 29  1  0  0  0
  2  7  1  0  0  0
  2  3  1  0  0  0
  3  4  2  0  0  0
  4  5  1  0  0  0
  4 21  1  0  0  0
  5  6  2  0  0  0
  6 13  1  0  0  0
  7  8  2  0  0  0
  7 12  1  0  0  0
  8  9  1  0  0  0
  8 30  1  0  0  0
  9 10  2  0  0  0
  9 31  1  0  0  0
 10 17  1  0  0  0
 10 11  1  0  0  0
 11 12  2  0  0  0
 11 32  1  0  0  0
 12 33  1  0  0  0
 13 14  1  0  0  0
 13 15  1  0  0  0
 13 16  1  0  0  0
 17 18  1  0  0  0
 17 19  2  0  0  0
 17 20  2  0  0  0
 18 34  1  0  0  0
 18 35  1  0  0  0
 18 36  1  0  0  0
 21 22  1  0  0  0
 22 23  1  0  0  0
 22 25  1  0  0  0
 22 37  1  0  0  0
 23 24  1  0  0  0
 23 38  1  0  0  0
 23 39  1  0  0  0
 24 26  1  0  0  0
 24 40  1  0  0  0
 24 41  1  0  0  0
 25 27  1  0  0  0
 25 42  1  0  0  0
 25 43  1  0  0  0
 26 28  1  0  0  0
 26 44  1  0  0  0
 26 45  1  0  0  0
 27 28  1  0  0  0
 27 46  1  0  0  0
 27 47  1  0  0  0
 28 48  1  0  0  0
 28 49  1  0  0  0
M  END
> <s_m_entry_id>
5302

> <s_m_entry_name>
dock_pv.293

> <s_m_Source_Path>
/home/csk/Desktop/cluster/DUD-E-result/pgh1

> <s_m_Source_File>
dock_pv.maegz

> <i_m_Source_File_Index>
293

> <chembl_id>
CHEMBL561005

> <chembl_pref_name>
None

> <i_lp_mmshare_version>
53161

> <r_lp_tautomer_probability>
1

> <s_lp_Force_Field>
OPLS_2005

> <r_lp_Energy>
17.349057

> <b_lp_Chiralities_Consistent>
1

> <s_lp_Variant>
CHEMBL221_lig744-1

> <s_i_glide_gridfile>
glide-grid_2oyu

> <i_i_glide_lignum>
913

> <i_i_glide_rotatable_bonds>
5

> <r_i_docking_score>
-8.28742240729735

> <r_i_glide_ligand_efficiency>
-0.295979371689191

> <r_i_glide_ligand_efficiency_sa>
-0.898767694975793

> <r_i_glide_ligand_efficiency_ln>
-1.91298042089943

> <r_i_glide_gscore>
-8.28742240729735

> <r_i_glide_lipo>
-4.23840471825584

> <r_i_glide_hbond>
0

> <r_i_glide_metal>
0

> <r_i_glide_rewards>
-2.80528695293906

> <r_i_glide_evdw>
-21.2656097412109

> <r_i_glide_ecoul>
-3.25403952598572

> <r_i_glide_erotb>
0.34473513930958

> <r_i_glide_esite>
-0.0370794594536201

> <r_i_glide_emodel>
-21.0348784861489

> <r_i_glide_energy>
-24.5196492671967

> <r_i_glide_einternal>
11.9545679092407

> <i_i_glide_confnum>
44

> <i_i_glide_posenum>
347

> <r_i_glide_eff_state_penalty>
0

> <s_user_duplicate_titles>
CHEMBL221_lig744

> <i_f3d_flags>
0

> <s_m_subgroup_title>
dock_pv

> <s_m_subgroupid>
dock_pv

> <b_m_subgroup_collapsed>
1

$$$$
CHEMBL221_lig694
                    3D
 Schrodinger Suite 2021-1.
 33 35  0  0  1  0            999 V2000
   21.8347   51.2642   12.3339 C   0  0  1  0  0  0
   21.9607   50.4283   11.0567 C   0  0  0  0  0  0
   20.7005   49.6472   10.9064 C   0  0  0  0  0  0
   20.1230   49.5488    9.8259 O   0  0  0  0  0  0
   20.2711   49.0061   12.1902 C   0  0  0  0  0  0
   19.3234   47.9981   12.2241 C   0  0  0  0  0  0
   18.8534   47.4795   13.4272 C   0  0  0  0  0  0
   19.3134   47.9981   14.6291 C   0  0  0  0  0  0
   20.2690   49.0057   14.6326 C   0  0  0  0  0  0
   20.7410   49.4976   13.4181 C   0  0  0  0  0  0
   21.7343   50.4408   13.4931 O   0  0  0  0  0  0
   23.0003   52.1901   12.4905 C   0  0  0  0  0  0
   22.8728   53.3377   13.2767 C   0  0  0  0  0  0
   23.9482   54.1927   13.4000 C   0  0  0  0  0  0
   25.1557   53.8590   12.8256 C   0  0  0  0  0  0
   25.2929   52.7382   12.0263 C   0  0  0  0  0  0
   24.2168   51.8983   11.8587 C   0  0  0  0  0  0
   26.2057   54.6730   13.0000 O   0  0  0  0  0  0
   21.7230   53.6452   13.9503 O   0  0  0  0  0  0
   18.8252   47.5028   15.8003 O   0  0  0  0  0  0
   18.9230   47.4730   11.0483 O   0  0  0  0  0  0
   20.9321   51.8730   12.2811 H   0  0  0  0  0  0
   22.1179   51.0729   10.1957 H   0  0  0  0  0  0
   22.7621   49.7071   11.2077 H   0  0  0  0  0  0
   18.1254   46.6883   13.4348 H   0  0  0  0  0  0
   20.6455   49.3987   15.5650 H   0  0  0  0  0  0
   23.8645   55.0730   14.0163 H   0  0  0  0  0  0
   26.2212   52.5457   11.5089 H   0  0  0  0  0  0
   24.3714   51.0292   11.2379 H   0  0  0  0  0  0
   25.9740   55.5162   13.4001 H   0  0  0  0  0  0
   21.8679   54.3564   14.5788 H   0  0  0  0  0  0
   18.0967   46.8957   15.6578 H   0  0  0  0  0  0
   18.5230   46.5927   11.1272 H   0  0  0  0  0  0
  1  2  1  0  0  0
  1 11  1  0  0  0
  1 12  1  0  0  0
  1 22  1  0  0  0
  2  3  1  0  0  0
  2 23  1  0  0  0
  2 24  1  0  0  0
  3  4  2  0  0  0
  3  5  1  0  0  0
  5  6  1  0  0  0
  5 10  2  0  0  0
  6  7  2  0  0  0
  6 21  1  0  0  0
  7  8  1  0  0  0
  7 25  1  0  0  0
  8  9  2  0  0  0
  8 20  1  0  0  0
  9 10  1  0  0  0
  9 26  1  0  0  0
 10 11  1  0  0  0
 12 13  1  0  0  0
 12 17  2  0  0  0
 13 14  2  0  0  0
 13 19  1  0  0  0
 14 15  1  0  0  0
 14 27  1  0  0  0
 15 16  2  0  0  0
 15 18  1  0  0  0
 16 17  1  0  0  0
 16 28  1  0  0  0
 17 29  1  0  0  0
 18 30  1  0  0  0
 19 31  1  0  0  0
 20 32  1  0  0  0
 21 33  1  0  0  0
M  END
> <s_m_entry_id>
5303

> <s_m_entry_name>
dock_pv.294

> <s_m_Source_Path>
/home/csk/Desktop/cluster/DUD-E-result/pgh1

> <s_m_Source_File>
dock_pv.maegz

> <i_m_Source_File_Index>
294

> <chembl_id>
CHEMBL465194

> <chembl_pref_name>
STEPPOGENIN

> <i_lp_mmshare_version>
53161

> <r_lp_tautomer_probability>
0.99994999989801

> <s_lp_Force_Field>
OPLS_2005

> <r_lp_Energy>
25.696805

> <b_lp_Chiralities_Consistent>
1

> <s_lp_Variant>
CHEMBL221_lig694-2

> <s_i_glide_gridfile>
glide-grid_2oyu

> <i_i_glide_lignum>
857

> <i_i_glide_rotatable_bonds>
5

> <r_i_docking_score>
-8.28093629957941

> <r_i_glide_ligand_efficiency>
-0.394330299979972

> <r_i_glide_ligand_efficiency_sa>
-1.08792739699029

> <r_i_glide_ligand_efficiency_ln>
-2.04744476686365

> <r_i_glide_gscore>
-8.28093629957941

> <r_i_glide_lipo>
-3.82463963478055

> <r_i_glide_hbond>
0

> <r_i_glide_metal>
0

> <r_i_glide_rewards>
-2.30776862421803

> <r_i_glide_evdw>
-20.5537738800049

> <r_i_glide_ecoul>
-8.93170928955078

> <r_i_glide_erotb>
0.218917046852028

> <r_i_glide_esite>
0

> <r_i_glide_emodel>
-34.1473306790218

> <r_i_glide_energy>
-29.4854831695557

> <r_i_glide_einternal>
9.35680198669434

> <i_i_glide_confnum>
3

> <i_i_glide_posenum>
367

> <r_i_glide_eff_state_penalty>
0

> <s_user_duplicate_titles>
CHEMBL221_lig694

> <i_f3d_flags>
0

> <s_m_subgroup_title>
dock_pv

> <s_m_subgroupid>
dock_pv

> <b_m_subgroup_collapsed>
1

$$$$
CHEMBL221_lig705
                    3D
 Schrodinger Suite 2021-1.
 42 44  0  0  1  0            999 V2000
   20.4196   49.4730   14.8723 C   0  0  0  0  0  0
   20.8123   49.8648   13.5991 C   0  0  0  0  0  0
   19.9183   49.2251   12.7630 N   0  0  0  0  0  0
   19.0546   48.4927   13.4884 N   0  0  0  0  0  0
   19.3854   48.6594   14.8191 N   0  0  0  0  0  0
   19.8880   49.1950   11.3486 C   0  0  0  0  0  0
   19.7230   47.9655   10.7194 C   0  0  0  0  0  0
   19.8104   47.8730    9.3397 C   0  0  0  0  0  0
   20.1084   49.0006    8.5648 C   0  0  0  0  0  0
   20.1232   50.2550    9.1799 C   0  0  0  0  0  0
   20.0589   50.3525   10.5743 C   0  0  0  0  0  0
   20.0393   48.7648    6.7759 S   0  0  0  0  0  0
   18.8944   49.8730    5.9319 C   0  0  0  0  0  0
   21.3230   49.0730    6.1717 O   0  0  0  0  0  0
   19.4272   47.4730    6.6000 O   0  0  0  0  0  0
   21.9385   50.7172   13.1708 C   0  0  0  0  0  0
   22.8099   50.2797   12.1764 C   0  0  0  0  0  0
   23.8908   51.0668   11.8133 C   0  0  0  0  0  0
   24.1433   52.2795   12.4709 C   0  0  0  0  0  0
   23.2260   52.7233   13.4319 C   0  0  0  0  0  0
   22.1349   51.9455   13.7908 C   0  0  0  0  0  0
   25.3230   53.0153   12.2000 N   0  0  0  0  0  0
   25.6193   54.2416   12.9465 C   0  0  0  0  0  0
   26.1230   52.6730   11.0008 C   0  0  0  0  0  0
   20.8797   49.7586   15.8070 H   0  0  0  0  0  0
   19.5511   47.0730   11.3002 H   0  0  0  0  0  0
   19.6873   46.9001    8.8885 H   0  0  0  0  0  0
   20.2307   51.1370    8.5704 H   0  0  0  0  0  0
   20.1438   51.3219   11.0445 H   0  0  0  0  0  0
   19.0261   49.6603    4.8773 H   0  0  0  0  0  0
   17.8574   49.7411    6.2000 H   0  0  0  0  0  0
   19.3230   50.8024    6.2000 H   0  0  0  0  0  0
   22.6648   49.3231   11.6962 H   0  0  0  0  0  0
   24.5516   50.6818   11.0536 H   0  0  0  0  0  0
   23.3582   53.6601   13.9500 H   0  0  0  0  0  0
   21.4575   52.2938   14.5574 H   0  0  0  0  0  0
   24.8107   54.9646   12.8400 H   0  0  0  0  0  0
   26.5230   54.7349   12.5996 H   0  0  0  0  0  0
   25.7228   54.0277   14.0099 H   0  0  0  0  0  0
   26.6115   51.7133   11.0000 H   0  0  0  0  0  0
   25.4710   52.6730   10.1274 H   0  0  0  0  0  0
   26.9230   53.3950   10.8131 H   0  0  0  0  0  0
  1  2  2  0  0  0
  1  5  1  0  0  0
  1 25  1  0  0  0
  2  3  1  0  0  0
  2 16  1  0  0  0
  3  6  1  0  0  0
  3  4  1  0  0  0
  4  5  2  0  0  0
  6  7  2  0  0  0
  6 11  1  0  0  0
  7  8  1  0  0  0
  7 26  1  0  0  0
  8  9  2  0  0  0
  8 27  1  0  0  0
  9 12  1  0  0  0
  9 10  1  0  0  0
 10 11  2  0  0  0
 10 28  1  0  0  0
 11 29  1  0  0  0
 12 13  1  0  0  0
 12 14  2  0  0  0
 12 15  2  0  0  0
 13 30  1  0  0  0
 13 31  1  0  0  0
 13 32  1  0  0  0
 16 17  2  0  0  0
 16 21  1  0  0  0
 17 18  1  0  0  0
 17 33  1  0  0  0
 18 19  2  0  0  0
 18 34  1  0  0  0
 19 20  1  0  0  0
 19 22  1  0  0  0
 20 21  2  0  0  0
 20 35  1  0  0  0
 21 36  1  0  0  0
 22 23  1  0  0  0
 22 24  1  0  0  0
 23 37  1  0  0  0
 23 38  1  0  0  0
 23 39  1  0  0  0
 24 40  1  0  0  0
 24 41  1  0  0  0
 24 42  1  0  0  0
M  END
> <s_m_entry_id>
5304

> <s_m_entry_name>
dock_pv.295

> <s_m_Source_Path>
/home/csk/Desktop/cluster/DUD-E-result/pgh1

> <s_m_Source_File>
dock_pv.maegz

> <i_m_Source_File_Index>
295

> <chembl_id>
CHEMBL457331

> <chembl_pref_name>
None

> <i_lp_mmshare_version>
53161

> <r_lp_tautomer_probability>
1

> <s_lp_Force_Field>
OPLS_2005

> <r_lp_Energy>
15.672259

> <b_lp_Chiralities_Consistent>
1

> <s_lp_Variant>
CHEMBL221_lig705-1

> <s_i_glide_gridfile>
glide-grid_2oyu

> <i_i_glide_lignum>
874

> <i_i_glide_rotatable_bonds>
4

> <r_i_docking_score>
-8.27345085118643

> <r_i_glide_ligand_efficiency>
-0.344727118799435

> <r_i_glide_ligand_efficiency_sa>
-0.994365076870209

> <r_i_glide_ligand_efficiency_ln>
-1.98021643261055

> <r_i_glide_gscore>
-8.27345085118643

> <r_i_glide_lipo>
-4.17068644926632

> <r_i_glide_hbond>
0

> <r_i_glide_metal>
0

> <r_i_glide_rewards>
-2.6401617217933

> <r_i_glide_evdw>
-16.6149368286133

> <r_i_glide_ecoul>
-6.36872100830078

> <r_i_glide_erotb>
0.323452312548959

> <r_i_glide_esite>
0

> <r_i_glide_emodel>
-22.8187317327989

> <r_i_glide_energy>
-22.9836578369141

> <r_i_glide_einternal>
1.15586030483246

> <i_i_glide_confnum>
1

> <i_i_glide_posenum>
330

> <r_i_glide_eff_state_penalty>
0

> <s_user_duplicate_titles>
CHEMBL221_lig705,496812

> <i_f3d_flags>
0

> <s_m_subgroup_title>
dock_pv

> <s_m_subgroupid>
dock_pv

> <b_m_subgroup_collapsed>
1

$$$$
CHEMBL221_lig310
                    3D
 Schrodinger Suite 2021-1.
 35 37  0  0  1  0            999 V2000
   20.7754   49.7741   13.3054 C   0  0  0  0  0  0
   19.9444   49.0431   12.4183 C   0  0  0  0  0  0
   19.6448   48.7888    6.3509 S   0  0  0  0  0  0
   20.4740   49.4811   14.6411 C   0  0  0  0  0  0
   19.0615   48.2192   13.1252 C   0  0  0  0  0  0
   19.2548   48.2729   14.8344 S   0  0  0  0  0  0
   19.9284   48.9382    8.1139 C   0  0  0  0  0  0
   19.9588   49.0755   10.9193 C   0  0  0  0  0  0
   21.8735   50.7113   12.9252 C   0  0  0  0  0  0
   18.2878   49.2164    6.0312 O   0  0  0  0  0  0
   20.1229   47.4730    5.9967 O   0  0  0  0  0  0
   19.7233   47.7920    8.8756 C   0  0  0  0  0  0
   20.1230   50.1651    8.7644 C   0  0  0  0  0  0
   19.7230   47.8728   10.2598 C   0  0  0  0  0  0
   20.1574   50.2324   10.1604 C   0  0  0  0  0  0
   21.2191   50.2736   16.2002 Br  0  0  0  0  0  0
   22.8829   50.2629   12.0707 C   0  0  0  0  0  0
   21.9452   51.9972   13.4711 C   0  0  0  0  0  0
   20.7592   49.8729    5.4504 C   0  0  0  0  0  0
   24.0707   52.3284   12.3924 C   0  0  0  0  0  0
   23.9787   51.0731   11.7998 C   0  0  0  0  0  0
   23.0492   52.8040   13.2098 C   0  0  0  0  0  0
   25.1788   53.0738   12.2000 F   0  0  0  0  0  0
   18.3099   47.5639   12.7092 H   0  0  0  0  0  0
   19.5241   46.8438    8.3985 H   0  0  0  0  0  0
   20.1838   51.0778    8.1930 H   0  0  0  0  0  0
   19.5821   46.9761   10.8333 H   0  0  0  0  0  0
   20.2960   51.1882   10.6446 H   0  0  0  0  0  0
   22.8405   49.2678   11.6526 H   0  0  0  0  0  0
   21.1681   52.3591   14.1292 H   0  0  0  0  0  0
   20.2198   50.2542    4.6000 H   0  0  0  0  0  0
   21.6384   49.3060    5.1589 H   0  0  0  0  0  0
   20.9229   50.6731    6.1392 H   0  0  0  0  0  0
   24.7782   50.7122   11.1721 H   0  0  0  0  0  0
   23.1311   53.7809   13.6642 H   0  0  0  0  0  0
  1  2  1  0  0  0
  1  4  2  0  0  0
  1  9  1  0  0  0
  2  5  2  0  0  0
  2  8  1  0  0  0
  3  7  1  0  0  0
  3 10  2  0  0  0
  3 11  2  0  0  0
  3 19  1  0  0  0
  4  6  1  0  0  0
  4 16  1  0  0  0
  5  6  1  0  0  0
  5 24  1  0  0  0
  7 13  1  0  0  0
  7 12  2  0  0  0
  8 14  2  0  0  0
  8 15  1  0  0  0
  9 17  2  0  0  0
  9 18  1  0  0  0
 12 14  1  0  0  0
 12 25  1  0  0  0
 13 15  2  0  0  0
 13 26  1  0  0  0
 14 27  1  0  0  0
 15 28  1  0  0  0
 17 21  1  0  0  0
 17 29  1  0  0  0
 18 22  2  0  0  0
 18 30  1  0  0  0
 19 31  1  0  0  0
 19 32  1  0  0  0
 19 33  1  0  0  0
 20 22  1  0  0  0
 20 23  1  0  0  0
 20 21  2  0  0  0
 21 34  1  0  0  0
 22 35  1  0  0  0
M  END
> <s_m_entry_id>
5305

> <s_m_entry_name>
dock_pv.296

> <s_m_Source_Path>
/home/csk/Desktop/cluster/DUD-E-result/pgh1

> <s_m_Source_File>
dock_pv.maegz

> <i_m_Source_File_Index>
296

> <chembl_id>
CHEMBL328837

> <chembl_pref_name>
None

> <i_lp_mmshare_version>
53161

> <r_lp_tautomer_probability>
1

> <s_lp_Force_Field>
OPLS_2005

> <r_lp_Energy>
13.926163

> <b_lp_Chiralities_Consistent>
1

> <s_lp_Variant>
CHEMBL221_lig310-1

> <s_i_glide_gridfile>
glide-grid_2oyu

> <i_i_glide_lignum>
345

> <i_i_glide_rotatable_bonds>
3

> <r_i_docking_score>
-8.26918033887038

> <r_i_glide_ligand_efficiency>
-0.359529579950886

> <r_i_glide_ligand_efficiency_sa>
-1.0224542996336

> <r_i_glide_ligand_efficiency_ln>
-1.99956278672064

> <r_i_glide_gscore>
-8.26918033887038

> <r_i_glide_lipo>
-5.25367241384691

> <r_i_glide_hbond>
0

> <r_i_glide_metal>
0

> <r_i_glide_rewards>
-2.30640161511934

> <r_i_glide_evdw>
-17.2563247680664

> <r_i_glide_ecoul>
-0.0919579789042473

> <r_i_glide_erotb>
0.232992421636092

> <r_i_glide_esite>
-0.0654887963012687

> <r_i_glide_emodel>
-41.7445361495338

> <r_i_glide_energy>
-17.3482827469707

> <r_i_glide_einternal>
4.18647718429565

> <i_i_glide_confnum>
12

> <i_i_glide_posenum>
57

> <r_i_glide_eff_state_penalty>
0

> <s_user_duplicate_titles>
CHEMBL221_lig310

> <i_f3d_flags>
0

> <s_m_subgroup_title>
dock_pv

> <s_m_subgroupid>
dock_pv

> <b_m_subgroup_collapsed>
1

$$$$
CHEMBL221_lig911
                    3D
 Schrodinger Suite 2021-1.
 36 38  0  0  1  0            999 V2000
   17.7087   47.8908   14.6489 C   0  0  0  0  0  0
   18.4215   48.2143   15.7994 C   0  0  0  0  0  0
   19.6620   48.8555   15.7335 C   0  0  0  0  0  0
   18.1670   48.2730   13.3974 C   0  0  0  0  0  0
   19.3819   48.9730   13.2792 C   0  0  0  0  0  0
   20.1161   49.2415   14.4708 C   0  0  0  0  0  0
   21.2226   49.9533   14.0926 N   0  0  0  0  0  0
   21.2310   50.0963   12.7275 C   0  0  0  0  0  0
   20.1338   49.5006   12.1629 C   0  0  0  0  0  0
   19.8112   49.4069   10.6719 C   0  0  0  0  0  0
   19.6158   47.9692   10.1769 C   0  0  0  0  0  0
   19.3224   47.6765    9.0222 O   0  0  0  0  0  0
   19.7230   47.0747   11.1947 O   0  0  0  0  0  0
   22.3390   50.8064   12.1187 C   0  0  0  0  0  0
   22.7362   52.1034   12.7161 C   0  0  0  0  0  0
   22.9226   50.3152   11.1556 O   0  0  0  0  0  0
   21.7888   52.7921   13.4094 N   0  0  0  0  0  0
   22.1166   53.9918   13.9407 C   0  0  0  0  0  0
   23.3866   54.5366   13.8000 C   0  0  0  0  0  0
   24.3502   53.8326   13.0840 C   0  0  0  0  0  0
   24.0205   52.6080   12.5050 C   0  0  0  0  0  0
   16.5481   47.2006   14.7340 F   0  0  0  0  0  0
   17.7209   47.8653   17.3373 Cl  0  0  0  0  0  0
   25.7222   54.4216   12.8947 C   0  0  0  0  0  0
   20.2185   49.1056   16.6156 H   0  0  0  0  0  0
   17.5897   48.0122   12.5247 H   0  0  0  0  0  0
   21.9366   50.3557   14.6836 H   0  0  0  0  0  0
   18.9238   49.9917   10.4506 H   0  0  0  0  0  0
   20.5928   49.8514   10.0568 H   0  0  0  0  0  0
   19.3535   46.1959   10.9997 H   0  0  0  0  0  0
   21.3514   54.5084   14.5021 H   0  0  0  0  0  0
   23.6442   55.4487   14.3042 H   0  0  0  0  0  0
   24.7418   52.0532   11.9212 H   0  0  0  0  0  0
   25.6481   55.4692   12.5997 H   0  0  0  0  0  0
   26.2326   53.8746   12.1102 H   0  0  0  0  0  0
   26.3114   54.3772   13.7997 H   0  0  0  0  0  0
  1  2  2  0  0  0
  1  4  1  0  0  0
  1 22  1  0  0  0
  2  3  1  0  0  0
  2 23  1  0  0  0
  3  6  2  0  0  0
  3 25  1  0  0  0
  4  5  2  0  0  0
  4 26  1  0  0  0
  5  9  1  0  0  0
  5  6  1  0  0  0
  6  7  1  0  0  0
  7  8  1  0  0  0
  7 27  1  0  0  0
  8 14  1  0  0  0
  8  9  2  0  0  0
  9 10  1  0  0  0
 10 11  1  0  0  0
 10 28  1  0  0  0
 10 29  1  0  0  0
 11 12  2  0  0  0
 11 13  1  0  0  0
 13 30  1  0  0  0
 14 15  1  0  0  0
 14 16  2  0  0  0
 15 17  2  0  0  0
 15 21  1  0  0  0
 17 18  1  0  0  0
 18 19  2  0  0  0
 18 31  1  0  0  0
 19 20  1  0  0  0
 19 32  1  0  0  0
 20 21  2  0  0  0
 20 24  1  0  0  0
 21 33  1  0  0  0
 24 34  1  0  0  0
 24 35  1  0  0  0
 24 36  1  0  0  0
M  END
> <s_m_entry_id>
5306

> <s_m_entry_name>
dock_pv.297

> <s_m_Source_Path>
/home/csk/Desktop/cluster/DUD-E-result/pgh1

> <s_m_Source_File>
dock_pv.maegz

> <i_m_Source_File_Index>
297

> <chembl_id>
CHEMBL1950016

> <chembl_pref_name>
None

> <i_lp_mmshare_version>
53161

> <r_lp_tautomer_probability>
1

> <s_lp_Force_Field>
OPLS_2005

> <r_lp_Energy>
16.875975

> <b_lp_Chiralities_Consistent>
1

> <s_lp_Variant>
CHEMBL221_lig911-1

> <s_i_glide_gridfile>
glide-grid_2oyu

> <i_i_glide_lignum>
1119

> <i_i_glide_rotatable_bonds>
5

> <r_i_docking_score>
-8.26377890731445

> <r_i_glide_ligand_efficiency>
-0.344324121138102

> <r_i_glide_ligand_efficiency_sa>
-0.993202630463657

> <r_i_glide_ligand_efficiency_ln>
-1.9779014926254

> <r_i_glide_gscore>
-8.26377890731445

> <r_i_glide_lipo>
-3.8987295771155

> <r_i_glide_hbond>
0

> <r_i_glide_metal>
0

> <r_i_glide_rewards>
-2.90519730305582

> <r_i_glide_evdw>
-21.802396774292

> <r_i_glide_ecoul>
-6.68258714675903

> <r_i_glide_erotb>
0.632655883585326

> <r_i_glide_esite>
0

> <r_i_glide_emodel>
-36.2210112662004

> <r_i_glide_energy>
-28.484983921051

> <r_i_glide_einternal>
6.35212755203247

> <i_i_glide_confnum>
34

> <i_i_glide_posenum>
76

> <r_i_glide_eff_state_penalty>
0

> <s_user_duplicate_titles>
CHEMBL221_lig911

> <i_f3d_flags>
0

> <s_m_subgroup_title>
dock_pv

> <s_m_subgroupid>
dock_pv

> <b_m_subgroup_collapsed>
1

$$$$
CHEMBL221_lig318
                    3D
 Schrodinger Suite 2021-1.
 47 50  0  0  1  0            999 V2000
   20.5602   49.4730   14.1200 C   0  0  0  0  0  0
   19.4196   48.7687   13.9353 N   0  0  0  0  0  0
   21.1792   49.6130   12.7207 C   0  0  1  0  0  0
   20.0417   49.2537   11.8281 C   0  0  0  0  0  0
   19.9799   49.0561    5.8004 S   0  0  0  0  0  0
   19.1363   48.6732   12.6021 C   0  0  0  0  0  0
   18.5546   48.2814   14.9322 C   0  0  0  0  0  0
   20.0146   49.1597   10.3676 C   0  0  0  0  0  0
   19.9657   49.0420    7.5838 C   0  0  0  0  0  0
   17.7532   47.1966   14.6000 C   0  0  0  0  0  0
   21.0468   49.8727   15.1793 O   0  0  0  0  0  0
   20.6808   50.2643    5.3867 O   0  0  0  0  0  0
   20.4573   47.7978    5.2683 O   0  0  0  0  0  0
   22.0802   50.8252   12.4399 C   0  0  0  0  0  0
   20.1861   50.3168    9.6299 C   0  0  0  0  0  0
   19.7229   47.9550    9.7115 C   0  0  0  0  0  0
   20.1230   50.2587    8.2477 C   0  0  0  0  0  0
   19.7230   47.8810    8.3173 C   0  0  0  0  0  0
   16.7162   46.8020   15.4130 C   0  0  0  0  0  0
   18.1701   49.0730    5.4000 C   0  0  0  0  0  0
   15.7232   45.4506   15.0000 Cl  0  0  0  0  0  0
   18.3856   48.8884   16.1878 C   0  0  0  0  0  0
   17.3230   48.5282   17.0000 C   0  0  0  0  0  0
   22.1237   51.9586   13.2659 C   0  0  0  0  0  0
   22.9825   50.7203   11.3788 C   0  0  0  0  0  0
   16.5230   47.4730   16.6344 C   0  0  0  0  0  0
   23.1197   52.9137   13.0875 C   0  0  0  0  0  0
   23.9821   51.6694   11.2007 C   0  0  0  0  0  0
   24.0608   52.7466   12.0760 C   0  0  0  0  0  0
   18.2202   48.1964   12.2855 H   0  0  0  0  0  0
   21.8559   48.7767   12.5999 H   0  0  0  0  0  0
   17.9558   46.6730   13.6930 H   0  0  0  0  0  0
   20.3488   51.2637   10.1244 H   0  0  0  0  0  0
   19.5343   47.0728   10.2963 H   0  0  0  0  0  0
   20.2243   51.1747    7.6826 H   0  0  0  0  0  0
   19.5397   46.9460    7.8133 H   0  0  0  0  0  0
   18.0607   49.0730    4.3164 H   0  0  0  0  0  0
   17.7229   48.1698    5.8000 H   0  0  0  0  0  0
   17.7136   49.9565    5.8384 H   0  0  0  0  0  0
   19.0152   49.6985   16.5257 H   0  0  0  0  0  0
   17.1612   49.0320   17.9403 H   0  0  0  0  0  0
   21.4283   52.0902   14.0810 H   0  0  0  0  0  0
   22.9231   49.8732   10.7136 H   0  0  0  0  0  0
   15.7692   47.1452   17.3433 H   0  0  0  0  0  0
   23.1790   53.7659   13.7500 H   0  0  0  0  0  0
   24.7004   51.5596   10.4004 H   0  0  0  0  0  0
   24.8494   53.4730   11.9600 H   0  0  0  0  0  0
  1  2  1  0  0  0
  1 11  2  0  0  0
  1  3  1  0  0  0
  2  6  1  0  0  0
  2  7  1  0  0  0
  3 14  1  0  0  0
  3 31  1  0  0  0
  3  4  1  0  0  0
  4  6  2  0  0  0
  4  8  1  0  0  0
  5  9  1  0  0  0
  5 12  2  0  0  0
  5 13  2  0  0  0
  5 20  1  0  0  0
  6 30  1  0  0  0
  7 10  1  0  0  0
  7 22  2  0  0  0
  8 15  1  0  0  0
  8 16  2  0  0  0
  9 18  2  0  0  0
  9 17  1  0  0  0
 10 19  2  0  0  0
 10 32  1  0  0  0
 14 24  1  0  0  0
 14 25  2  0  0  0
 15 17  2  0  0  0
 15 33  1  0  0  0
 16 18  1  0  0  0
 16 34  1  0  0  0
 17 35  1  0  0  0
 18 36  1  0  0  0
 19 21  1  0  0  0
 19 26  1  0  0  0
 20 37  1  0  0  0
 20 38  1  0  0  0
 20 39  1  0  0  0
 22 23  1  0  0  0
 22 40  1  0  0  0
 23 26  2  0  0  0
 23 41  1  0  0  0
 24 27  2  0  0  0
 24 42  1  0  0  0
 25 28  1  0  0  0
 25 43  1  0  0  0
 26 44  1  0  0  0
 27 29  1  0  0  0
 27 45  1  0  0  0
 28 29  2  0  0  0
 28 46  1  0  0  0
 29 47  1  0  0  0
M  END
> <s_m_entry_id>
5307

> <s_m_entry_name>
dock_pv.298

> <s_m_Source_Path>
/home/csk/Desktop/cluster/DUD-E-result/pgh1

> <s_m_Source_File>
dock_pv.maegz

> <i_m_Source_File_Index>
298

> <chembl_id>
CHEMBL49114

> <chembl_pref_name>
None

> <i_lp_mmshare_version>
53161

> <r_lp_tautomer_probability>
0.0382384679513053

> <s_lp_Force_Field>
OPLS_2005

> <r_lp_Energy>
44.115105

> <b_lp_Chiralities_Consistent>
1

> <s_lp_Variant>
CHEMBL221_lig318-2

> <s_i_glide_gridfile>
glide-grid_2oyu

> <i_i_glide_lignum>
368

> <i_i_glide_rotatable_bonds>
4

> <r_i_docking_score>
-8.2547367267408

> <r_i_glide_ligand_efficiency>
-0.284646094025545

> <r_i_glide_ligand_efficiency_sa>
-0.874522983058844

> <r_i_glide_ligand_efficiency_ln>
-1.89012538836105

> <r_i_glide_gscore>
-8.2547367267408

> <r_i_glide_lipo>
-5.24519447182803

> <r_i_glide_hbond>
0

> <r_i_glide_metal>
0

> <r_i_glide_rewards>
-2.58274341237959

> <r_i_glide_evdw>
-2.10917544364929

> <r_i_glide_ecoul>
-4.21056699752808

> <r_i_glide_erotb>
0.330942187633452

> <r_i_glide_esite>
-0.020697208354959

> <r_i_glide_emodel>
-42.4722564306231

> <r_i_glide_energy>
-6.31974244117737

> <r_i_glide_einternal>
9.80171298980713

> <i_i_glide_confnum>
9

> <i_i_glide_posenum>
51

> <r_i_glide_eff_state_penalty>
0

> <s_user_duplicate_titles>
CHEMBL221_lig318

> <i_f3d_flags>
0

> <s_m_subgroup_title>
dock_pv

> <s_m_subgroupid>
dock_pv

> <b_m_subgroup_collapsed>
1

$$$$
CHEMBL221_lig717
                    3D
 Schrodinger Suite 2021-1.
 32 33  0  0  1  0            999 V2000
   21.3141   50.4446   12.5677 C   0  0  0  0  0  0
   21.0195   49.8730   13.7581 C   0  0  0  0  0  0
   22.3330   51.4911   12.5494 C   0  0  0  0  0  0
   20.1230   48.7555   14.0555 C   0  0  0  0  0  0
   22.1738   52.6004   13.3787 C   0  0  0  0  0  0
   23.1358   53.5937   13.4000 C   0  0  0  0  0  0
   24.2916   53.4730   12.6299 C   0  0  0  0  0  0
   24.4496   52.3732   11.7867 C   0  0  0  0  0  0
   23.4702   51.3834   11.7423 C   0  0  0  0  0  0
   19.5277   48.6730   15.3185 C   0  0  0  0  0  0
   19.1194   46.6730   13.4422 C   0  0  0  0  0  0
   19.9241   47.7438   13.1204 C   0  0  0  0  0  0
   18.5230   46.5928   14.6924 C   0  0  0  0  0  0
   18.7131   47.5932   15.6361 C   0  0  0  0  0  0
   25.5636   52.2730   11.0000 O   0  0  0  0  0  0
   22.9230   54.6730   14.2000 O   0  0  0  0  0  0
   17.7741   45.4965   15.0000 O   0  0  0  0  0  0
   20.6494   50.1471   11.2275 C   0  0  0  0  0  0
   21.5503   50.2397   14.6263 H   0  0  0  0  0  0
   21.2919   52.7047   13.9947 H   0  0  0  0  0  0
   25.0447   54.2468   12.6597 H   0  0  0  0  0  0
   23.5978   50.5288   11.0949 H   0  0  0  0  0  0
   19.6955   49.4447   16.0566 H   0  0  0  0  0  0
   18.9815   45.8866   12.7207 H   0  0  0  0  0  0
   20.4136   47.7488   12.1592 H   0  0  0  0  0  0
   18.2502   47.5222   16.6095 H   0  0  0  0  0  0
   25.6923   51.4023   10.6000 H   0  0  0  0  0  0
   23.3230   54.5153   15.0733 H   0  0  0  0  0  0
   17.7230   44.8526   14.2910 H   0  0  0  0  0  0
   20.5157   51.0662   10.6546 H   0  0  0  0  0  0
   21.2679   49.4718   10.6365 H   0  0  0  0  0  0
   19.6612   49.7039   11.3432 H   0  0  0  0  0  0
  1  3  1  0  0  0
  1  2  2  0  0  0
  1 18  1  0  0  0
  2  4  1  0  0  0
  2 19  1  0  0  0
  3  9  1  0  0  0
  3  5  2  0  0  0
  4 10  2  0  0  0
  4 12  1  0  0  0
  5  6  1  0  0  0
  5 20  1  0  0  0
  6  7  2  0  0  0
  6 16  1  0  0  0
  7  8  1  0  0  0
  7 21  1  0  0  0
  8 15  1  0  0  0
  8  9  2  0  0  0
  9 22  1  0  0  0
 10 14  1  0  0  0
 10 23  1  0  0  0
 11 13  1  0  0  0
 11 12  2  0  0  0
 11 24  1  0  0  0
 12 25  1  0  0  0
 13 14  2  0  0  0
 13 17  1  0  0  0
 14 26  1  0  0  0
 15 27  1  0  0  0
 16 28  1  0  0  0
 17 29  1  0  0  0
 18 30  1  0  0  0
 18 31  1  0  0  0
 18 32  1  0  0  0
M  END
> <s_m_entry_id>
5308

> <s_m_entry_name>
dock_pv.299

> <s_m_Source_Path>
/home/csk/Desktop/cluster/DUD-E-result/pgh1

> <s_m_Source_File>
dock_pv.maegz

> <i_m_Source_File_Index>
299

> <chembl_id>
CHEMBL491080

> <chembl_pref_name>
None

> <i_lp_mmshare_version>
53161

> <r_lp_tautomer_probability>
1

> <s_lp_Force_Field>
OPLS_2005

> <r_lp_Energy>
18.417638

> <b_lp_Chiralities_Consistent>
1

> <s_lp_Variant>
CHEMBL221_lig717-1

> <s_i_glide_gridfile>
glide-grid_2oyu

> <i_i_glide_lignum>
886

> <i_i_glide_rotatable_bonds>
5

> <r_i_docking_score>
-8.24557518699859

> <r_i_glide_ligand_efficiency>
-0.45808751038881

> <r_i_glide_ligand_efficiency_sa>
-1.2005288994894

> <r_i_glide_ligand_efficiency_ln>
-2.11948258421905

> <r_i_glide_gscore>
-8.24557518699859

> <r_i_glide_lipo>
-3.58561906248156

> <r_i_glide_hbond>
-0.608

> <r_i_glide_metal>
0

> <r_i_glide_rewards>
-2.11465081318447

> <r_i_glide_evdw>
-21.1568374633789

> <r_i_glide_ecoul>
-9.80255031585693

> <r_i_glide_erotb>
0.590919109214927

> <r_i_glide_esite>
0

> <r_i_glide_emodel>
-40.6492357279265

> <r_i_glide_energy>
-30.9593877792358

> <r_i_glide_einternal>
5.82573127746582

> <i_i_glide_confnum>
5

> <i_i_glide_posenum>
141

> <r_i_glide_eff_state_penalty>
0

> <s_user_duplicate_titles>
CHEMBL221_lig717

> <i_f3d_flags>
0

> <s_m_subgroup_title>
dock_pv

> <s_m_subgroupid>
dock_pv

> <b_m_subgroup_collapsed>
1

$$$$
CHEMBL221_lig591
                    3D
 Schrodinger Suite 2021-1.
 31 33  0  0  1  0            999 V2000
   20.9230   49.9451   15.3172 N   0  0  0  0  0  0
   20.1307   49.3076   13.2970 C   0  0  0  0  0  0
   21.0579   50.0879   14.0153 C   0  0  0  0  0  0
   19.8884   49.0322   15.5020 O   0  0  0  0  0  0
   19.3999   48.6730   14.2896 C   0  0  0  0  0  0
   19.9901   49.2048   11.8150 C   0  0  0  0  0  0
   22.1173   50.9874   13.4600 C   0  0  0  0  0  0
   18.2230   47.7290   14.3055 C   0  0  0  0  0  0
   19.7034   47.9807   11.2061 C   0  0  0  0  0  0
   20.2105   50.3343   11.0212 C   0  0  0  0  0  0
   22.2585   52.2914   13.9416 C   0  0  0  0  0  0
   22.9522   50.5345   12.4314 C   0  0  0  0  0  0
   19.7230   47.8730    9.8165 C   0  0  0  0  0  0
   20.3052   50.2098    9.6435 C   0  0  0  0  0  0
   23.2255   53.1336   13.4000 C   0  0  0  0  0  0
   23.9079   51.3801   11.8773 C   0  0  0  0  0  0
   20.1230   48.9658    9.0497 C   0  0  0  0  0  0
   24.0464   52.6730   12.3729 C   0  0  0  0  0  0
   17.7235   47.6846   13.3380 H   0  0  0  0  0  0
   18.5231   46.7153   14.5677 H   0  0  0  0  0  0
   17.4719   48.0437   15.0302 H   0  0  0  0  0  0
   19.4957   47.1028   11.7999 H   0  0  0  0  0  0
   20.3740   51.3032   11.4684 H   0  0  0  0  0  0
   21.6208   52.6568   14.7339 H   0  0  0  0  0  0
   22.8545   49.5275   12.0510 H   0  0  0  0  0  0
   19.5146   46.9275    9.3400 H   0  0  0  0  0  0
   20.5230   51.0730    9.0328 H   0  0  0  0  0  0
   23.3394   54.1393   13.7797 H   0  0  0  0  0  0
   24.5449   51.0308   11.0772 H   0  0  0  0  0  0
   20.1880   48.8718    7.9752 H   0  0  0  0  0  0
   24.7972   53.3273   11.9569 H   0  0  0  0  0  0
  1  3  2  0  0  0
  1  4  1  0  0  0
  2  3  1  0  0  0
  2  6  1  0  0  0
  2  5  2  0  0  0
  3  7  1  0  0  0
  4  5  1  0  0  0
  5  8  1  0  0  0
  6  9  2  0  0  0
  6 10  1  0  0  0
  7 11  1  0  0  0
  7 12  2  0  0  0
  8 19  1  0  0  0
  8 20  1  0  0  0
  8 21  1  0  0  0
  9 13  1  0  0  0
  9 22  1  0  0  0
 10 14  2  0  0  0
 10 23  1  0  0  0
 11 15  2  0  0  0
 11 24  1  0  0  0
 12 16  1  0  0  0
 12 25  1  0  0  0
 13 17  2  0  0  0
 13 26  1  0  0  0
 14 17  1  0  0  0
 14 27  1  0  0  0
 15 18  1  0  0  0
 15 28  1  0  0  0
 16 18  2  0  0  0
 16 29  1  0  0  0
 17 30  1  0  0  0
 18 31  1  0  0  0
M  END
> <s_m_entry_id>
5309

> <s_m_entry_name>
dock_pv.300

> <s_m_Source_Path>
/home/csk/Desktop/cluster/DUD-E-result/pgh1

> <s_m_Source_File>
dock_pv.maegz

> <i_m_Source_File_Index>
300

> <chembl_id>
CHEMBL365033

> <chembl_pref_name>
None

> <i_lp_mmshare_version>
53161

> <r_lp_tautomer_probability>
1

> <s_lp_Force_Field>
OPLS_2005

> <r_lp_Energy>
15.295619

> <b_lp_Chiralities_Consistent>
1

> <s_lp_Variant>
CHEMBL221_lig591-1

> <s_i_glide_gridfile>
glide-grid_2oyu

> <i_i_glide_lignum>
729

> <i_i_glide_rotatable_bonds>
2

> <r_i_docking_score>
-8.23677731726838

> <r_i_glide_ligand_efficiency>
-0.457598739848243

> <r_i_glide_ligand_efficiency_sa>
-1.1992479583027

> <r_i_glide_ligand_efficiency_ln>
-2.11722113717036

> <r_i_glide_gscore>
-8.23677731726838

> <r_i_glide_lipo>
-4.42327671694916

> <r_i_glide_hbond>
0

> <r_i_glide_metal>
0

> <r_i_glide_rewards>
-2.60135296757692

> <r_i_glide_evdw>
-32.0308990478516

> <r_i_glide_ecoul>
-1.54506838321686

> <r_i_glide_erotb>
0.621157577132812

> <r_i_glide_esite>
0

> <r_i_glide_emodel>
-48.2552699169648

> <r_i_glide_energy>
-33.5759674310684

> <r_i_glide_einternal>
0.220519408583641

> <i_i_glide_confnum>
4

> <i_i_glide_posenum>
240

> <r_i_glide_eff_state_penalty>
0

> <s_user_duplicate_titles>
CHEMBL221_lig591,312895

> <i_f3d_flags>
0

> <s_m_subgroup_title>
dock_pv

> <s_m_subgroupid>
dock_pv

> <b_m_subgroup_collapsed>
1

$$$$
CHEMBL221_lig946
                    3D
 Schrodinger Suite 2021-1.
 31 33  0  0  1  0            999 V2000
   19.3515   48.6727   14.2259 C   0  0  0  0  0  0
   20.1061   49.2868   13.2401 C   0  0  0  0  0  0
   21.0498   50.0374   13.9639 C   0  0  0  0  0  0
   20.9230   49.8730   15.2640 N   0  0  0  0  0  0
   19.8554   48.9974   15.4416 O   0  0  0  0  0  0
   19.9685   49.1960   11.7581 C   0  0  0  0  0  0
   18.1403   47.7740   14.2300 C   0  0  0  0  0  0
   22.1263   50.9137   13.4000 C   0  0  0  0  0  0
   20.1946   50.3298   10.9725 C   0  0  0  0  0  0
   20.2984   50.2104    9.5946 C   0  0  0  0  0  0
   20.1230   48.9698    8.9929 C   0  0  0  0  0  0
   19.7230   47.8730    9.7521 C   0  0  0  0  0  0
   19.6889   47.9745   11.1420 C   0  0  0  0  0  0
   22.9451   50.3836   12.3935 C   0  0  0  0  0  0
   23.9266   51.1623   11.7874 C   0  0  0  0  0  0
   24.1230   52.4769   12.2000 C   0  0  0  0  0  0
   23.3230   53.0170   13.2048 C   0  0  0  0  0  0
   22.3224   52.2461   13.8000 C   0  0  0  0  0  0
   21.3230   52.9844   15.0000 Cl  0  0  0  0  0  0
   17.6590   47.7386   13.2530 H   0  0  0  0  0  0
   18.3975   46.7527   14.5082 H   0  0  0  0  0  0
   17.3881   48.1249   14.9368 H   0  0  0  0  0  0
   20.3574   51.2957   11.4266 H   0  0  0  0  0  0
   20.5230   51.0730    8.9876 H   0  0  0  0  0  0
   20.1970   48.8810    7.9185 H   0  0  0  0  0  0
   19.5216   46.9287    9.2700 H   0  0  0  0  0  0
   19.4783   47.0941   11.7314 H   0  0  0  0  0  0
   22.8126   49.3633   12.0627 H   0  0  0  0  0  0
   24.5343   50.7415   11.0000 H   0  0  0  0  0  0
   24.8962   53.0730   11.7407 H   0  0  0  0  0  0
   23.4738   54.0396   13.5216 H   0  0  0  0  0  0
  1  2  2  0  0  0
  1  5  1  0  0  0
  1  7  1  0  0  0
  2  3  1  0  0  0
  2  6  1  0  0  0
  3  4  2  0  0  0
  3  8  1  0  0  0
  4  5  1  0  0  0
  6  9  2  0  0  0
  6 13  1  0  0  0
  7 20  1  0  0  0
  7 21  1  0  0  0
  7 22  1  0  0  0
  8 14  2  0  0  0
  8 18  1  0  0  0
  9 10  1  0  0  0
  9 23  1  0  0  0
 10 11  2  0  0  0
 10 24  1  0  0  0
 11 12  1  0  0  0
 11 25  1  0  0  0
 12 13  2  0  0  0
 12 26  1  0  0  0
 13 27  1  0  0  0
 14 15  1  0  0  0
 14 28  1  0  0  0
 15 16  2  0  0  0
 15 29  1  0  0  0
 16 17  1  0  0  0
 16 30  1  0  0  0
 17 18  2  0  0  0
 17 31  1  0  0  0
 18 19  1  0  0  0
M  END
> <s_m_entry_id>
5310

> <s_m_entry_name>
dock_pv.301

> <s_m_Source_Path>
/home/csk/Desktop/cluster/DUD-E-result/pgh1

> <s_m_Source_File>
dock_pv.maegz

> <i_m_Source_File_Index>
301

> <chembl_id>
CHEMBL2380863

> <chembl_pref_name>
None

> <i_lp_mmshare_version>
53161

> <r_lp_tautomer_probability>
1

> <s_lp_Force_Field>
OPLS_2005

> <r_lp_Energy>
16.484274

> <b_lp_Chiralities_Consistent>
1

> <s_lp_Variant>
CHEMBL221_lig946-1

> <s_i_glide_gridfile>
glide-grid_2oyu

> <i_i_glide_lignum>
1174

> <i_i_glide_rotatable_bonds>
2

> <r_i_docking_score>
-8.23583467125329

> <r_i_glide_ligand_efficiency>
-0.433464982697542

> <r_i_glide_ligand_efficiency_sa>
-1.15665867335811

> <r_i_glide_ligand_efficiency_ln>
-2.08796097867224

> <r_i_glide_gscore>
-8.23583467125329

> <r_i_glide_lipo>
-4.52754235764672

> <r_i_glide_hbond>
0

> <r_i_glide_metal>
0

> <r_i_glide_rewards>
-2.32103779481099

> <r_i_glide_evdw>
-33.0229377746582

> <r_i_glide_ecoul>
-1.5164167881012

> <r_i_glide_erotb>
0.491354888152508

> <r_i_glide_esite>
0

> <r_i_glide_emodel>
-49.9380733132909

> <r_i_glide_energy>
-34.5393545627594

> <r_i_glide_einternal>
0.0244536735117435

> <i_i_glide_confnum>
1

> <i_i_glide_posenum>
294

> <r_i_glide_eff_state_penalty>
0

> <s_user_duplicate_titles>
CHEMBL221_lig946

> <i_f3d_flags>
0

> <s_m_subgroup_title>
dock_pv

> <s_m_subgroupid>
dock_pv

> <b_m_subgroup_collapsed>
1

$$$$
CHEMBL221_lig448
                    3D
 Schrodinger Suite 2021-1.
 38 40  0  0  1  0            999 V2000
   19.8708   48.8677    6.0147 S   0  0  0  0  0  0
   19.5537   49.3231   12.1028 C   0  0  2  0  0  0
   20.7471   49.2839   13.0347 C   0  0  2  0  0  0
   20.1229   48.8684   14.3790 C   0  0  0  0  0  0
   18.6538   48.2730   12.7358 C   0  0  0  0  0  0
   19.9142   49.0046    7.8001 C   0  0  0  0  0  0
   19.8402   49.1782   10.6013 C   0  0  0  0  0  0
   20.1230   47.4730    5.7513 O   0  0  0  0  0  0
   20.7377   49.8730    5.4086 O   0  0  0  0  0  0
   21.6348   50.5355   13.0434 C   0  0  0  0  0  0
   18.9472   48.1032   14.0336 C   0  0  0  0  0  0
   20.4999   49.0683   15.5308 O   0  0  0  0  0  0
   20.1230   50.2276    8.4400 C   0  0  0  0  0  0
   19.7230   47.8576    8.5745 C   0  0  0  0  0  0
   20.1229   50.3106    9.8332 C   0  0  0  0  0  0
   19.7031   47.9477    9.9622 C   0  0  0  0  0  0
   18.1238   49.0731    5.4309 C   0  0  0  0  0  0
   22.7198   50.5765   12.1612 C   0  0  0  0  0  0
   21.3680   51.6427   13.8607 C   0  0  0  0  0  0
   22.1868   52.7669   13.8009 C   0  0  0  0  0  0
   23.5437   51.6973   12.1065 C   0  0  0  0  0  0
   23.2749   52.7867   12.9318 C   0  0  0  0  0  0
   17.7916   47.8692   12.2248 H   0  0  0  0  0  0
   19.0390   50.2813   12.2000 H   0  0  0  0  0  0
   18.3920   47.5372   14.7661 H   0  0  0  0  0  0
   21.3483   48.4424   12.7011 H   0  0  0  0  0  0
   20.2488   51.1238    7.8489 H   0  0  0  0  0  0
   19.5637   46.8979    8.1085 H   0  0  0  0  0  0
   20.2434   51.2734   10.3083 H   0  0  0  0  0  0
   19.5002   47.0729   10.5492 H   0  0  0  0  0  0
   18.1217   49.0714    4.3418 H   0  0  0  0  0  0
   17.7248   50.0102    5.8090 H   0  0  0  0  0  0
   17.5509   48.2282    5.7989 H   0  0  0  0  0  0
   22.9262   49.7384   11.5123 H   0  0  0  0  0  0
   20.5293   51.6422   14.5422 H   0  0  0  0  0  0
   21.9884   53.6186   14.4365 H   0  0  0  0  0  0
   24.3836   51.7218   11.4264 H   0  0  0  0  0  0
   23.9124   53.6582   12.8962 H   0  0  0  0  0  0
  1  6  1  0  0  0
  1  8  2  0  0  0
  1  9  2  0  0  0
  1 17  1  0  0  0
  2  5  1  0  0  0
  2  7  1  0  0  0
  2 24  1  0  0  0
  2  3  1  0  0  0
  3 10  1  0  0  0
  3 26  1  0  0  0
  3  4  1  0  0  0
  4 12  2  0  0  0
  4 11  1  0  0  0
  5 23  1  0  0  0
  5 11  2  0  0  0
  6 13  1  0  0  0
  6 14  2  0  0  0
  7 16  2  0  0  0
  7 15  1  0  0  0
 10 18  2  0  0  0
 10 19  1  0  0  0
 11 25  1  0  0  0
 13 15  2  0  0  0
 13 27  1  0  0  0
 14 16  1  0  0  0
 14 28  1  0  0  0
 15 29  1  0  0  0
 16 30  1  0  0  0
 17 31  1  0  0  0
 17 32  1  0  0  0
 17 33  1  0  0  0
 18 21  1  0  0  0
 18 34  1  0  0  0
 19 20  2  0  0  0
 19 35  1  0  0  0
 20 22  1  0  0  0
 20 36  1  0  0  0
 21 22  2  0  0  0
 21 37  1  0  0  0
 22 38  1  0  0  0
M  END
> <s_m_entry_id>
5311

> <s_m_entry_name>
dock_pv.302

> <s_m_Source_Path>
/home/csk/Desktop/cluster/DUD-E-result/pgh1

> <s_m_Source_File>
dock_pv.maegz

> <i_m_Source_File_Index>
302

> <chembl_id>
CHEMBL23170

> <chembl_pref_name>
None

> <i_lp_mmshare_version>
53161

> <r_lp_tautomer_probability>
0.499977396165832

> <s_lp_Force_Field>
OPLS_2005

> <r_lp_Energy>
20.306838

> <b_lp_Chiralities_Consistent>
1

> <s_lp_Variant>
CHEMBL221_lig448-2

> <s_i_glide_gridfile>
glide-grid_2oyu

> <i_i_glide_lignum>
536

> <i_i_glide_rotatable_bonds>
3

> <r_i_docking_score>
-8.23292927398764

> <r_i_glide_ligand_efficiency>
-0.374224057908529

> <r_i_glide_ligand_efficiency_sa>
-1.04859052765675

> <r_i_glide_ligand_efficiency_ln>
-2.01242821795439

> <r_i_glide_gscore>
-8.23292927398764

> <r_i_glide_lipo>
-4.09503213658327

> <r_i_glide_hbond>
0

> <r_i_glide_metal>
0

> <r_i_glide_rewards>
-2.6905950315218

> <r_i_glide_evdw>
-18.323299407959

> <r_i_glide_ecoul>
-5.95170068740845

> <r_i_glide_erotb>
0.380369672377759

> <r_i_glide_esite>
-0.0187517047511135

> <r_i_glide_emodel>
-52.3163807169011

> <r_i_glide_energy>
-24.2750000953674

> <r_i_glide_einternal>
2.8689444065094

> <i_i_glide_confnum>
2

> <i_i_glide_posenum>
277

> <r_i_glide_eff_state_penalty>
0

> <s_user_duplicate_titles>
CHEMBL221_lig448

> <i_f3d_flags>
0

> <s_m_subgroup_title>
dock_pv

> <s_m_subgroupid>
dock_pv

> <b_m_subgroup_collapsed>
1

$$$$
CHEMBL221_lig734
                    3D
 Schrodinger Suite 2021-1.
 46 48  0  0  1  0            999 V2000
   19.7491   49.5504   11.7213 C   0  0  2  0  0  0
   21.0599   49.3490   12.5133 C   0  0  2  0  0  0
   20.6465   48.9925   13.8386 O   0  0  0  0  0  0
   19.5374   48.1157   13.6925 C   0  0  2  0  0  0
   18.7407   48.7831   12.5949 C   0  0  0  0  0  0
   18.7500   47.9490   15.0026 C   0  0  0  0  0  0
   19.3230   46.9377   15.8000 O   0  0  0  0  0  0
   19.8432   49.1260   10.2399 C   0  0  0  0  0  0
   20.1586   50.0552    9.2414 C   0  0  0  0  0  0
   20.1230   49.7035    7.8964 C   0  0  0  0  0  0
   19.7230   48.4240    7.5142 C   0  0  0  0  0  0
   19.4846   47.4730    8.5004 C   0  0  0  0  0  0
   19.5551   47.8194    9.8475 C   0  0  0  0  0  0
   19.3551   50.9114   11.7067 O   0  0  0  0  0  0
   22.0798   50.4823   12.4475 C   0  0  0  0  0  0
   22.9306   50.5605   11.3465 C   0  0  0  0  0  0
   23.9393   51.5114   11.3048 C   0  0  0  0  0  0
   24.0801   52.4253   12.3418 C   0  0  0  0  0  0
   23.1649   52.4087   13.4029 C   0  0  0  0  0  0
   22.1756   51.4313   13.4654 C   0  0  0  0  0  0
   19.4913   48.0746    6.2042 O   0  0  0  0  0  0
   19.0398   49.1083    5.3313 C   0  0  0  0  0  0
   25.1465   53.2889   12.2425 O   0  0  0  0  0  0
   25.3436   54.2730   13.2474 C   0  0  0  0  0  0
   21.5910   48.4703   12.1386 H   0  0  0  0  0  0
   19.8471   47.1246   13.3504 H   0  0  0  0  0  0
   18.0193   49.4723   13.0301 H   0  0  0  0  0  0
   18.1230   48.0436   12.0924 H   0  0  0  0  0  0
   18.6477   48.8943   15.5374 H   0  0  0  0  0  0
   17.7357   47.6154   14.7777 H   0  0  0  0  0  0
   18.8152   46.8703   16.6133 H   0  0  0  0  0  0
   20.4144   51.0730    9.4870 H   0  0  0  0  0  0
   20.3198   50.4645    7.1558 H   0  0  0  0  0  0
   19.1792   46.4803    8.2186 H   0  0  0  0  0  0
   19.3301   47.0730   10.5884 H   0  0  0  0  0  0
   20.1444   51.4483   11.6033 H   0  0  0  0  0  0
   22.8314   49.8730   10.5230 H   0  0  0  0  0  0
   24.6246   51.5324   10.4694 H   0  0  0  0  0  0
   23.2298   53.1294   14.2000 H   0  0  0  0  0  0
   21.5015   51.4001   14.3096 H   0  0  0  0  0  0
   18.5694   48.6730    4.4533 H   0  0  0  0  0  0
   19.8696   49.7331    5.0000 H   0  0  0  0  0  0
   18.2867   49.7457    5.8000 H   0  0  0  0  0  0
   26.1960   54.8977   12.9810 H   0  0  0  0  0  0
   24.4767   54.9262   13.3583 H   0  0  0  0  0  0
   25.5656   53.7985   14.2000 H   0  0  0  0  0  0
  1 14  1  0  0  0
  1  8  1  0  0  0
  1  5  1  0  0  0
  1  2  1  0  0  0
  2  3  1  0  0  0
  2 15  1  0  0  0
  2 25  1  0  0  0
  3  4  1  0  0  0
  4  6  1  0  0  0
  4  5  1  0  0  0
  4 26  1  0  0  0
  5 27  1  0  0  0
  5 28  1  0  0  0
  6  7  1  0  0  0
  6 29  1  0  0  0
  6 30  1  0  0  0
  7 31  1  0  0  0
  8 13  1  0  0  0
  8  9  2  0  0  0
  9 10  1  0  0  0
  9 32  1  0  0  0
 10 11  2  0  0  0
 10 33  1  0  0  0
 11 12  1  0  0  0
 11 21  1  0  0  0
 12 13  2  0  0  0
 12 34  1  0  0  0
 13 35  1  0  0  0
 14 36  1  0  0  0
 15 16  2  0  0  0
 15 20  1  0  0  0
 16 17  1  0  0  0
 16 37  1  0  0  0
 17 18  2  0  0  0
 17 38  1  0  0  0
 18 19  1  0  0  0
 18 23  1  0  0  0
 19 20  2  0  0  0
 19 39  1  0  0  0
 20 40  1  0  0  0
 21 22  1  0  0  0
 22 41  1  0  0  0
 22 42  1  0  0  0
 22 43  1  0  0  0
 23 24  1  0  0  0
 24 44  1  0  0  0
 24 45  1  0  0  0
 24 46  1  0  0  0
M  END
> <s_m_entry_id>
5313

> <s_m_entry_name>
dock_pv.304

> <s_m_Source_Path>
/home/csk/Desktop/cluster/DUD-E-result/pgh1

> <s_m_Source_File>
dock_pv.maegz

> <i_m_Source_File_Index>
304

> <chembl_id>
CHEMBL226109

> <chembl_pref_name>
None

> <i_lp_mmshare_version>
53161

> <r_lp_tautomer_probability>
1

> <s_lp_Force_Field>
OPLS_2005

> <r_lp_Energy>
39.270497

> <b_lp_Chiralities_Consistent>
1

> <s_lp_Variant>
CHEMBL221_lig734-1

> <s_i_glide_gridfile>
glide-grid_2oyu

> <i_i_glide_lignum>
903

> <i_i_glide_rotatable_bonds>
7

> <r_i_docking_score>
-8.22218299813615

> <r_i_glide_ligand_efficiency>
-0.342590958255673

> <r_i_glide_ligand_efficiency_sa>
-0.98820332362404

> <r_i_glide_ligand_efficiency_ln>
-1.96794568284713

> <r_i_glide_gscore>
-8.22218299813615

> <r_i_glide_lipo>
-4.91811706776878

> <r_i_glide_hbond>
-0.229803967272223

> <r_i_glide_metal>
0

> <r_i_glide_rewards>
-1.57150542435702

> <r_i_glide_evdw>
-28.0897483825684

> <r_i_glide_ecoul>
-4.1013388633728

> <r_i_glide_erotb>
0.51693170989622

> <r_i_glide_esite>
0

> <r_i_glide_emodel>
-43.4773981695264

> <r_i_glide_energy>
-32.1910872459412

> <r_i_glide_einternal>
4.44164323806763

> <i_i_glide_confnum>
7

> <i_i_glide_posenum>
69

> <r_i_glide_eff_state_penalty>
0

> <s_user_duplicate_titles>
CHEMBL221_lig734

> <i_f3d_flags>
0

> <s_m_subgroup_title>
dock_pv

> <s_m_subgroupid>
dock_pv

> <b_m_subgroup_collapsed>
1

$$$$
CHEMBL221_lig821
                    3D
 Schrodinger Suite 2021-1.
 27 28  0  0  1  0            999 V2000
   19.7068   48.4867   14.1261 C   0  0  0  0  0  0
   19.5658   48.2464   12.7515 C   0  0  0  0  0  0
   20.1840   49.0788   11.8206 C   0  0  0  0  0  0
   20.5048   49.5564   14.5620 C   0  0  0  0  0  0
   21.0635   50.4346   13.6310 C   0  0  0  0  0  0
   20.9232   50.1702   12.2644 C   0  0  0  0  0  0
   21.4111   51.0397   11.3082 O   0  0  0  0  0  0
   22.5639   51.8327   11.6762 C   0  0  1  0  0  0
   22.4784   52.3539   13.1132 C   0  0  0  0  0  0
   21.7718   51.6566   14.0223 C   0  0  0  0  0  0
   23.8783   51.1225   11.3610 C   0  0  0  0  0  0
   24.9230   51.9401   11.4000 F   0  0  0  0  0  0
   24.1029   50.1003   12.1800 F   0  0  0  0  0  0
   23.8165   50.6730   10.1209 F   0  0  0  0  0  0
   23.1097   53.6181   13.4000 C   0  0  0  0  0  0
   24.2754   53.8838   13.1265 O   0  0  0  0  0  0
   22.2669   54.5090   13.9925 O   0  0  0  0  0  0
   18.9370   47.6381   15.1344 C   0  0  0  0  0  0
   17.8346   47.1110   14.6001 F   0  0  0  0  0  0
   19.7230   46.6474   15.5357 F   0  0  0  0  0  0
   18.5732   48.3521   16.2000 F   0  0  0  0  0  0
   18.9530   47.4306   12.3952 H   0  0  0  0  0  0
   20.0567   48.9059   10.7621 H   0  0  0  0  0  0
   20.6097   49.7562   15.6196 H   0  0  0  0  0  0
   22.5401   52.6730   11.0000 H   0  0  0  0  0  0
   21.6732   52.0292   15.0323 H   0  0  0  0  0  0
   22.7550   55.3123   14.1996 H   0  0  0  0  0  0
  1  2  2  0  0  0
  1  4  1  0  0  0
  1 18  1  0  0  0
  2  3  1  0  0  0
  2 22  1  0  0  0
  3  6  2  0  0  0
  3 23  1  0  0  0
  4  5  2  0  0  0
  4 24  1  0  0  0
  5  6  1  0  0  0
  5 10  1  0  0  0
  6  7  1  0  0  0
  7  8  1  0  0  0
  8 11  1  0  0  0
  8  9  1  0  0  0
  8 25  1  0  0  0
  9 10  2  0  0  0
  9 15  1  0  0  0
 10 26  1  0  0  0
 11 12  1  0  0  0
 11 13  1  0  0  0
 11 14  1  0  0  0
 15 16  2  0  0  0
 15 17  1  0  0  0
 17 27  1  0  0  0
 18 19  1  0  0  0
 18 20  1  0  0  0
 18 21  1  0  0  0
M  END
> <s_m_entry_id>
5314

> <s_m_entry_name>
dock_pv.305

> <s_m_Source_Path>
/home/csk/Desktop/cluster/DUD-E-result/pgh1

> <s_m_Source_File>
dock_pv.maegz

> <i_m_Source_File_Index>
305

> <chembl_id>
CHEMBL1290563

> <chembl_pref_name>
None

> <i_lp_mmshare_version>
53161

> <r_lp_tautomer_probability>
1

> <s_lp_Force_Field>
OPLS_2005

> <r_lp_Energy>
12.646054

> <b_lp_Chiralities_Consistent>
1

> <s_lp_Variant>
CHEMBL221_lig821-2

> <s_i_glide_gridfile>
glide-grid_2oyu

> <i_i_glide_lignum>
997

> <i_i_glide_rotatable_bonds>
4

> <r_i_docking_score>
-8.22070837942077

> <r_i_glide_ligand_efficiency>
-0.391462303781941

> <r_i_glide_ligand_efficiency_sa>
-1.08001481294981

> <r_i_glide_ligand_efficiency_ln>
-2.03255353530639

> <r_i_glide_gscore>
-8.22070837942077

> <r_i_glide_lipo>
-3.17073570351873

> <r_i_glide_hbond>
0

> <r_i_glide_metal>
0

> <r_i_glide_rewards>
-3.40651756023541

> <r_i_glide_evdw>
-28.4645290374756

> <r_i_glide_ecoul>
-2.54923939704895

> <r_i_glide_erotb>
0.190419579783621

> <r_i_glide_esite>
-0.0282623340191189

> <r_i_glide_emodel>
-43.2458732738582

> <r_i_glide_energy>
-31.0137684345245

> <r_i_glide_einternal>
2.71036005020142

> <i_i_glide_confnum>
2

> <i_i_glide_posenum>
380

> <r_i_glide_eff_state_penalty>
0

> <s_user_duplicate_titles>
CHEMBL221_lig821

> <i_f3d_flags>
0

> <s_m_subgroup_title>
dock_pv

> <s_m_subgroupid>
dock_pv

> <b_m_subgroup_collapsed>
1

$$$$
CHEMBL221_lig147
                    3D
 Schrodinger Suite 2021-1.
 35 37  0  0  1  0            999 V2000
   20.0502   49.2991   12.6921 N   0  0  0  0  0  0
   19.6409   48.7524   14.8358 N   0  0  0  0  0  0
   20.9319   50.0145   13.4793 C   0  0  0  0  0  0
   19.3065   48.5644   13.5886 C   0  0  0  0  0  0
   20.0448   48.7617    6.7480 S   0  0  0  0  0  0
   20.5961   49.6602   14.7823 C   0  0  0  0  0  0
   19.9528   49.2480   11.2895 C   0  0  0  0  0  0
   20.0989   49.0099    8.5219 C   0  0  0  0  0  0
   19.4222   47.4730    6.6000 O   0  0  0  0  0  0
   21.3230   49.0730    6.1384 O   0  0  0  0  0  0
   22.0085   50.9370   13.0019 C   0  0  0  0  0  0
   20.1230   50.2730    9.1089 C   0  0  0  0  0  0
   19.7931   47.8965    9.3154 C   0  0  0  0  0  0
   20.1033   50.3938   10.4979 C   0  0  0  0  0  0
   19.7230   48.0114   10.6924 C   0  0  0  0  0  0
   21.3226   50.2730   16.2000 Cl  0  0  0  0  0  0
   18.9230   49.8695    5.9042 C   0  0  0  0  0  0
   22.9119   50.5299   12.0151 C   0  0  0  0  0  0
   22.1375   52.2026   13.5814 C   0  0  0  0  0  0
   23.1618   53.0547   13.1787 C   0  0  0  0  0  0
   23.9287   51.3864   11.6025 C   0  0  0  0  0  0
   24.0541   52.6412   12.1931 C   0  0  0  0  0  0
   18.5281   47.9036   13.2364 H   0  0  0  0  0  0
   20.2253   51.1453    8.4834 H   0  0  0  0  0  0
   19.6556   46.9175    8.8820 H   0  0  0  0  0  0
   20.2135   51.3703   10.9477 H   0  0  0  0  0  0
   19.5623   47.1188   11.2804 H   0  0  0  0  0  0
   19.0552   49.6725    4.8467 H   0  0  0  0  0  0
   19.3230   50.8015    6.1999 H   0  0  0  0  0  0
   17.8944   49.7220    6.2000 H   0  0  0  0  0  0
   22.8302   49.5482   11.5720 H   0  0  0  0  0  0
   21.4508   52.5263   14.3502 H   0  0  0  0  0  0
   23.2686   54.0279   13.6369 H   0  0  0  0  0  0
   24.6253   51.0735   10.8382 H   0  0  0  0  0  0
   24.8532   53.2986   11.8868 H   0  0  0  0  0  0
  1  3  1  0  0  0
  1  4  1  0  0  0
  1  7  1  0  0  0
  2  4  2  0  0  0
  2  6  1  0  0  0
  3  6  2  0  0  0
  3 11  1  0  0  0
  4 23  1  0  0  0
  5  8  1  0  0  0
  5  9  2  0  0  0
  5 10  2  0  0  0
  5 17  1  0  0  0
  6 16  1  0  0  0
  7 14  1  0  0  0
  7 15  2  0  0  0
  8 13  2  0  0  0
  8 12  1  0  0  0
 11 18  1  0  0  0
 11 19  2  0  0  0
 12 14  2  0  0  0
 12 24  1  0  0  0
 13 15  1  0  0  0
 13 25  1  0  0  0
 14 26  1  0  0  0
 15 27  1  0  0  0
 17 28  1  0  0  0
 17 29  1  0  0  0
 17 30  1  0  0  0
 18 21  2  0  0  0
 18 31  1  0  0  0
 19 20  1  0  0  0
 19 32  1  0  0  0
 20 22  2  0  0  0
 20 33  1  0  0  0
 21 22  1  0  0  0
 21 34  1  0  0  0
 22 35  1  0  0  0
M  END
> <s_m_entry_id>
5315

> <s_m_entry_name>
dock_pv.306

> <s_m_Source_Path>
/home/csk/Desktop/cluster/DUD-E-result/pgh1

> <s_m_Source_File>
dock_pv.maegz

> <i_m_Source_File_Index>
306

> <chembl_id>
CHEMBL331135

> <chembl_pref_name>
None

> <i_lp_mmshare_version>
53161

> <r_lp_tautomer_probability>
1

> <s_lp_Force_Field>
OPLS_2005

> <r_lp_Energy>
12.175055

> <b_lp_Chiralities_Consistent>
1

> <s_lp_Variant>
CHEMBL221_lig147-1

> <s_i_glide_gridfile>
glide-grid_2oyu

> <i_i_glide_lignum>
169

> <i_i_glide_rotatable_bonds>
3

> <r_i_docking_score>
-8.214858493252

> <r_i_glide_ligand_efficiency>
-0.373402658784182

> <r_i_glide_ligand_efficiency_sa>
-1.04628893500653

> <r_i_glide_ligand_efficiency_ln>
-2.00801105999486

> <r_i_glide_gscore>
-8.214858493252

> <r_i_glide_lipo>
-4.15391632847344

> <r_i_glide_hbond>
0

> <r_i_glide_metal>
0

> <r_i_glide_rewards>
-2.74174233181419

> <r_i_glide_evdw>
-15.9028778076172

> <r_i_glide_ecoul>
-5.76159620285034

> <r_i_glide_erotb>
0.340183487844049

> <r_i_glide_esite>
0

> <r_i_glide_emodel>
-26.3519423917258

> <r_i_glide_energy>
-21.6644740104675

> <r_i_glide_einternal>
0.707575500011444

> <i_i_glide_confnum>
8

> <i_i_glide_posenum>
120

> <r_i_glide_eff_state_penalty>
0

> <s_user_duplicate_titles>
CHEMBL221_lig147

> <i_f3d_flags>
0

> <s_m_subgroup_title>
dock_pv

> <s_m_subgroupid>
dock_pv

> <b_m_subgroup_collapsed>
1

$$$$
CHEMBL221_lig110
                    3D
 Schrodinger Suite 2021-1.
 35 37  0  0  1  0            999 V2000
   20.9230   50.0589   13.5766 N   0  0  0  0  0  0
   20.0649   49.2814   12.8158 C   0  0  0  0  0  0
   20.5775   49.7650   14.8845 C   0  0  0  0  0  0
   20.0396   48.7598    6.7688 S   0  0  0  0  0  0
   19.6826   48.8166   14.9914 N   0  0  0  0  0  0
   19.3538   48.5334   13.7502 C   0  0  0  0  0  0
   21.9500   50.9227   13.1340 C   0  0  0  0  0  0
   20.0816   49.0087    8.5485 C   0  0  0  0  0  0
   19.9777   49.2553   11.3278 C   0  0  0  0  0  0
   19.4193   47.4730    6.6000 O   0  0  0  0  0  0
   21.3230   49.0730    6.1716 O   0  0  0  0  0  0
   21.3230   50.6730   16.3852 Br  0  0  0  0  0  0
   20.1316   50.2726    9.1361 C   0  0  0  0  0  0
   19.7666   47.9027    9.3499 C   0  0  0  0  0  0
   20.1230   50.3937   10.5263 C   0  0  0  0  0  0
   19.7230   48.0247   10.7305 C   0  0  0  0  0  0
   22.0635   52.2168   13.6542 C   0  0  0  0  0  0
   22.8908   50.4481   12.2115 C   0  0  0  0  0  0
   18.9230   49.8663    5.9117 C   0  0  0  0  0  0
   24.1230   52.4984   12.4456 C   0  0  0  0  0  0
   23.1618   52.9999   13.3174 C   0  0  0  0  0  0
   23.9720   51.2466   11.8568 C   0  0  0  0  0  0
   25.2376   53.2160   12.2000 F   0  0  0  0  0  0
   18.5922   47.7993   13.5285 H   0  0  0  0  0  0
   20.2436   51.1426    8.5096 H   0  0  0  0  0  0
   19.6063   46.9266    8.9177 H   0  0  0  0  0  0
   20.2448   51.3685   10.9750 H   0  0  0  0  0  0
   19.5491   47.1427   11.3299 H   0  0  0  0  0  0
   21.3327   52.6073   14.3477 H   0  0  0  0  0  0
   22.8120   49.4515   11.8000 H   0  0  0  0  0  0
   19.0591   49.6626    4.8558 H   0  0  0  0  0  0
   19.3252   50.7996    6.1999 H   0  0  0  0  0  0
   17.8915   49.7253    6.2000 H   0  0  0  0  0  0
   23.2895   53.9781   13.7589 H   0  0  0  0  0  0
   24.7218   50.8781   11.1726 H   0  0  0  0  0  0
  1  2  1  0  0  0
  1  3  1  0  0  0
  1  7  1  0  0  0
  2  6  2  0  0  0
  2  9  1  0  0  0
  3  5  2  0  0  0
  3 12  1  0  0  0
  4  8  1  0  0  0
  4 10  2  0  0  0
  4 11  2  0  0  0
  4 19  1  0  0  0
  5  6  1  0  0  0
  6 24  1  0  0  0
  7 17  2  0  0  0
  7 18  1  0  0  0
  8 14  1  0  0  0
  8 13  2  0  0  0
  9 15  2  0  0  0
  9 16  1  0  0  0
 13 15  1  0  0  0
 13 25  1  0  0  0
 14 16  2  0  0  0
 14 26  1  0  0  0
 15 27  1  0  0  0
 16 28  1  0  0  0
 17 21  1  0  0  0
 17 29  1  0  0  0
 18 22  2  0  0  0
 18 30  1  0  0  0
 19 31  1  0  0  0
 19 32  1  0  0  0
 19 33  1  0  0  0
 20 22  1  0  0  0
 20 23  1  0  0  0
 20 21  2  0  0  0
 21 34  1  0  0  0
 22 35  1  0  0  0
M  END
> <s_m_entry_id>
5316

> <s_m_entry_name>
dock_pv.307

> <s_m_Source_Path>
/home/csk/Desktop/cluster/DUD-E-result/pgh1

> <s_m_Source_File>
dock_pv.maegz

> <i_m_Source_File_Index>
307

> <chembl_id>
CHEMBL324093

> <chembl_pref_name>
None

> <i_lp_mmshare_version>
53161

> <r_lp_tautomer_probability>
1

> <s_lp_Force_Field>
OPLS_2005

> <r_lp_Energy>
11.533874

> <b_lp_Chiralities_Consistent>
1

> <s_lp_Variant>
CHEMBL221_lig110-1

> <s_i_glide_gridfile>
glide-grid_2oyu

> <i_i_glide_lignum>
132

> <i_i_glide_rotatable_bonds>
3

> <r_i_docking_score>
-8.20582875959418

> <r_i_glide_ligand_efficiency>
-0.356775163460616

> <r_i_glide_ligand_efficiency_sa>
-1.01462110553635

> <r_i_glide_ligand_efficiency_ln>
-1.98424380041129

> <r_i_glide_gscore>
-8.20582875959418

> <r_i_glide_lipo>
-4.07640336137597

> <r_i_glide_hbond>
0

> <r_i_glide_metal>
0

> <r_i_glide_rewards>
-2.72487338771231

> <r_i_glide_evdw>
-15.6521768569946

> <r_i_glide_ecoul>
-5.81512594223022

> <r_i_glide_erotb>
0.250325723678378

> <r_i_glide_esite>
0

> <r_i_glide_emodel>
-24.5593158057492

> <r_i_glide_energy>
-21.4673027992249

> <r_i_glide_einternal>
2.25848317146301

> <i_i_glide_confnum>
5

> <i_i_glide_posenum>
389

> <r_i_glide_eff_state_penalty>
0

> <s_user_duplicate_titles>
CHEMBL221_lig110

> <i_f3d_flags>
0

> <s_m_subgroup_title>
dock_pv

> <s_m_subgroupid>
dock_pv

> <b_m_subgroup_collapsed>
1

$$$$
CHEMBL221_lig855
                    3D
 Schrodinger Suite 2021-1.
 37 39  0  0  1  0            999 V2000
   20.1230   48.7927   14.1908 C   0  0  0  0  0  0
   19.8593   48.5868   12.8355 C   0  0  0  0  0  0
   20.3836   49.4284   11.8339 C   0  0  0  0  0  0
   20.9014   49.8730   14.5956 C   0  0  0  0  0  0
   19.4887   47.7029   15.3698 Cl  0  0  0  0  0  0
   21.3984   50.7531   13.6403 C   0  0  0  0  0  0
   21.1704   50.5159   12.2784 C   0  0  0  0  0  0
   21.6802   51.4112   11.3536 O   0  0  0  0  0  0
   22.9231   52.0759   11.6360 C   0  0  1  0  0  0
   22.9812   52.5251   13.0960 C   0  0  0  0  0  0
   22.2268   51.8955   14.0131 C   0  0  0  0  0  0
   24.1234   51.2468   11.1712 C   0  0  0  0  0  0
   23.8619   50.6730   10.0055 F   0  0  0  0  0  0
   25.2011   52.0120   11.0000 F   0  0  0  0  0  0
   24.4025   50.2730   12.0234 F   0  0  0  0  0  0
   23.7012   53.7278   13.4000 C   0  0  0  0  0  0
   22.8550   54.7122   13.8000 O   0  0  0  0  0  0
   24.9122   53.8730   13.2596 O   0  0  0  0  0  0
   20.1230   49.1333   10.3720 C   0  0  0  0  0  0
   20.2586   50.0996    9.3690 C   0  0  0  0  0  0
   20.1230   49.7869    8.0182 C   0  0  0  0  0  0
   19.7230   48.5159    7.6302 C   0  0  0  0  0  0
   19.5207   47.5421    8.6032 C   0  0  0  0  0  0
   19.7230   47.8578    9.9480 C   0  0  0  0  0  0
   19.4426   48.2353    6.1695 C   0  0  0  0  0  0
   19.2252   47.7515   12.5837 H   0  0  0  0  0  0
   21.0995   50.0290   15.6466 H   0  0  0  0  0  0
   22.9230   52.9545   11.0000 H   0  0  0  0  0  0
   22.1910   52.2665   15.0263 H   0  0  0  0  0  0
   23.3230   55.5355   13.9906 H   0  0  0  0  0  0
   20.4612   51.1305    9.5747 H   0  0  0  0  0  0
   20.2216   50.5714    7.2808 H   0  0  0  0  0  0
   19.1914   46.5551    8.3246 H   0  0  0  0  0  0
   19.5814   47.0730   10.6660 H   0  0  0  0  0  0
   19.5396   49.1272    5.5482 H   0  0  0  0  0  0
   20.1230   47.4730    5.7920 H   0  0  0  0  0  0
   18.4194   47.8730    6.0663 H   0  0  0  0  0  0
  1  2  2  0  0  0
  1  4  1  0  0  0
  1  5  1  0  0  0
  2  3  1  0  0  0
  2 26  1  0  0  0
  3  7  2  0  0  0
  3 19  1  0  0  0
  4  6  2  0  0  0
  4 27  1  0  0  0
  6  7  1  0  0  0
  6 11  1  0  0  0
  7  8  1  0  0  0
  8  9  1  0  0  0
  9 12  1  0  0  0
  9 10  1  0  0  0
  9 28  1  0  0  0
 10 16  1  0  0  0
 10 11  2  0  0  0
 11 29  1  0  0  0
 12 13  1  0  0  0
 12 14  1  0  0  0
 12 15  1  0  0  0
 16 17  1  0  0  0
 16 18  2  0  0  0
 17 30  1  0  0  0
 19 20  2  0  0  0
 19 24  1  0  0  0
 20 21  1  0  0  0
 20 31  1  0  0  0
 21 22  2  0  0  0
 21 32  1  0  0  0
 22 23  1  0  0  0
 22 25  1  0  0  0
 23 24  2  0  0  0
 23 33  1  0  0  0
 24 34  1  0  0  0
 25 35  1  0  0  0
 25 36  1  0  0  0
 25 37  1  0  0  0
M  END
> <s_m_entry_id>
5317

> <s_m_entry_name>
dock_pv.308

> <s_m_Source_Path>
/home/csk/Desktop/cluster/DUD-E-result/pgh1

> <s_m_Source_File>
dock_pv.maegz

> <i_m_Source_File_Index>
308

> <chembl_id>
CHEMBL1669034

> <chembl_pref_name>
None

> <i_lp_mmshare_version>
53161

> <r_lp_tautomer_probability>
1

> <s_lp_Force_Field>
OPLS_2005

> <r_lp_Energy>
19.503283

> <b_lp_Chiralities_Consistent>
1

> <s_lp_Variant>
CHEMBL221_lig855-2

> <s_i_glide_gridfile>
glide-grid_2oyu

> <i_i_glide_lignum>
1054

> <i_i_glide_rotatable_bonds>
4

> <r_i_docking_score>
-8.18916315722315

> <r_i_glide_ligand_efficiency>
-0.327566526288926

> <r_i_glide_ligand_efficiency_sa>
-0.9578103322859

> <r_i_glide_ligand_efficiency_ln>
-1.94107707767838

> <r_i_glide_gscore>
-8.18916315722315

> <r_i_glide_lipo>
-4.47287934178566

> <r_i_glide_hbond>
0

> <r_i_glide_metal>
0

> <r_i_glide_rewards>
-2.08845921117718

> <r_i_glide_evdw>
-25.9643249511719

> <r_i_glide_ecoul>
-4.08670949935913

> <r_i_glide_erotb>
0.283502218667059

> <r_i_glide_esite>
-0.000104150464905989

> <r_i_glide_emodel>
-37.0968490971788

> <r_i_glide_energy>
-30.051034450531

> <r_i_glide_einternal>
8.96972942352295

> <i_i_glide_confnum>
1

> <i_i_glide_posenum>
334

> <r_i_glide_eff_state_penalty>
0

> <s_user_duplicate_titles>
CHEMBL221_lig855

> <i_f3d_flags>
0

> <s_m_subgroup_title>
dock_pv

> <s_m_subgroupid>
dock_pv

> <b_m_subgroup_collapsed>
1

$$$$
CHEMBL221_lig463
                    3D
 Schrodinger Suite 2021-1.
 40 42  0  0  1  0            999 V2000
   20.6850   49.2701   13.3451 C   0  0  1  0  0  0
   19.9743   48.9126    6.2853 S   0  0  0  0  0  0
   19.4905   49.3190   12.3820 C   0  0  2  0  0  0
   21.5029   50.5823   13.4845 C   0  0  0  0  0  0
   20.0663   48.7148   14.6420 C   0  0  0  0  0  0
   18.5626   48.2725   12.9730 C   0  0  0  0  0  0
   19.9775   49.0168    8.0792 C   0  0  0  0  0  0
   19.7846   49.1852   10.8793 C   0  0  0  0  0  0
   20.9203   49.8745    5.7325 O   0  0  0  0  0  0
   20.1220   47.5034    5.9805 O   0  0  0  0  0  0
   18.8661   48.0103   14.2518 C   0  0  0  0  0  0
   22.5069   50.9495   12.5636 C   0  0  0  0  0  0
   21.7294   52.7692   14.5468 N   0  0  0  0  0  0
   20.4715   48.7850   15.7996 O   0  0  0  0  0  0
   20.1218   50.2462    8.7316 C   0  0  0  0  0  0
   19.7238   47.8688    8.8379 C   0  0  0  0  0  0
   20.0696   50.3257   10.1235 C   0  0  0  0  0  0
   19.6585   47.9571   10.2265 C   0  0  0  0  0  0
   18.2925   49.3503    5.6449 C   0  0  0  0  0  0
   21.2319   51.5144   14.5006 C   0  0  0  0  0  0
   22.6393   53.1136   13.6052 C   0  0  0  0  0  0
   23.0734   52.2287   12.6227 C   0  0  0  0  0  0
   23.0505   50.0057   11.5142 C   0  0  0  0  0  0
   17.7079   47.8891   12.4271 H   0  0  0  0  0  0
   18.9757   50.2734   12.4745 H   0  0  0  0  0  0
   18.3130   47.3942   14.9459 H   0  0  0  0  0  0
   21.3228   48.4734   12.9857 H   0  0  0  0  0  0
   20.2636   51.1440    8.1476 H   0  0  0  0  0  0
   19.5830   46.9061    8.3625 H   0  0  0  0  0  0
   20.1632   51.2888   10.6043 H   0  0  0  0  0  0
   19.4431   47.0729   10.7987 H   0  0  0  0  0  0
   18.4237   49.4706    4.5742 H   0  0  0  0  0  0
   17.6210   48.5132    5.7985 H   0  0  0  0  0  0
   17.9314   50.2708    6.0874 H   0  0  0  0  0  0
   20.5198   51.3074   15.2803 H   0  0  0  0  0  0
   23.0542   54.1095   13.6785 H   0  0  0  0  0  0
   23.8370   52.5313   11.9210 H   0  0  0  0  0  0
   23.1044   50.5016   10.5449 H   0  0  0  0  0  0
   24.0671   49.7359   11.8051 H   0  0  0  0  0  0
   22.4818   49.0903   11.3818 H   0  0  0  0  0  0
  1  3  1  0  0  0
  1  4  1  0  0  0
  1 27  1  0  0  0
  1  5  1  0  0  0
  2  7  1  0  0  0
  2  9  2  0  0  0
  2 10  2  0  0  0
  2 19  1  0  0  0
  3  6  1  0  0  0
  3  8  1  0  0  0
  3 25  1  0  0  0
  4 12  1  0  0  0
  4 20  2  0  0  0
  5 14  2  0  0  0
  5 11  1  0  0  0
  6 24  1  0  0  0
  6 11  2  0  0  0
  7 16  2  0  0  0
  7 15  1  0  0  0
  8 17  1  0  0  0
  8 18  2  0  0  0
 11 26  1  0  0  0
 12 22  2  0  0  0
 12 23  1  0  0  0
 13 20  1  0  0  0
 13 21  2  0  0  0
 15 17  2  0  0  0
 15 28  1  0  0  0
 16 18  1  0  0  0
 16 29  1  0  0  0
 17 30  1  0  0  0
 18 31  1  0  0  0
 19 32  1  0  0  0
 19 33  1  0  0  0
 19 34  1  0  0  0
 20 35  1  0  0  0
 21 22  1  0  0  0
 21 36  1  0  0  0
 22 37  1  0  0  0
 23 38  1  0  0  0
 23 39  1  0  0  0
 23 40  1  0  0  0
M  END
> <s_m_entry_id>
5318

> <s_m_entry_name>
dock_pv.309

> <s_m_Source_Path>
/home/csk/Desktop/cluster/DUD-E-result/pgh1

> <s_m_Source_File>
dock_pv.maegz

> <i_m_Source_File_Index>
309

> <chembl_id>
CHEMBL276976

> <chembl_pref_name>
None

> <i_lp_mmshare_version>
53161

> <r_lp_tautomer_probability>
0.499977396165832

> <s_lp_Force_Field>
OPLS_2005

> <r_lp_Energy>
18.393911

> <b_lp_Chiralities_Consistent>
1

> <s_lp_Variant>
CHEMBL221_lig463-2

> <s_i_glide_gridfile>
glide-grid_2oyu

> <i_i_glide_lignum>
571

> <i_i_glide_rotatable_bonds>
3

> <r_i_docking_score>
-8.18154271612424

> <r_i_glide_ligand_efficiency>
-0.355719248527141

> <r_i_glide_ligand_efficiency_sa>
-1.01161822392664

> <r_i_glide_ligand_efficiency_ln>
-1.9783712148866

> <r_i_glide_gscore>
-8.18154271612424

> <r_i_glide_lipo>
-4.07680074241414

> <r_i_glide_hbond>
0

> <r_i_glide_metal>
0

> <r_i_glide_rewards>
-2.64791650870813

> <r_i_glide_evdw>
-19.4168300628662

> <r_i_glide_ecoul>
-5.47100353240967

> <r_i_glide_erotb>
0.350176056749639

> <r_i_glide_esite>
-0.0155094887468598

> <r_i_glide_emodel>
-65.0906844580263

> <r_i_glide_energy>
-24.8878335952759

> <r_i_glide_einternal>
2.55467700958252

> <i_i_glide_confnum>
3

> <i_i_glide_posenum>
31

> <r_i_glide_eff_state_penalty>
0

> <s_user_duplicate_titles>
CHEMBL221_lig463

> <i_f3d_flags>
0

> <s_m_subgroup_title>
dock_pv

> <s_m_subgroupid>
dock_pv

> <b_m_subgroup_collapsed>
1

$$$$
CHEMBL221_lig817
                    3D
 Schrodinger Suite 2021-1.
 34 36  0  0  1  0            999 V2000
   20.1230   48.8035   14.2189 C   0  0  0  0  0  0
   19.8455   48.6011   12.8673 C   0  0  0  0  0  0
   20.3767   49.4293   11.8564 C   0  0  0  0  0  0
   20.9139   49.8755   14.6154 C   0  0  0  0  0  0
   21.4024   50.7546   13.6537 C   0  0  0  0  0  0
   21.1678   50.5149   12.2920 C   0  0  0  0  0  0
   21.6777   51.4011   11.3591 O   0  0  0  0  0  0
   22.9230   52.0647   11.6448 C   0  0  1  0  0  0
   22.9830   52.5225   13.1015 C   0  0  0  0  0  0
   22.2306   51.8970   14.0217 C   0  0  0  0  0  0
   23.7038   53.7258   13.4000 C   0  0  0  0  0  0
   24.9124   53.8747   13.2443 O   0  0  0  0  0  0
   24.1231   51.2455   11.1780 C   0  0  0  0  0  0
   25.1968   52.0148   11.0000 F   0  0  0  0  0  0
   24.4102   50.2730   12.0282 F   0  0  0  0  0  0
   23.8578   50.6730   10.0129 F   0  0  0  0  0  0
   19.4866   47.7182   15.4000 Cl  0  0  0  0  0  0
   20.1230   49.1091   10.3982 C   0  0  0  0  0  0
   20.2673   50.0375    9.3576 C   0  0  0  0  0  0
   20.1230   49.6672    8.0158 C   0  0  0  0  0  0
   19.7230   48.3798    7.6833 C   0  0  0  0  0  0
   19.5109   47.4575    8.6938 C   0  0  0  0  0  0
   19.7230   47.8224   10.0203 C   0  0  0  0  0  0
   22.8575   54.7102   13.8000 O   0  0  0  0  0  0
   19.1973   47.7731   12.6298 H   0  0  0  0  0  0
   21.1215   50.0319   15.6645 H   0  0  0  0  0  0
   22.9230   52.9397   11.0025 H   0  0  0  0  0  0
   22.1945   52.2727   15.0331 H   0  0  0  0  0  0
   20.4908   51.0730    9.5304 H   0  0  0  0  0  0
   20.2389   50.4064    7.2355 H   0  0  0  0  0  0
   19.5682   48.1078    6.6495 H   0  0  0  0  0  0
   19.1941   46.4559    8.4550 H   0  0  0  0  0  0
   19.5873   47.0626   10.7635 H   0  0  0  0  0  0
   23.3230   55.5365   13.9839 H   0  0  0  0  0  0
  1  2  2  0  0  0
  1  4  1  0  0  0
  1 17  1  0  0  0
  2  3  1  0  0  0
  2 25  1  0  0  0
  3  6  2  0  0  0
  3 18  1  0  0  0
  4  5  2  0  0  0
  4 26  1  0  0  0
  5  6  1  0  0  0
  5 10  1  0  0  0
  6  7  1  0  0  0
  7  8  1  0  0  0
  8  9  1  0  0  0
  8 13  1  0  0  0
  8 27  1  0  0  0
  9 10  2  0  0  0
  9 11  1  0  0  0
 10 28  1  0  0  0
 11 12  2  0  0  0
 11 24  1  0  0  0
 13 14  1  0  0  0
 13 15  1  0  0  0
 13 16  1  0  0  0
 18 19  2  0  0  0
 18 23  1  0  0  0
 19 20  1  0  0  0
 19 29  1  0  0  0
 20 21  2  0  0  0
 20 30  1  0  0  0
 21 22  1  0  0  0
 21 31  1  0  0  0
 22 23  2  0  0  0
 22 32  1  0  0  0
 23 33  1  0  0  0
 24 34  1  0  0  0
M  END
> <s_m_entry_id>
5319

> <s_m_entry_name>
dock_pv.310

> <s_m_Source_Path>
/home/csk/Desktop/cluster/DUD-E-result/pgh1

> <s_m_Source_File>
dock_pv.maegz

> <i_m_Source_File_Index>
310

> <chembl_id>
CHEMBL1290320

> <chembl_pref_name>
None

> <i_lp_mmshare_version>
53161

> <r_lp_tautomer_probability>
1

> <s_lp_Force_Field>
OPLS_2005

> <r_lp_Energy>
19.347105

> <b_lp_Chiralities_Consistent>
1

> <s_lp_Variant>
CHEMBL221_lig817-2

> <s_i_glide_gridfile>
glide-grid_2oyu

> <i_i_glide_lignum>
989

> <i_i_glide_rotatable_bonds>
4

> <r_i_docking_score>
-8.18041204934636

> <r_i_glide_ligand_efficiency>
-0.340850502056098

> <r_i_glide_ligand_efficiency_sa>
-0.983182979217408

> <r_i_glide_ligand_efficiency_ln>
-1.95794797805779

> <r_i_glide_gscore>
-8.18041204934636

> <r_i_glide_lipo>
-4.47463509169921

> <r_i_glide_hbond>
0

> <r_i_glide_metal>
0

> <r_i_glide_rewards>
-2.17512877807433

> <r_i_glide_evdw>
-24.6764278411865

> <r_i_glide_ecoul>
-4.00420665740967

> <r_i_glide_erotb>
0.303804211097961

> <r_i_glide_esite>
0

> <r_i_glide_emodel>
-36.583689268946

> <r_i_glide_energy>
-28.6806344985962

> <r_i_glide_einternal>
7.10789728164673

> <i_i_glide_confnum>
1

> <i_i_glide_posenum>
274

> <r_i_glide_eff_state_penalty>
0

> <s_user_duplicate_titles>
CHEMBL221_lig817

> <i_f3d_flags>
0

> <s_m_subgroup_title>
dock_pv

> <s_m_subgroupid>
dock_pv

> <b_m_subgroup_collapsed>
1

$$$$
CHEMBL221_lig853
                    3D
 Schrodinger Suite 2021-1.
 34 36  0  0  1  0            999 V2000
   20.0771   48.8208   14.2160 C   0  0  0  0  0  0
   19.7902   48.6280   12.8643 C   0  0  0  0  0  0
   20.3518   49.4367   11.8548 C   0  0  0  0  0  0
   20.8951   49.8730   14.6120 C   0  0  0  0  0  0
   19.4141   47.7543   15.4000 Cl  0  0  0  0  0  0
   21.4022   50.7427   13.6510 C   0  0  0  0  0  0
   21.1685   50.5036   12.2893 C   0  0  0  0  0  0
   21.6831   51.3852   11.3544 O   0  0  0  0  0  0
   22.9230   52.0578   11.6425 C   0  0  1  0  0  0
   22.9846   52.5121   13.1002 C   0  0  0  0  0  0
   22.2352   51.8824   14.0200 C   0  0  0  0  0  0
   24.1230   51.2443   11.1734 C   0  0  0  0  0  0
   23.8623   50.6730   10.0066 F   0  0  0  0  0  0
   25.1946   52.0178   11.0000 F   0  0  0  0  0  0
   24.4139   50.2730   12.0228 F   0  0  0  0  0  0
   23.7031   53.7176   13.4000 C   0  0  0  0  0  0
   22.8554   54.7003   13.8000 O   0  0  0  0  0  0
   24.9105   53.8730   13.2412 O   0  0  0  0  0  0
   20.1054   49.1137   10.3971 C   0  0  0  0  0  0
   20.2432   50.0463    9.3599 C   0  0  0  0  0  0
   20.1230   49.6753    8.0166 C   0  0  0  0  0  0
   19.7230   48.3891    7.6823 C   0  0  0  0  0  0
   19.5135   47.4619    8.6888 C   0  0  0  0  0  0
   19.7230   47.8225   10.0174 C   0  0  0  0  0  0
   19.5446   48.0472    6.3879 F   0  0  0  0  0  0
   19.1221   47.8169   12.6209 H   0  0  0  0  0  0
   21.1028   50.0268   15.6615 H   0  0  0  0  0  0
   22.9230   52.9344   11.0026 H   0  0  0  0  0  0
   22.2008   52.2562   15.0320 H   0  0  0  0  0  0
   23.3230   55.5259   13.9823 H   0  0  0  0  0  0
   20.4584   51.0803    9.5412 H   0  0  0  0  0  0
   20.2413   50.4129    7.2356 H   0  0  0  0  0  0
   19.2048   46.4604    8.4414 H   0  0  0  0  0  0
   19.5947   47.0624   10.7629 H   0  0  0  0  0  0
  1  2  2  0  0  0
  1  4  1  0  0  0
  1  5  1  0  0  0
  2  3  1  0  0  0
  2 26  1  0  0  0
  3  7  2  0  0  0
  3 19  1  0  0  0
  4  6  2  0  0  0
  4 27  1  0  0  0
  6  7  1  0  0  0
  6 11  1  0  0  0
  7  8  1  0  0  0
  8  9  1  0  0  0
  9 12  1  0  0  0
  9 10  1  0  0  0
  9 28  1  0  0  0
 10 16  1  0  0  0
 10 11  2  0  0  0
 11 29  1  0  0  0
 12 13  1  0  0  0
 12 14  1  0  0  0
 12 15  1  0  0  0
 16 17  1  0  0  0
 16 18  2  0  0  0
 17 30  1  0  0  0
 19 20  2  0  0  0
 19 24  1  0  0  0
 20 21  1  0  0  0
 20 31  1  0  0  0
 21 22  2  0  0  0
 21 32  1  0  0  0
 22 23  1  0  0  0
 22 25  1  0  0  0
 23 24  2  0  0  0
 23 33  1  0  0  0
 24 34  1  0  0  0
M  END
> <s_m_entry_id>
5320

> <s_m_entry_name>
dock_pv.311

> <s_m_Source_Path>
/home/csk/Desktop/cluster/DUD-E-result/pgh1

> <s_m_Source_File>
dock_pv.maegz

> <i_m_Source_File_Index>
311

> <chembl_id>
CHEMBL1669032

> <chembl_pref_name>
None

> <i_lp_mmshare_version>
53161

> <r_lp_tautomer_probability>
1

> <s_lp_Force_Field>
OPLS_2005

> <r_lp_Energy>
19.193614

> <b_lp_Chiralities_Consistent>
1

> <s_lp_Variant>
CHEMBL221_lig853-2

> <s_i_glide_gridfile>
glide-grid_2oyu

> <i_i_glide_lignum>
1050

> <i_i_glide_rotatable_bonds>
4

> <r_i_docking_score>
-8.17695505417751

> <r_i_glide_ligand_efficiency>
-0.3270782021671

> <r_i_glide_ligand_efficiency_sa>
-0.956382463893217

> <r_i_glide_ligand_efficiency_ln>
-1.93818339140924

> <r_i_glide_gscore>
-8.17695505417751

> <r_i_glide_lipo>
-4.49828549416955

> <r_i_glide_hbond>
0

> <r_i_glide_metal>
0

> <r_i_glide_rewards>
-2.0817393448777

> <r_i_glide_evdw>
-25.4113426208496

> <r_i_glide_ecoul>
-4.02914333343506

> <r_i_glide_erotb>
0.278134921001569

> <r_i_glide_esite>
-0.00012650507409234

> <r_i_glide_emodel>
-36.5228036147708

> <r_i_glide_energy>
-29.4404859542847

> <r_i_glide_einternal>
9.54919624328613

> <i_i_glide_confnum>
3

> <i_i_glide_posenum>
211

> <r_i_glide_eff_state_penalty>
0

> <s_user_duplicate_titles>
CHEMBL221_lig853

> <i_f3d_flags>
0

> <s_m_subgroup_title>
dock_pv

> <s_m_subgroupid>
dock_pv

> <b_m_subgroup_collapsed>
1

$$$$
CHEMBL221_lig1044 
                    3D
 Schrodinger Suite 2021-1.
 32 33  0  0  1  0            999 V2000
   20.8349   49.8730    5.6354 O   0  0  0  0  0  0
   19.9443   48.8841    6.2335 S   0  0  0  0  0  0
   20.1228   47.4742    5.9356 O   0  0  0  0  0  0
   20.1230   50.2304    8.6540 C   0  0  0  0  0  0
   19.9900   49.0007    8.0092 C   0  0  0  0  0  0
   19.7231   47.8576    8.7616 C   0  0  0  0  0  0
   19.7229   47.9377   10.1451 C   0  0  0  0  0  0
   19.9894   49.1376   10.7917 C   0  0  0  0  0  0
   20.1595   50.3027   10.0454 C   0  0  0  0  0  0
   18.3219   49.2873    5.8000 N   0  0  0  0  0  0
   20.0404   49.1574   12.2003 N   0  0  0  0  0  0
   20.9635   49.7713   13.0222 C   0  0  0  0  0  0
   20.4848   49.5763   14.3162 C   0  0  0  0  0  0
   19.4002   48.7064   14.1603 C   0  0  0  0  0  0
   19.1138   48.4816   12.9051 N   0  0  0  0  0  0
   20.9230   50.1823   15.5544 C   0  0  0  0  0  0
   21.2608   50.6796   16.5364 N   0  0  0  0  0  0
   22.1018   50.3981   12.5327 N   0  0  0  0  0  0
   22.4144   51.6910   12.7325 C   0  0  0  0  0  0
   23.6856   52.1768   12.0267 C   0  0  0  0  0  0
   21.7327   52.4693   13.4000 O   0  0  0  0  0  0
   24.6365   53.3311   13.0000 Cl  0  0  0  0  0  0
   20.1356   51.1226    8.0540 H   0  0  0  0  0  0
   19.5380   46.9083    8.2845 H   0  0  0  0  0  0
   19.5649   47.0730   10.7492 H   0  0  0  0  0  0
   20.2843   51.2555   10.5381 H   0  0  0  0  0  0
   18.1229   50.2912    5.7369 H   0  0  0  0  0  0
   17.5875   48.7611    6.2905 H   0  0  0  0  0  0
   18.7763   48.3191   14.9540 H   0  0  0  0  0  0
   22.7203   49.8391   11.9644 H   0  0  0  0  0  0
   23.4093   52.6821   11.1019 H   0  0  0  0  0  0
   24.3481   51.3499   11.7673 H   0  0  0  0  0  0
  1  2  2  0  0  0
  2  3  2  0  0  0
  2  5  1  0  0  0
  2 10  1  0  0  0
  4  5  2  0  0  0
  4  9  1  0  0  0
  4 23  1  0  0  0
  5  6  1  0  0  0
  6  7  2  0  0  0
  6 24  1  0  0  0
  7  8  1  0  0  0
  7 25  1  0  0  0
  8  9  2  0  0  0
  8 11  1  0  0  0
  9 26  1  0  0  0
 10 27  1  0  0  0
 10 28  1  0  0  0
 11 12  1  0  0  0
 11 15  1  0  0  0
 12 13  2  0  0  0
 12 18  1  0  0  0
 13 14  1  0  0  0
 13 16  1  0  0  0
 14 15  2  0  0  0
 14 29  1  0  0  0
 16 17  3  0  0  0
 18 19  1  0  0  0
 18 30  1  0  0  0
 19 20  1  0  0  0
 19 21  2  0  0  0
 20 22  1  0  0  0
 20 31  1  0  0  0
 20 32  1  0  0  0
M  END
> <s_m_entry_id>
5321

> <s_m_entry_name>
dock_pv.312

> <s_m_Source_Path>
/home/csk/Desktop/cluster/DUD-E-result/pgh1

> <s_m_Source_File>
dock_pv.maegz

> <i_m_Source_File_Index>
312

> <chembl_id>
CHEMBL4531165

> <chembl_pref_name>
None

> <i_lp_mmshare_version>
53161

> <r_lp_tautomer_probability>
1

> <s_lp_Force_Field>
OPLS_2005

> <r_lp_Energy>
21.094972

> <b_lp_Chiralities_Consistent>
1

> <s_lp_Variant>
CHEMBL221_lig1044 -1

> <s_i_glide_gridfile>
glide-grid_2oyu

> <i_i_glide_lignum>
1300

> <i_i_glide_rotatable_bonds>
5

> <r_i_docking_score>
-8.17296231060411

> <r_i_glide_ligand_efficiency>
-0.371498286845641

> <r_i_glide_ligand_efficiency_sa>
-1.04095280994004

> <r_i_glide_ligand_efficiency_ln>
-1.99777010475532

> <r_i_glide_gscore>
-8.17296231060411

> <r_i_glide_lipo>
-2.82251199138771

> <r_i_glide_hbond>
-0.506468811681244

> <r_i_glide_metal>
0

> <r_i_glide_rewards>
-2.99546907928434

> <r_i_glide_evdw>
-21.2605438232422

> <r_i_glide_ecoul>
-8.05293464660645

> <r_i_glide_erotb>
0.49193015530222

> <r_i_glide_esite>
-0.0694751953999506

> <r_i_glide_emodel>
-34.7536029015977

> <r_i_glide_energy>
-29.3134784698486

> <r_i_glide_einternal>
5.6250433921814

> <i_i_glide_confnum>
2

> <i_i_glide_posenum>
270

> <r_i_glide_eff_state_penalty>
0

> <s_user_duplicate_titles>
CHEMBL221_lig1044 

> <i_f3d_flags>
0

> <s_m_subgroup_title>
dock_pv

> <s_m_subgroupid>
dock_pv

> <b_m_subgroup_collapsed>
1

$$$$
CHEMBL221_lig828
                    3D
 Schrodinger Suite 2021-1.
 34 35  0  0  1  0            999 V2000
   20.1208   48.8786   14.1844 C   0  0  0  0  0  0
   19.9386   48.5902   12.8198 C   0  0  0  0  0  0
   20.5144   49.4047   11.8273 C   0  0  0  0  0  0
   20.9223   49.9535   14.5543 C   0  0  0  0  0  0
   21.4596   50.7902   13.5853 C   0  0  0  0  0  0
   21.2878   50.5038   12.2292 C   0  0  0  0  0  0
   21.7941   51.3599   11.2602 O   0  0  0  0  0  0
   22.9769   52.1401   11.5892 C   0  0  1  0  0  0
   22.9825   52.6019   13.0566 C   0  0  0  0  0  0
   22.2256   51.9608   13.9593 C   0  0  0  0  0  0
   23.6532   53.8260   13.4000 C   0  0  0  0  0  0
   22.7700   54.7789   13.8000 O   0  0  0  0  0  0
   24.8632   54.0098   13.3081 O   0  0  0  0  0  0
   24.2631   51.4501   11.1125 C   0  0  0  0  0  0
   24.5229   50.3493   11.8047 F   0  0  0  0  0  0
   24.1230   51.0725    9.8514 F   0  0  0  0  0  0
   25.3148   52.2726   11.1548 F   0  0  0  0  0  0
   20.2907   49.1558   10.3319 C   0  0  0  0  0  0
   19.5202   48.2053   15.2255 O   0  0  0  0  0  0
   18.2886   47.5190   15.0204 C   0  0  0  0  0  0
   17.6756   47.4731   16.1999 F   0  0  0  0  0  0
   17.4601   48.1495   14.1841 F   0  0  0  0  0  0
   18.5230   46.2769   14.6001 F   0  0  0  0  0  0
   19.5334   47.8723    9.9472 C   0  0  0  0  0  0
   19.3249   47.7487   12.5373 H   0  0  0  0  0  0
   21.0563   50.1748   15.6036 H   0  0  0  0  0  0
   22.9232   53.0343   10.9810 H   0  0  0  0  0  0
   22.1237   52.3411   14.9673 H   0  0  0  0  0  0
   23.2293   55.5984   14.0256 H   0  0  0  0  0  0
   19.7626   50.0194    9.9242 H   0  0  0  0  0  0
   21.2650   49.1431    9.8407 H   0  0  0  0  0  0
   19.4442   47.7866    8.8642 H   0  0  0  0  0  0
   20.0529   46.9841   10.3052 H   0  0  0  0  0  0
   18.5248   47.8558   10.3583 H   0  0  0  0  0  0
  1  2  2  0  0  0
  1  4  1  0  0  0
  1 19  1  0  0  0
  2  3  1  0  0  0
  2 25  1  0  0  0
  3  6  2  0  0  0
  3 18  1  0  0  0
  4  5  2  0  0  0
  4 26  1  0  0  0
  5  6  1  0  0  0
  5 10  1  0  0  0
  6  7  1  0  0  0
  7  8  1  0  0  0
  8  9  1  0  0  0
  8 14  1  0  0  0
  8 27  1  0  0  0
  9 10  2  0  0  0
  9 11  1  0  0  0
 10 28  1  0  0  0
 11 12  1  0  0  0
 11 13  2  0  0  0
 12 29  1  0  0  0
 14 15  1  0  0  0
 14 16  1  0  0  0
 14 17  1  0  0  0
 18 24  1  0  0  0
 18 30  1  0  0  0
 18 31  1  0  0  0
 19 20  1  0  0  0
 20 21  1  0  0  0
 20 22  1  0  0  0
 20 23  1  0  0  0
 24 32  1  0  0  0
 24 33  1  0  0  0
 24 34  1  0  0  0
M  END
> <s_m_entry_id>
5322

> <s_m_entry_name>
dock_pv.313

> <s_m_Source_Path>
/home/csk/Desktop/cluster/DUD-E-result/pgh1

> <s_m_Source_File>
dock_pv.maegz

> <i_m_Source_File_Index>
313

> <chembl_id>
CHEMBL1290565

> <chembl_pref_name>
None

> <i_lp_mmshare_version>
53161

> <r_lp_tautomer_probability>
1

> <s_lp_Force_Field>
OPLS_2005

> <r_lp_Energy>
10.964206

> <b_lp_Chiralities_Consistent>
1

> <s_lp_Variant>
CHEMBL221_lig828-2

> <s_i_glide_gridfile>
glide-grid_2oyu

> <i_i_glide_lignum>
1011

> <i_i_glide_rotatable_bonds>
6

> <r_i_docking_score>
-8.15489068979615

> <r_i_glide_ligand_efficiency>
-0.33978711207484

> <r_i_glide_ligand_efficiency_sa>
-0.980115631733578

> <r_i_glide_ligand_efficiency_ln>
-1.95183954561854

> <r_i_glide_gscore>
-8.15489068979615

> <r_i_glide_lipo>
-3.83509248988819

> <r_i_glide_hbond>
0

> <r_i_glide_metal>
0

> <r_i_glide_rewards>
-2.5171747894071

> <r_i_glide_evdw>
-30.0106182098389

> <r_i_glide_ecoul>
-3.91738605499268

> <r_i_glide_erotb>
0.301515401270108

> <r_i_glide_esite>
-0.0159999930301281

> <r_i_glide_emodel>
-44.8476299023254

> <r_i_glide_energy>
-33.9280042648315

> <r_i_glide_einternal>
9.22026920318604

> <i_i_glide_confnum>
2

> <i_i_glide_posenum>
297

> <r_i_glide_eff_state_penalty>
0

> <s_user_duplicate_titles>
CHEMBL221_lig828

> <i_f3d_flags>
0

> <s_m_subgroup_title>
dock_pv

> <s_m_subgroupid>
dock_pv

> <b_m_subgroup_collapsed>
1

$$$$
CHEMBL221_lig850
                    3D
 Schrodinger Suite 2021-1.
 36 38  0  0  1  0            999 V2000
   19.9796   48.8152   14.1214 C   0  0  0  0  0  0
   19.7200   48.6276   12.7624 C   0  0  0  0  0  0
   20.2953   49.4490   11.7746 C   0  0  0  0  0  0
   20.7895   49.8677   14.5408 C   0  0  0  0  0  0
   19.2916   47.7444   15.2878 Cl  0  0  0  0  0  0
   21.3329   50.7336   13.5968 C   0  0  0  0  0  0
   21.1248   50.5002   12.2302 C   0  0  0  0  0  0
   21.6799   51.3712   11.3071 O   0  0  0  0  0  0
   22.9143   52.0408   11.6262 C   0  0  1  0  0  0
   22.9519   52.4855   13.0870 C   0  0  0  0  0  0
   22.1761   51.8613   13.9898 C   0  0  0  0  0  0
   24.1230   51.2417   11.1620 C   0  0  0  0  0  0
   25.1889   52.0256   11.0000 F   0  0  0  0  0  0
   24.4174   50.2730   12.0120 F   0  0  0  0  0  0
   23.8800   50.6730    9.9901 F   0  0  0  0  0  0
   23.6826   53.6810   13.4000 C   0  0  0  0  0  0
   22.8458   54.6730   13.8000 O   0  0  0  0  0  0
   24.8952   53.8180   13.2656 O   0  0  0  0  0  0
   20.0534   49.1623   10.3104 C   0  0  0  0  0  0
   20.1578   50.1528    9.3263 C   0  0  0  0  0  0
   20.1230   49.8428    7.9674 C   0  0  0  0  0  0
   19.8152   48.5545    7.5588 C   0  0  0  0  0  0
   19.6100   47.5634    8.5118 C   0  0  0  0  0  0
   19.7230   47.8730    9.8678 C   0  0  0  0  0  0
   19.7291   48.2730    6.1999 N   0  0  0  0  0  0
   19.0609   47.8177   12.4884 H   0  0  0  0  0  0
   20.9734   50.0159   15.5955 H   0  0  0  0  0  0
   22.9230   52.9265   11.0000 H   0  0  0  0  0  0
   22.1324   52.2265   15.0058 H   0  0  0  0  0  0
   23.3230   55.4907   13.9924 H   0  0  0  0  0  0
   20.3103   51.1834    9.5771 H   0  0  0  0  0  0
   20.2323   50.6334    7.2384 H   0  0  0  0  0  0
   19.3662   46.5604    8.2081 H   0  0  0  0  0  0
   19.6043   47.0730   10.5765 H   0  0  0  0  0  0
   20.1230   47.3897    5.9084 H   0  0  0  0  0  0
   19.8350   49.0637    5.5802 H   0  0  0  0  0  0
  1  2  2  0  0  0
  1  4  1  0  0  0
  1  5  1  0  0  0
  2  3  1  0  0  0
  2 26  1  0  0  0
  3  7  2  0  0  0
  3 19  1  0  0  0
  4  6  2  0  0  0
  4 27  1  0  0  0
  6  7  1  0  0  0
  6 11  1  0  0  0
  7  8  1  0  0  0
  8  9  1  0  0  0
  9 12  1  0  0  0
  9 10  1  0  0  0
  9 28  1  0  0  0
 10 16  1  0  0  0
 10 11  2  0  0  0
 11 29  1  0  0  0
 12 13  1  0  0  0
 12 14  1  0  0  0
 12 15  1  0  0  0
 16 17  1  0  0  0
 16 18  2  0  0  0
 17 30  1  0  0  0
 19 20  2  0  0  0
 19 24  1  0  0  0
 20 21  1  0  0  0
 20 31  1  0  0  0
 21 22  2  0  0  0
 21 32  1  0  0  0
 22 23  1  0  0  0
 22 25  1  0  0  0
 23 24  2  0  0  0
 23 33  1  0  0  0
 24 34  1  0  0  0
 25 35  1  0  0  0
 25 36  1  0  0  0
M  END
> <s_m_entry_id>
5323

> <s_m_entry_name>
dock_pv.314

> <s_m_Source_Path>
/home/csk/Desktop/cluster/DUD-E-result/pgh1

> <s_m_Source_File>
dock_pv.maegz

> <i_m_Source_File_Index>
314

> <chembl_id>
CHEMBL1667876

> <chembl_pref_name>
None

> <i_lp_mmshare_version>
53161

> <r_lp_tautomer_probability>
1

> <s_lp_Force_Field>
OPLS_2005

> <r_lp_Energy>
21.875332

> <b_lp_Chiralities_Consistent>
1

> <s_lp_Variant>
CHEMBL221_lig850-2

> <s_i_glide_gridfile>
glide-grid_2oyu

> <i_i_glide_lignum>
1044

> <i_i_glide_rotatable_bonds>
4

> <r_i_docking_score>
-8.1351572555119

> <r_i_glide_ligand_efficiency>
-0.325406290220476

> <r_i_glide_ligand_efficiency_sa>
-0.951493763709803

> <r_i_glide_ligand_efficiency_ln>
-1.92827606054654

> <r_i_glide_gscore>
-8.1351572555119

> <r_i_glide_lipo>
-4.45645807709637

> <r_i_glide_hbond>
0

> <r_i_glide_metal>
0

> <r_i_glide_rewards>
-2.05883846677583

> <r_i_glide_evdw>
-25.996187210083

> <r_i_glide_ecoul>
-4.0073070526123

> <r_i_glide_erotb>
0.282149822975237

> <r_i_glide_esite>
-0.00110511621895197

> <r_i_glide_emodel>
-36.1786400518937

> <r_i_glide_energy>
-30.0034942626953

> <r_i_glide_einternal>
8.59209156036377

> <i_i_glide_confnum>
1

> <i_i_glide_posenum>
104

> <r_i_glide_eff_state_penalty>
0

> <s_user_duplicate_titles>
CHEMBL221_lig850

> <i_f3d_flags>
0

> <s_m_subgroup_title>
dock_pv

> <s_m_subgroupid>
dock_pv

> <b_m_subgroup_collapsed>
1

$$$$
CHEMBL221_lig203
                    3D
 Schrodinger Suite 2021-1.
 37 39  0  0  1  0            999 V2000
   20.0490   48.7587    6.8145 S   0  0  0  0  0  0
   20.9225   49.9340   13.7365 C   0  0  0  0  0  0
   20.0740   49.1502   12.9704 C   0  0  0  0  0  0
   20.8559   49.8815   15.2149 C   0  0  0  0  0  0
   19.1942   48.0899   14.9336 N   0  0  0  0  0  0
   20.0688   48.8682   15.6618 N   0  0  0  0  0  0
   20.1213   48.9812    8.6262 C   0  0  0  0  0  0
   20.0343   49.1421   11.4608 C   0  0  0  0  0  0
   19.1555   48.2390   13.6610 C   0  0  0  0  0  0
   19.4356   47.4730    6.6034 O   0  0  0  0  0  0
   21.3230   49.0729    6.1999 O   0  0  0  0  0  0
   22.0104   50.7905   13.1635 C   0  0  0  0  0  0
   21.3242   50.6752   16.0271 O   0  0  0  0  0  0
   20.3234   50.1992    9.2806 C   0  0  0  0  0  0
   19.7231   47.8821    9.3949 C   0  0  0  0  0  0
   20.2782   50.2794   10.6739 C   0  0  0  0  0  0
   19.7184   47.9596   10.7798 C   0  0  0  0  0  0
   18.9235   49.8604    5.9422 C   0  0  0  0  0  0
   22.1533   52.1331   13.5494 C   0  0  0  0  0  0
   22.8971   50.2725   12.2075 C   0  0  0  0  0  0
   23.8735   51.0781   11.6322 C   0  0  0  0  0  0
   23.1521   52.9318   13.0000 C   0  0  0  0  0  0
   24.0054   52.4014   12.0383 C   0  0  0  0  0  0
   18.4030   47.6604   13.1325 H   0  0  0  0  0  0
   20.0005   48.7583   16.6630 H   0  0  0  0  0  0
   20.5218   51.0827    8.6963 H   0  0  0  0  0  0
   19.4750   46.9381    8.9337 H   0  0  0  0  0  0
   20.4467   51.2401   11.1360 H   0  0  0  0  0  0
   19.4861   47.0614   11.3216 H   0  0  0  0  0  0
   19.0655   49.6437    4.8894 H   0  0  0  0  0  0
   19.3272   50.8018    6.1989 H   0  0  0  0  0  0
   17.8841   49.7260    6.1999 H   0  0  0  0  0  0
   21.4862   52.5682   14.2798 H   0  0  0  0  0  0
   22.8161   49.2439   11.8860 H   0  0  0  0  0  0
   24.5263   50.6748   10.8741 H   0  0  0  0  0  0
   23.2572   53.9600   13.3156 H   0  0  0  0  0  0
   24.7736   53.0220   11.6023 H   0  0  0  0  0  0
  1  7  1  0  0  0
  1 10  2  0  0  0
  1 11  2  0  0  0
  1 18  1  0  0  0
  2  4  1  0  0  0
  2 12  1  0  0  0
  2  3  2  0  0  0
  3  8  1  0  0  0
  3  9  1  0  0  0
  4 13  2  0  0  0
  4  6  1  0  0  0
  5  9  2  0  0  0
  5  6  1  0  0  0
  6 25  1  0  0  0
  7 14  2  0  0  0
  7 15  1  0  0  0
  8 17  1  0  0  0
  8 16  2  0  0  0
  9 24  1  0  0  0
 12 19  2  0  0  0
 12 20  1  0  0  0
 14 16  1  0  0  0
 14 26  1  0  0  0
 15 17  2  0  0  0
 15 27  1  0  0  0
 16 28  1  0  0  0
 17 29  1  0  0  0
 18 30  1  0  0  0
 18 31  1  0  0  0
 18 32  1  0  0  0
 19 22  1  0  0  0
 19 33  1  0  0  0
 20 21  2  0  0  0
 20 34  1  0  0  0
 21 23  1  0  0  0
 21 35  1  0  0  0
 22 23  2  0  0  0
 22 36  1  0  0  0
 23 37  1  0  0  0
M  END
> <s_m_entry_id>
5324

> <s_m_entry_name>
dock_pv.315

> <s_m_Source_Path>
/home/csk/Desktop/cluster/DUD-E-result/pgh1

> <s_m_Source_File>
dock_pv.maegz

> <i_m_Source_File_Index>
315

> <chembl_id>
CHEMBL155676

> <chembl_pref_name>
None

> <i_lp_mmshare_version>
53161

> <r_lp_tautomer_probability>
0.998994762270461

> <s_lp_Force_Field>
OPLS_2005

> <r_lp_Energy>
37.16662

> <b_lp_Chiralities_Consistent>
1

> <s_lp_Variant>
CHEMBL221_lig203-1

> <s_i_glide_gridfile>
glide-grid_2oyu

> <i_i_glide_lignum>
231

> <i_i_glide_rotatable_bonds>
3

> <r_i_docking_score>
-8.12980653635522

> <r_i_glide_ligand_efficiency>
-0.353469849406749

> <r_i_glide_ligand_efficiency_sa>
-1.00522123205034

> <r_i_glide_ligand_efficiency_ln>
-1.96586093750071

> <r_i_glide_gscore>
-8.12980653635522

> <r_i_glide_lipo>
-4.49232747120792

> <r_i_glide_hbond>
0

> <r_i_glide_metal>
0

> <r_i_glide_rewards>
-2.12290396796447

> <r_i_glide_evdw>
-19.9426746368408

> <r_i_glide_ecoul>
-5.7971134185791

> <r_i_glide_erotb>
0.352125647446071

> <r_i_glide_esite>
0

> <r_i_glide_emodel>
-27.7911951322578

> <r_i_glide_energy>
-25.7397880554199

> <r_i_glide_einternal>
0.945214867591858

> <i_i_glide_confnum>
2

> <i_i_glide_posenum>
288

> <r_i_glide_eff_state_penalty>
0

> <s_user_duplicate_titles>
CHEMBL221_lig203

> <i_f3d_flags>
0

> <s_m_subgroup_title>
dock_pv

> <s_m_subgroupid>
dock_pv

> <b_m_subgroup_collapsed>
1

$$$$
CHEMBL221_lig150
                    3D
 Schrodinger Suite 2021-1.
 35 37  0  0  1  0            999 V2000
   20.9428   50.0611   13.4542 C   0  0  0  0  0  0
   20.0243   49.3836   12.6709 N   0  0  0  0  0  0
   22.0695   50.9130   12.9365 C   0  0  0  0  0  0
   19.6058   48.8376   14.8077 N   0  0  0  0  0  0
   19.2563   48.6730   13.5633 C   0  0  0  0  0  0
   20.5930   49.7102   14.7599 C   0  0  0  0  0  0
   20.0535   48.7656    6.7331 S   0  0  0  0  0  0
   22.3504   52.2198   13.3834 C   0  0  0  0  0  0
   19.9327   49.3195   11.2682 C   0  0  0  0  0  0
   20.1230   49.0459    8.5048 C   0  0  0  0  0  0
   19.4328   47.4730    6.6000 O   0  0  0  0  0  0
   21.3230   49.0730    6.1045 O   0  0  0  0  0  0
   23.4494   52.9179   12.8591 C   0  0  0  0  0  0
   19.8221   47.9409    9.3104 C   0  0  0  0  0  0
   20.1230   50.3163    9.0772 C   0  0  0  0  0  0
   19.7230   48.0734   10.6841 C   0  0  0  0  0  0
   20.0856   50.4563   10.4648 C   0  0  0  0  0  0
   21.3230   50.2620   16.2000 Cl  0  0  0  0  0  0
   21.3232   53.0092   14.5287 Cl  0  0  0  0  0  0
   22.8872   50.3491   11.9497 C   0  0  0  0  0  0
   18.9230   49.8688    5.8971 C   0  0  0  0  0  0
   23.8665   54.5050   13.4000 Cl  0  0  0  0  0  0
   23.9350   51.0730   11.3924 C   0  0  0  0  0  0
   24.2291   52.3446   11.8601 C   0  0  0  0  0  0
   18.4560   48.0398   13.2088 H   0  0  0  0  0  0
   19.6995   46.9548    8.8885 H   0  0  0  0  0  0
   20.2176   51.1820    8.4407 H   0  0  0  0  0  0
   19.5618   47.1869   11.2814 H   0  0  0  0  0  0
   20.1827   51.4387   10.9049 H   0  0  0  0  0  0
   22.6971   49.3485   11.5895 H   0  0  0  0  0  0
   19.0517   49.6754    4.8385 H   0  0  0  0  0  0
   19.3230   50.7990    6.2000 H   0  0  0  0  0  0
   17.8975   49.7156    6.2000 H   0  0  0  0  0  0
   24.5230   50.6534   10.5936 H   0  0  0  0  0  0
   25.0621   52.8871   11.4398 H   0  0  0  0  0  0
  1  2  1  0  0  0
  1  3  1  0  0  0
  1  6  2  0  0  0
  2  5  1  0  0  0
  2  9  1  0  0  0
  3  8  2  0  0  0
  3 20  1  0  0  0
  4  6  1  0  0  0
  4  5  2  0  0  0
  5 25  1  0  0  0
  6 18  1  0  0  0
  7 10  1  0  0  0
  7 11  2  0  0  0
  7 12  2  0  0  0
  7 21  1  0  0  0
  8 13  1  0  0  0
  8 19  1  0  0  0
  9 16  1  0  0  0
  9 17  2  0  0  0
 10 15  2  0  0  0
 10 14  1  0  0  0
 13 22  1  0  0  0
 13 24  2  0  0  0
 14 16  2  0  0  0
 14 26  1  0  0  0
 15 17  1  0  0  0
 15 27  1  0  0  0
 16 28  1  0  0  0
 17 29  1  0  0  0
 20 23  2  0  0  0
 20 30  1  0  0  0
 21 31  1  0  0  0
 21 32  1  0  0  0
 21 33  1  0  0  0
 23 24  1  0  0  0
 23 34  1  0  0  0
 24 35  1  0  0  0
M  END
> <s_m_entry_id>
5325

> <s_m_entry_name>
dock_pv.316

> <s_m_Source_Path>
/home/csk/Desktop/cluster/DUD-E-result/pgh1

> <s_m_Source_File>
dock_pv.maegz

> <i_m_Source_File_Index>
316

> <chembl_id>
CHEMBL324826

> <chembl_pref_name>
None

> <i_lp_mmshare_version>
53161

> <r_lp_tautomer_probability>
1

> <s_lp_Force_Field>
OPLS_2005

> <r_lp_Energy>
14.729143

> <b_lp_Chiralities_Consistent>
1

> <s_lp_Variant>
CHEMBL221_lig150-1

> <s_i_glide_gridfile>
glide-grid_2oyu

> <i_i_glide_lignum>
172

> <i_i_glide_rotatable_bonds>
3

> <r_i_docking_score>
-8.12886141445877

> <r_i_glide_ligand_efficiency>
-0.338702558935782

> <r_i_glide_ligand_efficiency_sa>
-0.97698723913933

> <r_i_glide_ligand_efficiency_ln>
-1.94560954562469

> <r_i_glide_gscore>
-8.12886141445877

> <r_i_glide_lipo>
-4.26704911076263

> <r_i_glide_hbond>
0

> <r_i_glide_metal>
0

> <r_i_glide_rewards>
-2.4177207813942

> <r_i_glide_evdw>
-18.8921928405762

> <r_i_glide_ecoul>
-4.95082664489746

> <r_i_glide_erotb>
0.243142116461488

> <r_i_glide_esite>
0

> <r_i_glide_emodel>
-27.4988993790815

> <r_i_glide_energy>
-23.8430194854736

> <r_i_glide_einternal>
3.00731229782104

> <i_i_glide_confnum>
13

> <i_i_glide_posenum>
7

> <r_i_glide_eff_state_penalty>
0

> <s_user_duplicate_titles>
CHEMBL221_lig150

> <i_f3d_flags>
0

> <s_m_subgroup_title>
dock_pv

> <s_m_subgroupid>
dock_pv

> <b_m_subgroup_collapsed>
1

$$$$
CHEMBL221_lig829
                    3D
 Schrodinger Suite 2021-1.
 37 38  0  0  1  0            999 V2000
   19.5048   48.3769   13.1646 C   0  0  0  0  0  0
   19.5566   48.2722   11.7800 C   0  0  0  0  0  0
   20.2673   49.1880   11.0002 C   0  0  0  0  0  0
   20.2413   49.3887   13.8034 C   0  0  0  0  0  0
   20.9411   50.3298   13.0397 C   0  0  0  0  0  0
   20.9660   50.2147   11.6444 C   0  0  0  0  0  0
   21.5973   51.1699   10.8593 O   0  0  0  0  0  0
   22.7274   51.8732   11.4362 C   0  0  1  0  0  0
   22.4546   52.2487   12.9033 C   0  0  0  0  0  0
   21.6341   51.4724   13.6400 C   0  0  0  0  0  0
   24.0341   51.1123   11.2261 C   0  0  0  0  0  0
   25.0741   51.9194   11.4000 F   0  0  0  0  0  0
   24.1231   50.0788   12.0563 F   0  0  0  0  0  0
   24.1227   50.6730    9.9764 F   0  0  0  0  0  0
   23.0195   53.4800   13.4000 C   0  0  0  0  0  0
   24.1531   53.8731   13.1422 O   0  0  0  0  0  0
   22.1491   54.1890   14.1750 O   0  0  0  0  0  0
   18.6644   47.4712   13.7732 O   0  0  0  0  0  0
   18.4536   47.4822   15.1741 C   0  0  0  0  0  0
   17.4277   46.6730   15.4000 F   0  0  0  0  0  0
   18.1092   48.6730   15.6551 F   0  0  0  0  0  0
   19.5254   47.0047   15.7999 F   0  0  0  0  0  0
   20.2787   49.1016    9.4763 C   0  0  0  0  0  0
   19.5500   47.8963    8.8434 C   0  0  0  0  0  0
   19.4991   47.9606    7.3152 C   0  0  0  0  0  0
   18.9914   47.4745   11.3256 H   0  0  0  0  0  0
   20.2309   49.4849   14.8784 H   0  0  0  0  0  0
   22.9229   52.7749   10.8604 H   0  0  0  0  0  0
   21.4089   51.7411   14.6640 H   0  0  0  0  0  0
   22.6047   54.9616   14.5209 H   0  0  0  0  0  0
   19.8729   50.0364    9.0846 H   0  0  0  0  0  0
   21.3230   49.0737    9.1876 H   0  0  0  0  0  0
   20.0226   46.9642    9.1533 H   0  0  0  0  0  0
   18.5231   47.8617    9.2026 H   0  0  0  0  0  0
   18.8809   47.1475    6.9405 H   0  0  0  0  0  0
   19.0530   48.8937    6.9673 H   0  0  0  0  0  0
   20.4907   47.8745    6.8702 H   0  0  0  0  0  0
  1  2  2  0  0  0
  1  4  1  0  0  0
  1 18  1  0  0  0
  2  3  1  0  0  0
  2 26  1  0  0  0
  3  6  2  0  0  0
  3 23  1  0  0  0
  4  5  2  0  0  0
  4 27  1  0  0  0
  5 10  1  0  0  0
  5  6  1  0  0  0
  6  7  1  0  0  0
  7  8  1  0  0  0
  8  9  1  0  0  0
  8 11  1  0  0  0
  8 28  1  0  0  0
  9 15  1  0  0  0
  9 10  2  0  0  0
 10 29  1  0  0  0
 11 12  1  0  0  0
 11 13  1  0  0  0
 11 14  1  0  0  0
 15 16  2  0  0  0
 15 17  1  0  0  0
 17 30  1  0  0  0
 18 19  1  0  0  0
 19 20  1  0  0  0
 19 21  1  0  0  0
 19 22  1  0  0  0
 23 24  1  0  0  0
 23 31  1  0  0  0
 23 32  1  0  0  0
 24 25  1  0  0  0
 24 33  1  0  0  0
 24 34  1  0  0  0
 25 35  1  0  0  0
 25 36  1  0  0  0
 25 37  1  0  0  0
M  END
> <s_m_entry_id>
5326

> <s_m_entry_name>
dock_pv.317

> <s_m_Source_Path>
/home/csk/Desktop/cluster/DUD-E-result/pgh1

> <s_m_Source_File>
dock_pv.maegz

> <i_m_Source_File_Index>
317

> <chembl_id>
CHEMBL1290682

> <chembl_pref_name>
None

> <i_lp_mmshare_version>
53161

> <r_lp_tautomer_probability>
1

> <s_lp_Force_Field>
OPLS_2005

> <r_lp_Energy>
11.326154

> <b_lp_Chiralities_Consistent>
1

> <s_lp_Variant>
CHEMBL221_lig829-2

> <s_i_glide_gridfile>
glide-grid_2oyu

> <i_i_glide_lignum>
1013

> <i_i_glide_rotatable_bonds>
7

> <r_i_docking_score>
-8.12813603437141

> <r_i_glide_ligand_efficiency>
-0.325125441374856

> <r_i_glide_ligand_efficiency_sa>
-0.950672556704335

> <r_i_glide_ligand_efficiency_ln>
-1.92661182072723

> <r_i_glide_gscore>
-8.12813603437141

> <r_i_glide_lipo>
-4.05295229472876

> <r_i_glide_hbond>
0

> <r_i_glide_metal>
0

> <r_i_glide_rewards>
-2.71134992130761

> <r_i_glide_evdw>
-29.9383201599121

> <r_i_glide_ecoul>
-1.76462554931641

> <r_i_glide_erotb>
0.422159406256566

> <r_i_glide_esite>
-0.024383384198546

> <r_i_glide_emodel>
-45.6602384453032

> <r_i_glide_energy>
-31.7029457092285

> <r_i_glide_einternal>
5.3035945892334

> <i_i_glide_confnum>
9

> <i_i_glide_posenum>
17

> <r_i_glide_eff_state_penalty>
0

> <s_user_duplicate_titles>
CHEMBL221_lig829

> <i_f3d_flags>
0

> <s_m_subgroup_title>
dock_pv

> <s_m_subgroupid>
dock_pv

> <b_m_subgroup_collapsed>
1

$$$$
CHEMBL221_lig79
                    3D
 Schrodinger Suite 2021-1.
 31 32  0  0  1  0            999 V2000
   21.0592   50.5575   11.7721 C   0  0  0  0  0  0
   21.2774   49.2288   11.8372 N   0  0  0  0  0  0
   22.2500   51.4109   12.0926 C   0  0  0  0  0  0
   20.2079   48.3329   12.0736 N   0  0  0  0  0  0
   19.9631   51.0702   11.5310 O   0  0  0  0  0  0
   23.4466   51.2808   11.3757 C   0  0  0  0  0  0
   22.1494   52.3636   13.1109 C   0  0  0  0  0  0
   19.5222   48.3173   13.2996 C   0  0  0  0  0  0
   24.4066   53.0727   12.6663 C   0  0  0  0  0  0
   24.5209   52.1236   11.6516 C   0  0  0  0  0  0
   23.2279   53.1934   13.3985 C   0  0  0  0  0  0
   18.0919   48.2226   15.7024 C   0  0  0  0  0  0
   25.7230   54.1335   13.0000 Cl  0  0  0  0  0  0
   20.1231   48.7198   14.4975 C   0  0  0  0  0  0
   18.2030   47.8732   13.3191 C   0  0  0  0  0  0
   17.4861   47.8265   14.5109 C   0  0  0  0  0  0
   19.4138   48.6724   15.6939 C   0  0  0  0  0  0
   17.3169   48.1461   17.0051 C   0  0  0  0  0  0
   22.1880   48.8358   12.0229 H   0  0  0  0  0  0
   19.6597   48.2288   11.2304 H   0  0  0  0  0  0
   23.5410   50.5633   10.5734 H   0  0  0  0  0  0
   21.2331   52.4818   13.6722 H   0  0  0  0  0  0
   25.4316   52.0405   11.0736 H   0  0  0  0  0  0
   23.1441   53.9368   14.1778 H   0  0  0  0  0  0
   21.1433   49.0735   14.5090 H   0  0  0  0  0  0
   17.7250   47.5643   12.4019 H   0  0  0  0  0  0
   16.4662   47.4752   14.5053 H   0  0  0  0  0  0
   19.9002   48.9925   16.5998 H   0  0  0  0  0  0
   16.4406   47.5023   16.9152 H   0  0  0  0  0  0
   17.9283   47.7076   17.7939 H   0  0  0  0  0  0
   16.9965   49.1407   17.3245 H   0  0  0  0  0  0
  1  2  1  0  0  0
  1  3  1  0  0  0
  1  5  2  0  0  0
  2  4  1  0  0  0
  2 19  1  0  0  0
  3  6  1  0  0  0
  3  7  2  0  0  0
  4  8  1  0  0  0
  4 20  1  0  0  0
  6 10  2  0  0  0
  6 21  1  0  0  0
  7 11  1  0  0  0
  7 22  1  0  0  0
  8 14  1  0  0  0
  8 15  2  0  0  0
  9 11  2  0  0  0
  9 13  1  0  0  0
  9 10  1  0  0  0
 10 23  1  0  0  0
 11 24  1  0  0  0
 12 16  2  0  0  0
 12 18  1  0  0  0
 12 17  1  0  0  0
 14 17  2  0  0  0
 14 25  1  0  0  0
 15 16  1  0  0  0
 15 26  1  0  0  0
 16 27  1  0  0  0
 17 28  1  0  0  0
 18 29  1  0  0  0
 18 30  1  0  0  0
 18 31  1  0  0  0
M  END
> <s_m_entry_id>
5327

> <s_m_entry_name>
dock_pv.318

> <s_m_Source_Path>
/home/csk/Desktop/cluster/DUD-E-result/pgh1

> <s_m_Source_File>
dock_pv.maegz

> <i_m_Source_File_Index>
318

> <chembl_id>
CHEMBL154373

> <chembl_pref_name>
None

> <i_lp_mmshare_version>
53161

> <r_lp_tautomer_probability>
1

> <s_lp_Force_Field>
OPLS_2005

> <r_lp_Energy>
16.646067

> <b_lp_Chiralities_Consistent>
1

> <s_lp_Variant>
CHEMBL221_lig79-1

> <s_i_glide_gridfile>
glide-grid_2oyu

> <i_i_glide_lignum>
96

> <i_i_glide_rotatable_bonds>
4

> <r_i_docking_score>
-8.10708402308806

> <r_i_glide_ligand_efficiency>
-0.450393556838226

> <r_i_glide_ligand_efficiency_sa>
-1.18036503695368

> <r_i_glide_ligand_efficiency_ln>
-2.08388414465362

> <r_i_glide_gscore>
-8.10708402308806

> <r_i_glide_lipo>
-3.97947925704321

> <r_i_glide_hbond>
0

> <r_i_glide_metal>
0

> <r_i_glide_rewards>
-2.87402530855546

> <r_i_glide_evdw>
-37.0944442749023

> <r_i_glide_ecoul>
-1.2025979757309

> <r_i_glide_erotb>
0.781532452615359

> <r_i_glide_esite>
0

> <r_i_glide_emodel>
-53.4776137518971

> <r_i_glide_energy>
-38.2970422506332

> <r_i_glide_einternal>
5.34256362915039

> <i_i_glide_confnum>
1

> <i_i_glide_posenum>
198

> <r_i_glide_eff_state_penalty>
0

> <s_user_duplicate_titles>
CHEMBL221_lig79

> <i_f3d_flags>
0

> <s_m_subgroup_title>
dock_pv

> <s_m_subgroupid>
dock_pv

> <b_m_subgroup_collapsed>
1

$$$$
CHEMBL221_lig129
                    3D
 Schrodinger Suite 2021-1.
 37 39  0  0  1  0            999 V2000
   20.5571   49.5814   12.7094 N   0  0  0  0  0  0
   19.8187   48.8859   11.7618 C   0  0  0  0  0  0
   20.0306   49.0426    5.7510 S   0  0  0  0  0  0
   19.0626   48.2206   13.7634 N   0  0  0  0  0  0
   20.0461   49.0730   13.8963 C   0  0  0  0  0  0
   18.9230   48.1032   12.4737 C   0  0  0  0  0  0
   21.6158   50.5189   12.5089 C   0  0  0  0  0  0
   19.9888   48.9862    7.5198 C   0  0  0  0  0  0
   19.9246   48.9602   10.2905 C   0  0  0  0  0  0
   20.5230   47.8047    5.1766 O   0  0  0  0  0  0
   20.7113   50.2730    5.3744 O   0  0  0  0  0  0
   20.6022   49.4730   15.1619 C   0  0  0  0  0  0
   19.7231   47.7950    8.1795 C   0  0  0  0  0  0
   20.1230   50.1732    8.2420 C   0  0  0  0  0  0
   19.7230   47.7848    9.5648 C   0  0  0  0  0  0
   20.1230   50.1654    9.6287 C   0  0  0  0  0  0
   21.6797   51.7153   13.2399 C   0  0  0  0  0  0
   22.6308   50.2205   11.5989 C   0  0  0  0  0  0
   20.1171   49.0730   16.2000 O   0  0  0  0  0  0
   18.2152   49.0424    5.3929 C   0  0  0  0  0  0
   23.8036   52.2268   12.2342 C   0  0  0  0  0  0
   23.7239   51.0730   11.4585 C   0  0  0  0  0  0
   22.7784   52.5592   13.1121 C   0  0  0  0  0  0
   24.8907   53.0246   12.1512 F   0  0  0  0  0  0
   18.1596   47.4698   12.0500 H   0  0  0  0  0  0
   21.4742   50.1227   15.1538 H   0  0  0  0  0  0
   19.5675   46.8857    7.6284 H   0  0  0  0  0  0
   20.2318   51.1145    7.7213 H   0  0  0  0  0  0
   19.5704   46.8530   10.0800 H   0  0  0  0  0  0
   20.2284   51.0909   10.1742 H   0  0  0  0  0  0
   20.9030   51.9913   13.9362 H   0  0  0  0  0  0
   22.5706   49.3148   11.0153 H   0  0  0  0  0  0
   18.0818   49.0730    4.3171 H   0  0  0  0  0  0
   17.7382   49.8730    5.8851 H   0  0  0  0  0  0
   17.7940   48.1165    5.7682 H   0  0  0  0  0  0
   24.5229   50.8301   10.7723 H   0  0  0  0  0  0
   22.8471   53.4613   13.7035 H   0  0  0  0  0  0
  1  2  1  0  0  0
  1  5  1  0  0  0
  1  7  1  0  0  0
  2  6  2  0  0  0
  2  9  1  0  0  0
  3  8  1  0  0  0
  3 10  2  0  0  0
  3 11  2  0  0  0
  3 20  1  0  0  0
  4  5  2  0  0  0
  4  6  1  0  0  0
  5 12  1  0  0  0
  6 25  1  0  0  0
  7 17  2  0  0  0
  7 18  1  0  0  0
  8 14  1  0  0  0
  8 13  2  0  0  0
  9 15  2  0  0  0
  9 16  1  0  0  0
 12 19  2  0  0  0
 12 26  1  0  0  0
 13 15  1  0  0  0
 13 27  1  0  0  0
 14 16  2  0  0  0
 14 28  1  0  0  0
 15 29  1  0  0  0
 16 30  1  0  0  0
 17 23  1  0  0  0
 17 31  1  0  0  0
 18 22  2  0  0  0
 18 32  1  0  0  0
 20 33  1  0  0  0
 20 34  1  0  0  0
 20 35  1  0  0  0
 21 22  1  0  0  0
 21 24  1  0  0  0
 21 23  2  0  0  0
 22 36  1  0  0  0
 23 37  1  0  0  0
M  END
> <s_m_entry_id>
5328

> <s_m_entry_name>
dock_pv.319

> <s_m_Source_Path>
/home/csk/Desktop/cluster/DUD-E-result/pgh1

> <s_m_Source_File>
dock_pv.maegz

> <i_m_Source_File_Index>
319

> <chembl_id>
CHEMBL118936

> <chembl_pref_name>
None

> <i_lp_mmshare_version>
53161

> <r_lp_tautomer_probability>
1

> <s_lp_Force_Field>
OPLS_2005

> <r_lp_Energy>
16.198862

> <b_lp_Chiralities_Consistent>
1

> <s_lp_Variant>
CHEMBL221_lig129-1

> <s_i_glide_gridfile>
glide-grid_2oyu

> <i_i_glide_lignum>
151

> <i_i_glide_rotatable_bonds>
4

> <r_i_docking_score>
-8.10592243167749

> <r_i_glide_ligand_efficiency>
-0.337746767986562

> <r_i_glide_ligand_efficiency_sa>
-0.974230260970618

> <r_i_glide_ligand_efficiency_ln>
-1.9401191944438

> <r_i_glide_gscore>
-8.10592243167749

> <r_i_glide_lipo>
-3.81866123428369

> <r_i_glide_hbond>
0

> <r_i_glide_metal>
0

> <r_i_glide_rewards>
-3.3426660416024

> <r_i_glide_evdw>
-14.1099300384521

> <r_i_glide_ecoul>
-3.61248016357422

> <r_i_glide_erotb>
0.32021812404593

> <r_i_glide_esite>
-0.0174447533785828

> <r_i_glide_emodel>
-16.291024055332

> <r_i_glide_energy>
-17.7224102020264

> <r_i_glide_einternal>
3.30763649940491

> <i_i_glide_confnum>
5

> <i_i_glide_posenum>
329

> <r_i_glide_eff_state_penalty>
0

> <s_user_duplicate_titles>
CHEMBL221_lig129

> <i_f3d_flags>
0

> <s_m_subgroup_title>
dock_pv

> <s_m_subgroupid>
dock_pv

> <b_m_subgroup_collapsed>
1

$$$$
CHEMBL221_lig342
                    3D
 Schrodinger Suite 2021-1.
 33 35  0  0  1  0            999 V2000
   20.9236   49.9673   13.3562 C   0  0  0  0  0  0
   20.0809   49.2586   12.5925 C   0  0  0  0  0  0
   19.0997   48.6306   13.2811 O   0  0  0  0  0  0
   19.5250   48.5826   14.6662 N   0  0  2  0  0  0
   20.5387   49.6314   14.7638 C   0  0  0  0  0  0
   19.9564   49.1856   11.1226 C   0  0  0  0  0  0
   22.0936   50.7802   12.9646 C   0  0  0  0  0  0
   19.7198   47.9564   10.4990 C   0  0  0  0  0  0
   20.1220   50.3260   10.3340 C   0  0  0  0  0  0
   20.0708   48.9633    8.3428 C   0  0  0  0  0  0
   19.7645   47.8444    9.1103 C   0  0  0  0  0  0
   20.1232   50.2163    8.9486 C   0  0  0  0  0  0
   20.1234   48.8583    6.9963 F   0  0  0  0  0  0
   20.0957   47.2474   14.8093 C   0  0  0  0  0  0
   22.8847   50.4336   11.8636 C   0  0  0  0  0  0
   22.3752   51.9572   13.6652 C   0  0  0  0  0  0
   23.4203   52.7834   13.2610 C   0  0  0  0  0  0
   23.9249   51.2608   11.4527 C   0  0  0  0  0  0
   24.1880   52.4330   12.1543 C   0  0  0  0  0  0
   20.1304   50.5039   15.2663 H   0  0  0  0  0  0
   21.3844   49.3117   15.3699 H   0  0  0  0  0  0
   19.5531   47.0722   11.0981 H   0  0  0  0  0  0
   20.2548   51.2966   10.7905 H   0  0  0  0  0  0
   19.6217   46.8875    8.6324 H   0  0  0  0  0  0
   20.2373   51.0908    8.3289 H   0  0  0  0  0  0
   20.5210   47.1198   15.8019 H   0  0  0  0  0  0
   19.3221   46.4899   14.6776 H   0  0  0  0  0  0
   20.8862   47.0730   14.0775 H   0  0  0  0  0  0
   22.6872   49.5245   11.3164 H   0  0  0  0  0  0
   21.7727   52.2501   14.5128 H   0  0  0  0  0  0
   23.6292   53.6968   13.7991 H   0  0  0  0  0  0
   24.5219   50.9946   10.5934 H   0  0  0  0  0  0
   24.9980   53.0730   11.8382 H   0  0  0  0  0  0
  1  2  2  0  0  0
  1  5  1  0  0  0
  1  7  1  0  0  0
  2  3  1  0  0  0
  2  6  1  0  0  0
  3  4  1  0  0  0
  4  5  1  0  0  0
  4 14  1  0  0  0
  5 20  1  0  0  0
  5 21  1  0  0  0
  6  8  2  0  0  0
  6  9  1  0  0  0
  7 15  1  0  0  0
  7 16  2  0  0  0
  8 11  1  0  0  0
  8 22  1  0  0  0
  9 12  2  0  0  0
  9 23  1  0  0  0
 10 12  1  0  0  0
 10 13  1  0  0  0
 10 11  2  0  0  0
 11 24  1  0  0  0
 12 25  1  0  0  0
 14 26  1  0  0  0
 14 27  1  0  0  0
 14 28  1  0  0  0
 15 18  2  0  0  0
 15 29  1  0  0  0
 16 17  1  0  0  0
 16 30  1  0  0  0
 17 19  2  0  0  0
 17 31  1  0  0  0
 18 19  1  0  0  0
 18 32  1  0  0  0
 19 33  1  0  0  0
M  END
> <s_m_entry_id>
5329

> <s_m_entry_name>
dock_pv.320

> <s_m_Source_Path>
/home/csk/Desktop/cluster/DUD-E-result/pgh1

> <s_m_Source_File>
dock_pv.maegz

> <i_m_Source_File_Index>
320

> <chembl_id>
CHEMBL319590

> <chembl_pref_name>
None

> <i_lp_mmshare_version>
53161

> <r_lp_tautomer_probability>
1

> <s_lp_Force_Field>
OPLS_2005

> <r_lp_Energy>
30.295431

> <b_lp_Chiralities_Consistent>
1

> <s_lp_Variant>
CHEMBL221_lig342-1

> <s_i_glide_gridfile>
glide-grid_2oyu

> <i_i_glide_lignum>
408

> <i_i_glide_rotatable_bonds>
2

> <r_i_docking_score>
-8.10051327255303

> <r_i_glide_ligand_efficiency>
-0.426342803818581

> <r_i_glide_ligand_efficiency_sa>
-1.13765383951365

> <r_i_glide_ligand_efficiency_ln>
-2.05365409766457

> <r_i_glide_gscore>
-8.10051327255303

> <r_i_glide_lipo>
-4.24204420683973

> <r_i_glide_hbond>
0

> <r_i_glide_metal>
0

> <r_i_glide_rewards>
-3.00907507470122

> <r_i_glide_evdw>
-27.0570335388184

> <r_i_glide_ecoul>
-0.245229750871658

> <r_i_glide_erotb>
0.540242148559579

> <r_i_glide_esite>
0

> <r_i_glide_emodel>
-37.6037448977979

> <r_i_glide_energy>
-27.30226328969

> <r_i_glide_einternal>
2.97600293159485

> <i_i_glide_confnum>
16

> <i_i_glide_posenum>
192

> <r_i_glide_eff_state_penalty>
0

> <s_user_duplicate_titles>
CHEMBL221_lig342

> <i_f3d_flags>
0

> <s_m_subgroup_title>
dock_pv

> <s_m_subgroupid>
dock_pv

> <b_m_subgroup_collapsed>
1

$$$$
CHEMBL221_lig146
                    3D
 Schrodinger Suite 2021-1.
 45 48  0  0  1  0            999 V2000
   20.4609   49.1390   10.5525 N   0  0  0  0  0  0
   19.6661   48.5444   11.4137 N   0  0  0  0  0  0
   21.0617   49.9259   12.5276 C   0  0  0  0  0  0
   21.4409   49.8732   11.2007 C   0  0  0  0  0  0
   19.9969   49.0106   12.5757 C   0  0  0  0  0  0
   20.1354   48.9503    9.1962 C   0  0  0  0  0  0
   19.2124   48.5683   13.7208 C   0  0  0  0  0  0
   20.1230   50.0429    8.3360 C   0  0  0  0  0  0
   19.6862   47.7052    8.7383 C   0  0  0  0  0  0
   17.8731   48.1891   13.5849 C   0  0  0  0  0  0
   19.8385   48.5422   14.9533 C   0  0  0  0  0  0
   21.6624   50.7929   13.6303 C   0  0  0  0  0  0
   22.6218   50.5206   10.5534 C   0  0  0  0  0  0
   17.7361   47.9948   15.9585 C   0  0  0  0  0  0
   19.0791   48.2726   16.0588 C   0  0  0  0  0  0
   17.1436   47.8732   14.7153 C   0  0  0  0  0  0
   19.2128   47.5830    7.4404 C   0  0  0  0  0  0
   19.7764   49.8730    6.9999 C   0  0  0  0  0  0
   19.3040   48.6526    6.5552 C   0  0  0  0  0  0
   16.8318   47.8730   17.4000 Cl  0  0  0  0  0  0
   18.8372   48.5192    5.1254 C   0  0  0  0  0  0
   22.3809   52.0836   13.1923 C   0  0  0  0  0  0
   23.8404   50.7464   11.4698 C   0  0  0  0  0  0
   23.7285   51.9148   12.4682 C   0  0  0  0  0  0
   20.4091   51.0263    8.6812 H   0  0  0  0  0  0
   19.6217   46.8585    9.4052 H   0  0  0  0  0  0
   17.3884   48.1613   12.6197 H   0  0  0  0  0  0
   20.8869   48.7610   15.0759 H   0  0  0  0  0  0
   22.3652   50.2084   14.2000 H   0  0  0  0  0  0
   20.8785   51.0875   14.3279 H   0  0  0  0  0  0
   22.2855   51.4730   10.2000 H   0  0  0  0  0  0
   22.9230   49.9070    9.7141 H   0  0  0  0  0  0
   19.5470   48.2802   17.0000 H   0  0  0  0  0  0
   16.1230   47.5896   14.6223 H   0  0  0  0  0  0
   18.7260   46.6730    7.1433 H   0  0  0  0  0  0
   19.8098   50.7123    6.3271 H   0  0  0  0  0  0
   18.8143   49.4729    4.6030 H   0  0  0  0  0  0
   19.5345   47.8730    4.6000 H   0  0  0  0  0  0
   17.8317   48.0983    5.0802 H   0  0  0  0  0  0
   22.5506   52.7048   14.0737 H   0  0  0  0  0  0
   21.7229   52.6730   12.5657 H   0  0  0  0  0  0
   24.7074   50.9497   10.8432 H   0  0  0  0  0  0
   24.0718   49.8249   12.0058 H   0  0  0  0  0  0
   23.9467   52.8465   11.9433 H   0  0  0  0  0  0
   24.5229   51.8221   13.2088 H   0  0  0  0  0  0
  1  2  1  0  0  0
  1  4  1  0  0  0
  1  6  1  0  0  0
  2  5  2  0  0  0
  3  4  2  0  0  0
  3 12  1  0  0  0
  3  5  1  0  0  0
  4 13  1  0  0  0
  5  7  1  0  0  0
  6  8  2  0  0  0
  6  9  1  0  0  0
  7 10  1  0  0  0
  7 11  2  0  0  0
  8 18  1  0  0  0
  8 25  1  0  0  0
  9 17  2  0  0  0
  9 26  1  0  0  0
 10 16  2  0  0  0
 10 27  1  0  0  0
 11 15  1  0  0  0
 11 28  1  0  0  0
 12 22  1  0  0  0
 12 29  1  0  0  0
 12 30  1  0  0  0
 13 23  1  0  0  0
 13 31  1  0  0  0
 13 32  1  0  0  0
 14 15  2  0  0  0
 14 20  1  0  0  0
 14 16  1  0  0  0
 15 33  1  0  0  0
 16 34  1  0  0  0
 17 19  1  0  0  0
 17 35  1  0  0  0
 18 19  2  0  0  0
 18 36  1  0  0  0
 19 21  1  0  0  0
 21 37  1  0  0  0
 21 38  1  0  0  0
 21 39  1  0  0  0
 22 24  1  0  0  0
 22 40  1  0  0  0
 22 41  1  0  0  0
 23 24  1  0  0  0
 23 42  1  0  0  0
 23 43  1  0  0  0
 24 44  1  0  0  0
 24 45  1  0  0  0
M  END
> <s_m_entry_id>
5330

> <s_m_entry_name>
dock_pv.321

> <s_m_Source_Path>
/home/csk/Desktop/cluster/DUD-E-result/pgh1

> <s_m_Source_File>
dock_pv.maegz

> <i_m_Source_File_Index>
321

> <chembl_id>
CHEMBL157886

> <chembl_pref_name>
None

> <i_lp_mmshare_version>
53161

> <r_lp_tautomer_probability>
1

> <s_lp_Force_Field>
OPLS_2005

> <r_lp_Energy>
23.29805

> <b_lp_Chiralities_Consistent>
1

> <s_lp_Variant>
CHEMBL221_lig146-1

> <s_i_glide_gridfile>
glide-grid_2oyu

> <i_i_glide_lignum>
168

> <i_i_glide_rotatable_bonds>
2

> <r_i_docking_score>
-8.08679565780988

> <r_i_glide_ligand_efficiency>
-0.336949819075412

> <r_i_glide_ligand_efficiency_sa>
-0.971931462523726

> <r_i_glide_ligand_efficiency_ln>
-1.93554127978682

> <r_i_glide_gscore>
-8.08679565780988

> <r_i_glide_lipo>
-5.11401023711245

> <r_i_glide_hbond>
0

> <r_i_glide_metal>
0

> <r_i_glide_rewards>
-2.41646533755248

> <r_i_glide_evdw>
-17.6590423583984

> <r_i_glide_ecoul>
-0.0422779694199562

> <r_i_glide_erotb>
0.332973730187968

> <r_i_glide_esite>
0

> <r_i_glide_emodel>
-38.6907262870733

> <r_i_glide_energy>
-17.7013203278184

> <r_i_glide_einternal>
1.38831043243408

> <i_i_glide_confnum>
15

> <i_i_glide_posenum>
292

> <r_i_glide_eff_state_penalty>
0

> <s_user_duplicate_titles>
CHEMBL221_lig146

> <i_f3d_flags>
0

> <s_m_subgroup_title>
dock_pv

> <s_m_subgroupid>
dock_pv

> <b_m_subgroup_collapsed>
1

$$$$
CHEMBL221_lig825
                    3D
 Schrodinger Suite 2021-1.
 26 27  0  0  1  0            999 V2000
   21.9540   53.4325   14.3612 C   0  0  0  0  0  0
   22.8459   53.3928   13.2860 C   0  0  0  0  0  0
   23.0226   52.2137   12.5595 C   0  0  0  0  0  0
   21.3230   52.2597   14.7795 C   0  0  0  0  0  0
   21.5018   51.0740   14.0738 C   0  0  0  0  0  0
   22.3142   51.0697   12.9366 C   0  0  0  0  0  0
   22.4133   49.9311   12.1614 O   0  0  0  0  0  0
   21.2176   49.1189   12.0705 C   0  0  1  0  0  0
   20.5230   48.9373   13.4405 C   0  0  0  0  0  0
   20.7240   49.8749   14.3819 C   0  0  0  0  0  0
   20.2606   49.6030   10.9480 C   0  0  0  0  0  0
   19.3616   48.6730   10.6298 F   0  0  0  0  0  0
   19.6017   50.7094   11.2932 F   0  0  0  0  0  0
   20.9231   49.8730    9.8265 F   0  0  0  0  0  0
   19.6856   47.7778   13.6972 C   0  0  0  0  0  0
   18.9992   47.6197   14.7040 O   0  0  0  0  0  0
   19.7230   46.8587   12.6937 O   0  0  0  0  0  0
   21.7230   54.6658   15.1058 C   0  0  0  0  0  0
   24.0888   52.1980   11.1982 Cl  0  0  0  0  0  0
   21.5192   55.6510   15.8000 C   0  0  0  0  0  0
   23.4009   54.2730   13.0067 H   0  0  0  0  0  0
   20.6680   52.2730   15.6382 H   0  0  0  0  0  0
   21.6238   48.1557   11.8000 H   0  0  0  0  0  0
   20.2786   49.7740   15.3633 H   0  0  0  0  0  0
   19.0348   46.1956   12.7936 H   0  0  0  0  0  0
   21.3555   56.5201   16.3965 H   0  0  0  0  0  0
  1  2  2  0  0  0
  1  4  1  0  0  0
  1 18  1  0  0  0
  2  3  1  0  0  0
  2 21  1  0  0  0
  3  6  2  0  0  0
  3 19  1  0  0  0
  4  5  2  0  0  0
  4 22  1  0  0  0
  5  6  1  0  0  0
  5 10  1  0  0  0
  6  7  1  0  0  0
  7  8  1  0  0  0
  8  9  1  0  0  0
  8 11  1  0  0  0
  8 23  1  0  0  0
  9 10  2  0  0  0
  9 15  1  0  0  0
 10 24  1  0  0  0
 11 12  1  0  0  0
 11 13  1  0  0  0
 11 14  1  0  0  0
 15 16  2  0  0  0
 15 17  1  0  0  0
 17 25  1  0  0  0
 18 20  3  0  0  0
 20 26  1  0  0  0
M  END
> <s_m_entry_id>
5331

> <s_m_entry_name>
dock_pv.322

> <s_m_Source_Path>
/home/csk/Desktop/cluster/DUD-E-result/pgh1

> <s_m_Source_File>
dock_pv.maegz

> <i_m_Source_File_Index>
322

> <chembl_id>
CHEMBL1288640

> <chembl_pref_name>
None

> <i_lp_mmshare_version>
53161

> <r_lp_tautomer_probability>
1

> <s_lp_Force_Field>
OPLS_2005

> <r_lp_Energy>
12.047137

> <b_lp_Chiralities_Consistent>
1

> <s_lp_Variant>
CHEMBL221_lig825-2

> <s_i_glide_gridfile>
glide-grid_2oyu

> <i_i_glide_lignum>
1005

> <i_i_glide_rotatable_bonds>
4

> <r_i_docking_score>
-8.08658484589391

> <r_i_glide_ligand_efficiency>
-0.404329242294695

> <r_i_glide_ligand_efficiency_sa>
-1.09751841709323

> <r_i_glide_ligand_efficiency_ln>
-2.02380547350869

> <r_i_glide_gscore>
-8.08658484589391

> <r_i_glide_lipo>
-3.15117257784522

> <r_i_glide_hbond>
0

> <r_i_glide_metal>
0

> <r_i_glide_rewards>
-3.75550162161141

> <r_i_glide_evdw>
-29.9731578826904

> <r_i_glide_ecoul>
-0.555911779403687

> <r_i_glide_erotb>
0.402134014607802

> <r_i_glide_esite>
0

> <r_i_glide_emodel>
-42.4539726723056

> <r_i_glide_energy>
-30.5290696620941

> <r_i_glide_einternal>
0.637585461139679

> <i_i_glide_confnum>
1

> <i_i_glide_posenum>
216

> <r_i_glide_eff_state_penalty>
0

> <s_user_duplicate_titles>
CHEMBL221_lig825

> <i_f3d_flags>
0

> <s_m_subgroup_title>
dock_pv

> <s_m_subgroupid>
dock_pv

> <b_m_subgroup_collapsed>
1

$$$$
CHEMBL221_lig113
                    3D
 Schrodinger Suite 2021-1.
 35 37  0  0  1  0            999 V2000
   20.5977   49.5108   12.9246 N   0  0  0  0  0  0
   19.9612   49.0265    5.8996 S   0  0  0  0  0  0
   19.8560   48.7976   11.9915 C   0  0  0  0  0  0
   19.1876   48.1658   14.0644 N   0  0  0  0  0  0
   20.1230   49.0730   14.1423 C   0  0  0  0  0  0
   19.0250   47.9938   12.7702 C   0  0  0  0  0  0
   19.9486   48.9365    7.6899 C   0  0  0  0  0  0
   21.6459   50.4431   12.7442 C   0  0  0  0  0  0
   19.9236   48.8819   10.4961 C   0  0  0  0  0  0
   20.5044   47.8252    5.3047 O   0  0  0  0  0  0
   20.6163   50.2730    5.5626 O   0  0  0  0  0  0
   20.1230   50.1101    8.4342 C   0  0  0  0  0  0
   19.7230   47.7363    8.3537 C   0  0  0  0  0  0
   20.1230   50.0876    9.8260 C   0  0  0  0  0  0
   19.7230   47.7188    9.7464 C   0  0  0  0  0  0
   22.6357   50.1990   11.7892 C   0  0  0  0  0  0
   21.7230   51.5835   13.5539 C   0  0  0  0  0  0
   18.1785   49.0250    5.4000 C   0  0  0  0  0  0
   23.7665   52.2199   12.4456 C   0  0  0  0  0  0
   23.6958   51.0886   11.6371 C   0  0  0  0  0  0
   22.7844   52.4722   13.4000 C   0  0  0  0  0  0
   24.8058   53.0730   12.3124 F   0  0  0  0  0  0
   20.5446   49.4646   15.0558 H   0  0  0  0  0  0
   18.2915   47.2992   12.3903 H   0  0  0  0  0  0
   20.2326   51.0600    7.9287 H   0  0  0  0  0  0
   19.5764   46.8241    7.8000 H   0  0  0  0  0  0
   20.2423   51.0112   10.3734 H   0  0  0  0  0  0
   19.6105   46.7782   10.2539 H   0  0  0  0  0  0
   22.5810   49.3170   11.1696 H   0  0  0  0  0  0
   20.9687   51.7880   14.3006 H   0  0  0  0  0  0
   18.1230   49.0730    4.3178 H   0  0  0  0  0  0
   17.6918   49.8730    5.8512 H   0  0  0  0  0  0
   17.7230   48.1015    5.7395 H   0  0  0  0  0  0
   24.4670   50.9006   10.9034 H   0  0  0  0  0  0
   22.8560   53.3507   14.0256 H   0  0  0  0  0  0
  1  3  1  0  0  0
  1  5  1  0  0  0
  1  8  1  0  0  0
  2  7  1  0  0  0
  2 10  2  0  0  0
  2 11  2  0  0  0
  2 18  1  0  0  0
  3  6  2  0  0  0
  3  9  1  0  0  0
  4  5  2  0  0  0
  4  6  1  0  0  0
  5 23  1  0  0  0
  6 24  1  0  0  0
  7 13  2  0  0  0
  7 12  1  0  0  0
  8 16  1  0  0  0
  8 17  2  0  0  0
  9 14  1  0  0  0
  9 15  2  0  0  0
 12 14  2  0  0  0
 12 25  1  0  0  0
 13 15  1  0  0  0
 13 26  1  0  0  0
 14 27  1  0  0  0
 15 28  1  0  0  0
 16 20  2  0  0  0
 16 29  1  0  0  0
 17 21  1  0  0  0
 17 30  1  0  0  0
 18 31  1  0  0  0
 18 32  1  0  0  0
 18 33  1  0  0  0
 19 21  2  0  0  0
 19 22  1  0  0  0
 19 20  1  0  0  0
 20 34  1  0  0  0
 21 35  1  0  0  0
M  END
> <s_m_entry_id>
5332

> <s_m_entry_name>
dock_pv.323

> <s_m_Source_Path>
/home/csk/Desktop/cluster/DUD-E-result/pgh1

> <s_m_Source_File>
dock_pv.maegz

> <i_m_Source_File_Index>
323

> <chembl_id>
CHEMBL114162

> <chembl_pref_name>
None

> <i_lp_mmshare_version>
53161

> <r_lp_tautomer_probability>
1

> <s_lp_Force_Field>
OPLS_2005

> <r_lp_Energy>
11.482775

> <b_lp_Chiralities_Consistent>
1

> <s_lp_Variant>
CHEMBL221_lig113-1

> <s_i_glide_gridfile>
glide-grid_2oyu

> <i_i_glide_lignum>
135

> <i_i_glide_rotatable_bonds>
3

> <r_i_docking_score>
-8.08024513393778

> <r_i_glide_ligand_efficiency>
-0.367283869724445

> <r_i_glide_ligand_efficiency_sa>
-1.02914384742283

> <r_i_glide_ligand_efficiency_ln>
-1.97510664483688

> <r_i_glide_gscore>
-8.08024513393778

> <r_i_glide_lipo>
-3.8623354065067

> <r_i_glide_hbond>
0

> <r_i_glide_metal>
0

> <r_i_glide_rewards>
-3.36966527224584

> <r_i_glide_evdw>
-13.7977495193481

> <r_i_glide_ecoul>
-3.41889834403992

> <r_i_glide_erotb>
0.372020781507764

> <r_i_glide_esite>
-0.0175430091196068

> <r_i_glide_emodel>
-20.3389171487764

> <r_i_glide_energy>
-17.2166478633881

> <r_i_glide_einternal>
0.403467208147049

> <i_i_glide_confnum>
2

> <i_i_glide_posenum>
145

> <r_i_glide_eff_state_penalty>
0

> <s_user_duplicate_titles>
CHEMBL221_lig113

> <i_f3d_flags>
0

> <s_m_subgroup_title>
dock_pv

> <s_m_subgroupid>
dock_pv

> <b_m_subgroup_collapsed>
1

$$$$
CHEMBL221_lig83
                    3D
 Schrodinger Suite 2021-1.
 28 29  0  0  1  0            999 V2000
   20.9875   50.5346   11.7286 C   0  0  0  0  0  0
   21.1920   49.2048   11.8000 N   0  0  0  0  0  0
   22.1922   51.3710   12.0466 C   0  0  0  0  0  0
   20.1226   48.3197   12.0717 N   0  0  0  0  0  0
   19.8999   51.0647   11.4862 O   0  0  0  0  0  0
   23.3713   51.2500   11.3022 C   0  0  0  0  0  0
   22.1231   52.2921   13.0974 C   0  0  0  0  0  0
   24.3788   52.9888   12.6330 C   0  0  0  0  0  0
   19.4790   48.3115   13.3215 C   0  0  0  0  0  0
   24.4598   52.0702   11.5874 C   0  0  0  0  0  0
   23.2158   53.0996   13.3912 C   0  0  0  0  0  0
   25.7226   54.0049   13.0002 Cl  0  0  0  0  0  0
   18.1586   47.8729   13.3992 C   0  0  0  0  0  0
   20.1276   48.7188   14.4923 C   0  0  0  0  0  0
   19.4732   48.6727   15.7160 C   0  0  0  0  0  0
   17.4934   47.8304   14.6222 C   0  0  0  0  0  0
   18.1559   48.2280   15.7800 C   0  0  0  0  0  0
   22.1022   48.8067   11.9799 H   0  0  0  0  0  0
   19.5527   48.2052   11.2443 H   0  0  0  0  0  0
   23.4441   50.5570   10.4763 H   0  0  0  0  0  0
   21.2185   52.3967   13.6804 H   0  0  0  0  0  0
   25.3612   51.9885   10.9944 H   0  0  0  0  0  0
   23.1589   53.8160   14.1984 H   0  0  0  0  0  0
   17.6425   47.5659   12.5041 H   0  0  0  0  0  0
   21.1464   49.0744   14.4637 H   0  0  0  0  0  0
   19.9957   48.9965   16.6000 H   0  0  0  0  0  0
   16.4698   47.4908   14.6704 H   0  0  0  0  0  0
   17.6402   48.1959   16.7288 H   0  0  0  0  0  0
  1  2  1  0  0  0
  1  3  1  0  0  0
  1  5  2  0  0  0
  2  4  1  0  0  0
  2 18  1  0  0  0
  3  6  1  0  0  0
  3  7  2  0  0  0
  4  9  1  0  0  0
  4 19  1  0  0  0
  6 10  2  0  0  0
  6 20  1  0  0  0
  7 11  1  0  0  0
  7 21  1  0  0  0
  8 11  2  0  0  0
  8 12  1  0  0  0
  8 10  1  0  0  0
  9 13  1  0  0  0
  9 14  2  0  0  0
 10 22  1  0  0  0
 11 23  1  0  0  0
 13 16  2  0  0  0
 13 24  1  0  0  0
 14 15  1  0  0  0
 14 25  1  0  0  0
 15 17  2  0  0  0
 15 26  1  0  0  0
 16 17  1  0  0  0
 16 27  1  0  0  0
 17 28  1  0  0  0
M  END
> <s_m_entry_id>
5333

> <s_m_entry_name>
dock_pv.324

> <s_m_Source_Path>
/home/csk/Desktop/cluster/DUD-E-result/pgh1

> <s_m_Source_File>
dock_pv.maegz

> <i_m_Source_File_Index>
324

> <chembl_id>
CHEMBL346470

> <chembl_pref_name>
None

> <i_lp_mmshare_version>
53161

> <r_lp_tautomer_probability>
1

> <s_lp_Force_Field>
OPLS_2005

> <r_lp_Energy>
16.648475

> <b_lp_Chiralities_Consistent>
1

> <s_lp_Variant>
CHEMBL221_lig83-1

> <s_i_glide_gridfile>
glide-grid_2oyu

> <i_i_glide_lignum>
100

> <i_i_glide_rotatable_bonds>
4

> <r_i_docking_score>
-8.07794276535611

> <r_i_glide_ligand_efficiency>
-0.475173103844477

> <r_i_glide_ligand_efficiency_sa>
-1.22180385313736

> <r_i_glide_ligand_efficiency_ln>
-2.1073553805404

> <r_i_glide_gscore>
-8.07794276535611

> <r_i_glide_lipo>
-3.75173752205467

> <r_i_glide_hbond>
0

> <r_i_glide_metal>
0

> <r_i_glide_rewards>
-2.91312846398918

> <r_i_glide_evdw>
-35.7946586608887

> <r_i_glide_ecoul>
-1.30845546722412

> <r_i_glide_erotb>
0.572924473815785

> <r_i_glide_esite>
0

> <r_i_glide_emodel>
-51.8616079904356

> <r_i_glide_energy>
-37.1031141281128

> <r_i_glide_einternal>
6.28091764450073

> <i_i_glide_confnum>
2

> <i_i_glide_posenum>
253

> <r_i_glide_eff_state_penalty>
0

> <s_user_duplicate_titles>
CHEMBL221_lig83

> <i_f3d_flags>
0

> <s_m_subgroup_title>
dock_pv

> <s_m_subgroupid>
dock_pv

> <b_m_subgroup_collapsed>
1

$$$$
CHEMBL221_lig684
                    3D
 Schrodinger Suite 2021-1.
 39 41  0  0  1  0            999 V2000
   21.8715   49.5733   10.9859 C   0  0  0  0  0  0
   20.4022   49.7482   10.5567 C   0  0  2  0  0  0
   19.5909   50.2356   11.7653 C   0  0  2  0  0  0
   20.1230   51.4730   12.2000 O   0  0  0  0  0  0
   21.4564   51.5871   12.4524 C   0  0  0  0  0  0
   21.8399   52.6862   13.2228 C   0  0  0  0  0  0
   23.1770   53.0488   13.2569 C   0  0  0  0  0  0
   24.1230   52.1976   12.7098 C   0  0  0  0  0  0
   23.6949   51.0262   12.0882 C   0  0  0  0  0  0
   22.3659   50.7515   11.8330 C   0  0  0  0  0  0
   24.5564   50.0475   11.8000 O   0  0  0  0  0  0
   23.5548   54.2411   13.8000 O   0  0  0  0  0  0
   19.4091   49.2294   12.9215 C   0  0  0  0  0  0
   20.3084   49.2425   13.9841 C   0  0  0  0  0  0
   19.9882   48.6662   15.1872 C   0  0  0  0  0  0
   18.7848   47.9941   15.3664 C   0  0  0  0  0  0
   18.2705   48.4205   13.0405 C   0  0  0  0  0  0
   18.4925   47.4730   16.6001 O   0  0  0  0  0  0
   20.8593   48.8725   16.2000 O   0  0  0  0  0  0
   19.8518   48.5832    9.9720 O   0  0  0  0  0  0
   17.3236   47.9787   17.2419 C   0  0  0  0  0  0
   17.9292   47.8611   14.2722 C   0  0  0  0  0  0
   16.7285   47.2318   14.4179 O   0  0  0  0  0  0
   21.9887   48.6730   11.5874 H   0  0  0  0  0  0
   22.4793   49.4729   10.0899 H   0  0  0  0  0  0
   20.3557   50.5215    9.7867 H   0  0  0  0  0  0
   18.6349   50.6729   11.4669 H   0  0  0  0  0  0
   21.0919   53.3372   13.6487 H   0  0  0  0  0  0
   25.1728   52.4249   12.8170 H   0  0  0  0  0  0
   25.3587   50.3208   11.3345 H   0  0  0  0  0  0
   23.7209   54.1687   14.7556 H   0  0  0  0  0  0
   21.2382   49.7776   13.9655 H   0  0  0  0  0  0
   17.5992   48.2729   12.2138 H   0  0  0  0  0  0
   20.5104   48.5353   17.0299 H   0  0  0  0  0  0
   20.2012   48.4870    9.0822 H   0  0  0  0  0  0
   17.4053   47.7931   18.3110 H   0  0  0  0  0  0
   16.4219   47.4731   16.9059 H   0  0  0  0  0  0
   17.1993   49.0541   17.0994 H   0  0  0  0  0  0
   16.1873   47.2874   13.6265 H   0  0  0  0  0  0
  1  2  1  0  0  0
  1 10  1  0  0  0
  1 24  1  0  0  0
  1 25  1  0  0  0
  2  3  1  0  0  0
  2 20  1  0  0  0
  2 26  1  0  0  0
  3  4  1  0  0  0
  3 13  1  0  0  0
  3 27  1  0  0  0
  4  5  1  0  0  0
  5  6  2  0  0  0
  5 10  1  0  0  0
  6  7  1  0  0  0
  6 28  1  0  0  0
  7  8  2  0  0  0
  7 12  1  0  0  0
  8  9  1  0  0  0
  8 29  1  0  0  0
  9 10  2  0  0  0
  9 11  1  0  0  0
 11 30  1  0  0  0
 12 31  1  0  0  0
 13 14  2  0  0  0
 13 17  1  0  0  0
 14 15  1  0  0  0
 14 32  1  0  0  0
 15 16  2  0  0  0
 15 19  1  0  0  0
 16 22  1  0  0  0
 16 18  1  0  0  0
 17 22  2  0  0  0
 17 33  1  0  0  0
 18 21  1  0  0  0
 19 34  1  0  0  0
 20 35  1  0  0  0
 21 36  1  0  0  0
 21 37  1  0  0  0
 21 38  1  0  0  0
 22 23  1  0  0  0
 23 39  1  0  0  0
M  END
> <s_m_entry_id>
5334

> <s_m_entry_name>
dock_pv.325

> <s_m_Source_Path>
/home/csk/Desktop/cluster/DUD-E-result/pgh1

> <s_m_Source_File>
dock_pv.maegz

> <i_m_Source_File_Index>
325

> <chembl_id>
CHEMBL485460

> <chembl_pref_name>
None

> <i_lp_mmshare_version>
53161

> <r_lp_tautomer_probability>
0.999999999963

> <s_lp_Force_Field>
OPLS_2005

> <r_lp_Energy>
23.688428

> <b_lp_Chiralities_Consistent>
1

> <s_lp_Variant>
CHEMBL221_lig684-1

> <s_i_glide_gridfile>
glide-grid_2oyu

> <i_i_glide_lignum>
844

> <i_i_glide_rotatable_bonds>
7

> <r_i_docking_score>
-8.07740303092939

> <r_i_glide_ligand_efficiency>
-0.351191436127365

> <r_i_glide_ligand_efficiency_sa>
-0.998741727765414

> <r_i_glide_ligand_efficiency_ln>
-1.95318929472002

> <r_i_glide_gscore>
-8.07740303092939

> <r_i_glide_lipo>
-4.38083074928161

> <r_i_glide_hbond>
-0.577948762806075

> <r_i_glide_metal>
0

> <r_i_glide_rewards>
-1.63269036619736

> <r_i_glide_evdw>
-2.55110025405884

> <r_i_glide_ecoul>
-10.2691669464111

> <r_i_glide_erotb>
0.181996902020261

> <r_i_glide_esite>
0

> <r_i_glide_emodel>
-40.0711226265737

> <r_i_glide_energy>
-12.82026720047

> <r_i_glide_einternal>
12.4906301498413

> <i_i_glide_confnum>
8

> <i_i_glide_posenum>
295

> <r_i_glide_eff_state_penalty>
0

> <s_user_duplicate_titles>
CHEMBL221_lig684

> <i_f3d_flags>
0

> <s_m_subgroup_title>
dock_pv

> <s_m_subgroupid>
dock_pv

> <b_m_subgroup_collapsed>
1

$$$$
CHEMBL221_lig45
                    3D
 Schrodinger Suite 2021-1.
 41 43  0  0  1  0            999 V2000
   20.1544   49.1201   11.9293 C   0  0  0  0  0  0
   20.8202   49.9097   12.8233 C   0  0  0  0  0  0
   19.5701   48.2177   13.0317 C   0  0  0  0  0  0
   20.2972   49.1520   14.0064 C   0  0  0  0  0  0
   19.9623   49.0705    5.8690 S   0  0  0  0  0  0
   19.9942   49.0880   10.4616 C   0  0  0  0  0  0
   19.9519   49.0461    7.6581 C   0  0  0  0  0  0
   21.7959   51.0075   12.7453 C   0  0  0  0  0  0
   20.4177   49.2090   15.2293 O   0  0  0  0  0  0
   20.4494   47.8165    5.3459 O   0  0  0  0  0  0
   20.6673   50.2727    5.4568 O   0  0  0  0  0  0
   19.7230   47.9047    9.7603 C   0  0  0  0  0  0
   20.1733   50.2667    9.7430 C   0  0  0  0  0  0
   20.1230   50.2464    8.3566 C   0  0  0  0  0  0
   19.7205   47.8730    8.3651 C   0  0  0  0  0  0
   18.0383   48.1396   13.1704 C   0  0  0  0  0  0
   20.0839   46.7826   13.0364 C   0  0  0  0  0  0
   18.1694   49.0725    5.4005 C   0  0  0  0  0  0
   22.7904   50.9905   11.7611 C   0  0  0  0  0  0
   21.7334   52.0715   13.6490 C   0  0  0  0  0  0
   22.6588   53.1077   13.5681 C   0  0  0  0  0  0
   23.7313   52.0146   11.6960 C   0  0  0  0  0  0
   23.6638   53.0667   12.6053 C   0  0  0  0  0  0
   19.5635   46.9907   10.2904 H   0  0  0  0  0  0
   20.3540   51.2008   10.2507 H   0  0  0  0  0  0
   20.2404   51.1747    7.8132 H   0  0  0  0  0  0
   19.5394   46.9505    7.8387 H   0  0  0  0  0  0
   17.5848   49.0732   13.4722 H   0  0  0  0  0  0
   17.5840   47.8731   12.2175 H   0  0  0  0  0  0
   17.7203   47.4018   13.9082 H   0  0  0  0  0  0
   21.1726   46.7349   13.0019 H   0  0  0  0  0  0
   19.7420   46.2740   13.9374 H   0  0  0  0  0  0
   19.7230   46.2023   12.2033 H   0  0  0  0  0  0
   18.0963   49.0728    4.3136 H   0  0  0  0  0  0
   17.6894   49.9545    5.8132 H   0  0  0  0  0  0
   17.7230   48.1695    5.7998 H   0  0  0  0  0  0
   22.8476   50.1761   11.0537 H   0  0  0  0  0  0
   20.9660   52.1036   14.4091 H   0  0  0  0  0  0
   22.6091   53.9339   14.2623 H   0  0  0  0  0  0
   24.5070   51.9907   10.9444 H   0  0  0  0  0  0
   24.3917   53.8650   12.5624 H   0  0  0  0  0  0
  1  2  2  0  0  0
  1  3  1  0  0  0
  1  6  1  0  0  0
  2  8  1  0  0  0
  2  4  1  0  0  0
  3  4  1  0  0  0
  3 16  1  0  0  0
  3 17  1  0  0  0
  4  9  2  0  0  0
  5  7  1  0  0  0
  5 10  2  0  0  0
  5 11  2  0  0  0
  5 18  1  0  0  0
  6 12  2  0  0  0
  6 13  1  0  0  0
  7 14  1  0  0  0
  7 15  2  0  0  0
  8 19  1  0  0  0
  8 20  2  0  0  0
 12 15  1  0  0  0
 12 24  1  0  0  0
 13 14  2  0  0  0
 13 25  1  0  0  0
 14 26  1  0  0  0
 15 27  1  0  0  0
 16 28  1  0  0  0
 16 29  1  0  0  0
 16 30  1  0  0  0
 17 31  1  0  0  0
 17 32  1  0  0  0
 17 33  1  0  0  0
 18 34  1  0  0  0
 18 35  1  0  0  0
 18 36  1  0  0  0
 19 22  2  0  0  0
 19 37  1  0  0  0
 20 21  1  0  0  0
 20 38  1  0  0  0
 21 23  2  0  0  0
 21 39  1  0  0  0
 22 23  1  0  0  0
 22 40  1  0  0  0
 23 41  1  0  0  0
M  END
> <s_m_entry_id>
5335

> <s_m_entry_name>
dock_pv.326

> <s_m_Source_Path>
/home/csk/Desktop/cluster/DUD-E-result/pgh1

> <s_m_Source_File>
dock_pv.maegz

> <i_m_Source_File_Index>
326

> <chembl_id>
CHEMBL420987

> <chembl_pref_name>
None

> <i_lp_mmshare_version>
53161

> <r_lp_tautomer_probability>
1

> <s_lp_Force_Field>
OPLS_2005

> <r_lp_Energy>
19.863599

> <b_lp_Chiralities_Consistent>
1

> <s_lp_Variant>
CHEMBL221_lig45-1

> <s_i_glide_gridfile>
glide-grid_2oyu

> <i_i_glide_lignum>
52

> <i_i_glide_rotatable_bonds>
3

> <r_i_docking_score>
-8.07108151463338

> <r_i_glide_ligand_efficiency>
-0.350916587592756

> <r_i_glide_ligand_efficiency_sa>
-0.997960095094194

> <r_i_glide_ligand_efficiency_ln>
-1.95166069475931

> <r_i_glide_gscore>
-8.07108151463338

> <r_i_glide_lipo>
-4.18753047853878

> <r_i_glide_hbond>
0

> <r_i_glide_metal>
0

> <r_i_glide_rewards>
-2.85367128461137

> <r_i_glide_evdw>
-14.030460357666

> <r_i_glide_ecoul>
-4.40212202072144

> <r_i_glide_erotb>
0.352049925650036

> <r_i_glide_esite>
-0.020088356141749

> <r_i_glide_emodel>
-15.6226447583282

> <r_i_glide_energy>
-18.4325823783875

> <r_i_glide_einternal>
6.23948097229004

> <i_i_glide_confnum>
1

> <i_i_glide_posenum>
50

> <r_i_glide_eff_state_penalty>
0

> <s_user_duplicate_titles>
CHEMBL221_lig45

> <i_f3d_flags>
0

> <s_m_subgroup_title>
dock_pv

> <s_m_subgroupid>
dock_pv

> <b_m_subgroup_collapsed>
1

$$$$
CHEMBL221_lig687
                    3D
 Schrodinger Suite 2021-1.
 49 51  0  0  1  0            999 V2000
   20.0952   49.3772   15.6145 C   0  0  0  0  0  0
   19.0124   48.4561   15.4050 N   0  0  0  0  0  0
   18.7513   48.2233   14.1008 C   0  0  0  0  0  0
   19.7003   49.0230   13.3382 C   0  0  0  0  0  0
   20.4254   49.7493   14.2108 C   0  0  0  0  0  0
   17.8790   47.4730   13.6807 O   0  0  0  0  0  0
   19.7826   49.0489   11.8367 C   0  0  0  0  0  0
   20.1230   50.2013   11.1086 C   0  0  0  0  0  0
   20.3098   50.1587    9.7258 C   0  0  0  0  0  0
   20.1230   48.9669    9.0126 C   0  0  0  0  0  0
   19.7230   47.8353    9.7298 C   0  0  0  0  0  0
   19.5871   47.8730   11.1153 C   0  0  0  0  0  0
   20.0692   48.9241    7.4940 C   0  0  0  0  0  0
   20.1230   50.1272    6.8686 O   0  0  0  0  0  0
   19.8889   47.8789    6.8730 O   0  0  0  0  0  0
   21.4839   50.6827   13.8833 C   0  0  0  0  0  0
   22.4663   50.2730   13.0000 C   0  0  0  0  0  0
   23.5347   51.0730   12.7261 C   0  0  0  0  0  0
   23.6036   52.3369   13.2937 C   0  0  0  0  0  0
   22.5427   52.8219   14.0696 C   0  0  0  0  0  0
   21.5012   51.9706   14.4094 C   0  0  0  0  0  0
   25.0112   53.3457   12.9163 S   0  0  0  0  0  0
   25.5006   52.6730   11.1675 C   0  0  0  0  0  0
   24.5230   54.7128   13.0000 O   0  0  0  0  0  0
   26.1230   53.0730   13.8000 O   0  0  0  0  0  0
   18.3270   47.7545   16.4875 C   0  0  0  0  0  0
   16.9091   48.2453   16.8188 C   0  0  0  0  0  0
   16.8482   49.5882   17.5741 C   0  0  0  0  0  0
   19.7784   50.2197   16.2284 H   0  0  0  0  0  0
   20.9232   48.9021   16.1420 H   0  0  0  0  0  0
   20.2456   51.1492   11.6100 H   0  0  0  0  0  0
   20.5358   51.0730    9.2011 H   0  0  0  0  0  0
   19.5135   46.9065    9.2187 H   0  0  0  0  0  0
   19.3230   46.9686   11.6371 H   0  0  0  0  0  0
   19.9545   50.0133    5.9322 H   0  0  0  0  0  0
   22.4346   49.2929   12.5501 H   0  0  0  0  0  0
   24.2967   50.6250   12.1198 H   0  0  0  0  0  0
   22.5620   53.8266   14.4696 H   0  0  0  0  0  0
   20.7147   52.3103   15.0668 H   0  0  0  0  0  0
   26.4689   53.0730   10.8766 H   0  0  0  0  0  0
   25.6689   51.6096   11.1342 H   0  0  0  0  0  0
   24.7122   52.9144   10.4530 H   0  0  0  0  0  0
   18.3121   46.6896   16.2502 H   0  0  0  0  0  0
   18.9229   47.8728   17.3809 H   0  0  0  0  0  0
   16.3227   48.2730   15.9023 H   0  0  0  0  0  0
   16.4306   47.4940   17.4478 H   0  0  0  0  0  0
   15.8190   49.8724   17.8000 H   0  0  0  0  0  0
   17.3230   49.5317   18.5490 H   0  0  0  0  0  0
   17.3106   50.3955   17.0064 H   0  0  0  0  0  0
  1  5  1  0  0  0
  1  2  1  0  0  0
  1 29  1  0  0  0
  1 30  1  0  0  0
  2  3  1  0  0  0
  2 26  1  0  0  0
  3  4  1  0  0  0
  3  6  2  0  0  0
  4  7  1  0  0  0
  4  5  2  0  0  0
  5 16  1  0  0  0
  7  8  2  0  0  0
  7 12  1  0  0  0
  8  9  1  0  0  0
  8 31  1  0  0  0
  9 10  2  0  0  0
  9 32  1  0  0  0
 10 11  1  0  0  0
 10 13  1  0  0  0
 11 12  2  0  0  0
 11 33  1  0  0  0
 12 34  1  0  0  0
 13 14  1  0  0  0
 13 15  2  0  0  0
 14 35  1  0  0  0
 16 17  2  0  0  0
 16 21  1  0  0  0
 17 18  1  0  0  0
 17 36  1  0  0  0
 18 19  2  0  0  0
 18 37  1  0  0  0
 19 20  1  0  0  0
 19 22  1  0  0  0
 20 21  2  0  0  0
 20 38  1  0  0  0
 21 39  1  0  0  0
 22 23  1  0  0  0
 22 24  2  0  0  0
 22 25  2  0  0  0
 23 40  1  0  0  0
 23 41  1  0  0  0
 23 42  1  0  0  0
 26 27  1  0  0  0
 26 43  1  0  0  0
 26 44  1  0  0  0
 27 28  1  0  0  0
 27 45  1  0  0  0
 27 46  1  0  0  0
 28 47  1  0  0  0
 28 48  1  0  0  0
 28 49  1  0  0  0
M  END
> <s_m_entry_id>
5336

> <s_m_entry_name>
dock_pv.327

> <s_m_Source_Path>
/home/csk/Desktop/cluster/DUD-E-result/pgh1

> <s_m_Source_File>
dock_pv.maegz

> <i_m_Source_File_Index>
327

> <chembl_id>
CHEMBL469574

> <chembl_pref_name>
None

> <i_lp_mmshare_version>
53161

> <r_lp_tautomer_probability>
0.961761466411231

> <s_lp_Force_Field>
OPLS_2005

> <r_lp_Energy>
29.682889

> <b_lp_Chiralities_Consistent>
1

> <s_lp_Variant>
CHEMBL221_lig687-1

> <s_i_glide_gridfile>
glide-grid_2oyu

> <i_i_glide_lignum>
847

> <i_i_glide_rotatable_bonds>
7

> <r_i_docking_score>
-8.07095722358342

> <r_i_glide_ligand_efficiency>
-0.288248472270836

> <r_i_glide_ligand_efficiency_sa>
-0.875292131085412

> <r_i_glide_ligand_efficiency_ln>
-1.86301390080428

> <r_i_glide_gscore>
-8.07095722358342

> <r_i_glide_lipo>
-4.53868211878864

> <r_i_glide_hbond>
0

> <r_i_glide_metal>
0

> <r_i_glide_rewards>
-2.66171125452729

> <r_i_glide_evdw>
-22.3085289001465

> <r_i_glide_ecoul>
-1.60729384422302

> <r_i_glide_erotb>
0.491190359632393

> <r_i_glide_esite>
-0.00523368825910524

> <r_i_glide_emodel>
-33.1279580361512

> <r_i_glide_energy>
-23.9158227443695

> <r_i_glide_einternal>
5.37534999847412

> <i_i_glide_confnum>
3

> <i_i_glide_posenum>
190

> <r_i_glide_eff_state_penalty>
0

> <s_user_duplicate_titles>
CHEMBL221_lig687

> <i_f3d_flags>
0

> <s_m_subgroup_title>
dock_pv

> <s_m_subgroupid>
dock_pv

> <b_m_subgroup_collapsed>
1

$$$$
CHEMBL221_lig1049 
                    3D
 Schrodinger Suite 2021-1.
 48 50  0  0  1  0            999 V2000
   20.6645   49.8813    5.3135 O   0  0  0  0  0  0
   19.8205   48.8468    5.8893 S   0  0  0  0  0  0
   20.1230   47.4730    5.5818 O   0  0  0  0  0  0
   20.1230   50.1309    8.3140 C   0  0  0  0  0  0
   19.8899   48.9267    7.6596 C   0  0  0  0  0  0
   19.6902   47.7639    8.4011 C   0  0  0  0  0  0
   19.7230   47.8115    9.7840 C   0  0  0  0  0  0
   19.9869   49.0016   10.4446 C   0  0  0  0  0  0
   20.1230   50.1706    9.7020 C   0  0  0  0  0  0
   18.1667   49.0730    5.4000 N   0  0  0  0  0  0
   20.0428   49.0166   11.8535 N   0  0  0  0  0  0
   21.0237   49.5058   12.6989 C   0  0  0  0  0  0
   20.4543   49.4714   13.9712 C   0  0  0  0  0  0
   19.2761   48.7402   13.8011 C   0  0  0  0  0  0
   19.0175   48.4869   12.5461 N   0  0  0  0  0  0
   20.9230   50.0724   15.2071 C   0  0  0  0  0  0
   21.2879   50.5643   16.1870 N   0  0  0  0  0  0
   22.3136   49.8730   12.3237 N   0  0  0  0  0  0
   22.6221   51.0538   11.7734 C   0  0  0  0  0  0
   24.1061   51.4774   11.7106 C   0  0  2  0  0  0
   21.7740   51.8418   11.3998 O   0  0  0  0  0  0
   24.3111   52.8143   12.3135 N   0  0  0  0  0  0
   25.7230   53.0938   12.5958 C   0  0  0  0  0  0
   25.9673   54.5227   13.0685 C   0  0  0  0  0  0
   25.1272   54.6730   14.1802 O   0  0  0  0  0  0
   23.7637   54.7147   13.8001 C   0  0  0  0  0  0
   23.3932   53.3048   13.3684 C   0  0  0  0  0  0
   24.5230   51.6245   10.2463 C   0  0  0  0  0  0
   20.1230   51.0501    7.7466 H   0  0  0  0  0  0
   19.5217   46.8209    7.9210 H   0  0  0  0  0  0
   19.7228   46.9112   10.3569 H   0  0  0  0  0  0
   20.0904   51.1226   10.1836 H   0  0  0  0  0  0
   17.9153   50.0481    5.1861 H   0  0  0  0  0  0
   17.4775   48.6379    6.0241 H   0  0  0  0  0  0
   18.5719   48.4767   14.5780 H   0  0  0  0  0  0
   23.0714   49.3098   12.6789 H   0  0  0  0  0  0
   24.7067   50.7147   12.2026 H   0  0  0  0  0  0
   26.0366   52.4410   13.4005 H   0  0  0  0  0  0
   26.3493   52.8925   11.7304 H   0  0  0  0  0  0
   25.7896   55.2788   12.3067 H   0  0  0  0  0  0
   26.9857   54.6731   13.4000 H   0  0  0  0  0  0
   23.5957   55.4370   13.0027 H   0  0  0  0  0  0
   23.1455   55.0633   14.6255 H   0  0  0  0  0  0
   22.3539   53.3423   13.0536 H   0  0  0  0  0  0
   23.4264   52.6172   14.2119 H   0  0  0  0  0  0
   24.2632   50.7499    9.6485 H   0  0  0  0  0  0
   24.1229   52.5293    9.8002 H   0  0  0  0  0  0
   25.5946   51.7816   10.2001 H   0  0  0  0  0  0
  1  2  2  0  0  0
  2  3  2  0  0  0
  2  5  1  0  0  0
  2 10  1  0  0  0
  4  5  2  0  0  0
  4  9  1  0  0  0
  4 29  1  0  0  0
  5  6  1  0  0  0
  6  7  2  0  0  0
  6 30  1  0  0  0
  7  8  1  0  0  0
  7 31  1  0  0  0
  8  9  2  0  0  0
  8 11  1  0  0  0
  9 32  1  0  0  0
 10 33  1  0  0  0
 10 34  1  0  0  0
 11 12  1  0  0  0
 11 15  1  0  0  0
 12 13  2  0  0  0
 12 18  1  0  0  0
 13 14  1  0  0  0
 13 16  1  0  0  0
 14 15  2  0  0  0
 14 35  1  0  0  0
 16 17  3  0  0  0
 18 19  1  0  0  0
 18 36  1  0  0  0
 19 20  1  0  0  0
 19 21  2  0  0  0
 20 22  1  0  0  0
 20 28  1  0  0  0
 20 37  1  0  0  0
 22 23  1  0  0  0
 22 27  1  0  0  0
 23 24  1  0  0  0
 23 38  1  0  0  0
 23 39  1  0  0  0
 24 25  1  0  0  0
 24 40  1  0  0  0
 24 41  1  0  0  0
 25 26  1  0  0  0
 26 27  1  0  0  0
 26 42  1  0  0  0
 26 43  1  0  0  0
 27 44  1  0  0  0
 27 45  1  0  0  0
 28 46  1  0  0  0
 28 47  1  0  0  0
 28 48  1  0  0  0
M  END
> <s_m_entry_id>
5337

> <s_m_entry_name>
dock_pv.328

> <s_m_Source_Path>
/home/csk/Desktop/cluster/DUD-E-result/pgh1

> <s_m_Source_File>
dock_pv.maegz

> <i_m_Source_File_Index>
328

> <chembl_id>
CHEMBL4452534

> <chembl_pref_name>
None

> <i_lp_mmshare_version>
53161

> <r_lp_tautomer_probability>
1

> <s_lp_Force_Field>
OPLS_2005

> <r_lp_Energy>
44.548411

> <b_lp_Chiralities_Consistent>
1

> <s_lp_Variant>
CHEMBL221_lig1049 -1

> <s_i_glide_gridfile>
glide-grid_2oyu

> <i_i_glide_lignum>
1306

> <i_i_glide_rotatable_bonds>
6

> <r_i_docking_score>
-8.07041276820616

> <r_i_glide_ligand_efficiency>
-0.288229027435934

> <r_i_glide_ligand_efficiency_sa>
-0.875233085114254

> <r_i_glide_ligand_efficiency_ln>
-1.86288822451731

> <r_i_glide_gscore>
-8.07041276820616

> <r_i_glide_lipo>
-3.17176274431736

> <r_i_glide_hbond>
-0.596039350215821

> <r_i_glide_metal>
0

> <r_i_glide_rewards>
-2.75920406261164

> <r_i_glide_evdw>
-4.97311687469482

> <r_i_glide_ecoul>
-11.2677803039551

> <r_i_glide_erotb>
0.480345526660858

> <r_i_glide_esite>
-0.0849292483942

> <r_i_glide_emodel>
-36.1299428617014

> <r_i_glide_energy>
-16.2408971786499

> <r_i_glide_einternal>
6.35585975646973

> <i_i_glide_confnum>
1

> <i_i_glide_posenum>
182

> <r_i_glide_eff_state_penalty>
0

> <s_user_duplicate_titles>
CHEMBL221_lig1049 

> <i_f3d_flags>
0

> <s_m_subgroup_title>
dock_pv

> <s_m_subgroupid>
dock_pv

> <b_m_subgroup_collapsed>
1

$$$$
CHEMBL221_lig998
                    3D
 Schrodinger Suite 2021-1.
 32 33  0  0  1  0            999 V2000
   22.9897   52.1411   11.4645 C   0  0  2  0  0  0
   22.9094   52.4818   12.9585 C   0  0  0  0  0  0
   22.0909   51.7759   13.7662 C   0  0  0  0  0  0
   21.2823   50.6716   13.2336 C   0  0  0  0  0  0
   20.6059   49.7456   14.0439 C   0  0  0  0  0  0
   19.8184   48.7378   13.4588 C   0  0  0  0  0  0
   19.7505   48.6467   12.0629 C   0  0  0  0  0  0
   20.4417   49.5410   11.2517 C   0  0  0  0  0  0
   21.2039   50.5489   11.8416 C   0  0  0  0  0  0
   21.7963   51.4730   11.0001 O   0  0  0  0  0  0
   23.6170   53.6551   13.4000 C   0  0  0  0  0  0
   24.8375   53.7830   13.3626 O   0  0  0  0  0  0
   22.7717   54.6455   13.8000 O   0  0  0  0  0  0
   24.2662   51.4014   11.0375 C   0  0  0  0  0  0
   18.8661   47.5587   14.4483 S   0  0  0  0  0  0
   20.1230   47.2246   15.4000 F   0  0  0  0  0  0
   17.5466   47.8730   13.5659 F   0  0  0  0  0  0
   18.0008   46.4774   15.2727 F   0  0  0  0  0  0
   18.4011   48.6730   15.5172 F   0  0  0  0  0  0
   19.3230   46.3499   13.4707 F   0  0  0  0  0  0
   24.5227   50.3450   11.8000 F   0  0  0  0  0  0
   24.1230   50.9538    9.8000 F   0  0  0  0  0  0
   25.3230   52.2165   11.0320 F   0  0  0  0  0  0
   20.3755   49.4036    9.7449 C   0  0  0  0  0  0
   23.0323   53.0730   10.9102 H   0  0  0  0  0  0
   21.9844   52.0573   14.8053 H   0  0  0  0  0  0
   20.6648   49.8250   15.1206 H   0  0  0  0  0  0
   19.1517   47.8732   11.6011 H   0  0  0  0  0  0
   23.2765   55.4114   14.0936 H   0  0  0  0  0  0
   19.7230   48.5942    9.4164 H   0  0  0  0  0  0
   20.0457   50.3346    9.2809 H   0  0  0  0  0  0
   21.3838   49.1963    9.4000 H   0  0  0  0  0  0
  1  2  1  0  0  0
  1 10  1  0  0  0
  1 14  1  0  0  0
  1 25  1  0  0  0
  2  3  2  0  0  0
  2 11  1  0  0  0
  3  4  1  0  0  0
  3 26  1  0  0  0
  4  5  1  0  0  0
  4  9  2  0  0  0
  5  6  2  0  0  0
  5 27  1  0  0  0
  6  7  1  0  0  0
  6 15  1  0  0  0
  7  8  2  0  0  0
  7 28  1  0  0  0
  8  9  1  0  0  0
  8 24  1  0  0  0
  9 10  1  0  0  0
 11 12  2  0  0  0
 11 13  1  0  0  0
 13 29  1  0  0  0
 14 21  1  0  0  0
 14 22  1  0  0  0
 14 23  1  0  0  0
 15 16  1  0  0  0
 15 17  1  0  0  0
 15 18  1  0  0  0
 15 19  1  0  0  0
 15 20  1  0  0  0
 24 30  1  0  0  0
 24 31  1  0  0  0
 24 32  1  0  0  0
M  END
> <s_m_entry_id>
5338

> <s_m_entry_name>
dock_pv.329

> <s_m_Source_Path>
/home/csk/Desktop/cluster/DUD-E-result/pgh1

> <s_m_Source_File>
dock_pv.maegz

> <i_m_Source_File_Index>
329

> <chembl_id>
CHEMBL4095906

> <chembl_pref_name>
None

> <i_lp_mmshare_version>
53161

> <r_lp_tautomer_probability>
1

> <s_lp_Force_Field>
OPLS_2005

> <r_lp_Energy>
13.248227

> <b_lp_Chiralities_Consistent>
1

> <s_lp_Variant>
CHEMBL221_lig998-1

> <s_i_glide_gridfile>
glide-grid_2oyu

> <i_i_glide_lignum>
1247

> <i_i_glide_rotatable_bonds>
4

> <r_i_docking_score>
-8.06597834910049

> <r_i_glide_ligand_efficiency>
-0.336082431212521

> <r_i_glide_ligand_efficiency_sa>
-0.969429482981288

> <r_i_glide_ligand_efficiency_ln>
-1.93055874256861

> <r_i_glide_gscore>
-8.06597834910049

> <r_i_glide_lipo>
-3.27822801741429

> <r_i_glide_hbond>
0

> <r_i_glide_metal>
0

> <r_i_glide_rewards>
-2.74271420014148

> <r_i_glide_evdw>
-30.4422454833984

> <r_i_glide_ecoul>
-3.76503467559814

> <r_i_glide_erotb>
0.131672800085516

> <r_i_glide_esite>
-0.0898414561205973

> <r_i_glide_emodel>
-46.5210082580713

> <r_i_glide_energy>
-34.2072801589966

> <r_i_glide_einternal>
4.02157926559448

> <i_i_glide_confnum>
1

> <i_i_glide_posenum>
215

> <r_i_glide_eff_state_penalty>
0

> <s_user_duplicate_titles>
CHEMBL221_lig998

> <i_f3d_flags>
0

> <s_m_subgroup_title>
dock_pv

> <s_m_subgroupid>
dock_pv

> <b_m_subgroup_collapsed>
1

$$$$
CHEMBL221_lig588
                    3D
 Schrodinger Suite 2021-1.
 46 49  0  0  1  0            999 V2000
   19.4547   48.6929   14.7985 N   0  0  0  0  0  0
   20.5424   49.4666   14.7946 N   0  0  0  0  0  0
   20.7279   49.8077   13.5351 C   0  0  0  0  0  0
   19.8856   49.1472   12.6336 C   0  0  0  0  0  0
   20.0497   48.9212    6.5374 S   0  0  0  0  0  0
   18.9496   48.5242   13.5013 C   0  0  0  0  0  0
   18.9063   48.3044   15.9569 N   0  0  0  0  0  0
   20.1229   49.0403    8.3393 C   0  0  0  0  0  0
   19.8994   49.1691   11.1360 C   0  0  0  0  0  0
   21.6807   50.8795   13.2250 C   0  0  0  0  0  0
   20.9230   49.8730    5.8693 O   0  0  0  0  0  0
   20.1230   47.5052    6.2000 O   0  0  0  0  0  0
   17.7159   47.8730   13.4193 C   0  0  0  0  0  0
   18.4884   49.4730    6.1254 N   0  0  0  0  0  0
   17.6986   47.7121   15.8240 C   0  0  0  0  0  0
   20.1230   50.2731    8.9950 C   0  0  0  0  0  0
   19.8389   47.8883    9.0800 C   0  0  0  0  0  0
   17.0846   47.4730   14.6000 C   0  0  0  0  0  0
   20.0720   50.3374   10.3886 C   0  0  0  0  0  0
   19.7230   47.9619   10.4667 C   0  0  0  0  0  0
   22.6653   50.7380   12.2480 C   0  0  0  0  0  0
   21.5005   52.0837   13.9065 C   0  0  0  0  0  0
   23.3230   53.0069   12.6804 C   0  0  0  0  0  0
   22.3164   53.1562   13.6200 C   0  0  0  0  0  0
   23.4917   51.8155   11.9660 C   0  0  0  0  0  0
   24.1974   54.0515   12.6026 O   0  0  0  0  0  0
   25.5811   53.8121   12.6000 C   0  0  0  0  0  0
   25.9060   53.0803   13.8000 C   0  0  0  0  0  0
   17.2322   47.7542   12.4648 H   0  0  0  0  0  0
   18.3923   50.4805    6.3001 H   0  0  0  0  0  0
   18.2548   49.3075    5.1434 H   0  0  0  0  0  0
   17.2018   47.4522   16.7470 H   0  0  0  0  0  0
   20.2108   51.1755    8.4100 H   0  0  0  0  0  0
   19.7085   46.9349    8.5901 H   0  0  0  0  0  0
   16.1230   46.9886   14.5625 H   0  0  0  0  0  0
   20.1443   51.2958   10.8814 H   0  0  0  0  0  0
   19.5321   47.0730   11.0398 H   0  0  0  0  0  0
   22.7877   49.8056   11.7156 H   0  0  0  0  0  0
   20.7291   52.1948   14.6550 H   0  0  0  0  0  0
   22.2156   54.0820   14.1682 H   0  0  0  0  0  0
   24.2760   51.7107   11.2311 H   0  0  0  0  0  0
   26.1230   54.7589   12.5702 H   0  0  0  0  0  0
   25.8923   53.2092   11.7500 H   0  0  0  0  0  0
   26.9230   52.7203   13.8491 H   0  0  0  0  0  0
   25.2206   52.2730   13.9587 H   0  0  0  0  0  0
   25.7230   53.7727   14.6000 H   0  0  0  0  0  0
  1  2  1  0  0  0
  1  6  1  0  0  0
  1  7  1  0  0  0
  2  3  2  0  0  0
  3 10  1  0  0  0
  3  4  1  0  0  0
  4  6  2  0  0  0
  4  9  1  0  0  0
  5  8  1  0  0  0
  5 11  2  0  0  0
  5 12  2  0  0  0
  5 14  1  0  0  0
  6 13  1  0  0  0
  7 15  2  0  0  0
  8 17  2  0  0  0
  8 16  1  0  0  0
  9 19  1  0  0  0
  9 20  2  0  0  0
 10 21  2  0  0  0
 10 22  1  0  0  0
 13 18  2  0  0  0
 13 29  1  0  0  0
 14 30  1  0  0  0
 14 31  1  0  0  0
 15 18  1  0  0  0
 15 32  1  0  0  0
 16 19  2  0  0  0
 16 33  1  0  0  0
 17 20  1  0  0  0
 17 34  1  0  0  0
 18 35  1  0  0  0
 19 36  1  0  0  0
 20 37  1  0  0  0
 21 25  1  0  0  0
 21 38  1  0  0  0
 22 24  2  0  0  0
 22 39  1  0  0  0
 23 24  1  0  0  0
 23 26  1  0  0  0
 23 25  2  0  0  0
 24 40  1  0  0  0
 25 41  1  0  0  0
 26 27  1  0  0  0
 27 28  1  0  0  0
 27 42  1  0  0  0
 27 43  1  0  0  0
 28 44  1  0  0  0
 28 45  1  0  0  0
 28 46  1  0  0  0
M  END
> <s_m_entry_id>
5339

> <s_m_entry_name>
dock_pv.330

> <s_m_Source_Path>
/home/csk/Desktop/cluster/DUD-E-result/pgh1

> <s_m_Source_File>
dock_pv.maegz

> <i_m_Source_File_Index>
330

> <chembl_id>
CHEMBL186632

> <chembl_pref_name>
None

> <i_lp_mmshare_version>
53161

> <r_lp_tautomer_probability>
1

> <s_lp_Force_Field>
OPLS_2005

> <r_lp_Energy>
37.369992

> <b_lp_Chiralities_Consistent>
1

> <s_lp_Variant>
CHEMBL221_lig588-1

> <s_i_glide_gridfile>
glide-grid_2oyu

> <i_i_glide_lignum>
726

> <i_i_glide_rotatable_bonds>
5

> <r_i_docking_score>
-8.06358916507769

> <r_i_glide_ligand_efficiency>
-0.287985327324203

> <r_i_glide_ligand_efficiency_sa>
-0.874493068043349

> <r_i_glide_ligand_efficiency_ln>
-1.86131313656556

> <r_i_glide_gscore>
-8.06358916507769

> <r_i_glide_lipo>
-5.08495953660098

> <r_i_glide_hbond>
-0.339603115405268

> <r_i_glide_metal>
0

> <r_i_glide_rewards>
-1.59068142929927

> <r_i_glide_evdw>
-10.4837055206299

> <r_i_glide_ecoul>
-5.52768754959106

> <r_i_glide_erotb>
0.376857458130776

> <r_i_glide_esite>
-0.0718641334327969

> <r_i_glide_emodel>
-26.1395133019095

> <r_i_glide_energy>
-16.0113930702209

> <r_i_glide_einternal>
6.29857635498047

> <i_i_glide_confnum>
1

> <i_i_glide_posenum>
206

> <r_i_glide_eff_state_penalty>
0

> <s_user_duplicate_titles>
CHEMBL221_lig588

> <i_f3d_flags>
0

> <s_m_subgroup_title>
dock_pv

> <s_m_subgroupid>
dock_pv

> <b_m_subgroup_collapsed>
1

$$$$
CHEMBL221_lig854
                    3D
 Schrodinger Suite 2021-1.
 34 36  0  0  1  0            999 V2000
   20.1229   48.7760   14.1691 C   0  0  0  0  0  0
   19.8655   48.5722   12.8114 C   0  0  0  0  0  0
   20.3837   49.4237   11.8154 C   0  0  0  0  0  0
   20.8870   49.8640   14.5826 C   0  0  0  0  0  0
   19.4948   47.6751   15.3410 Cl  0  0  0  0  0  0
   21.3853   50.7484   13.6330 C   0  0  0  0  0  0
   21.1651   50.5114   12.2695 C   0  0  0  0  0  0
   21.6808   51.4073   11.3506 O   0  0  0  0  0  0
   22.9230   52.0667   11.6432 C   0  0  1  0  0  0
   22.9727   52.5201   13.1003 C   0  0  0  0  0  0
   22.2110   51.8923   14.0130 C   0  0  0  0  0  0
   24.1230   51.2459   11.1789 C   0  0  0  0  0  0
   23.8580   50.6730   10.0139 F   0  0  0  0  0  0
   25.1975   52.0139   11.0000 F   0  0  0  0  0  0
   24.4083   50.2730   12.0297 F   0  0  0  0  0  0
   23.6947   53.7230   13.4000 C   0  0  0  0  0  0
   22.8510   54.7090   13.8000 O   0  0  0  0  0  0
   24.9030   53.8730   13.2423 O   0  0  0  0  0  0
   20.1215   49.1421   10.3497 C   0  0  0  0  0  0
   19.7230   47.8705    9.9082 C   0  0  0  0  0  0
   19.5197   47.5752    8.5575 C   0  0  0  0  0  0
   19.7232   48.5640    7.6011 C   0  0  0  0  0  0
   20.1230   49.8275    8.0039 C   0  0  0  0  0  0
   20.2504   50.1233    9.3594 C   0  0  0  0  0  0
   19.4589   48.2730    5.9230 Cl  0  0  0  0  0  0
   19.2403   47.7321   12.5528 H   0  0  0  0  0  0
   21.0783   50.0177   15.6352 H   0  0  0  0  0  0
   22.9230   52.9422   11.0015 H   0  0  0  0  0  0
   22.1679   52.2639   15.0262 H   0  0  0  0  0  0
   23.3230   55.5320   13.9830 H   0  0  0  0  0  0
   19.5847   47.0730   10.6143 H   0  0  0  0  0  0
   19.1962   46.5937    8.2559 H   0  0  0  0  0  0
   20.2242   50.6141    7.2692 H   0  0  0  0  0  0
   20.4489   51.1520    9.5796 H   0  0  0  0  0  0
  1  2  2  0  0  0
  1  4  1  0  0  0
  1  5  1  0  0  0
  2  3  1  0  0  0
  2 26  1  0  0  0
  3  7  2  0  0  0
  3 19  1  0  0  0
  4  6  2  0  0  0
  4 27  1  0  0  0
  6  7  1  0  0  0
  6 11  1  0  0  0
  7  8  1  0  0  0
  8  9  1  0  0  0
  9 12  1  0  0  0
  9 10  1  0  0  0
  9 28  1  0  0  0
 10 16  1  0  0  0
 10 11  2  0  0  0
 11 29  1  0  0  0
 12 13  1  0  0  0
 12 14  1  0  0  0
 12 15  1  0  0  0
 16 17  1  0  0  0
 16 18  2  0  0  0
 17 30  1  0  0  0
 19 20  2  0  0  0
 19 24  1  0  0  0
 20 21  1  0  0  0
 20 31  1  0  0  0
 21 22  2  0  0  0
 21 32  1  0  0  0
 22 23  1  0  0  0
 22 25  1  0  0  0
 23 24  2  0  0  0
 23 33  1  0  0  0
 24 34  1  0  0  0
M  END
> <s_m_entry_id>
5340

> <s_m_entry_name>
dock_pv.331

> <s_m_Source_Path>
/home/csk/Desktop/cluster/DUD-E-result/pgh1

> <s_m_Source_File>
dock_pv.maegz

> <i_m_Source_File_Index>
331

> <chembl_id>
CHEMBL1669033

> <chembl_pref_name>
None

> <i_lp_mmshare_version>
53161

> <r_lp_tautomer_probability>
1

> <s_lp_Force_Field>
OPLS_2005

> <r_lp_Energy>
19.222866

> <b_lp_Chiralities_Consistent>
1

> <s_lp_Variant>
CHEMBL221_lig854-2

> <s_i_glide_gridfile>
glide-grid_2oyu

> <i_i_glide_lignum>
1052

> <i_i_glide_rotatable_bonds>
4

> <r_i_docking_score>
-8.06256406462393

> <r_i_glide_ligand_efficiency>
-0.322502562584957

> <r_i_glide_ligand_efficiency_sa>
-0.943003212605717

> <r_i_glide_ligand_efficiency_ln>
-1.91106929886371

> <r_i_glide_gscore>
-8.06256406462393

> <r_i_glide_lipo>
-4.45326645122924

> <r_i_glide_hbond>
0

> <r_i_glide_metal>
0

> <r_i_glide_rewards>
-1.95331086509349

> <r_i_glide_evdw>
-26.036226272583

> <r_i_glide_ecoul>
-4.0772647857666

> <r_i_glide_erotb>
0.25741428319294

> <r_i_glide_esite>
0

> <r_i_glide_emodel>
-38.313024845393

> <r_i_glide_energy>
-30.1134910583496

> <r_i_glide_einternal>
8.3546028137207

> <i_i_glide_confnum>
1

> <i_i_glide_posenum>
39

> <r_i_glide_eff_state_penalty>
0

> <s_user_duplicate_titles>
CHEMBL221_lig854

> <i_f3d_flags>
0

> <s_m_subgroup_title>
dock_pv

> <s_m_subgroupid>
dock_pv

> <b_m_subgroup_collapsed>
1

$$$$
CHEMBL221_lig813
                    3D
 Schrodinger Suite 2021-1.
 24 25  0  0  1  0            999 V2000
   23.8012   53.0354   12.9407 C   0  0  0  0  0  0
   24.4420   52.2730   11.9527 C   0  0  0  0  0  0
   23.8825   51.0888   11.5200 C   0  0  0  0  0  0
   22.6321   52.5372   13.5508 C   0  0  0  0  0  0
   22.1889   51.2437   13.2341 C   0  0  0  0  0  0
   22.7875   50.5593   12.1746 C   0  0  0  0  0  0
   22.3840   49.2947   11.8000 O   0  0  0  0  0  0
   20.9897   48.9884   12.0108 C   0  0  1  0  0  0
   20.5230   49.4544   13.4062 C   0  0  0  0  0  0
   21.1098   50.5449   13.9403 C   0  0  0  0  0  0
   19.5472   48.6730   14.1404 C   0  0  0  0  0  0
   18.7437   47.9290   13.3330 O   0  0  0  0  0  0
   19.4354   48.6730   15.3640 O   0  0  0  0  0  0
   20.1230   49.5186   10.8403 C   0  0  0  0  0  0
   19.3230   48.5493   10.4048 F   0  0  0  0  0  0
   19.3842   50.5867   11.1531 F   0  0  0  0  0  0
   20.8722   49.8729    9.8000 F   0  0  0  0  0  0
   21.7230   53.5058   14.6672 Cl  0  0  0  0  0  0
   24.4628   54.5668   13.4000 Cl  0  0  0  0  0  0
   25.9718   52.6730   11.2668 Cl  0  0  0  0  0  0
   24.3565   50.5834   10.7056 H   0  0  0  0  0  0
   20.9618   47.8979   11.9813 H   0  0  0  0  0  0
   20.8446   50.8709   14.9377 H   0  0  0  0  0  0
   18.0835   47.4730   13.8581 H   0  0  0  0  0  0
  1  2  2  0  0  0
  1  4  1  0  0  0
  1 19  1  0  0  0
  2  3  1  0  0  0
  2 20  1  0  0  0
  3  6  2  0  0  0
  3 21  1  0  0  0
  4  5  2  0  0  0
  4 18  1  0  0  0
  5  6  1  0  0  0
  5 10  1  0  0  0
  6  7  1  0  0  0
  7  8  1  0  0  0
  8  9  1  0  0  0
  8 14  1  0  0  0
  8 22  1  0  0  0
  9 10  2  0  0  0
  9 11  1  0  0  0
 10 23  1  0  0  0
 11 12  1  0  0  0
 11 13  2  0  0  0
 12 24  1  0  0  0
 14 15  1  0  0  0
 14 16  1  0  0  0
 14 17  1  0  0  0
M  END
> <s_m_entry_id>
5341

> <s_m_entry_name>
dock_pv.332

> <s_m_Source_Path>
/home/csk/Desktop/cluster/DUD-E-result/pgh1

> <s_m_Source_File>
dock_pv.maegz

> <i_m_Source_File_Index>
332

> <chembl_id>
CHEMBL1288592

> <chembl_pref_name>
None

> <i_lp_mmshare_version>
53161

> <r_lp_tautomer_probability>
1

> <s_lp_Force_Field>
OPLS_2005

> <r_lp_Energy>
15.477425

> <b_lp_Chiralities_Consistent>
1

> <s_lp_Variant>
CHEMBL221_lig813-2

> <s_i_glide_gridfile>
glide-grid_2oyu

> <i_i_glide_lignum>
981

> <i_i_glide_rotatable_bonds>
3

> <r_i_docking_score>
-8.05100273766213

> <r_i_glide_ligand_efficiency>
-0.402550136883107

> <r_i_glide_ligand_efficiency_sa>
-1.09268918202706

> <r_i_glide_ligand_efficiency_ln>
-2.01490044539475

> <r_i_glide_gscore>
-8.05100273766213

> <r_i_glide_lipo>
-2.98141972611088

> <r_i_glide_hbond>
0

> <r_i_glide_metal>
0

> <r_i_glide_rewards>
-3.55965986735496

> <r_i_glide_evdw>
-32.1781692504883

> <r_i_glide_ecoul>
-0.390425592660904

> <r_i_glide_erotb>
0.157549157227256

> <r_i_glide_esite>
0

> <r_i_glide_emodel>
-43.2459643933401

> <r_i_glide_energy>
-32.5685948431492

> <r_i_glide_einternal>
3.09628987312317

> <i_i_glide_confnum>
1

> <i_i_glide_posenum>
31

> <r_i_glide_eff_state_penalty>
0

> <s_user_duplicate_titles>
CHEMBL221_lig813

> <i_f3d_flags>
0

> <s_m_subgroup_title>
dock_pv

> <s_m_subgroupid>
dock_pv

> <b_m_subgroup_collapsed>
1

$$$$
CHEMBL221_lig719
                    3D
 Schrodinger Suite 2021-1.
 31 32  0  0  1  0            999 V2000
   20.8171   49.7647   14.5367 C   0  0  0  0  0  0
   21.3035   50.1020   13.3141 C   0  0  0  0  0  0
   19.8722   48.6360   14.7184 C   0  0  0  0  0  0
   22.1823   51.2406   13.0047 C   0  0  0  0  0  0
   19.8563   47.5458   13.8405 C   0  0  0  0  0  0
   18.9230   46.5285   13.9988 C   0  0  0  0  0  0
   17.9540   46.6074   15.0000 C   0  0  0  0  0  0
   17.9406   47.6950   15.8635 C   0  0  0  0  0  0
   18.9142   48.6730   15.7426 C   0  0  0  0  0  0
   21.9321   52.4840   13.5883 C   0  0  0  0  0  0
   24.1230   52.1900   11.9071 C   0  0  0  0  0  0
   23.2672   51.1067   12.1289 C   0  0  0  0  0  0
   21.2293   50.4792   15.8216 C   0  0  0  0  0  0
   23.9304   53.3830   12.6000 C   0  0  0  0  0  0
   22.8051   53.5414   13.4000 C   0  0  0  0  0  0
   22.5230   54.7334   13.9953 O   0  0  0  0  0  0
   16.9878   47.8184   16.8150 F   0  0  0  0  0  0
   25.1447   52.1114   11.0000 O   0  0  0  0  0  0
   20.9989   49.5347   12.4474 H   0  0  0  0  0  0
   20.5717   47.4695   13.0354 H   0  0  0  0  0  0
   18.9230   45.6926   13.3147 H   0  0  0  0  0  0
   17.2020   45.8375   15.0888 H   0  0  0  0  0  0
   18.8746   49.4829   16.4475 H   0  0  0  0  0  0
   21.0650   52.6359   14.2141 H   0  0  0  0  0  0
   23.4461   50.1673   11.6276 H   0  0  0  0  0  0
   20.4493   51.1508   16.1772 H   0  0  0  0  0  0
   21.4502   49.7572   16.6000 H   0  0  0  0  0  0
   22.1230   51.0730   15.6927 H   0  0  0  0  0  0
   24.6135   54.2064   12.4572 H   0  0  0  0  0  0
   23.2377   55.3758   13.9428 H   0  0  0  0  0  0
   25.2994   51.2335   10.6334 H   0  0  0  0  0  0
  1  3  1  0  0  0
  1  2  2  0  0  0
  1 13  1  0  0  0
  2  4  1  0  0  0
  2 19  1  0  0  0
  3  9  1  0  0  0
  3  5  2  0  0  0
  4 10  2  0  0  0
  4 12  1  0  0  0
  5  6  1  0  0  0
  5 20  1  0  0  0
  6  7  2  0  0  0
  6 21  1  0  0  0
  7  8  1  0  0  0
  7 22  1  0  0  0
  8 17  1  0  0  0
  8  9  2  0  0  0
  9 23  1  0  0  0
 10 15  1  0  0  0
 10 24  1  0  0  0
 11 14  1  0  0  0
 11 12  2  0  0  0
 11 18  1  0  0  0
 12 25  1  0  0  0
 13 26  1  0  0  0
 13 27  1  0  0  0
 13 28  1  0  0  0
 14 15  2  0  0  0
 14 29  1  0  0  0
 15 16  1  0  0  0
 16 30  1  0  0  0
 18 31  1  0  0  0
M  END
> <s_m_entry_id>
5342

> <s_m_entry_name>
dock_pv.333

> <s_m_Source_Path>
/home/csk/Desktop/cluster/DUD-E-result/pgh1

> <s_m_Source_File>
dock_pv.maegz

> <i_m_Source_File_Index>
333

> <chembl_id>
CHEMBL468886

> <chembl_pref_name>
None

> <i_lp_mmshare_version>
53161

> <r_lp_tautomer_probability>
1

> <s_lp_Force_Field>
OPLS_2005

> <r_lp_Energy>
19.391394

> <b_lp_Chiralities_Consistent>
1

> <s_lp_Variant>
CHEMBL221_lig719-1

> <s_i_glide_gridfile>
glide-grid_2oyu

> <i_i_glide_lignum>
888

> <i_i_glide_rotatable_bonds>
4

> <r_i_docking_score>
-8.04174637064624

> <r_i_glide_ligand_efficiency>
-0.446763687258124

> <r_i_glide_ligand_efficiency_sa>
-1.1708520874987

> <r_i_glide_ligand_efficiency_ln>
-2.06708943800143

> <r_i_glide_gscore>
-8.04174637064624

> <r_i_glide_lipo>
-3.4096069981372

> <r_i_glide_hbond>
-0.503611749808133

> <r_i_glide_metal>
0

> <r_i_glide_rewards>
-2.74398978251498

> <r_i_glide_evdw>
-25.7490100860596

> <r_i_glide_ecoul>
-4.53199911117554

> <r_i_glide_erotb>
0.582712530793397

> <r_i_glide_esite>
0

> <r_i_glide_emodel>
-42.2522298288332

> <r_i_glide_energy>
-30.2810091972351

> <r_i_glide_einternal>
2.63768339157104

> <i_i_glide_confnum>
8

> <i_i_glide_posenum>
266

> <r_i_glide_eff_state_penalty>
0

> <s_user_duplicate_titles>
CHEMBL221_lig719

> <i_f3d_flags>
0

> <s_m_subgroup_title>
dock_pv

> <s_m_subgroupid>
dock_pv

> <b_m_subgroup_collapsed>
1

$$$$
CHEMBL221_lig277
                    3D
 Schrodinger Suite 2021-1.
 33 35  0  0  1  0            999 V2000
   20.5811   49.8730   13.8074 C   0  0  0  0  0  0
   21.0283   50.1861   12.5020 C   0  0  0  0  0  0
   21.3230   50.9178   14.9980 S   0  0  0  0  0  0
   19.5304   48.9105   14.2844 C   0  0  0  0  0  0
   20.5438   49.6003   11.2033 C   0  0  0  0  0  0
   22.3005   51.6725   13.8000 C   0  0  0  0  0  0
   22.0347   51.1734   12.5390 C   0  0  0  0  0  0
   20.1230   48.2730   11.1004 C   0  0  0  0  0  0
   20.5119   50.3954   10.0558 C   0  0  0  0  0  0
   19.5779   48.2865   15.5321 C   0  0  0  0  0  0
   18.4074   48.7033   13.4868 C   0  0  0  0  0  0
   17.4581   47.2216   15.0773 C   0  0  0  0  0  0
   17.3747   47.8730   13.8641 C   0  0  0  0  0  0
   18.5230   47.4730   15.9398 C   0  0  0  0  0  0
   20.1230   49.8575    8.8310 C   0  0  0  0  0  0
   19.7230   47.7390    9.8769 C   0  0  0  0  0  0
   19.7645   48.5095    8.7249 C   0  0  0  0  0  0
   16.4944   46.3392   15.4000 F   0  0  0  0  0  0
   19.3230   48.7468    6.2812 O   0  0  0  0  0  0
   19.3780   47.8730    7.3936 C   0  0  0  0  0  0
   23.0049   52.4442   14.0780 H   0  0  0  0  0  0
   22.5428   51.5373   11.6577 H   0  0  0  0  0  0
   20.1626   47.6139   11.9538 H   0  0  0  0  0  0
   20.7997   51.4351   10.1024 H   0  0  0  0  0  0
   20.4084   48.4598   16.2000 H   0  0  0  0  0  0
   18.2960   49.2839   12.6000 H   0  0  0  0  0  0
   16.5128   47.7503   13.2262 H   0  0  0  0  0  0
   18.5230   47.0417   16.9256 H   0  0  0  0  0  0
   20.1230   50.4976    7.9598 H   0  0  0  0  0  0
   19.4460   46.7006    9.8008 H   0  0  0  0  0  0
   18.6391   49.4063    6.4341 H   0  0  0  0  0  0
   18.4120   47.3763    7.4920 H   0  0  0  0  0  0
   20.0982   47.0840    7.1749 H   0  0  0  0  0  0
  1  2  2  0  0  0
  1  3  1  0  0  0
  1  4  1  0  0  0
  2  5  1  0  0  0
  2  7  1  0  0  0
  3  6  1  0  0  0
  4 10  2  0  0  0
  4 11  1  0  0  0
  5  8  2  0  0  0
  5  9  1  0  0  0
  6  7  2  0  0  0
  6 21  1  0  0  0
  7 22  1  0  0  0
  8 16  1  0  0  0
  8 23  1  0  0  0
  9 15  2  0  0  0
  9 24  1  0  0  0
 10 14  1  0  0  0
 10 25  1  0  0  0
 11 13  2  0  0  0
 11 26  1  0  0  0
 12 13  1  0  0  0
 12 18  1  0  0  0
 12 14  2  0  0  0
 13 27  1  0  0  0
 14 28  1  0  0  0
 15 17  1  0  0  0
 15 29  1  0  0  0
 16 17  2  0  0  0
 16 30  1  0  0  0
 17 20  1  0  0  0
 19 20  1  0  0  0
 19 31  1  0  0  0
 20 32  1  0  0  0
 20 33  1  0  0  0
M  END
> <s_m_entry_id>
5343

> <s_m_entry_name>
dock_pv.334

> <s_m_Source_Path>
/home/csk/Desktop/cluster/DUD-E-result/pgh1

> <s_m_Source_File>
dock_pv.maegz

> <i_m_Source_File_Index>
334

> <chembl_id>
CHEMBL293229

> <chembl_pref_name>
None

> <i_lp_mmshare_version>
53161

> <r_lp_tautomer_probability>
1

> <s_lp_Force_Field>
OPLS_2005

> <r_lp_Energy>
16.681436

> <b_lp_Chiralities_Consistent>
1

> <s_lp_Variant>
CHEMBL221_lig277-1

> <s_i_glide_gridfile>
glide-grid_2oyu

> <i_i_glide_lignum>
310

> <i_i_glide_rotatable_bonds>
4

> <r_i_docking_score>
-8.04072236618566

> <r_i_glide_ligand_efficiency>
-0.402036118309283

> <r_i_glide_ligand_efficiency_sa>
-1.09129392095641

> <r_i_glide_ligand_efficiency_ln>
-2.01232760748354

> <r_i_glide_gscore>
-8.04072236618566

> <r_i_glide_lipo>
-4.83710629965781

> <r_i_glide_hbond>
0

> <r_i_glide_metal>
0

> <r_i_glide_rewards>
-2.56572077170533

> <r_i_glide_evdw>
-18.8008594512939

> <r_i_glide_ecoul>
-2.46919918060303

> <r_i_glide_erotb>
0.672527554832627

> <r_i_glide_esite>
0

> <r_i_glide_emodel>
-27.0567397873394

> <r_i_glide_energy>
-21.270058631897

> <r_i_glide_einternal>
0.625691413879395

> <i_i_glide_confnum>
15

> <i_i_glide_posenum>
149

> <r_i_glide_eff_state_penalty>
0

> <s_user_duplicate_titles>
CHEMBL221_lig277,104231

> <i_f3d_flags>
0

> <s_m_subgroup_title>
dock_pv

> <s_m_subgroupid>
dock_pv

> <b_m_subgroup_collapsed>
1

$$$$
CHEMBL221_lig343
                    3D
 Schrodinger Suite 2021-1.
 39 41  0  0  1  0            999 V2000
   20.1350   48.9778   12.9558 C   0  0  0  0  0  0
   20.7155   49.8135   13.8244 C   0  0  0  0  0  0
   20.0776   48.7261    6.8633 S   0  0  0  0  0  0
   20.5586   49.4760   15.1271 O   0  0  0  0  0  0
   19.7388   48.2728   15.1833 N   0  0  2  0  0  0
   19.5260   47.8939   13.7927 C   0  0  0  0  0  0
   20.0663   49.0349   11.4782 C   0  0  0  0  0  0
   20.1227   48.9224    8.6681 C   0  0  0  0  0  0
   21.3230   49.0729    6.2000 O   0  0  0  0  0  0
   19.3810   47.4816    6.5998 O   0  0  0  0  0  0
   21.6509   50.9302   13.5631 C   0  0  0  0  0  0
   20.3346   50.1856   10.7277 C   0  0  0  0  0  0
   19.7230   47.8694   10.8025 C   0  0  0  0  0  0
   19.7281   47.8141    9.4174 C   0  0  0  0  0  0
   20.3493   50.1317    9.3365 C   0  0  0  0  0  0
   19.0898   50.0213    6.2000 C   0  0  0  0  0  0
   18.4832   48.6679   15.8163 C   0  0  0  0  0  0
   22.7564   50.7410   12.7213 C   0  0  0  0  0  0
   21.4187   52.1931   14.1147 C   0  0  0  0  0  0
   22.2580   53.2601   13.8000 C   0  0  0  0  0  0
   23.6131   51.8000   12.4300 C   0  0  0  0  0  0
   23.3606   53.0551   12.9756 C   0  0  0  0  0  0
   20.0407   46.9494   13.6240 H   0  0  0  0  0  0
   18.4742   47.7268   13.5507 H   0  0  0  0  0  0
   20.5252   51.1311   11.2098 H   0  0  0  0  0  0
   19.4747   46.9822   11.3567 H   0  0  0  0  0  0
   19.4702   46.8818    8.9367 H   0  0  0  0  0  0
   20.5229   51.0379    8.7754 H   0  0  0  0  0  0
   19.1064   49.8730    5.1218 H   0  0  0  0  0  0
   18.1071   49.8705    6.5999 H   0  0  0  0  0  0
   19.7264   50.8467    6.5437 H   0  0  0  0  0  0
   18.0176   47.7939   16.2696 H   0  0  0  0  0  0
   18.6293   49.4053   16.5999 H   0  0  0  0  0  0
   17.7630   49.0736   15.1072 H   0  0  0  0  0  0
   22.9528   49.7703   12.2876 H   0  0  0  0  0  0
   20.5751   52.3452   14.7725 H   0  0  0  0  0  0
   22.0743   54.2369   14.2254 H   0  0  0  0  0  0
   24.4675   51.6478   11.7850 H   0  0  0  0  0  0
   24.0255   53.8785   12.7586 H   0  0  0  0  0  0
  1  2  2  0  0  0
  1  6  1  0  0  0
  1  7  1  0  0  0
  2  4  1  0  0  0
  2 11  1  0  0  0
  3  8  1  0  0  0
  3  9  2  0  0  0
  3 10  2  0  0  0
  3 16  1  0  0  0
  4  5  1  0  0  0
  5  6  1  0  0  0
  5 17  1  0  0  0
  6 23  1  0  0  0
  6 24  1  0  0  0
  7 12  1  0  0  0
  7 13  2  0  0  0
  8 14  2  0  0  0
  8 15  1  0  0  0
 11 18  1  0  0  0
 11 19  2  0  0  0
 12 15  2  0  0  0
 12 25  1  0  0  0
 13 14  1  0  0  0
 13 26  1  0  0  0
 14 27  1  0  0  0
 15 28  1  0  0  0
 16 29  1  0  0  0
 16 30  1  0  0  0
 16 31  1  0  0  0
 17 32  1  0  0  0
 17 33  1  0  0  0
 17 34  1  0  0  0
 18 21  2  0  0  0
 18 35  1  0  0  0
 19 20  1  0  0  0
 19 36  1  0  0  0
 20 22  2  0  0  0
 20 37  1  0  0  0
 21 22  1  0  0  0
 21 38  1  0  0  0
 22 39  1  0  0  0
M  END
> <s_m_entry_id>
5344

> <s_m_entry_name>
dock_pv.335

> <s_m_Source_Path>
/home/csk/Desktop/cluster/DUD-E-result/pgh1

> <s_m_Source_File>
dock_pv.maegz

> <i_m_Source_File_Index>
335

> <chembl_id>
CHEMBL98193

> <chembl_pref_name>
None

> <i_lp_mmshare_version>
53161

> <r_lp_tautomer_probability>
1

> <s_lp_Force_Field>
OPLS_2005

> <r_lp_Energy>
27.684043

> <b_lp_Chiralities_Consistent>
1

> <s_lp_Variant>
CHEMBL221_lig343-1

> <s_i_glide_gridfile>
glide-grid_2oyu

> <i_i_glide_lignum>
409

> <i_i_glide_rotatable_bonds>
3

> <r_i_docking_score>
-8.03316663656965

> <r_i_glide_ligand_efficiency>
-0.365143938025893

> <r_i_glide_ligand_efficiency_sa>
-1.02314767464475

> <r_i_glide_ligand_efficiency_ln>
-1.96359894285019

> <r_i_glide_gscore>
-8.03316663656965

> <r_i_glide_lipo>
-4.33238399676452

> <r_i_glide_hbond>
0

> <r_i_glide_metal>
0

> <r_i_glide_rewards>
-2.63958132907236

> <r_i_glide_evdw>
-16.7833957672119

> <r_i_glide_ecoul>
-3.9736921787262

> <r_i_glide_erotb>
0.374022304436753

> <r_i_glide_esite>
0

> <r_i_glide_emodel>
-22.0015404628306

> <r_i_glide_energy>
-20.7570879459381

> <r_i_glide_einternal>
3.74331450462341

> <i_i_glide_confnum>
2

> <i_i_glide_posenum>
135

> <r_i_glide_eff_state_penalty>
0

> <s_user_duplicate_titles>
CHEMBL221_lig343

> <i_f3d_flags>
0

> <s_m_subgroup_title>
dock_pv

> <s_m_subgroupid>
dock_pv

> <b_m_subgroup_collapsed>
1

$$$$
CHEMBL221_lig859
                    3D
 Schrodinger Suite 2021-1.
 40 42  0  0  1  0            999 V2000
   20.5229   49.4766   14.7050 C   0  0  0  0  0  0
   20.8217   49.8728   13.3277 C   0  0  0  0  0  0
   20.0231   49.1614   12.5094 C   0  0  0  0  0  0
   19.0932   48.3331   13.3557 C   0  0  0  0  0  0
   19.5177   48.5862   14.6776 O   0  0  0  0  0  0
   21.0426   49.8852   15.7421 O   0  0  0  0  0  0
   21.9393   50.7823   12.9655 C   0  0  0  0  0  0
   22.8286   50.4387   11.9392 C   0  0  0  0  0  0
   23.8573   51.3017   11.5748 C   0  0  0  0  0  0
   24.0162   52.5074   12.2509 C   0  0  0  0  0  0
   23.1462   52.8625   13.2778 C   0  0  0  0  0  0
   22.1090   52.0034   13.6312 C   0  0  0  0  0  0
   19.9491   49.1791   11.0289 C   0  0  0  0  0  0
   19.7230   47.9735   10.3667 C   0  0  0  0  0  0
   19.8183   47.8939    8.9832 C   0  0  0  0  0  0
   20.0913   49.0359    8.2230 C   0  0  0  0  0  0
   20.1230   50.2728    8.8702 C   0  0  0  0  0  0
   20.1245   50.3401   10.2653 C   0  0  0  0  0  0
   19.8592   48.8573    6.4446 S   0  0  1  0  0  0
   20.9325   49.9177    5.3644 C   0  0  0  0  0  0
   20.1230   47.4730    6.1159 O   0  0  0  0  0  0
   18.5224   49.4732    6.1895 N   0  0  0  0  0  0
   17.6504   48.9142    5.1935 C   0  0  0  0  0  0
   18.0476   48.6194   13.2307 H   0  0  0  0  0  0
   19.1731   47.2659   13.1489 H   0  0  0  0  0  0
   22.7218   49.4996   11.4161 H   0  0  0  0  0  0
   24.5326   51.0348   10.7757 H   0  0  0  0  0  0
   24.8231   53.1702   11.9778 H   0  0  0  0  0  0
   23.2767   53.8003   13.7992 H   0  0  0  0  0  0
   21.4362   52.2934   14.4259 H   0  0  0  0  0  0
   19.5392   47.0733   10.9281 H   0  0  0  0  0  0
   19.6515   46.9424    8.5012 H   0  0  0  0  0  0
   20.1734   51.1737    8.2773 H   0  0  0  0  0  0
   20.2344   51.3003   10.7480 H   0  0  0  0  0  0
   21.3214   50.7845    5.8647 H   0  0  0  0  0  0
   21.7231   49.2724    5.0001 H   0  0  0  0  0  0
   20.3300   50.2728    4.5336 H   0  0  0  0  0  0
   16.7142   49.4717    5.1770 H   0  0  0  0  0  0
   17.4067   47.8742    5.4002 H   0  0  0  0  0  0
   18.0953   48.9807    4.2002 H   0  0  0  0  0  0
  1  2  1  0  0  0
  1  5  1  0  0  0
  1  6  2  0  0  0
  2  3  2  0  0  0
  2  7  1  0  0  0
  3  4  1  0  0  0
  3 13  1  0  0  0
  4  5  1  0  0  0
  4 24  1  0  0  0
  4 25  1  0  0  0
  7  8  2  0  0  0
  7 12  1  0  0  0
  8  9  1  0  0  0
  8 26  1  0  0  0
  9 10  2  0  0  0
  9 27  1  0  0  0
 10 11  1  0  0  0
 10 28  1  0  0  0
 11 12  2  0  0  0
 11 29  1  0  0  0
 12 30  1  0  0  0
 13 14  2  0  0  0
 13 18  1  0  0  0
 14 15  1  0  0  0
 14 31  1  0  0  0
 15 16  2  0  0  0
 15 32  1  0  0  0
 16 17  1  0  0  0
 16 19  1  0  0  0
 17 18  2  0  0  0
 17 33  1  0  0  0
 18 34  1  0  0  0
 19 20  1  0  0  0
 19 21  2  0  0  0
 19 22  2  0  0  0
 20 35  1  0  0  0
 20 36  1  0  0  0
 20 37  1  0  0  0
 22 23  1  0  0  0
 23 38  1  0  0  0
 23 39  1  0  0  0
 23 40  1  0  0  0
M  END
> <s_m_entry_id>
5345

> <s_m_entry_name>
dock_pv.336

> <s_m_Source_Path>
/home/csk/Desktop/cluster/DUD-E-result/pgh1

> <s_m_Source_File>
dock_pv.maegz

> <i_m_Source_File_Index>
336

> <chembl_id>
CHEMBL1814813

> <chembl_pref_name>
None

> <i_lp_mmshare_version>
53161

> <r_lp_tautomer_probability>
0.999841193423406

> <s_lp_Force_Field>
OPLS_2005

> <r_lp_Energy>
17.373208

> <b_lp_Chiralities_Consistent>
1

> <s_lp_Variant>
CHEMBL221_lig859-1

> <s_i_glide_gridfile>
glide-grid_2oyu

> <i_i_glide_lignum>
1062

> <i_i_glide_rotatable_bonds>
3

> <r_i_docking_score>
-8.02617375725696

> <r_i_glide_ligand_efficiency>
-0.348964076402477

> <r_i_glide_ligand_efficiency_sa>
-0.992407412998173

> <r_i_glide_ligand_efficiency_ln>
-1.94080159182466

> <r_i_glide_gscore>
-8.02617375725696

> <r_i_glide_lipo>
-4.44067061869594

> <r_i_glide_hbond>
-0.0940060809619374

> <r_i_glide_metal>
0

> <r_i_glide_rewards>
-2.69875364374397

> <r_i_glide_evdw>
-25.6385517120361

> <r_i_glide_ecoul>
-0.240532755851746

> <r_i_glide_erotb>
0.525264085124459

> <r_i_glide_esite>
0

> <r_i_glide_emodel>
-30.3118579328878

> <r_i_glide_energy>
-25.8790844678879

> <r_i_glide_einternal>
3.41178560256958

> <i_i_glide_confnum>
1

> <i_i_glide_posenum>
147

> <r_i_glide_eff_state_penalty>
0

> <s_user_duplicate_titles>
CHEMBL221_lig859

> <i_f3d_flags>
0

> <s_m_subgroup_title>
dock_pv

> <s_m_subgroupid>
dock_pv

> <b_m_subgroup_collapsed>
1

$$$$
CHEMBL221_lig912
                    3D
 Schrodinger Suite 2021-1.
 36 38  0  0  1  0            999 V2000
   18.1463   47.9212   14.7416 C   0  0  0  0  0  0
   18.9724   48.2732   15.8000 C   0  0  0  0  0  0
   20.1170   49.0560   15.6289 C   0  0  0  0  0  0
   18.4446   48.3247   13.4463 C   0  0  0  0  0  0
   19.6106   49.0775   13.2042 C   0  0  0  0  0  0
   20.4148   49.4545   14.3233 C   0  0  0  0  0  0
   21.4341   50.2285   13.8288 N   0  0  0  0  0  0
   21.3696   50.2700   12.4580 C   0  0  0  0  0  0
   20.2585   49.5833   12.0078 C   0  0  0  0  0  0
   19.8253   49.3851   10.5540 C   0  0  0  0  0  0
   19.6114   47.9247   10.1352 C   0  0  0  0  0  0
   19.3230   47.5756    8.9946 O   0  0  0  0  0  0
   19.7230   47.0730   11.1874 O   0  0  0  0  0  0
   22.4394   50.9514   11.7303 C   0  0  0  0  0  0
   23.1341   52.0950   12.3653 C   0  0  0  0  0  0
   22.7445   50.5784   10.5999 O   0  0  0  0  0  0
   24.4482   52.2492   12.0637 N   0  0  0  0  0  0
   25.0977   53.3034   12.6000 C   0  0  0  0  0  0
   24.4782   54.2493   13.4000 C   0  0  0  0  0  0
   23.1267   54.0874   13.7031 C   0  0  0  0  0  0
   22.4433   52.9934   13.1883 C   0  0  0  0  0  0
   17.0454   47.1732   14.9748 F   0  0  0  0  0  0
   22.4208   55.0716   14.6001 C   0  0  0  0  0  0
   18.6953   47.9331   16.7870 H   0  0  0  0  0  0
   20.7309   49.3413   16.4696 H   0  0  0  0  0  0
   17.7940   48.0317   12.6366 H   0  0  0  0  0  0
   22.1788   50.6740   14.3462 H   0  0  0  0  0  0
   18.9230   49.9571   10.3710 H   0  0  0  0  0  0
   20.5449   49.7937    9.8477 H   0  0  0  0  0  0
   19.3599   46.1884   11.0000 H   0  0  0  0  0  0
   26.1231   53.4140   12.3177 H   0  0  0  0  0  0
   25.0440   55.0730   13.7953 H   0  0  0  0  0  0
   21.3896   52.8753   13.3996 H   0  0  0  0  0  0
   23.0729   55.4730   15.3746 H   0  0  0  0  0  0
   21.5509   54.6367   15.0917 H   0  0  0  0  0  0
   22.1230   55.8730   13.9602 H   0  0  0  0  0  0
  1  2  2  0  0  0
  1  4  1  0  0  0
  1 22  1  0  0  0
  2  3  1  0  0  0
  2 24  1  0  0  0
  3  6  2  0  0  0
  3 25  1  0  0  0
  4  5  2  0  0  0
  4 26  1  0  0  0
  5  9  1  0  0  0
  5  6  1  0  0  0
  6  7  1  0  0  0
  7  8  1  0  0  0
  7 27  1  0  0  0
  8 14  1  0  0  0
  8  9  2  0  0  0
  9 10  1  0  0  0
 10 11  1  0  0  0
 10 28  1  0  0  0
 10 29  1  0  0  0
 11 12  2  0  0  0
 11 13  1  0  0  0
 13 30  1  0  0  0
 14 15  1  0  0  0
 14 16  2  0  0  0
 15 17  2  0  0  0
 15 21  1  0  0  0
 17 18  1  0  0  0
 18 19  2  0  0  0
 18 31  1  0  0  0
 19 20  1  0  0  0
 19 32  1  0  0  0
 20 21  2  0  0  0
 20 23  1  0  0  0
 21 33  1  0  0  0
 23 34  1  0  0  0
 23 35  1  0  0  0
 23 36  1  0  0  0
M  END
> <s_m_entry_id>
5346

> <s_m_entry_name>
dock_pv.337

> <s_m_Source_Path>
/home/csk/Desktop/cluster/DUD-E-result/pgh1

> <s_m_Source_File>
dock_pv.maegz

> <i_m_Source_File_Index>
337

> <chembl_id>
CHEMBL1950017

> <chembl_pref_name>
None

> <i_lp_mmshare_version>
53161

> <r_lp_tautomer_probability>
1

> <s_lp_Force_Field>
OPLS_2005

> <r_lp_Energy>
16.958396

> <b_lp_Chiralities_Consistent>
1

> <s_lp_Variant>
CHEMBL221_lig912-1

> <s_i_glide_gridfile>
glide-grid_2oyu

> <i_i_glide_lignum>
1120

> <i_i_glide_rotatable_bonds>
5

> <r_i_docking_score>
-8.02553198208487

> <r_i_glide_ligand_efficiency>
-0.348936173134125

> <r_i_glide_ligand_efficiency_sa>
-0.992328059814761

> <r_i_glide_ligand_efficiency_ln>
-1.94064640476875

> <r_i_glide_gscore>
-8.02553198208487

> <r_i_glide_lipo>
-3.61098874946375

> <r_i_glide_hbond>
0

> <r_i_glide_metal>
0

> <r_i_glide_rewards>
-3.15587917143081

> <r_i_glide_evdw>
-22.3121204376221

> <r_i_glide_ecoul>
-6.02784824371338

> <r_i_glide_erotb>
0.761119197247798

> <r_i_glide_esite>
0

> <r_i_glide_emodel>
-37.4090288150662

> <r_i_glide_energy>
-28.3399686813354

> <r_i_glide_einternal>
5.56956768035889

> <i_i_glide_confnum>
34

> <i_i_glide_posenum>
317

> <r_i_glide_eff_state_penalty>
0

> <s_user_duplicate_titles>
CHEMBL221_lig912

> <i_f3d_flags>
0

> <s_m_subgroup_title>
dock_pv

> <s_m_subgroupid>
dock_pv

> <b_m_subgroup_collapsed>
1

$$$$
CHEMBL221_lig987
                    3D
 Schrodinger Suite 2021-1.
 31 33  0  0  1  0            999 V2000
   18.3701   47.9094   16.2008 C   0  0  0  0  0  0
   17.1473   47.4719   15.7260 C   0  0  0  0  0  0
   16.9125   47.4715   14.3608 C   0  0  0  0  0  0
   17.8667   47.9003   13.4637 C   0  0  0  0  0  0
   19.0995   48.3098   13.9386 C   0  0  0  0  0  0
   19.3515   48.3561   15.3186 C   0  0  0  0  0  0
   20.5246   48.8451   15.8300 O   0  0  0  0  0  0
   20.1431   48.6166   12.9428 C   0  0  0  0  0  0
   20.1015   49.8754   12.4817 N   0  0  0  0  0  0
   20.9232   47.7352   12.5997 O   0  0  0  0  0  0
   21.3084   50.5452   12.3531 N   0  0  0  0  0  0
   21.7851   51.3499   13.3385 C   0  0  0  0  0  0
   22.0682   50.4977   11.2331 C   0  0  0  0  0  0
   21.8378   49.8727   10.2009 O   0  0  0  0  0  0
   21.3254   51.5219   14.4670 O   0  0  0  0  0  0
   23.2302   51.3565   11.5507 C   0  0  0  0  0  0
   23.0095   51.9379   12.7681 C   0  0  0  0  0  0
   23.8878   52.8782   13.2907 C   0  0  0  0  0  0
   25.0682   53.1468   12.6053 C   0  0  0  0  0  0
   25.3229   52.4954   11.3978 C   0  0  0  0  0  0
   24.3833   51.6329   10.8312 C   0  0  0  0  0  0
   18.5237   47.8731   17.2655 H   0  0  0  0  0  0
   16.4044   47.1044   16.4161 H   0  0  0  0  0  0
   16.0037   47.0749   13.9583 H   0  0  0  0  0  0
   17.6544   47.8689   12.4040 H   0  0  0  0  0  0
   21.0601   49.3108   15.1826 H   0  0  0  0  0  0
   19.3660   50.5104   12.7531 H   0  0  0  0  0  0
   23.6658   53.3984   14.1996 H   0  0  0  0  0  0
   25.7802   53.8539   13.0054 H   0  0  0  0  0  0
   26.2482   52.6732   10.8693 H   0  0  0  0  0  0
   24.5695   51.1697    9.8725 H   0  0  0  0  0  0
  1  2  2  0  0  0
  1  6  1  0  0  0
  1 22  1  0  0  0
  2  3  1  0  0  0
  2 23  1  0  0  0
  3  4  2  0  0  0
  3 24  1  0  0  0
  4  5  1  0  0  0
  4 25  1  0  0  0
  5  6  2  0  0  0
  5  8  1  0  0  0
  6  7  1  0  0  0
  7 26  1  0  0  0
  8  9  1  0  0  0
  8 10  2  0  0  0
  9 11  1  0  0  0
  9 27  1  0  0  0
 11 12  1  0  0  0
 11 13  1  0  0  0
 12 17  1  0  0  0
 12 15  2  0  0  0
 13 16  1  0  0  0
 13 14  2  0  0  0
 16 17  2  0  0  0
 16 21  1  0  0  0
 17 18  1  0  0  0
 18 19  2  0  0  0
 18 28  1  0  0  0
 19 20  1  0  0  0
 19 29  1  0  0  0
 20 21  2  0  0  0
 20 30  1  0  0  0
 21 31  1  0  0  0
M  END
> <s_m_entry_id>
5347

> <s_m_entry_name>
dock_pv.338

> <s_m_Source_Path>
/home/csk/Desktop/cluster/DUD-E-result/pgh1

> <s_m_Source_File>
dock_pv.maegz

> <i_m_Source_File_Index>
338

> <chembl_id>
CHEMBL4103357

> <chembl_pref_name>
None

> <i_lp_mmshare_version>
53161

> <r_lp_tautomer_probability>
0.999999999997365

> <s_lp_Force_Field>
OPLS_2005

> <r_lp_Energy>
54.033772

> <b_lp_Chiralities_Consistent>
1

> <s_lp_Variant>
CHEMBL221_lig987-1

> <s_i_glide_gridfile>
glide-grid_2oyu

> <i_i_glide_lignum>
1227

> <i_i_glide_rotatable_bonds>
4

> <r_i_docking_score>
-8.00931576408393

> <r_i_glide_ligand_efficiency>
-0.381395988765901

> <r_i_glide_ligand_efficiency_sa>
-1.05224261311317

> <r_i_glide_ligand_efficiency_ln>
-1.98028713832336

> <r_i_glide_gscore>
-8.00931576408393

> <r_i_glide_lipo>
-3.12100263068549

> <r_i_glide_hbond>
0

> <r_i_glide_metal>
0

> <r_i_glide_rewards>
-3.73956936716069

> <r_i_glide_evdw>
-29.8288841247559

> <r_i_glide_ecoul>
-2.25696539878845

> <r_i_glide_erotb>
0.681245249818318

> <r_i_glide_esite>
0

> <r_i_glide_emodel>
-36.319765723917

> <r_i_glide_energy>
-32.0858495235443

> <r_i_glide_einternal>
16.6762104034424

> <i_i_glide_confnum>
15

> <i_i_glide_posenum>
42

> <r_i_glide_eff_state_penalty>
0

> <s_user_duplicate_titles>
CHEMBL221_lig987

> <i_f3d_flags>
0

> <s_m_subgroup_title>
dock_pv

> <s_m_subgroupid>
dock_pv

> <b_m_subgroup_collapsed>
1

$$$$
CHEMBL221_lig22
                    3D
 Schrodinger Suite 2021-1.
 31 33  0  0  1  0            999 V2000
   19.5476   48.6730   14.5768 C   0  0  0  0  0  0
   20.2129   49.3956   13.5917 C   0  0  0  0  0  0
   21.0321   50.2656   14.3454 C   0  0  0  0  0  0
   20.9230   50.0750   15.6407 N   0  0  0  0  0  0
   19.9945   49.0530   15.7989 O   0  0  0  0  0  0
   20.0822   49.2836   12.0984 C   0  0  0  0  0  0
   18.4753   47.6091   14.5836 C   0  0  0  0  0  0
   19.7230   48.0674   11.5044 C   0  0  0  0  0  0
   19.7230   47.9354   10.1172 C   0  0  0  0  0  0
   20.1230   49.0029    9.3214 C   0  0  0  0  0  0
   20.3996   50.2365    9.8927 C   0  0  0  0  0  0
   20.3550   50.3823   11.2735 C   0  0  0  0  0  0
   21.9251   51.2978   13.8607 C   0  0  0  0  0  0
   22.7798   50.9607   12.8591 O   0  0  0  0  0  0
   23.4966   52.0664   12.5333 C   0  0  0  0  0  0
   23.1205   53.1149   13.3559 C   0  0  0  0  0  0
   22.1230   52.6266   14.2000 C   0  0  0  0  0  0
   24.4758   51.9147   11.4000 C   0  0  0  0  0  0
   17.8556   47.6479   13.6879 H   0  0  0  0  0  0
   18.9013   46.6090   14.6493 H   0  0  0  0  0  0
   17.8003   47.7292   15.4312 H   0  0  0  0  0  0
   19.4853   47.2021   12.1031 H   0  0  0  0  0  0
   19.4620   46.9956    9.6580 H   0  0  0  0  0  0
   20.1475   48.8920    8.2468 H   0  0  0  0  0  0
   20.6419   51.0730    9.2597 H   0  0  0  0  0  0
   20.5681   51.3544   11.6878 H   0  0  0  0  0  0
   23.5195   54.1190   13.3471 H   0  0  0  0  0  0
   21.6048   53.1801   14.9696 H   0  0  0  0  0  0
   25.2863   52.6408   11.4583 H   0  0  0  0  0  0
   24.9230   50.9218   11.4000 H   0  0  0  0  0  0
   23.9931   52.0425   10.4323 H   0  0  0  0  0  0
  1  2  2  0  0  0
  1  5  1  0  0  0
  1  7  1  0  0  0
  2  3  1  0  0  0
  2  6  1  0  0  0
  3  4  2  0  0  0
  3 13  1  0  0  0
  4  5  1  0  0  0
  6  8  2  0  0  0
  6 12  1  0  0  0
  7 19  1  0  0  0
  7 20  1  0  0  0
  7 21  1  0  0  0
  8  9  1  0  0  0
  8 22  1  0  0  0
  9 10  2  0  0  0
  9 23  1  0  0  0
 10 11  1  0  0  0
 10 24  1  0  0  0
 11 12  2  0  0  0
 11 25  1  0  0  0
 12 26  1  0  0  0
 13 14  1  0  0  0
 13 17  2  0  0  0
 14 15  1  0  0  0
 15 16  2  0  0  0
 15 18  1  0  0  0
 16 17  1  0  0  0
 16 27  1  0  0  0
 17 28  1  0  0  0
 18 29  1  0  0  0
 18 30  1  0  0  0
 18 31  1  0  0  0
M  END
> <s_m_entry_id>
5348

> <s_m_entry_name>
dock_pv.339

> <s_m_Source_Path>
/home/csk/Desktop/cluster/DUD-E-result/pgh1

> <s_m_Source_File>
dock_pv.maegz

> <i_m_Source_File_Index>
339

> <chembl_id>
CHEMBL2380867

> <chembl_pref_name>
None

> <i_lp_mmshare_version>
53161

> <r_lp_tautomer_probability>
1

> <s_lp_Force_Field>
OPLS_2005

> <r_lp_Energy>
8.354679

> <b_lp_Chiralities_Consistent>
1

> <s_lp_Variant>
CHEMBL221_lig22-1

> <s_i_glide_gridfile>
glide-grid_2oyu

> <i_i_glide_lignum>
26

> <i_i_glide_rotatable_bonds>
2

> <r_i_docking_score>
-8.00454124532162

> <r_i_glide_ligand_efficiency>
-0.444696735851201

> <r_i_glide_ligand_efficiency_sa>
-1.16543514239197

> <r_i_glide_ligand_efficiency_ln>
-2.05752605238177

> <r_i_glide_gscore>
-8.00454124532162

> <r_i_glide_lipo>
-4.10117788142707

> <r_i_glide_hbond>
0

> <r_i_glide_metal>
0

> <r_i_glide_rewards>
-2.67770986363636

> <r_i_glide_evdw>
-33.5566482543945

> <r_i_glide_ecoul>
-1.00961804389954

> <r_i_glide_erotb>
0.603621619046476

> <r_i_glide_esite>
0

> <r_i_glide_emodel>
-47.476973962117

> <r_i_glide_energy>
-34.5662662982941

> <r_i_glide_einternal>
1.40809416770935

> <i_i_glide_confnum>
7

> <i_i_glide_posenum>
89

> <r_i_glide_eff_state_penalty>
0

> <s_user_duplicate_titles>
CHEMBL221_lig22

> <i_f3d_flags>
0

> <s_m_subgroup_title>
dock_pv

> <s_m_subgroupid>
dock_pv

> <b_m_subgroup_collapsed>
1

$$$$
CHEMBL221_lig65
                    3D
 Schrodinger Suite 2021-1.
 37 39  0  0  1  0            999 V2000
   19.8565   48.7172   11.9384 N   0  0  0  0  0  0
   19.1078   47.9798   13.9358 N   0  0  0  0  0  0
   20.5583   49.3908   12.9335 C   0  0  0  0  0  0
   19.0059   47.8938   12.6400 C   0  0  0  0  0  0
   19.9448   49.0155    5.9283 S   0  0  0  0  0  0
   20.0478   48.8786   14.1357 C   0  0  0  0  0  0
   19.9160   48.7990   10.5218 C   0  0  0  0  0  0
   19.9261   48.8976    7.7179 C   0  0  0  0  0  0
   21.6473   50.4054   12.7512 C   0  0  0  0  0  0
   20.5017   47.8305    5.3140 O   0  0  0  0  0  0
   20.5882   50.2730    5.6228 O   0  0  0  0  0  0
   19.7230   47.6839    8.3628 C   0  0  0  0  0  0
   20.1230   50.0578    8.4805 C   0  0  0  0  0  0
   19.7230   47.6422    9.7535 C   0  0  0  0  0  0
   20.1230   50.0167    9.8728 C   0  0  0  0  0  0
   20.5241   49.2762   15.7423 Cl  0  0  0  0  0  0
   22.6585   50.2230   11.8048 C   0  0  0  0  0  0
   21.6948   51.5176   13.5977 C   0  0  0  0  0  0
   18.1716   49.0213    5.4000 C   0  0  0  0  0  0
   23.7719   52.2051   12.5996 C   0  0  0  0  0  0
   24.8591   53.0730   12.5736 N   0  0  0  0  0  0
   22.7522   52.4174   13.5210 C   0  0  0  0  0  0
   23.7228   51.1194   11.7273 C   0  0  0  0  0  0
   18.3158   47.2581   12.1102 H   0  0  0  0  0  0
   19.5881   46.7763    7.8000 H   0  0  0  0  0  0
   20.2362   51.0150    7.9894 H   0  0  0  0  0  0
   19.6428   46.6829   10.2338 H   0  0  0  0  0  0
   20.2464   50.9347   10.4299 H   0  0  0  0  0  0
   22.6287   49.3679   11.1495 H   0  0  0  0  0  0
   20.9230   51.6803   14.3350 H   0  0  0  0  0  0
   18.1281   49.0728    4.3174 H   0  0  0  0  0  0
   17.6793   49.8730    5.8423 H   0  0  0  0  0  0
   17.7230   48.0935    5.7334 H   0  0  0  0  0  0
   24.8188   53.9172   13.1270 H   0  0  0  0  0  0
   25.5478   52.9693   11.8433 H   0  0  0  0  0  0
   22.7893   53.2581   14.1993 H   0  0  0  0  0  0
   24.5133   50.9530   11.0090 H   0  0  0  0  0  0
  1  3  1  0  0  0
  1  4  1  0  0  0
  1  7  1  0  0  0
  2  4  2  0  0  0
  2  6  1  0  0  0
  3  6  2  0  0  0
  3  9  1  0  0  0
  4 24  1  0  0  0
  5  8  1  0  0  0
  5 10  2  0  0  0
  5 11  2  0  0  0
  5 19  1  0  0  0
  6 16  1  0  0  0
  7 14  1  0  0  0
  7 15  2  0  0  0
  8 13  2  0  0  0
  8 12  1  0  0  0
  9 17  2  0  0  0
  9 18  1  0  0  0
 12 14  2  0  0  0
 12 25  1  0  0  0
 13 15  1  0  0  0
 13 26  1  0  0  0
 14 27  1  0  0  0
 15 28  1  0  0  0
 17 23  1  0  0  0
 17 29  1  0  0  0
 18 22  2  0  0  0
 18 30  1  0  0  0
 19 31  1  0  0  0
 19 32  1  0  0  0
 19 33  1  0  0  0
 20 22  1  0  0  0
 20 21  1  0  0  0
 20 23  2  0  0  0
 21 34  1  0  0  0
 21 35  1  0  0  0
 22 36  1  0  0  0
 23 37  1  0  0  0
M  END
> <s_m_entry_id>
5349

> <s_m_entry_name>
dock_pv.340

> <s_m_Source_Path>
/home/csk/Desktop/cluster/DUD-E-result/pgh1

> <s_m_Source_File>
dock_pv.maegz

> <i_m_Source_File_Index>
340

> <chembl_id>
CHEMBL117708

> <chembl_pref_name>
None

> <i_lp_mmshare_version>
53161

> <r_lp_tautomer_probability>
1

> <s_lp_Force_Field>
OPLS_2005

> <r_lp_Energy>
12.241283

> <b_lp_Chiralities_Consistent>
1

> <s_lp_Variant>
CHEMBL221_lig65-1

> <s_i_glide_gridfile>
glide-grid_2oyu

> <i_i_glide_lignum>
82

> <i_i_glide_rotatable_bonds>
3

> <r_i_docking_score>
-7.99655770694263

> <r_i_glide_ligand_efficiency>
-0.347676422040984

> <r_i_glide_ligand_efficiency_sa>
-0.988745495281889

> <r_i_glide_ligand_efficiency_ln>
-1.93364016231516

> <r_i_glide_gscore>
-7.99655770694263

> <r_i_glide_lipo>
-4.09656816068465

> <r_i_glide_hbond>
0

> <r_i_glide_metal>
0

> <r_i_glide_rewards>
-2.70068960283951

> <r_i_glide_evdw>
-17.8795108795166

> <r_i_glide_ecoul>
-4.01510953903198

> <r_i_glide_erotb>
0.314585088071638

> <r_i_glide_esite>
-0.0176430566594771

> <r_i_glide_emodel>
-25.7603614577443

> <r_i_glide_energy>
-21.8946204185486

> <r_i_glide_einternal>
0.743704736232758

> <i_i_glide_confnum>
4

> <i_i_glide_posenum>
32

> <r_i_glide_eff_state_penalty>
0

> <s_user_duplicate_titles>
CHEMBL221_lig65

> <i_f3d_flags>
0

> <s_m_subgroup_title>
dock_pv

> <s_m_subgroupid>
dock_pv

> <b_m_subgroup_collapsed>
1

$$$$
CHEMBL221_lig979
                    3D
 Schrodinger Suite 2021-1.
 34 36  0  0  1  0            999 V2000
   20.0777   49.0813   13.2400 C   0  0  0  0  0  0
   20.8467   49.8730   14.0100 C   0  0  0  0  0  0
   20.5838   49.5519   15.4550 C   0  0  0  0  0  0
   19.5790   48.5621   15.4000 O   0  0  0  0  0  0
   19.2380   48.2794   14.1296 C   0  0  0  0  0  0
   21.8952   50.8134   13.5756 C   0  0  0  0  0  0
   22.8315   50.4522   12.6000 C   0  0  0  0  0  0
   23.8139   51.3497   12.2027 C   0  0  0  0  0  0
   23.8994   52.6026   12.8034 C   0  0  0  0  0  0
   22.9230   52.9878   13.7328 C   0  0  0  0  0  0
   21.9332   52.0946   14.1230 C   0  0  0  0  0  0
   19.9863   49.0784   11.7511 C   0  0  0  0  0  0
   20.2241   50.2463   11.0135 C   0  0  0  0  0  0
   20.3238   50.2023    9.6302 C   0  0  0  0  0  0
   20.1230   49.0061    8.9559 C   0  0  0  0  0  0
   19.7230   47.8730    9.6578 C   0  0  0  0  0  0
   19.7108   47.8987   11.0514 C   0  0  0  0  0  0
   18.3645   47.4730   13.8216 O   0  0  0  0  0  0
   24.9875   53.3714   12.4532 O   0  0  0  0  0  0
   25.2177   54.5982   13.1331 C   0  0  0  0  0  0
   20.1230   48.9805    6.8626 I   0  0  0  0  0  0
   21.4632   49.1627   15.9674 H   0  0  0  0  0  0
   20.2275   50.4125   16.0212 H   0  0  0  0  0  0
   22.8092   49.4682   12.1541 H   0  0  0  0  0  0
   24.5483   51.0518   11.4678 H   0  0  0  0  0  0
   22.9425   53.9610   14.1999 H   0  0  0  0  0  0
   21.2051   52.4031   14.8594 H   0  0  0  0  0  0
   20.3744   51.1949   11.5058 H   0  0  0  0  0  0
   20.5246   51.0951    9.0644 H   0  0  0  0  0  0
   19.4911   46.9624    9.1272 H   0  0  0  0  0  0
   19.4898   46.9911   11.5882 H   0  0  0  0  0  0
   26.1158   55.0727   12.7367 H   0  0  0  0  0  0
   25.3684   54.4358   14.2000 H   0  0  0  0  0  0
   24.3893   55.2925   13.0000 H   0  0  0  0  0  0
  1  2  2  0  0  0
  1  5  1  0  0  0
  1 12  1  0  0  0
  2  3  1  0  0  0
  2  6  1  0  0  0
  3  4  1  0  0  0
  3 22  1  0  0  0
  3 23  1  0  0  0
  4  5  1  0  0  0
  5 18  2  0  0  0
  6  7  2  0  0  0
  6 11  1  0  0  0
  7  8  1  0  0  0
  7 24  1  0  0  0
  8  9  2  0  0  0
  8 25  1  0  0  0
  9 10  1  0  0  0
  9 19  1  0  0  0
 10 11  2  0  0  0
 10 26  1  0  0  0
 11 27  1  0  0  0
 12 13  2  0  0  0
 12 17  1  0  0  0
 13 14  1  0  0  0
 13 28  1  0  0  0
 14 15  2  0  0  0
 14 29  1  0  0  0
 15 16  1  0  0  0
 15 21  1  0  0  0
 16 17  2  0  0  0
 16 30  1  0  0  0
 17 31  1  0  0  0
 19 20  1  0  0  0
 20 32  1  0  0  0
 20 33  1  0  0  0
 20 34  1  0  0  0
M  END
> <s_m_entry_id>
5350

> <s_m_entry_name>
dock_pv.341

> <s_m_Source_Path>
/home/csk/Desktop/cluster/DUD-E-result/pgh1

> <s_m_Source_File>
dock_pv.maegz

> <i_m_Source_File_Index>
341

> <chembl_id>
CHEMBL3357106

> <chembl_pref_name>
None

> <i_lp_mmshare_version>
53161

> <r_lp_tautomer_probability>
0.999841193423406

> <s_lp_Force_Field>
OPLS_2005

> <r_lp_Energy>
23.631991

> <b_lp_Chiralities_Consistent>
1

> <s_lp_Variant>
CHEMBL221_lig979-1

> <s_i_glide_gridfile>
glide-grid_2oyu

> <i_i_glide_lignum>
1216

> <i_i_glide_rotatable_bonds>
3

> <r_i_docking_score>
-7.98638803894126

> <r_i_glide_ligand_efficiency>
-0.380304192330536

> <r_i_glide_ligand_efficiency_sa>
-1.04923042953501

> <r_i_glide_ligand_efficiency_ln>
-1.97461830461166

> <r_i_glide_gscore>
-7.98638803894126

> <r_i_glide_lipo>
-4.52914678788336

> <r_i_glide_hbond>
0

> <r_i_glide_metal>
0

> <r_i_glide_rewards>
-1.66169390108297

> <r_i_glide_evdw>
-38.2289161682129

> <r_i_glide_ecoul>
-0.919653594493866

> <r_i_glide_erotb>
0.253846497609792

> <r_i_glide_esite>
0

> <r_i_glide_emodel>
-55.3437584499185

> <r_i_glide_energy>
-39.1485697627068

> <r_i_glide_einternal>
1.61750328540802

> <i_i_glide_confnum>
11

> <i_i_glide_posenum>
128

> <r_i_glide_eff_state_penalty>
0

> <s_user_duplicate_titles>
CHEMBL221_lig979

> <i_f3d_flags>
0

> <s_m_subgroup_title>
dock_pv

> <s_m_subgroupid>
dock_pv

> <b_m_subgroup_collapsed>
1

$$$$
CHEMBL221_lig811
                    3D
 Schrodinger Suite 2021-1.
 24 25  0  0  1  0            999 V2000
   23.6599   53.0730   12.9731 C   0  0  0  0  0  0
   24.2756   52.4001   11.9171 C   0  0  0  0  0  0
   23.8114   51.1598   11.5052 C   0  0  0  0  0  0
   22.5791   52.4832   13.6489 C   0  0  0  0  0  0
   22.1771   51.1871   13.2976 C   0  0  0  0  0  0
   22.7735   50.5576   12.2000 C   0  0  0  0  0  0
   22.3915   49.2938   11.8000 O   0  0  0  0  0  0
   20.9987   48.9644   12.0019 C   0  0  1  0  0  0
   20.5230   49.3872   13.4089 C   0  0  0  0  0  0
   21.1120   50.4525   13.9854 C   0  0  0  0  0  0
   19.5149   48.6105   14.1025 C   0  0  0  0  0  0
   18.7367   47.8758   13.2629 O   0  0  0  0  0  0
   19.3564   48.6064   15.3211 O   0  0  0  0  0  0
   20.1239   49.5070   10.8419 C   0  0  0  0  0  0
   19.3230   48.5417   10.3996 F   0  0  0  0  0  0
   19.3866   50.5706   11.1723 F   0  0  0  0  0  0
   20.8661   49.8730    9.8000 F   0  0  0  0  0  0
   21.7230   53.3585   14.8754 Cl  0  0  0  0  0  0
   24.2556   54.6370   13.4000 Cl  0  0  0  0  0  0
   25.1165   52.8280   11.4006 H   0  0  0  0  0  0
   24.2662   50.6730   10.6600 H   0  0  0  0  0  0
   20.9833   47.8748   11.9499 H   0  0  0  0  0  0
   20.8332   50.7516   14.9874 H   0  0  0  0  0  0
   18.0514   47.4255   13.7598 H   0  0  0  0  0  0
  1  2  2  0  0  0
  1  4  1  0  0  0
  1 19  1  0  0  0
  2  3  1  0  0  0
  2 20  1  0  0  0
  3  6  2  0  0  0
  3 21  1  0  0  0
  4  5  2  0  0  0
  4 18  1  0  0  0
  5  6  1  0  0  0
  5 10  1  0  0  0
  6  7  1  0  0  0
  7  8  1  0  0  0
  8  9  1  0  0  0
  8 14  1  0  0  0
  8 22  1  0  0  0
  9 10  2  0  0  0
  9 11  1  0  0  0
 10 23  1  0  0  0
 11 12  1  0  0  0
 11 13  2  0  0  0
 12 24  1  0  0  0
 14 15  1  0  0  0
 14 16  1  0  0  0
 14 17  1  0  0  0
M  END
> <s_m_entry_id>
5351

> <s_m_entry_name>
dock_pv.342

> <s_m_Source_Path>
/home/csk/Desktop/cluster/DUD-E-result/pgh1

> <s_m_Source_File>
dock_pv.maegz

> <i_m_Source_File_Index>
342

> <chembl_id>
CHEMBL1288533

> <chembl_pref_name>
None

> <i_lp_mmshare_version>
53161

> <r_lp_tautomer_probability>
1

> <s_lp_Force_Field>
OPLS_2005

> <r_lp_Energy>
14.57202

> <b_lp_Chiralities_Consistent>
1

> <s_lp_Variant>
CHEMBL221_lig811-2

> <s_i_glide_gridfile>
glide-grid_2oyu

> <i_i_glide_lignum>
977

> <i_i_glide_rotatable_bonds>
3

> <r_i_docking_score>
-7.96406099176743

> <r_i_glide_ligand_efficiency>
-0.419161104829865

> <r_i_glide_ligand_efficiency_sa>
-1.11849018211035

> <r_i_glide_ligand_efficiency_ln>
-2.01906051375915

> <r_i_glide_gscore>
-7.96406099176743

> <r_i_glide_lipo>
-2.90828997788991

> <r_i_glide_hbond>
0

> <r_i_glide_metal>
0

> <r_i_glide_rewards>
-3.62862042024697

> <r_i_glide_evdw>
-32.1900482177734

> <r_i_glide_ecoul>
-0.0474375449120998

> <r_i_glide_erotb>
0.189467448994937

> <r_i_glide_esite>
0

> <r_i_glide_emodel>
-45.2220655116633

> <r_i_glide_energy>
-32.2374857626855

> <r_i_glide_einternal>
2.30997657775879

> <i_i_glide_confnum>
1

> <i_i_glide_posenum>
83

> <r_i_glide_eff_state_penalty>
0

> <s_user_duplicate_titles>
CHEMBL221_lig811

> <i_f3d_flags>
0

> <s_m_subgroup_title>
dock_pv

> <s_m_subgroupid>
dock_pv

> <b_m_subgroup_collapsed>
1

$$$$
CHEMBL221_lig84
                    3D
 Schrodinger Suite 2021-1.
 42 44  0  0  1  0            999 V2000
   19.6118   48.7805   12.3619 N   0  0  0  0  0  0
   20.3318   49.3340   13.4041 C   0  0  0  0  0  0
   18.7728   47.9816   14.3005 N   0  0  0  0  0  0
   18.6772   47.9972   12.9992 C   0  0  0  0  0  0
   20.0206   48.8777    6.3602 S   0  0  0  0  0  0
   19.7822   48.7849   14.5643 C   0  0  0  0  0  0
   21.4179   50.3259   13.2380 C   0  0  0  0  0  0
   22.3390   50.1887   12.1996 C   0  0  0  0  0  0
   19.7670   48.9017   10.9547 C   0  0  0  0  0  0
   20.0276   48.9406    8.1593 C   0  0  0  0  0  0
   23.2001   51.2278   11.8921 C   0  0  0  0  0  0
   20.9229   49.8727    5.7992 O   0  0  0  0  0  0
   20.1230   47.4732    5.9960 O   0  0  0  0  0  0
   21.4660   51.4524   14.0633 C   0  0  0  0  0  0
   23.2298   52.3660   12.7006 C   0  0  0  0  0  0
   20.1230   50.1330    8.8936 C   0  0  0  0  0  0
   19.8010   47.7427    8.8333 C   0  0  0  0  0  0
   19.9757   50.1194   10.2881 C   0  0  0  0  0  0
   19.7228   47.7270   10.2158 C   0  0  0  0  0  0
   22.3774   52.4686   13.7989 C   0  0  0  0  0  0
   20.2794   49.0722   16.1818 Cl  0  0  0  0  0  0
   24.1396   51.1049   10.4578 Cl  0  0  0  0  0  0
   18.3449   49.3199    5.8000 C   0  0  0  0  0  0
   24.0592   53.4065   12.4132 O   0  0  0  0  0  0
   25.3224   53.3093   13.0306 C   0  0  0  0  0  0
   25.9461   54.6730   13.0000 C   0  0  0  0  0  0
   17.9403   47.4731   12.4129 H   0  0  0  0  0  0
   22.3292   49.3140   11.5661 H   0  0  0  0  0  0
   20.7671   51.5705   14.8786 H   0  0  0  0  0  0
   20.2464   51.0725    8.3735 H   0  0  0  0  0  0
   19.7320   46.8079    8.2972 H   0  0  0  0  0  0
   20.0087   51.0510   10.8355 H   0  0  0  0  0  0
   19.6786   46.7781   10.7226 H   0  0  0  0  0  0
   22.4020   53.3529   14.4199 H   0  0  0  0  0  0
   18.3758   49.3628    4.7138 H   0  0  0  0  0  0
   17.7231   48.4935    6.1012 H   0  0  0  0  0  0
   18.0239   50.2729    6.2000 H   0  0  0  0  0  0
   25.9681   52.6730   12.4419 H   0  0  0  0  0  0
   25.2689   52.9432   14.0603 H   0  0  0  0  0  0
   26.6524   54.8328   13.8000 H   0  0  0  0  0  0
   25.1886   55.4545   13.0024 H   0  0  0  0  0  0
   26.5230   54.8292   12.0980 H   0  0  0  0  0  0
  1  2  1  0  0  0
  1  4  1  0  0  0
  1  9  1  0  0  0
  2  6  2  0  0  0
  2  7  1  0  0  0
  3  4  2  0  0  0
  3  6  1  0  0  0
  4 27  1  0  0  0
  5 10  1  0  0  0
  5 12  2  0  0  0
  5 13  2  0  0  0
  5 23  1  0  0  0
  6 21  1  0  0  0
  7  8  2  0  0  0
  7 14  1  0  0  0
  8 11  1  0  0  0
  8 28  1  0  0  0
  9 18  1  0  0  0
  9 19  2  0  0  0
 10 17  2  0  0  0
 10 16  1  0  0  0
 11 22  1  0  0  0
 11 15  2  0  0  0
 14 20  2  0  0  0
 14 29  1  0  0  0
 15 20  1  0  0  0
 15 24  1  0  0  0
 16 18  2  0  0  0
 16 30  1  0  0  0
 17 19  1  0  0  0
 17 31  1  0  0  0
 18 32  1  0  0  0
 19 33  1  0  0  0
 20 34  1  0  0  0
 23 35  1  0  0  0
 23 36  1  0  0  0
 23 37  1  0  0  0
 24 25  1  0  0  0
 25 26  1  0  0  0
 25 38  1  0  0  0
 25 39  1  0  0  0
 26 40  1  0  0  0
 26 41  1  0  0  0
 26 42  1  0  0  0
M  END
> <s_m_entry_id>
5352

> <s_m_entry_name>
dock_pv.343

> <s_m_Source_Path>
/home/csk/Desktop/cluster/DUD-E-result/pgh1

> <s_m_Source_File>
dock_pv.maegz

> <i_m_Source_File_Index>
343

> <chembl_id>
CHEMBL327150

> <chembl_pref_name>
None

> <i_lp_mmshare_version>
53161

> <r_lp_tautomer_probability>
1

> <s_lp_Force_Field>
OPLS_2005

> <r_lp_Energy>
14.449982

> <b_lp_Chiralities_Consistent>
1

> <s_lp_Variant>
CHEMBL221_lig84-1

> <s_i_glide_gridfile>
glide-grid_2oyu

> <i_i_glide_lignum>
101

> <i_i_glide_rotatable_bonds>
5

> <r_i_docking_score>
-7.96214359769951

> <r_i_glide_ligand_efficiency>
-0.306236292219212

> <r_i_glide_ligand_efficiency_sa>
-0.907223810717792

> <r_i_glide_ligand_efficiency_ln>
-1.86988329799566

> <r_i_glide_gscore>
-7.96214359769951

> <r_i_glide_lipo>
-4.34097967635601

> <r_i_glide_hbond>
0

> <r_i_glide_metal>
0

> <r_i_glide_rewards>
-2.24494925314161

> <r_i_glide_evdw>
-18.4892616271973

> <r_i_glide_ecoul>
-5.24526834487915

> <r_i_glide_erotb>
0.349500504412424

> <r_i_glide_esite>
-0.0144618395225812

> <r_i_glide_emodel>
-22.9303038892186

> <r_i_glide_energy>
-23.7345299720764

> <r_i_glide_einternal>
4.1895899772644

> <i_i_glide_confnum>
6

> <i_i_glide_posenum>
109

> <r_i_glide_eff_state_penalty>
0

> <s_user_duplicate_titles>
CHEMBL221_lig84

> <i_f3d_flags>
0

> <s_m_subgroup_title>
dock_pv

> <s_m_subgroupid>
dock_pv

> <b_m_subgroup_collapsed>
1

$$$$
CHEMBL221_lig675
                    3D
 Schrodinger Suite 2021-1.
 25 25  0  0  1  0            999 V2000
   24.3980   52.0439   11.5787 C   0  0  0  0  0  0
   23.5936   51.0735   10.9870 C   0  0  0  0  0  0
   22.3177   50.7936   11.4866 C   0  0  0  0  0  0
   21.8581   51.5160   12.5909 C   0  0  0  0  0  0
   22.6485   52.5075   13.1704 C   0  0  0  0  0  0
   23.9389   52.7620   12.6841 C   0  0  0  0  0  0
   21.4311   49.7422   10.8132 C   0  0  0  0  0  0
   22.1228   53.2317   14.2028 O   0  0  0  0  0  0
   24.8344   53.8282   13.3029 C   0  0  0  0  0  0
   20.2793   50.3787   10.0206 C   0  0  0  0  0  0
   20.9007   48.6823   11.7999 C   0  0  0  0  0  0
   25.3773   52.2387   11.1644 H   0  0  0  0  0  0
   23.9674   50.5736   10.1072 H   0  0  0  0  0  0
   20.8681   51.3403   12.9813 H   0  0  0  0  0  0
   22.0502   49.2124   10.0879 H   0  0  0  0  0  0
   22.8020   53.6567   14.7409 H   0  0  0  0  0  0
   25.5989   54.1675   12.6018 H   0  0  0  0  0  0
   24.2562   54.7110   13.5766 H   0  0  0  0  0  0
   25.3234   53.4451   14.1992 H   0  0  0  0  0  0
   20.6506   51.0736    9.2710 H   0  0  0  0  0  0
   19.5811   50.9160   10.6643 H   0  0  0  0  0  0
   19.7230   49.6120    9.4842 H   0  0  0  0  0  0
   21.7222   48.0913   12.2002 H   0  0  0  0  0  0
   20.3573   49.1233   12.6358 H   0  0  0  0  0  0
   20.2168   47.9886   11.3081 H   0  0  0  0  0  0
  1  6  1  0  0  0
  1  2  2  0  0  0
  1 12  1  0  0  0
  2  3  1  0  0  0
  2 13  1  0  0  0
  3  7  1  0  0  0
  3  4  2  0  0  0
  4  5  1  0  0  0
  4 14  1  0  0  0
  5  6  2  0  0  0
  5  8  1  0  0  0
  6  9  1  0  0  0
  7 10  1  0  0  0
  7 11  1  0  0  0
  7 15  1  0  0  0
  8 16  1  0  0  0
  9 17  1  0  0  0
  9 18  1  0  0  0
  9 19  1  0  0  0
 10 20  1  0  0  0
 10 21  1  0  0  0
 10 22  1  0  0  0
 11 23  1  0  0  0
 11 24  1  0  0  0
 11 25  1  0  0  0
M  END
> <s_m_entry_id>
5353

> <s_m_entry_name>
dock_pv.344

> <s_m_Source_Path>
/home/csk/Desktop/cluster/DUD-E-result/pgh1

> <s_m_Source_File>
dock_pv.maegz

> <i_m_Source_File_Index>
344

> <chembl_id>
CHEMBL281202

> <chembl_pref_name>
CARVACROL

> <i_lp_mmshare_version>
53161

> <r_lp_tautomer_probability>
0.999999999997365

> <s_lp_Force_Field>
OPLS_2005

> <r_lp_Energy>
5.353818

> <b_lp_Chiralities_Consistent>
1

> <s_lp_Variant>
CHEMBL221_lig675-1

> <s_i_glide_gridfile>
glide-grid_2oyu

> <i_i_glide_lignum>
834

> <i_i_glide_rotatable_bonds>
2

> <r_i_docking_score>
-7.95167542121278

> <r_i_glide_ligand_efficiency>
-0.722879583746617

> <r_i_glide_ligand_efficiency_sa>
-1.6076698008465

> <r_i_glide_ligand_efficiency_ln>
-2.34017672200477

> <r_i_glide_gscore>
-7.95167542121278

> <r_i_glide_lipo>
-3.10206063084616

> <r_i_glide_hbond>
-0.32

> <r_i_glide_metal>
0

> <r_i_glide_rewards>
-2.84622022716853

> <r_i_glide_evdw>
-23.1774578094482

> <r_i_glide_ecoul>
-3.49681115150452

> <r_i_glide_erotb>
0

> <r_i_glide_esite>
0

> <r_i_glide_emodel>
-38.1397133837026

> <r_i_glide_energy>
-26.6742689609528

> <r_i_glide_einternal>
0.607742369174957

> <i_i_glide_confnum>
1

> <i_i_glide_posenum>
62

> <r_i_glide_eff_state_penalty>
0

> <s_user_duplicate_titles>
CHEMBL221_lig675

> <i_f3d_flags>
0

> <s_m_subgroup_title>
dock_pv

> <s_m_subgroupid>
dock_pv

> <b_m_subgroup_collapsed>
1

$$$$
CHEMBL221_lig816
                    3D
 Schrodinger Suite 2021-1.
 26 27  0  0  1  0            999 V2000
   19.5625   47.8053   14.2937 C   0  0  0  0  0  0
   19.4284   47.5628   12.9286 C   0  0  0  0  0  0
   19.9262   48.4628   11.9861 C   0  0  0  0  0  0
   20.1956   48.9628   14.7390 C   0  0  0  0  0  0
   20.7009   49.8730   13.8093 C   0  0  0  0  0  0
   20.5893   49.6159   12.4343 C   0  0  0  0  0  0
   21.0366   50.5414   11.5012 O   0  0  0  0  0  0
   22.0988   51.4474   11.8896 C   0  0  1  0  0  0
   21.9548   51.9196   13.3499 C   0  0  0  0  0  0
   21.3230   51.1242   14.2333 C   0  0  0  0  0  0
   22.4624   53.2285   13.7072 C   0  0  0  0  0  0
   23.4428   53.7580   13.1977 O   0  0  0  0  0  0
   23.4965   50.9030   11.5457 C   0  0  0  0  0  0
   24.4990   51.7340   11.8208 F   0  0  0  0  0  0
   23.7230   49.7706   12.2000 F   0  0  0  0  0  0
   23.5682   50.6730   10.2398 F   0  0  0  0  0  0
   18.9308   46.6730   15.4264 Cl  0  0  0  0  0  0
   19.7230   48.1696   10.5698 C   0  0  0  0  0  0
   19.5713   47.8730    9.3943 C   0  0  0  0  0  0
   21.7230   53.8506   14.6638 O   0  0  0  0  0  0
   18.9230   46.6730   12.6007 H   0  0  0  0  0  0
   20.2809   49.1528   15.7998 H   0  0  0  0  0  0
   21.9490   52.2730   11.2123 H   0  0  0  0  0  0
   21.2022   51.4425   15.2608 H   0  0  0  0  0  0
   19.4379   47.6290    8.3638 H   0  0  0  0  0  0
   22.1737   54.6632   14.9088 H   0  0  0  0  0  0
  1  2  2  0  0  0
  1  4  1  0  0  0
  1 17  1  0  0  0
  2  3  1  0  0  0
  2 21  1  0  0  0
  3  6  2  0  0  0
  3 18  1  0  0  0
  4  5  2  0  0  0
  4 22  1  0  0  0
  5  6  1  0  0  0
  5 10  1  0  0  0
  6  7  1  0  0  0
  7  8  1  0  0  0
  8  9  1  0  0  0
  8 13  1  0  0  0
  8 23  1  0  0  0
  9 10  2  0  0  0
  9 11  1  0  0  0
 10 24  1  0  0  0
 11 12  2  0  0  0
 11 20  1  0  0  0
 13 14  1  0  0  0
 13 15  1  0  0  0
 13 16  1  0  0  0
 18 19  3  0  0  0
 19 25  1  0  0  0
 20 26  1  0  0  0
M  END
> <s_m_entry_id>
5354

> <s_m_entry_name>
dock_pv.345

> <s_m_Source_Path>
/home/csk/Desktop/cluster/DUD-E-result/pgh1

> <s_m_Source_File>
dock_pv.maegz

> <i_m_Source_File_Index>
345

> <chembl_id>
CHEMBL1288619

> <chembl_pref_name>
None

> <i_lp_mmshare_version>
53161

> <r_lp_tautomer_probability>
1

> <s_lp_Force_Field>
OPLS_2005

> <r_lp_Energy>
12.165355

> <b_lp_Chiralities_Consistent>
1

> <s_lp_Variant>
CHEMBL221_lig816-2

> <s_i_glide_gridfile>
glide-grid_2oyu

> <i_i_glide_lignum>
987

> <i_i_glide_rotatable_bonds>
4

> <r_i_docking_score>
-7.94643955268818

> <r_i_glide_ligand_efficiency>
-0.397321977634409

> <r_i_glide_ligand_efficiency_sa>
-1.0784977744742

> <r_i_glide_ligand_efficiency_ln>
-1.98873172892043

> <r_i_glide_gscore>
-7.94643955268818

> <r_i_glide_lipo>
-3.40226806751915

> <r_i_glide_hbond>
0

> <r_i_glide_metal>
0

> <r_i_glide_rewards>
-3.09703921507263

> <r_i_glide_evdw>
-31.3932800292969

> <r_i_glide_ecoul>
-1.86401522159576

> <r_i_glide_erotb>
0.402134014607802

> <r_i_glide_esite>
0

> <r_i_glide_emodel>
-46.975853105147

> <r_i_glide_energy>
-33.2572952508926

> <r_i_glide_einternal>
3.09430885314941

> <i_i_glide_confnum>
1

> <i_i_glide_posenum>
117

> <r_i_glide_eff_state_penalty>
0

> <s_user_duplicate_titles>
CHEMBL221_lig816

> <i_f3d_flags>
0

> <s_m_subgroup_title>
dock_pv

> <s_m_subgroupid>
dock_pv

> <b_m_subgroup_collapsed>
1

$$$$
CHEMBL221_lig120
                    3D
 Schrodinger Suite 2021-1.
 35 37  0  0  1  0            999 V2000
   20.9371   49.9930   13.4764 C   0  0  0  0  0  0
   20.0447   49.2769   12.7050 N   0  0  0  0  0  0
   19.6317   48.7595   14.8508 N   0  0  0  0  0  0
   19.2912   48.5616   13.6074 C   0  0  0  0  0  0
   20.6006   49.6528   14.7855 C   0  0  0  0  0  0
   20.0359   48.7560    6.7633 S   0  0  0  0  0  0
   22.0354   50.8438   12.9992 C   0  0  0  0  0  0
   19.9539   49.2166   11.3049 C   0  0  0  0  0  0
   20.0771   48.9745    8.5386 C   0  0  0  0  0  0
   22.1456   52.2562   13.4792 C   0  0  0  0  0  0
   19.4101   47.4730    6.6000 O   0  0  0  0  0  0
   21.3230   49.0730    6.1737 O   0  0  0  0  0  0
   24.0295   51.0730   11.6767 N   0  0  0  0  0  0
   20.1230   50.2297    9.1265 C   0  0  0  0  0  0
   19.7664   47.8661    9.3329 C   0  0  0  0  0  0
   20.1101   50.3590   10.5128 C   0  0  0  0  0  0
   19.7230   47.9797   10.7127 C   0  0  0  0  0  0
   21.3230   50.2730   16.2000 Cl  0  0  0  0  0  0
   22.9597   50.3353   12.1430 C   0  0  0  0  0  0
   18.9230   49.8697    5.9120 C   0  0  0  0  0  0
   23.3649   52.9432   13.0000 C   0  0  0  0  0  0
   21.3230   52.8142   14.2000 O   0  0  0  0  0  0
   24.2277   52.3548   12.1399 C   0  0  0  0  0  0
   18.5039   47.9076   13.2618 H   0  0  0  0  0  0
   20.1906   51.0730    8.4760 H   0  0  0  0  0  0
   19.6225   46.8906    8.8947 H   0  0  0  0  0  0
   20.2193   51.3346   10.9616 H   0  0  0  0  0  0
   19.5883   47.0942   11.3151 H   0  0  0  0  0  0
   22.9230   49.3117   11.8000 H   0  0  0  0  0  0
   19.0582   49.6686    4.8556 H   0  0  0  0  0  0
   19.3240   50.8030    6.2000 H   0  0  0  0  0  0
   17.8912   49.7291    6.2000 H   0  0  0  0  0  0
   23.5807   53.9391   13.3589 H   0  0  0  0  0  0
   24.7093   50.6528   11.0534 H   0  0  0  0  0  0
   25.1343   52.8342   11.8004 H   0  0  0  0  0  0
  1  2  1  0  0  0
  1  5  2  0  0  0
  1  7  1  0  0  0
  2  4  1  0  0  0
  2  8  1  0  0  0
  3  5  1  0  0  0
  3  4  2  0  0  0
  4 24  1  0  0  0
  5 18  1  0  0  0
  6  9  1  0  0  0
  6 11  2  0  0  0
  6 12  2  0  0  0
  6 20  1  0  0  0
  7 10  1  0  0  0
  7 19  2  0  0  0
  8 16  1  0  0  0
  8 17  2  0  0  0
  9 15  2  0  0  0
  9 14  1  0  0  0
 10 22  2  0  0  0
 10 21  1  0  0  0
 13 19  1  0  0  0
 13 34  1  0  0  0
 13 23  1  0  0  0
 14 16  2  0  0  0
 14 25  1  0  0  0
 15 17  1  0  0  0
 15 26  1  0  0  0
 16 27  1  0  0  0
 17 28  1  0  0  0
 19 29  1  0  0  0
 20 30  1  0  0  0
 20 31  1  0  0  0
 20 32  1  0  0  0
 21 23  2  0  0  0
 21 33  1  0  0  0
 23 35  1  0  0  0
M  END
> <s_m_entry_id>
5355

> <s_m_entry_name>
dock_pv.346

> <s_m_Source_Path>
/home/csk/Desktop/cluster/DUD-E-result/pgh1

> <s_m_Source_File>
dock_pv.maegz

> <i_m_Source_File_Index>
346

> <chembl_id>
CHEMBL324823

> <chembl_pref_name>
None

> <i_lp_mmshare_version>
53161

> <r_lp_tautomer_probability>
0.9995

> <s_lp_Force_Field>
OPLS_2005

> <r_lp_Energy>
11.391718

> <b_lp_Chiralities_Consistent>
1

> <s_lp_Variant>
CHEMBL221_lig120-1

> <s_i_glide_gridfile>
glide-grid_2oyu

> <i_i_glide_lignum>
142

> <i_i_glide_rotatable_bonds>
3

> <r_i_docking_score>
-7.94024047701387

> <r_i_glide_ligand_efficiency>
-0.34522784682669

> <r_i_glide_ligand_efficiency_sa>
-0.981782073089554

> <r_i_glide_ligand_efficiency_ln>
-1.92002214546197

> <r_i_glide_gscore>
-7.94024047701387

> <r_i_glide_lipo>
-3.83704512772971

> <r_i_glide_hbond>
-0.177928488195028

> <r_i_glide_metal>
0

> <r_i_glide_rewards>
-2.33320491947291

> <r_i_glide_evdw>
-18.266788482666

> <r_i_glide_ecoul>
-6.60107564926147

> <r_i_glide_erotb>
0.311438829906306

> <r_i_glide_esite>
0

> <r_i_glide_emodel>
-27.3903122352396

> <r_i_glide_energy>
-24.8678641319275

> <r_i_glide_einternal>
0.968814134597778

> <i_i_glide_confnum>
2

> <i_i_glide_posenum>
233

> <r_i_glide_eff_state_penalty>
0

> <s_user_duplicate_titles>
CHEMBL221_lig120

> <i_f3d_flags>
0

> <s_m_subgroup_title>
dock_pv

> <s_m_subgroupid>
dock_pv

> <b_m_subgroup_collapsed>
1

$$$$
CHEMBL221_lig603
                    3D
 Schrodinger Suite 2021-1.
 43 46  0  0  1  0            999 V2000
   19.4707   47.9349   10.4492 C   0  0  0  0  0  0
   20.0496   49.1425   10.0670 C   0  0  0  0  0  0
   20.4827   50.0405   11.0394 C   0  0  0  0  0  0
   19.3230   47.5812   11.7913 C   0  0  0  0  0  0
   19.8399   48.3434   14.1339 N   0  0  0  0  0  0
   19.8295   48.4427   12.7538 C   0  0  0  0  0  0
   20.4415   49.6658   12.3989 C   0  0  0  0  0  0
   20.9230   50.2454   13.6190 C   0  0  0  0  0  0
   20.5144   49.4301   14.6568 C   0  0  0  0  0  0
   20.6877   49.5967   16.1439 C   0  0  0  0  0  0
   21.6724   51.5145   13.7289 C   0  0  0  0  0  0
   22.8472   54.0757   13.8000 N   0  0  0  0  0  0
   21.7820   53.7620   14.5718 C   0  0  0  0  0  0
   21.2450   52.4844   14.6236 C   0  0  0  0  0  0
   19.1449   47.3103   14.9116 C   0  0  0  0  0  0
   17.7231   47.7142   15.3041 C   0  0  0  0  0  0
   16.9230   47.8732   14.2162 O   0  0  0  0  0  0
   17.3622   47.8730   16.4657 O   0  0  0  0  0  0
   23.3809   53.0904   13.0303 C   0  0  0  0  0  0
   22.7744   51.8064   12.8999 C   0  0  0  0  0  0
   23.2935   50.8949   11.9525 C   0  0  0  0  0  0
   24.3216   51.2793   11.1301 C   0  0  0  0  0  0
   25.0300   52.4288   11.4000 C   0  0  0  0  0  0
   24.5842   53.3370   12.3542 C   0  0  0  0  0  0
   26.5230   52.6730   10.6000 Cl  0  0  0  0  0  0
   20.1230   49.5176    8.5919 C   0  0  0  0  0  0
   19.0946   47.2652    9.6893 H   0  0  0  0  0  0
   20.9003   50.9918   10.7448 H   0  0  0  0  0  0
   18.8391   46.6730   12.0914 H   0  0  0  0  0  0
   21.4172   50.3628   16.4038 H   0  0  0  0  0  0
   19.7398   49.8730   16.6000 H   0  0  0  0  0  0
   21.0318   48.6730   16.6000 H   0  0  0  0  0  0
   21.4167   54.5473   15.2174 H   0  0  0  0  0  0
   20.4254   52.2730   15.2912 H   0  0  0  0  0  0
   19.1007   46.3886   14.3334 H   0  0  0  0  0  0
   19.7242   47.0674   15.8000 H   0  0  0  0  0  0
   16.0434   48.1524   14.4805 H   0  0  0  0  0  0
   22.8876   49.9054   11.8296 H   0  0  0  0  0  0
   24.6134   50.6363   10.3256 H   0  0  0  0  0  0
   25.1194   54.2567   12.5456 H   0  0  0  0  0  0
   19.3230   49.0730    8.0153 H   0  0  0  0  0  0
   20.9230   49.0730    8.0606 H   0  0  0  0  0  0
   20.1055   50.5958    8.4255 H   0  0  0  0  0  0
  1  2  2  0  0  0
  1  4  1  0  0  0
  1 27  1  0  0  0
  2  3  1  0  0  0
  2 26  1  0  0  0
  3  7  2  0  0  0
  3 28  1  0  0  0
  4  6  2  0  0  0
  4 29  1  0  0  0
  5 15  1  0  0  0
  5  6  1  0  0  0
  5  9  1  0  0  0
  6  7  1  0  0  0
  7  8  1  0  0  0
  8  9  2  0  0  0
  8 11  1  0  0  0
  9 10  1  0  0  0
 10 30  1  0  0  0
 10 31  1  0  0  0
 10 32  1  0  0  0
 11 14  1  0  0  0
 11 20  2  0  0  0
 12 19  2  0  0  0
 12 13  1  0  0  0
 13 14  2  0  0  0
 13 33  1  0  0  0
 14 34  1  0  0  0
 15 16  1  0  0  0
 15 35  1  0  0  0
 15 36  1  0  0  0
 16 17  1  0  0  0
 16 18  2  0  0  0
 17 37  1  0  0  0
 19 20  1  0  0  0
 19 24  1  0  0  0
 20 21  1  0  0  0
 21 22  2  0  0  0
 21 38  1  0  0  0
 22 23  1  0  0  0
 22 39  1  0  0  0
 23 24  2  0  0  0
 23 25  1  0  0  0
 24 40  1  0  0  0
 26 41  1  0  0  0
 26 42  1  0  0  0
 26 43  1  0  0  0
M  END
> <s_m_entry_id>
5356

> <s_m_entry_name>
dock_pv.347

> <s_m_Source_Path>
/home/csk/Desktop/cluster/DUD-E-result/pgh1

> <s_m_Source_File>
dock_pv.maegz

> <i_m_Source_File_Index>
347

> <chembl_id>
CHEMBL212777

> <chembl_pref_name>
None

> <i_lp_mmshare_version>
53161

> <r_lp_tautomer_probability>
1

> <s_lp_Force_Field>
OPLS_2005

> <r_lp_Energy>
18.423594

> <b_lp_Chiralities_Consistent>
1

> <s_lp_Variant>
CHEMBL221_lig603-1

> <s_i_glide_gridfile>
glide-grid_2oyu

> <i_i_glide_lignum>
742

> <i_i_glide_rotatable_bonds>
4

> <r_i_docking_score>
-7.93463309112003

> <r_i_glide_ligand_efficiency>
-0.305178195812309

> <r_i_glide_ligand_efficiency_sa>
-0.90408920427575

> <r_i_glide_ligand_efficiency_ln>
-1.86342254579481

> <r_i_glide_gscore>
-7.93463309112003

> <r_i_glide_lipo>
-4.8517592719433

> <r_i_glide_hbond>
0

> <r_i_glide_metal>
0

> <r_i_glide_rewards>
-2.53029171729472

> <r_i_glide_evdw>
-17.9364719390869

> <r_i_glide_ecoul>
-0.59455806016922

> <r_i_glide_erotb>
0.433425204097714

> <r_i_glide_esite>
0

> <r_i_glide_emodel>
-21.6314432974095

> <r_i_glide_energy>
-18.5310299992561

> <r_i_glide_einternal>
3.64139890670776

> <i_i_glide_confnum>
20

> <i_i_glide_posenum>
331

> <r_i_glide_eff_state_penalty>
0

> <s_user_duplicate_titles>
CHEMBL221_lig603,355203

> <i_f3d_flags>
0

> <s_m_subgroup_title>
dock_pv

> <s_m_subgroupid>
dock_pv

> <b_m_subgroup_collapsed>
1

$$$$
CHEMBL221_lig225
                    3D
 Schrodinger Suite 2021-1.
 40 42  0  0  1  0            999 V2000
   19.4203   48.3446   15.2838 S   0  0  0  0  0  0
   20.5230   49.6736   13.1424 C   0  0  0  0  0  0
   20.8307   49.3670   11.8135 C   0  0  0  0  0  0
   22.7206   50.8868   11.9180 C   0  0  0  0  0  0
   19.3904   49.0730   13.7044 N   0  0  0  0  0  0
   21.9731   49.9324   11.2232 C   0  0  0  0  0  0
   19.7230   48.2730   10.9235 S   0  0  0  0  0  0
   22.3733   51.2355   13.2155 C   0  0  0  0  0  0
   21.2994   50.6102   13.8381 C   0  0  0  0  0  0
   19.9220   48.6628    9.2215 C   0  0  0  0  0  0
   23.8984   51.6728   11.4843 C   0  0  0  0  0  0
   19.7230   47.6663    8.2669 C   0  0  0  0  0  0
   19.7667   47.9869    6.9204 C   0  0  0  0  0  0
   20.1230   47.0730   15.1246 O   0  0  0  0  0  0
   19.9147   49.3697   16.2000 O   0  0  0  0  0  0
   23.3032   52.2730   13.7700 C   0  0  0  0  0  0
   24.2389   52.6329   12.6177 C   0  0  0  0  0  0
   24.4943   51.6027   10.4155 O   0  0  0  0  0  0
   20.1230   49.9798    8.8018 C   0  0  0  0  0  0
   19.9558   49.2838    6.4921 C   0  0  0  0  0  0
   17.5777   48.0196   15.5462 C   0  0  0  0  0  0
   19.5439   46.3808    8.6190 F   0  0  0  0  0  0
   20.1230   50.2730    7.4377 C   0  0  0  0  0  0
   19.9833   49.5797    5.1772 F   0  0  0  0  0  0
   17.1734   48.2730   17.0000 C   0  0  0  0  0  0
   18.9762   48.4494   13.0269 H   0  0  0  0  0  0
   22.2473   49.6724   10.2137 H   0  0  0  0  0  0
   21.0450   50.9009   14.8438 H   0  0  0  0  0  0
   19.7244   47.2199    6.2000 H   0  0  0  0  0  0
   23.8832   51.8731   14.6000 H   0  0  0  0  0  0
   22.7786   53.1632   14.1210 H   0  0  0  0  0  0
   25.2894   52.5546   12.8956 H   0  0  0  0  0  0
   24.0679   53.6514   12.2723 H   0  0  0  0  0  0
   20.1908   50.7873    9.5137 H   0  0  0  0  0  0
   17.0247   48.6730   14.8721 H   0  0  0  0  0  0
   17.3833   46.9916   15.2419 H   0  0  0  0  0  0
   20.2009   51.2921    7.0982 H   0  0  0  0  0  0
   16.1230   48.0418   17.1624 H   0  0  0  0  0  0
   17.7489   47.6530   17.6874 H   0  0  0  0  0  0
   17.3230   49.3172   17.2775 H   0  0  0  0  0  0
  1  5  1  0  0  0
  1 14  2  0  0  0
  1 15  2  0  0  0
  1 21  1  0  0  0
  2  5  1  0  0  0
  2  3  1  0  0  0
  2  9  2  0  0  0
  3  6  2  0  0  0
  3  7  1  0  0  0
  4  8  2  0  0  0
  4 11  1  0  0  0
  4  6  1  0  0  0
  5 26  1  0  0  0
  6 27  1  0  0  0
  7 10  1  0  0  0
  8  9  1  0  0  0
  8 16  1  0  0  0
  9 28  1  0  0  0
 10 12  2  0  0  0
 10 19  1  0  0  0
 11 18  2  0  0  0
 11 17  1  0  0  0
 12 13  1  0  0  0
 12 22  1  0  0  0
 13 20  2  0  0  0
 13 29  1  0  0  0
 16 17  1  0  0  0
 16 30  1  0  0  0
 16 31  1  0  0  0
 17 32  1  0  0  0
 17 33  1  0  0  0
 19 23  2  0  0  0
 19 34  1  0  0  0
 20 23  1  0  0  0
 20 24  1  0  0  0
 21 25  1  0  0  0
 21 35  1  0  0  0
 21 36  1  0  0  0
 23 37  1  0  0  0
 25 38  1  0  0  0
 25 39  1  0  0  0
 25 40  1  0  0  0
M  END
> <s_m_entry_id>
5357

> <s_m_entry_name>
dock_pv.348

> <s_m_Source_Path>
/home/csk/Desktop/cluster/DUD-E-result/pgh1

> <s_m_Source_File>
dock_pv.maegz

> <i_m_Source_File_Index>
348

> <chembl_id>
CHEMBL357918

> <chembl_pref_name>
None

> <i_lp_mmshare_version>
53161

> <r_lp_tautomer_probability>
0.99995

> <s_lp_Force_Field>
OPLS_2005

> <r_lp_Energy>
21.301128

> <b_lp_Chiralities_Consistent>
1

> <s_lp_Variant>
CHEMBL221_lig225-1

> <s_i_glide_gridfile>
glide-grid_2oyu

> <i_i_glide_lignum>
253

> <i_i_glide_rotatable_bonds>
5

> <r_i_docking_score>
-7.93175928075693

> <r_i_glide_ligand_efficiency>
-0.317270371230277

> <r_i_glide_ligand_efficiency_sa>
-0.927704192291323

> <r_i_glide_ligand_efficiency_ln>
-1.88006464518418

> <r_i_glide_gscore>
-7.93175928075693

> <r_i_glide_lipo>
-4.40972390163698

> <r_i_glide_hbond>
0

> <r_i_glide_metal>
0

> <r_i_glide_rewards>
-2.7927984200194

> <r_i_glide_evdw>
-22.081392288208

> <r_i_glide_ecoul>
-0.881372809410095

> <r_i_glide_erotb>
0.528684807454762

> <r_i_glide_esite>
-0.0216462307333938

> <r_i_glide_emodel>
-20.9357854777463

> <r_i_glide_energy>
-22.9627650976181

> <r_i_glide_einternal>
15.1001996994019

> <i_i_glide_confnum>
8

> <i_i_glide_posenum>
46

> <r_i_glide_eff_state_penalty>
0

> <s_user_duplicate_titles>
CHEMBL221_lig225

> <i_f3d_flags>
0

> <s_m_subgroup_title>
dock_pv

> <s_m_subgroupid>
dock_pv

> <b_m_subgroup_collapsed>
1

$$$$
CHEMBL221_lig880
                    3D
 Schrodinger Suite 2021-1.
 23 25  0  0  1  0            999 V2000
   23.0867   52.1622   13.5697 C   0  0  0  0  0  0
   23.9943   52.6116   12.6121 C   0  0  0  0  0  0
   23.9880   52.0493   11.3383 C   0  0  0  0  0  0
   23.0492   51.0702   11.0143 C   0  0  0  0  0  0
   22.1297   50.6194   11.9649 C   0  0  0  0  0  0
   20.8777   49.4732   11.4660 S   0  0  0  0  0  0
   20.2122   48.9169   13.0086 C   0  0  0  0  0  0
   19.3066   47.8513   13.0071 C   0  0  0  0  0  0
   18.7382   47.4034   14.2005 C   0  0  0  0  0  0
   19.0806   48.0063   15.4062 C   0  0  0  0  0  0
   19.9755   49.0727   15.4193 C   0  0  0  0  0  0
   20.5225   49.5478   14.2265 C   0  0  0  0  0  0
   21.3553   50.6741   14.2976 N   0  0  0  0  0  0
   22.1730   51.1532   13.2631 C   0  0  0  0  0  0
   23.1093   52.5866   14.5618 H   0  0  0  0  0  0
   24.7072   53.3838   12.8623 H   0  0  0  0  0  0
   24.6949   52.3837   10.5926 H   0  0  0  0  0  0
   23.0350   50.6644   10.0144 H   0  0  0  0  0  0
   19.0311   47.3745   12.0767 H   0  0  0  0  0  0
   18.0217   46.5966   14.2010 H   0  0  0  0  0  0
   18.6378   47.6600   16.3288 H   0  0  0  0  0  0
   20.2162   49.5480   16.3589 H   0  0  0  0  0  0
   21.4396   51.1286   15.1935 H   0  0  0  0  0  0
  1  2  1  0  0  0
  1 14  2  0  0  0
  1 15  1  0  0  0
  2  3  2  0  0  0
  2 16  1  0  0  0
  3  4  1  0  0  0
  3 17  1  0  0  0
  4  5  2  0  0  0
  4 18  1  0  0  0
  5  6  1  0  0  0
  5 14  1  0  0  0
  6  7  1  0  0  0
  7  8  1  0  0  0
  7 12  2  0  0  0
  8  9  2  0  0  0
  8 19  1  0  0  0
  9 10  1  0  0  0
  9 20  1  0  0  0
 10 11  2  0  0  0
 10 21  1  0  0  0
 11 12  1  0  0  0
 11 22  1  0  0  0
 12 13  1  0  0  0
 13 14  1  0  0  0
 13 23  1  0  0  0
M  END
> <s_m_entry_id>
5358

> <s_m_entry_name>
dock_pv.349

> <s_m_Source_Path>
/home/csk/Desktop/cluster/DUD-E-result/pgh1

> <s_m_Source_File>
dock_pv.maegz

> <i_m_Source_File_Index>
349

> <chembl_id>
CHEMBL828

> <chembl_pref_name>
PHENOTHIAZINE

> <i_lp_mmshare_version>
53161

> <r_lp_tautomer_probability>
1

> <s_lp_Force_Field>
OPLS_2005

> <r_lp_Energy>
12.882392

> <b_lp_Chiralities_Consistent>
1

> <s_lp_Variant>
CHEMBL221_lig880-1

> <s_i_glide_gridfile>
glide-grid_2oyu

> <i_i_glide_lignum>
1086

> <i_i_glide_rotatable_bonds>
0

> <r_i_docking_score>
-7.9312543610178

> <r_i_glide_ligand_efficiency>
-0.566518168644129

> <r_i_glide_ligand_efficiency_sa>
-1.36538938047125

> <r_i_glide_ligand_efficiency_ln>
-2.1794804650292

> <r_i_glide_gscore>
-7.9312543610178

> <r_i_glide_lipo>
-3.73085312480372

> <r_i_glide_hbond>
0

> <r_i_glide_metal>
0

> <r_i_glide_rewards>
-2.5773699299473

> <r_i_glide_evdw>
-30.1612377166748

> <r_i_glide_ecoul>
-0.766462802886963

> <r_i_glide_erotb>
0

> <r_i_glide_esite>
0

> <r_i_glide_emodel>
-44.352150291944

> <r_i_glide_energy>
-30.9277005195618

> <r_i_glide_einternal>
0

> <i_i_glide_confnum>
1

> <i_i_glide_posenum>
357

> <r_i_glide_eff_state_penalty>
0

> <s_user_duplicate_titles>
CHEMBL221_lig880,57493

> <i_f3d_flags>
0

> <s_m_subgroup_title>
dock_pv

> <s_m_subgroupid>
dock_pv

> <b_m_subgroup_collapsed>
1

$$$$
CHEMBL221_lig447
                    3D
 Schrodinger Suite 2021-1.
 41 43  0  0  1  0            999 V2000
   20.6917   49.7277   13.3572 C   0  0  0  0  0  0
   20.0026   48.9723    6.4798 S   0  0  0  0  0  0
   19.8593   49.0568   12.5358 C   0  0  0  0  0  0
   21.8452   50.5489   12.9259 C   0  0  0  0  0  0
   20.4091   49.4239   14.7582 C   0  0  0  0  0  0
   18.8188   48.2752   13.3038 C   0  0  0  0  0  0
   20.1031   49.0619    8.2712 C   0  0  0  0  0  0
   19.8722   49.1045   11.0582 C   0  0  0  0  0  0
   21.3229   49.0730    5.8664 O   0  0  0  0  0  0
   19.1134   47.8735    6.2003 O   0  0  0  0  0  0
   21.9362   51.9209   13.2040 C   0  0  0  0  0  0
   19.1899   48.5118   14.7643 C   0  0  0  0  0  0
   23.9386   50.6733   11.7041 N   0  0  0  0  0  0
   21.0320   49.8316   15.7340 O   0  0  0  0  0  0
   19.8471   47.8797    8.9746 C   0  0  0  0  0  0
   20.1230   50.2770    8.9563 C   0  0  0  0  0  0
   19.7229   47.9107   10.3567 C   0  0  0  0  0  0
   20.0691   50.2941   10.3472 C   0  0  0  0  0  0
   22.8740   49.9763   12.1695 C   0  0  0  0  0  0
   18.9826   50.2775    5.8011 C   0  0  0  0  0  0
   23.0307   52.6544   12.7348 C   0  0  0  0  0  0
   20.9404   52.5555   13.9049 O   0  0  0  0  0  0
   24.0049   51.9967   11.9862 C   0  0  0  0  0  0
   21.3186   52.9376   15.2212 C   0  0  0  0  0  0
   18.8405   47.2102   13.0702 H   0  0  0  0  0  0
   17.8105   48.6333   13.0911 H   0  0  0  0  0  0
   19.4334   47.5808   15.2745 H   0  0  0  0  0  0
   18.3755   48.9831   15.3161 H   0  0  0  0  0  0
   19.7452   46.9408    8.4510 H   0  0  0  0  0  0
   20.2202   51.1981    8.4037 H   0  0  0  0  0  0
   19.5727   46.9949   10.8959 H   0  0  0  0  0  0
   20.1465   51.2383   10.8667 H   0  0  0  0  0  0
   22.8527   48.9283   11.9112 H   0  0  0  0  0  0
   19.1840   50.2537    4.7356 H   0  0  0  0  0  0
   17.9330   50.0890    6.0213 H   0  0  0  0  0  0
   19.3213   51.1979    6.1999 H   0  0  0  0  0  0
   23.1109   53.7123   12.9413 H   0  0  0  0  0  0
   24.8635   52.5274   11.6002 H   0  0  0  0  0  0
   20.8337   52.3065   15.9620 H   0  0  0  0  0  0
   22.3795   52.8398   15.3730 H   0  0  0  0  0  0
   21.0142   53.9614   15.4478 H   0  0  0  0  0  0
  1  3  2  0  0  0
  1  4  1  0  0  0
  1  5  1  0  0  0
  2  7  1  0  0  0
  2  9  2  0  0  0
  2 10  2  0  0  0
  2 20  1  0  0  0
  3  6  1  0  0  0
  3  8  1  0  0  0
  4 11  1  0  0  0
  4 19  2  0  0  0
  5 12  1  0  0  0
  5 14  2  0  0  0
  6 12  1  0  0  0
  6 25  1  0  0  0
  6 26  1  0  0  0
  7 16  2  0  0  0
  7 15  1  0  0  0
  8 17  1  0  0  0
  8 18  2  0  0  0
 11 21  2  0  0  0
 11 22  1  0  0  0
 12 27  1  0  0  0
 12 28  1  0  0  0
 13 19  1  0  0  0
 13 23  2  0  0  0
 15 17  2  0  0  0
 15 29  1  0  0  0
 16 18  1  0  0  0
 16 30  1  0  0  0
 17 31  1  0  0  0
 18 32  1  0  0  0
 19 33  1  0  0  0
 20 34  1  0  0  0
 20 35  1  0  0  0
 20 36  1  0  0  0
 21 23  1  0  0  0
 21 37  1  0  0  0
 22 24  1  0  0  0
 23 38  1  0  0  0
 24 39  1  0  0  0
 24 40  1  0  0  0
 24 41  1  0  0  0
M  END
> <s_m_entry_id>
5359

> <s_m_entry_name>
dock_pv.350

> <s_m_Source_Path>
/home/csk/Desktop/cluster/DUD-E-result/pgh1

> <s_m_Source_File>
dock_pv.maegz

> <i_m_Source_File_Index>
350

> <chembl_id>
CHEMBL23241

> <chembl_pref_name>
None

> <i_lp_mmshare_version>
53161

> <r_lp_tautomer_probability>
0.499977396165832

> <s_lp_Force_Field>
OPLS_2005

> <r_lp_Energy>
17.971541

> <b_lp_Chiralities_Consistent>
1

> <s_lp_Variant>
CHEMBL221_lig447-1

> <s_i_glide_gridfile>
glide-grid_2oyu

> <i_i_glide_lignum>
530

> <i_i_glide_rotatable_bonds>
4

> <r_i_docking_score>
-7.92984359531989

> <r_i_glide_ligand_efficiency>
-0.330410149804995

> <r_i_glide_ligand_efficiency_sa>
-0.953067792153288

> <r_i_glide_ligand_efficiency_ln>
-1.89797544917211

> <r_i_glide_gscore>
-7.92984359531989

> <r_i_glide_lipo>
-4.13441383533502

> <r_i_glide_hbond>
0

> <r_i_glide_metal>
0

> <r_i_glide_rewards>
-2.38597045026024

> <r_i_glide_evdw>
-15.1103563308716

> <r_i_glide_ecoul>
-6.03586864471436

> <r_i_glide_erotb>
0.32181394412006

> <r_i_glide_esite>
-0.0703751405939485

> <r_i_glide_emodel>
-45.3071657692865

> <r_i_glide_energy>
-21.1462249755859

> <r_i_glide_einternal>
1.89955449104309

> <i_i_glide_confnum>
15

> <i_i_glide_posenum>
86

> <r_i_glide_eff_state_penalty>
0

> <s_user_duplicate_titles>
CHEMBL221_lig447,30509

> <i_f3d_flags>
0

> <s_m_subgroup_title>
dock_pv

> <s_m_subgroupid>
dock_pv

> <b_m_subgroup_collapsed>
1

$$$$
CHEMBL221_lig944
                    3D
 Schrodinger Suite 2021-1.
 28 30  0  0  1  0            999 V2000
   19.5426   48.6730   14.4783 C   0  0  0  0  0  0
   20.2206   49.3848   13.4945 C   0  0  0  0  0  0
   21.0493   50.2460   14.2473 C   0  0  0  0  0  0
   20.9230   50.0690   15.5431 N   0  0  0  0  0  0
   19.9856   49.0549   15.7011 O   0  0  0  0  0  0
   20.0919   49.2734   12.0020 C   0  0  0  0  0  0
   18.4599   47.6201   14.4815 C   0  0  0  0  0  0
   19.7230   48.0612   11.4058 C   0  0  0  0  0  0
   19.7230   47.9335   10.0182 C   0  0  0  0  0  0
   20.1230   49.0028    9.2246 C   0  0  0  0  0  0
   20.4098   50.2321    9.8000 C   0  0  0  0  0  0
   20.3714   50.3730   11.1808 C   0  0  0  0  0  0
   21.9592   51.2620   13.7546 C   0  0  0  0  0  0
   22.8150   50.9041   12.7590 O   0  0  0  0  0  0
   23.5203   52.0093   12.4075 C   0  0  0  0  0  0
   23.1524   53.0730   13.2127 C   0  0  0  0  0  0
   22.1568   52.5982   14.0683 C   0  0  0  0  0  0
   24.6357   51.8730   11.1093 Cl  0  0  0  0  0  0
   20.1230   48.8722    7.8794 F   0  0  0  0  0  0
   17.8385   47.6715   13.5876 H   0  0  0  0  0  0
   18.8758   46.6152   14.5385 H   0  0  0  0  0  0
   17.7881   47.7410   15.3316 H   0  0  0  0  0  0
   19.4781   47.1964   12.0025 H   0  0  0  0  0  0
   19.4516   46.9994    9.5537 H   0  0  0  0  0  0
   20.6409   51.0730    9.1680 H   0  0  0  0  0  0
   20.5877   51.3435   11.5972 H   0  0  0  0  0  0
   23.5508   54.0768   13.1806 H   0  0  0  0  0  0
   21.6364   53.1664   14.8258 H   0  0  0  0  0  0
  1  2  2  0  0  0
  1  5  1  0  0  0
  1  7  1  0  0  0
  2  3  1  0  0  0
  2  6  1  0  0  0
  3  4  2  0  0  0
  3 13  1  0  0  0
  4  5  1  0  0  0
  6  8  2  0  0  0
  6 12  1  0  0  0
  7 20  1  0  0  0
  7 21  1  0  0  0
  7 22  1  0  0  0
  8  9  1  0  0  0
  8 23  1  0  0  0
  9 10  2  0  0  0
  9 24  1  0  0  0
 10 11  1  0  0  0
 10 19  1  0  0  0
 11 12  2  0  0  0
 11 25  1  0  0  0
 12 26  1  0  0  0
 13 14  1  0  0  0
 13 17  2  0  0  0
 14 15  1  0  0  0
 15 16  2  0  0  0
 15 18  1  0  0  0
 16 17  1  0  0  0
 16 27  1  0  0  0
 17 28  1  0  0  0
M  END
> <s_m_entry_id>
5360

> <s_m_entry_name>
dock_pv.351

> <s_m_Source_Path>
/home/csk/Desktop/cluster/DUD-E-result/pgh1

> <s_m_Source_File>
dock_pv.maegz

> <i_m_Source_File_Index>
351

> <chembl_id>
CHEMBL2380866

> <chembl_pref_name>
None

> <i_lp_mmshare_version>
53161

> <r_lp_tautomer_probability>
1

> <s_lp_Force_Field>
OPLS_2005

> <r_lp_Energy>
9.086677

> <b_lp_Chiralities_Consistent>
1

> <s_lp_Variant>
CHEMBL221_lig944-1

> <s_i_glide_gridfile>
glide-grid_2oyu

> <i_i_glide_lignum>
1172

> <i_i_glide_rotatable_bonds>
2

> <r_i_docking_score>
-7.92041425998519

> <r_i_glide_ligand_efficiency>
-0.416863908420273

> <r_i_glide_ligand_efficiency_sa>
-1.11236033942957

> <r_i_glide_ligand_efficiency_ln>
-2.00799512980651

> <r_i_glide_gscore>
-7.92041425998519

> <r_i_glide_lipo>
-4.16865672733535

> <r_i_glide_hbond>
0

> <r_i_glide_metal>
0

> <r_i_glide_rewards>
-2.47505725311597

> <r_i_glide_evdw>
-33.8535614013672

> <r_i_glide_ecoul>
-0.341699838638306

> <r_i_glide_erotb>
0.467232766330238

> <r_i_glide_esite>
0

> <r_i_glide_emodel>
-48.6742713379415

> <r_i_glide_energy>
-34.1952612400055

> <r_i_glide_einternal>
0.995046555995941

> <i_i_glide_confnum>
4

> <i_i_glide_posenum>
291

> <r_i_glide_eff_state_penalty>
0

> <s_user_duplicate_titles>
CHEMBL221_lig944

> <i_f3d_flags>
0

> <s_m_subgroup_title>
dock_pv

> <s_m_subgroupid>
dock_pv

> <b_m_subgroup_collapsed>
1

$$$$
CHEMBL221_lig86
                    3D
 Schrodinger Suite 2021-1.
 38 41  0  0  1  0            999 V2000
   20.4402   49.3706   13.0164 C   0  0  0  0  0  0
   21.4706   50.3126   12.8486 C   0  0  0  0  0  0
   19.7552   48.7767   11.9767 N   0  0  0  0  0  0
   18.9365   48.0029   13.9448 N   0  0  0  0  0  0
   19.9243   48.8342   14.1923 C   0  0  0  0  0  0
   18.8499   47.9923   12.6419 C   0  0  0  0  0  0
   19.9519   49.0359    5.9569 S   0  0  0  0  0  0
   22.2702   50.0891   11.7769 O   0  0  0  0  0  0
   21.8476   51.4389   13.5604 C   0  0  0  0  0  0
   23.1569   51.1016   11.7673 C   0  0  0  0  0  0
   22.9902   51.9452   12.8839 C   0  0  0  0  0  0
   19.8795   48.8837   10.5607 C   0  0  0  0  0  0
   19.9287   48.9634    7.7502 C   0  0  0  0  0  0
   20.5211   47.8397    5.3818 O   0  0  0  0  0  0
   20.6094   50.2730    5.6144 O   0  0  0  0  0  0
   19.7230   47.7613    8.4038 C   0  0  0  0  0  0
   20.1230   50.1253    8.5096 C   0  0  0  0  0  0
   19.7230   47.7297    9.7912 C   0  0  0  0  0  0
   20.1229   50.0952    9.9057 C   0  0  0  0  0  0
   20.4388   49.1586   15.8000 Cl  0  0  0  0  0  0
   18.1824   49.0251    5.4000 C   0  0  0  0  0  0
   24.1239   51.2959   10.7950 C   0  0  0  0  0  0
   23.8902   52.9972   13.0557 C   0  0  0  0  0  0
   25.0757   52.2730   11.0634 C   0  0  0  0  0  0
   24.9818   53.0730   12.2001 C   0  0  0  0  0  0
   18.1230   47.4730   12.0601 H   0  0  0  0  0  0
   21.3735   51.8146   14.4545 H   0  0  0  0  0  0
   19.6087   46.8580    7.8406 H   0  0  0  0  0  0
   20.1652   51.0733    8.0026 H   0  0  0  0  0  0
   19.7230   46.7801   10.2773 H   0  0  0  0  0  0
   20.2244   51.0179   10.4590 H   0  0  0  0  0  0
   18.1587   49.0730    4.3168 H   0  0  0  0  0  0
   17.6717   49.8730    5.8260 H   0  0  0  0  0  0
   17.7230   48.0994    5.7271 H   0  0  0  0  0  0
   24.1700   50.6730    9.9171 H   0  0  0  0  0  0
   23.7687   53.7205   13.8369 H   0  0  0  0  0  0
   25.9148   52.4084   10.4013 H   0  0  0  0  0  0
   25.7303   53.8251   12.3998 H   0  0  0  0  0  0
  1  2  1  0  0  0
  1  3  1  0  0  0
  1  5  2  0  0  0
  2  8  1  0  0  0
  2  9  2  0  0  0
  3  6  1  0  0  0
  3 12  1  0  0  0
  4  5  1  0  0  0
  4  6  2  0  0  0
  5 20  1  0  0  0
  6 26  1  0  0  0
  7 13  1  0  0  0
  7 14  2  0  0  0
  7 15  2  0  0  0
  7 21  1  0  0  0
  8 10  1  0  0  0
  9 11  1  0  0  0
  9 27  1  0  0  0
 10 22  1  0  0  0
 10 11  2  0  0  0
 11 23  1  0  0  0
 12 18  2  0  0  0
 12 19  1  0  0  0
 13 17  1  0  0  0
 13 16  2  0  0  0
 16 18  1  0  0  0
 16 28  1  0  0  0
 17 19  2  0  0  0
 17 29  1  0  0  0
 18 30  1  0  0  0
 19 31  1  0  0  0
 21 32  1  0  0  0
 21 33  1  0  0  0
 21 34  1  0  0  0
 22 24  2  0  0  0
 22 35  1  0  0  0
 23 25  2  0  0  0
 23 36  1  0  0  0
 24 25  1  0  0  0
 24 37  1  0  0  0
 25 38  1  0  0  0
M  END
> <s_m_entry_id>
5361

> <s_m_entry_name>
dock_pv.352

> <s_m_Source_Path>
/home/csk/Desktop/cluster/DUD-E-result/pgh1

> <s_m_Source_File>
dock_pv.maegz

> <i_m_Source_File_Index>
352

> <chembl_id>
CHEMBL324841

> <chembl_pref_name>
None

> <i_lp_mmshare_version>
53161

> <r_lp_tautomer_probability>
1

> <s_lp_Force_Field>
OPLS_2005

> <r_lp_Energy>
8.823383

> <b_lp_Chiralities_Consistent>
1

> <s_lp_Variant>
CHEMBL221_lig86-1

> <s_i_glide_gridfile>
glide-grid_2oyu

> <i_i_glide_lignum>
103

> <i_i_glide_rotatable_bonds>
3

> <r_i_docking_score>
-7.91555762569364

> <r_i_glide_ligand_efficiency>
-0.316622305027746

> <r_i_glide_ligand_efficiency_sa>
-0.925809235221618

> <r_i_glide_ligand_efficiency_ln>
-1.87622436740975

> <r_i_glide_gscore>
-7.91555762569364

> <r_i_glide_lipo>
-4.42936085045351

> <r_i_glide_hbond>
0

> <r_i_glide_metal>
0

> <r_i_glide_rewards>
-2.58603056976028

> <r_i_glide_evdw>
-11.0943727493286

> <r_i_glide_ecoul>
-4.0541877746582

> <r_i_glide_erotb>
0.277963831143873

> <r_i_glide_esite>
-0.0152832329585557

> <r_i_glide_emodel>
-24.3233987477006

> <r_i_glide_energy>
-15.1485605239868

> <r_i_glide_einternal>
0.796312272548676

> <i_i_glide_confnum>
14

> <i_i_glide_posenum>
193

> <r_i_glide_eff_state_penalty>
0

> <s_user_duplicate_titles>
CHEMBL221_lig86

> <i_f3d_flags>
0

> <s_m_subgroup_title>
dock_pv

> <s_m_subgroupid>
dock_pv

> <b_m_subgroup_collapsed>
1

$$$$
CHEMBL221_lig615
                    3D
 Schrodinger Suite 2021-1.
 30 31  0  0  1  0            999 V2000
   19.4332   47.9043   11.7118 C   0  0  0  0  0  0
   19.6702   48.2773   10.3892 C   0  0  0  0  0  0
   20.2076   49.4730   10.0511 N   0  0  0  0  0  0
   20.6072   50.2856   11.0579 C   0  0  0  0  0  0
   20.5303   49.9292   12.4121 C   0  0  0  0  0  0
   19.8302   48.7595   12.7461 C   0  0  0  0  0  0
   19.5079   48.4806   14.0830 N   0  0  0  0  0  0
   18.0666   47.5376   14.5107 S   0  0  0  0  0  0
   17.5969   48.1415   16.2290 C   0  0  0  0  0  0
   18.5230   46.1449   14.6000 O   0  0  0  0  0  0
   17.0043   47.9301   13.5806 O   0  0  0  0  0  0
   21.3230   50.9123   13.6768 S   0  0  0  0  0  0
   22.7673   51.5867   12.9179 C   0  0  0  0  0  0
   23.4128   50.9248   11.8730 C   0  0  0  0  0  0
   24.5010   51.5179   11.2614 C   0  0  0  0  0  0
   25.0445   52.6730   11.8000 C   0  0  0  0  0  0
   24.4364   53.3219   12.8698 C   0  0  0  0  0  0
   23.2661   52.7942   13.4000 C   0  0  0  0  0  0
   17.3613   49.4505   16.2000 F   0  0  0  0  0  0
   18.6264   47.8730   17.0000 F   0  0  0  0  0  0
   16.5230   47.4730   16.6389 F   0  0  0  0  0  0
   18.9230   46.9800   11.9222 H   0  0  0  0  0  0
   19.3611   47.6409    9.5724 H   0  0  0  0  0  0
   21.0534   51.2189   10.7473 H   0  0  0  0  0  0
   19.7829   49.1904   14.7454 H   0  0  0  0  0  0
   23.0716   49.9708   11.5035 H   0  0  0  0  0  0
   24.9230   51.0730   10.3804 H   0  0  0  0  0  0
   25.9538   53.0730   11.3798 H   0  0  0  0  0  0
   24.8525   54.2367   13.2674 H   0  0  0  0  0  0
   22.7704   53.3074   14.2105 H   0  0  0  0  0  0
  1  6  1  0  0  0
  1  2  2  0  0  0
  1 22  1  0  0  0
  2  3  1  0  0  0
  2 23  1  0  0  0
  3  4  2  0  0  0
  4  5  1  0  0  0
  4 24  1  0  0  0
  5  6  2  0  0  0
  5 12  1  0  0  0
  6  7  1  0  0  0
  7  8  1  0  0  0
  7 25  1  0  0  0
  8 11  2  0  0  0
  8  9  1  0  0  0
  8 10  2  0  0  0
  9 19  1  0  0  0
  9 20  1  0  0  0
  9 21  1  0  0  0
 12 13  1  0  0  0
 13 14  2  0  0  0
 13 18  1  0  0  0
 14 15  1  0  0  0
 14 26  1  0  0  0
 15 16  2  0  0  0
 15 27  1  0  0  0
 16 17  1  0  0  0
 16 28  1  0  0  0
 17 18  2  0  0  0
 17 29  1  0  0  0
 18 30  1  0  0  0
M  END
> <s_m_entry_id>
5362

> <s_m_entry_name>
dock_pv.353

> <s_m_Source_Path>
/home/csk/Desktop/cluster/DUD-E-result/pgh1

> <s_m_Source_File>
dock_pv.maegz

> <i_m_Source_File_Index>
353

> <chembl_id>
CHEMBL224612

> <chembl_pref_name>
None

> <i_lp_mmshare_version>
53161

> <r_lp_tautomer_probability>
1

> <s_lp_Force_Field>
OPLS_2005

> <r_lp_Energy>
5.479684

> <b_lp_Chiralities_Consistent>
1

> <s_lp_Variant>
CHEMBL221_lig615-1

> <s_i_glide_gridfile>
glide-grid_2oyu

> <i_i_glide_lignum>
754

> <i_i_glide_rotatable_bonds>
5

> <r_i_docking_score>
-7.91447796545389

> <r_i_glide_ligand_efficiency>
-0.376879903116852

> <r_i_glide_ligand_efficiency_sa>
-1.03978307524604

> <r_i_glide_ligand_efficiency_ln>
-1.9568386842499

> <r_i_glide_gscore>
-7.91447796545389

> <r_i_glide_lipo>
-3.97414230174213

> <r_i_glide_hbond>
0

> <r_i_glide_metal>
0

> <r_i_glide_rewards>
-2.59024911182598

> <r_i_glide_evdw>
-34.4638175964355

> <r_i_glide_ecoul>
-1.99867403507233

> <r_i_glide_erotb>
0.67485363427015

> <r_i_glide_esite>
-0.00194820107330855

> <r_i_glide_emodel>
-49.4599834849961

> <r_i_glide_energy>
-36.4624916315079

> <r_i_glide_einternal>
7.49785137176514

> <i_i_glide_confnum>
3

> <i_i_glide_posenum>
213

> <r_i_glide_eff_state_penalty>
0

> <s_user_duplicate_titles>
CHEMBL221_lig615,374351

> <i_f3d_flags>
0

> <s_m_subgroup_title>
dock_pv

> <s_m_subgroupid>
dock_pv

> <b_m_subgroup_collapsed>
1

$$$$
CHEMBL221_lig808
                    3D
 Schrodinger Suite 2021-1.
 38 39  0  0  1  0            999 V2000
   20.9230   50.0263   13.9451 C   0  0  0  0  0  0
   21.2375   49.8736   12.5904 C   0  0  0  0  0  0
   22.1326   50.7411   11.9623 C   0  0  0  0  0  0
   22.7575   51.7764   12.6825 C   0  0  0  0  0  0
   22.3636   51.9568   14.0178 C   0  0  0  0  0  0
   21.4683   51.0988   14.6421 C   0  0  0  0  0  0
   20.0193   49.0530   14.6964 C   0  0  0  0  0  0
   18.7760   48.5564   13.9134 C   0  0  1  0  0  0
   18.9360   47.1280   13.3737 C   0  0  2  0  0  0
   18.5322   46.2087   14.5389 C   0  0  0  0  0  0
   17.5583   47.0199   15.3999 C   0  0  0  0  0  0
   17.5079   48.4176   14.7794 C   0  0  0  0  0  0
   20.1229   46.7597   12.6960 O   0  0  0  0  0  0
   23.8393   52.6763   12.0194 C   0  0  2  0  0  0
   24.8255   51.8710   11.1359 C   0  0  0  0  0  0
   24.5749   53.6311   13.0002 C   0  0  0  0  0  0
   23.7745   54.6589   13.4000 O   0  0  0  0  0  0
   25.7225   53.4726   13.3999 O   0  0  0  0  0  0
   22.3916   50.5493   10.6487 F   0  0  0  0  0  0
   20.8058   49.0767   12.0094 H   0  0  0  0  0  0
   22.7610   52.7617   14.6066 H   0  0  0  0  0  0
   21.2236   51.2613   15.6817 H   0  0  0  0  0  0
   20.6295   48.2097   15.0157 H   0  0  0  0  0  0
   19.7051   49.5193   15.6298 H   0  0  0  0  0  0
   18.5525   49.2452   13.0959 H   0  0  0  0  0  0
   18.1658   47.0729   12.6043 H   0  0  0  0  0  0
   18.1243   45.2522   14.2135 H   0  0  0  0  0  0
   19.4087   45.9662   15.1371 H   0  0  0  0  0  0
   16.5656   46.5676   15.4122 H   0  0  0  0  0  0
   17.9141   47.0736   16.4299 H   0  0  0  0  0  0
   17.4249   49.1778   15.5552 H   0  0  0  0  0  0
   16.6213   48.5121   14.1492 H   0  0  0  0  0  0
   19.9695   46.8738   11.7531 H   0  0  0  0  0  0
   23.3229   53.3436   11.3370 H   0  0  0  0  0  0
   24.9231   50.8524   11.5111 H   0  0  0  0  0  0
   24.4550   51.7829   10.1146 H   0  0  0  0  0  0
   25.8221   52.3080   11.0552 H   0  0  0  0  0  0
   24.2150   55.2477   14.0178 H   0  0  0  0  0  0
  1  6  1  0  0  0
  1  2  2  0  0  0
  1  7  1  0  0  0
  2  3  1  0  0  0
  2 20  1  0  0  0
  3  4  2  0  0  0
  3 19  1  0  0  0
  4  5  1  0  0  0
  4 14  1  0  0  0
  5  6  2  0  0  0
  5 21  1  0  0  0
  6 22  1  0  0  0
  7  8  1  0  0  0
  7 23  1  0  0  0
  7 24  1  0  0  0
  8 12  1  0  0  0
  8  9  1  0  0  0
  8 25  1  0  0  0
  9 10  1  0  0  0
  9 13  1  0  0  0
  9 26  1  0  0  0
 10 11  1  0  0  0
 10 27  1  0  0  0
 10 28  1  0  0  0
 11 12  1  0  0  0
 11 29  1  0  0  0
 11 30  1  0  0  0
 12 31  1  0  0  0
 12 32  1  0  0  0
 13 33  1  0  0  0
 14 15  1  0  0  0
 14 16  1  0  0  0
 14 34  1  0  0  0
 15 35  1  0  0  0
 15 36  1  0  0  0
 15 37  1  0  0  0
 16 17  1  0  0  0
 16 18  2  0  0  0
 17 38  1  0  0  0
M  END
> <s_m_entry_id>
5363

> <s_m_entry_name>
dock_pv.354

> <s_m_Source_Path>
/home/csk/Desktop/cluster/DUD-E-result/pgh1

> <s_m_Source_File>
dock_pv.maegz

> <i_m_Source_File_Index>
354

> <chembl_id>
CHEMBL1275970

> <chembl_pref_name>
None

> <i_lp_mmshare_version>
53161

> <r_lp_tautomer_probability>
1

> <s_lp_Force_Field>
OPLS_2005

> <r_lp_Energy>
29.791996

> <b_lp_Chiralities_Consistent>
1

> <s_lp_Variant>
CHEMBL221_lig808-1

> <s_i_glide_gridfile>
glide-grid_2oyu

> <i_i_glide_lignum>
970

> <i_i_glide_rotatable_bonds>
6

> <r_i_docking_score>
-7.91328815677678

> <r_i_glide_ligand_efficiency>
-0.416488850356672

> <r_i_glide_ligand_efficiency_sa>
-1.11135953387528

> <r_i_glide_ligand_efficiency_ln>
-2.00618850958852

> <r_i_glide_gscore>
-7.91328815677678

> <r_i_glide_lipo>
-3.41850039906857

> <r_i_glide_hbond>
-0.12421681155004

> <r_i_glide_metal>
0

> <r_i_glide_rewards>
-3.11137642467465

> <r_i_glide_evdw>
-29.6935710906982

> <r_i_glide_ecoul>
-5.19414329528809

> <r_i_glide_erotb>
1.00460552734461

> <r_i_glide_esite>
0

> <r_i_glide_emodel>
-42.5213725955049

> <r_i_glide_energy>
-34.8877143859863

> <r_i_glide_einternal>
9.06347274780273

> <i_i_glide_confnum>
114

> <i_i_glide_posenum>
18

> <r_i_glide_eff_state_penalty>
0

> <s_user_duplicate_titles>
CHEMBL221_lig808

> <i_f3d_flags>
0

> <s_m_subgroup_title>
dock_pv

> <s_m_subgroupid>
dock_pv

> <b_m_subgroup_collapsed>
1

$$$$
CHEMBL221_lig893
                    3D
 Schrodinger Suite 2021-1.
 41 43  0  0  1  0            999 V2000
   23.8024   51.8920   12.5049 C   0  0  0  0  0  0
   23.5672   51.3347   11.2531 C   0  0  0  0  0  0
   22.5452   50.4002   11.0897 C   0  0  0  0  0  0
   23.0525   51.4716   13.5997 C   0  0  0  0  0  0
   22.0379   50.5154   13.4353 C   0  0  0  0  0  0
   21.7473   50.0234   12.1764 C   0  0  0  0  0  0
   20.5741   49.1471   12.3164 C   0  0  0  0  0  0
   20.2989   49.0384   13.7376 C   0  0  0  0  0  0
   21.1431   49.8472   14.4063 C   0  0  0  0  0  0
   19.2338   48.1433   14.3617 C   0  0  0  0  0  0
   21.1776   50.1020   15.9121 C   0  0  0  0  0  0
   20.8528   51.5340   16.2858 C   0  0  0  0  0  0
   20.5229   51.8721   17.4111 O   0  0  0  0  0  0
   20.9270   52.4268   15.2722 O   0  0  0  0  0  0
   24.7834   52.8089   12.6648 F   0  0  0  0  0  0
   19.8439   48.5511   11.3566 C   0  0  0  0  0  0
   19.9295   48.6837    9.9076 C   0  0  0  0  0  0
   20.1230   49.9067    9.2638 C   0  0  0  0  0  0
   20.1230   49.9525    7.8719 C   0  0  0  0  0  0
   19.8921   48.7979    7.1383 C   0  0  0  0  0  0
   19.7209   47.5834    7.7827 C   0  0  0  0  0  0
   19.7230   47.5347    9.1607 C   0  0  0  0  0  0
   19.7322   48.8924    5.4002 S   0  0  0  0  0  0
   17.9417   48.8722    5.1438 C   0  0  0  0  0  0
   24.1803   51.6232   10.4116 H   0  0  0  0  0  0
   22.4260   49.9654   10.1133 H   0  0  0  0  0  0
   23.2938   51.8761   14.5714 H   0  0  0  0  0  0
   19.0982   47.2298   13.7856 H   0  0  0  0  0  0
   19.4910   47.8341   15.3716 H   0  0  0  0  0  0
   18.2809   48.6666   14.3924 H   0  0  0  0  0  0
   20.4305   49.4872   16.4076 H   0  0  0  0  0  0
   22.1153   49.8407   16.3854 H   0  0  0  0  0  0
   20.7269   53.3086   15.5924 H   0  0  0  0  0  0
   19.0280   47.9182   11.6750 H   0  0  0  0  0  0
   20.2229   50.8242    9.8257 H   0  0  0  0  0  0
   20.2090   50.9048    7.3668 H   0  0  0  0  0  0
   19.5485   46.6821    7.2332 H   0  0  0  0  0  0
   19.5850   46.6017    9.6614 H   0  0  0  0  0  0
   17.7153   49.0720    4.0974 H   0  0  0  0  0  0
   17.5110   47.9067    5.4035 H   0  0  0  0  0  0
   17.4757   49.6405    5.7658 H   0  0  0  0  0  0
  1  2  2  0  0  0
  1 15  1  0  0  0
  1  4  1  0  0  0
  2  3  1  0  0  0
  2 25  1  0  0  0
  3  6  2  0  0  0
  3 26  1  0  0  0
  4  5  2  0  0  0
  4 27  1  0  0  0
  5  9  1  0  0  0
  5  6  1  0  0  0
  6  7  1  0  0  0
  7 16  2  0  0  0
  7  8  1  0  0  0
  8  9  2  0  0  0
  8 10  1  0  0  0
  9 11  1  0  0  0
 10 28  1  0  0  0
 10 29  1  0  0  0
 10 30  1  0  0  0
 11 12  1  0  0  0
 11 31  1  0  0  0
 11 32  1  0  0  0
 12 13  2  0  0  0
 12 14  1  0  0  0
 14 33  1  0  0  0
 16 17  1  0  0  0
 16 34  1  0  0  0
 17 18  2  0  0  0
 17 22  1  0  0  0
 18 19  1  0  0  0
 18 35  1  0  0  0
 19 20  2  0  0  0
 19 36  1  0  0  0
 20 21  1  0  0  0
 20 23  1  0  0  0
 21 22  2  0  0  0
 21 37  1  0  0  0
 22 38  1  0  0  0
 23 24  1  0  0  0
 24 39  1  0  0  0
 24 40  1  0  0  0
 24 41  1  0  0  0
M  END
> <s_m_entry_id>
5364

> <s_m_entry_name>
dock_pv.355

> <s_m_Source_Path>
/home/csk/Desktop/cluster/DUD-E-result/pgh1

> <s_m_Source_File>
dock_pv.maegz

> <i_m_Source_File_Index>
355

> <chembl_id>
CHEMBL18797

> <chembl_pref_name>
SULINDAC SULFIDE

> <i_lp_mmshare_version>
53161

> <r_lp_tautomer_probability>
1

> <s_lp_Force_Field>
OPLS_2005

> <r_lp_Energy>
37.002385

> <b_lp_Chiralities_Consistent>
1

> <s_lp_Variant>
CHEMBL221_lig893-1

> <s_i_glide_gridfile>
glide-grid_2oyu

> <i_i_glide_lignum>
1100

> <i_i_glide_rotatable_bonds>
5

> <r_i_docking_score>
-7.91187948840575

> <r_i_glide_ligand_efficiency>
-0.329661645350239

> <r_i_glide_ligand_efficiency_sa>
-0.950908731699086

> <r_i_glide_ligand_efficiency_ln>
-1.8936758140684

> <r_i_glide_gscore>
-7.91187948840575

> <r_i_glide_lipo>
-4.88979434015185

> <r_i_glide_hbond>
0

> <r_i_glide_metal>
0

> <r_i_glide_rewards>
-2.41007895836255

> <r_i_glide_evdw>
-16.4895839691162

> <r_i_glide_ecoul>
-1.85188663005829

> <r_i_glide_erotb>
0.490256003073211

> <r_i_glide_esite>
0

> <r_i_glide_emodel>
-29.8686696211124

> <r_i_glide_energy>
-18.3414705991745

> <r_i_glide_einternal>
5.9759635925293

> <i_i_glide_confnum>
9

> <i_i_glide_posenum>
110

> <r_i_glide_eff_state_penalty>
0

> <s_user_duplicate_titles>
CHEMBL221_lig893,21650

> <i_f3d_flags>
0

> <s_m_subgroup_title>
dock_pv

> <s_m_subgroupid>
dock_pv

> <b_m_subgroup_collapsed>
1

$$$$
CHEMBL221_lig746
                    3D
 Schrodinger Suite 2021-1.
 43 45  0  0  1  0            999 V2000
   19.3232   48.2278   12.8128 C   0  0  0  0  0  0
   20.0651   49.0860   11.9942 C   0  0  0  0  0  0
   20.8778   50.0281   12.5223 N   0  0  0  0  0  0
   20.9230   50.1413   13.8736 C   0  0  0  0  0  0
   20.2705   49.3307   14.7477 N   0  0  0  0  0  0
   19.4545   48.3825   14.1978 C   0  0  0  0  0  0
   19.9844   49.0700   10.5122 C   0  0  0  0  0  0
   20.1693   50.2330    9.7544 C   0  0  0  0  0  0
   20.1230   50.1792    8.3647 C   0  0  0  0  0  0
   19.9021   48.9657    7.7180 C   0  0  0  0  0  0
   19.7041   47.8084    8.4644 C   0  0  0  0  0  0
   19.7230   47.8730    9.8478 C   0  0  0  0  0  0
   18.6356   47.5158   15.1497 C   0  0  0  0  0  0
   19.3229   46.4041   15.4001 F   0  0  0  0  0  0
   18.3743   48.1379   16.2977 F   0  0  0  0  0  0
   17.4678   47.1725   14.6039 F   0  0  0  0  0  0
   19.8701   48.8574    5.9459 S   0  0  0  0  0  0
   18.1230   49.0730    5.4000 C   0  0  0  0  0  0
   20.1230   47.4730    5.6454 O   0  0  0  0  0  0
   20.7448   49.8730    5.3765 O   0  0  0  0  0  0
   21.5752   51.2285   14.4298 O   0  0  0  0  0  0
   22.0776   52.2728   13.5742 C   0  0  0  0  0  0
   21.8280   53.6382   14.1999 C   0  0  0  0  0  0
   23.0048   54.5089   13.7710 C   0  0  0  0  0  0
   24.1085   53.5772   13.2434 C   0  0  0  0  0  0
   23.5874   52.1485   13.4000 C   0  0  0  0  0  0
   18.6494   47.4920   12.3967 H   0  0  0  0  0  0
   20.3471   51.1840   10.2346 H   0  0  0  0  0  0
   20.2362   51.0847    7.7847 H   0  0  0  0  0  0
   19.5287   46.8602    7.9815 H   0  0  0  0  0  0
   19.5999   46.9666   10.4110 H   0  0  0  0  0  0
   18.1012   49.0730    4.3111 H   0  0  0  0  0  0
   17.7357   50.0066    5.8001 H   0  0  0  0  0  0
   17.5530   48.2281    5.7729 H   0  0  0  0  0  0
   21.5972   52.2730   12.5976 H   0  0  0  0  0  0
   20.9230   54.0813   13.8000 H   0  0  0  0  0  0
   21.7234   53.5807   15.2845 H   0  0  0  0  0  0
   22.6872   55.2156   13.0045 H   0  0  0  0  0  0
   23.3706   55.1049   14.6002 H   0  0  0  0  0  0
   24.3268   53.7948   12.2000 H   0  0  0  0  0  0
   25.0416   53.7163   13.7919 H   0  0  0  0  0  0
   24.0267   51.6731   14.2738 H   0  0  0  0  0  0
   23.8420   51.5439   12.5285 H   0  0  0  0  0  0
  1  6  1  0  0  0
  1  2  2  0  0  0
  1 27  1  0  0  0
  2  7  1  0  0  0
  2  3  1  0  0  0
  3  4  2  0  0  0
  4  5  1  0  0  0
  4 21  1  0  0  0
  5  6  2  0  0  0
  6 13  1  0  0  0
  7  8  2  0  0  0
  7 12  1  0  0  0
  8  9  1  0  0  0
  8 28  1  0  0  0
  9 10  2  0  0  0
  9 29  1  0  0  0
 10 17  1  0  0  0
 10 11  1  0  0  0
 11 12  2  0  0  0
 11 30  1  0  0  0
 12 31  1  0  0  0
 13 14  1  0  0  0
 13 15  1  0  0  0
 13 16  1  0  0  0
 17 18  1  0  0  0
 17 19  2  0  0  0
 17 20  2  0  0  0
 18 32  1  0  0  0
 18 33  1  0  0  0
 18 34  1  0  0  0
 21 22  1  0  0  0
 22 23  1  0  0  0
 22 26  1  0  0  0
 22 35  1  0  0  0
 23 24  1  0  0  0
 23 36  1  0  0  0
 23 37  1  0  0  0
 24 25  1  0  0  0
 24 38  1  0  0  0
 24 39  1  0  0  0
 25 26  1  0  0  0
 25 40  1  0  0  0
 25 41  1  0  0  0
 26 42  1  0  0  0
 26 43  1  0  0  0
M  END
> <s_m_entry_id>
5365

> <s_m_entry_name>
dock_pv.356

> <s_m_Source_Path>
/home/csk/Desktop/cluster/DUD-E-result/pgh1

> <s_m_Source_File>
dock_pv.maegz

> <i_m_Source_File_Index>
356

> <chembl_id>
CHEMBL551418

> <chembl_pref_name>
None

> <i_lp_mmshare_version>
53161

> <r_lp_tautomer_probability>
1

> <s_lp_Force_Field>
OPLS_2005

> <r_lp_Energy>
22.663987

> <b_lp_Chiralities_Consistent>
1

> <s_lp_Variant>
CHEMBL221_lig746-1

> <s_i_glide_gridfile>
glide-grid_2oyu

> <i_i_glide_lignum>
915

> <i_i_glide_rotatable_bonds>
5

> <r_i_docking_score>
-7.90787085736102

> <r_i_glide_ligand_efficiency>
-0.30414887912927

> <r_i_glide_ligand_efficiency_sa>
-0.901039857652413

> <r_i_glide_ligand_efficiency_ln>
-1.85713752301055

> <r_i_glide_gscore>
-7.90787085736102

> <r_i_glide_lipo>
-3.43489135270356

> <r_i_glide_hbond>
0

> <r_i_glide_metal>
0

> <r_i_glide_rewards>
-2.99819896316602

> <r_i_glide_evdw>
-18.8810577392578

> <r_i_glide_ecoul>
-5.82453107833862

> <r_i_glide_erotb>
0.391090665882796

> <r_i_glide_esite>
-0.0481386586605492

> <r_i_glide_emodel>
-27.1368782640076

> <r_i_glide_energy>
-24.7055888175964

> <r_i_glide_einternal>
7.7005763053894

> <i_i_glide_confnum>
14

> <i_i_glide_posenum>
1

> <r_i_glide_eff_state_penalty>
0

> <s_user_duplicate_titles>
CHEMBL221_lig746

> <i_f3d_flags>
0

> <s_m_subgroup_title>
dock_pv

> <s_m_subgroupid>
dock_pv

> <b_m_subgroup_collapsed>
1

$$$$
CHEMBL221_lig81
                    3D
 Schrodinger Suite 2021-1.
 34 36  0  0  1  0            999 V2000
   20.1201   49.3857   12.6997 N   0  0  0  0  0  0
   19.7230   48.9149   14.8621 N   0  0  0  0  0  0
   21.0137   50.1230   13.4606 C   0  0  0  0  0  0
   19.3904   48.6730   13.6241 C   0  0  0  0  0  0
   20.0446   48.7628    6.7513 S   0  0  0  0  0  0
   20.6646   49.8340   14.7809 C   0  0  0  0  0  0
   19.9868   49.3067   11.2972 C   0  0  0  0  0  0
   20.1024   49.0280    8.5266 C   0  0  0  0  0  0
   19.4239   47.4730    6.6000 O   0  0  0  0  0  0
   21.3230   49.0730    6.1408 O   0  0  0  0  0  0
   22.0968   51.0126   12.9371 C   0  0  0  0  0  0
   24.1631   52.6730   11.9962 N   0  0  0  0  0  0
   19.7845   47.9302    9.3383 C   0  0  0  0  0  0
   20.1230   50.2979    9.0976 C   0  0  0  0  0  0
   19.7230   48.0663   10.7170 C   0  0  0  0  0  0
   20.1230   50.4392   10.4849 C   0  0  0  0  0  0
   21.3230   50.5294   16.2000 Cl  0  0  0  0  0  0
   18.9230   49.8726    5.9050 C   0  0  0  0  0  0
   23.9550   51.4433   11.4630 C   0  0  0  0  0  0
   23.3425   53.0730   13.0000 C   0  0  0  0  0  0
   22.9483   50.5856   11.9097 C   0  0  0  0  0  0
   22.3039   52.2805   13.4924 C   0  0  0  0  0  0
   18.6110   47.9993   13.2999 H   0  0  0  0  0  0
   19.6322   46.9487    8.9154 H   0  0  0  0  0  0
   20.2214   51.1618    8.4596 H   0  0  0  0  0  0
   19.5573   47.1839   11.3188 H   0  0  0  0  0  0
   20.2448   51.4223   10.9172 H   0  0  0  0  0  0
   19.0552   49.6735    4.8479 H   0  0  0  0  0  0
   19.3303   50.8021    6.2000 H   0  0  0  0  0  0
   17.8935   49.7305    6.2000 H   0  0  0  0  0  0
   24.6221   51.1431   10.6676 H   0  0  0  0  0  0
   23.5319   54.0522   13.4174 H   0  0  0  0  0  0
   22.8334   49.6079   11.4659 H   0  0  0  0  0  0
   21.6773   52.6471   14.2922 H   0  0  0  0  0  0
  1  3  1  0  0  0
  1  4  1  0  0  0
  1  7  1  0  0  0
  2  4  2  0  0  0
  2  6  1  0  0  0
  3  6  2  0  0  0
  3 11  1  0  0  0
  4 23  1  0  0  0
  5  8  1  0  0  0
  5  9  2  0  0  0
  5 10  2  0  0  0
  5 18  1  0  0  0
  6 17  1  0  0  0
  7 15  1  0  0  0
  7 16  2  0  0  0
  8 14  2  0  0  0
  8 13  1  0  0  0
 11 21  1  0  0  0
 11 22  2  0  0  0
 12 20  2  0  0  0
 12 19  1  0  0  0
 13 15  2  0  0  0
 13 24  1  0  0  0
 14 16  1  0  0  0
 14 25  1  0  0  0
 15 26  1  0  0  0
 16 27  1  0  0  0
 18 28  1  0  0  0
 18 29  1  0  0  0
 18 30  1  0  0  0
 19 21  2  0  0  0
 19 31  1  0  0  0
 20 22  1  0  0  0
 20 32  1  0  0  0
 21 33  1  0  0  0
 22 34  1  0  0  0
M  END
> <s_m_entry_id>
5366

> <s_m_entry_name>
dock_pv.357

> <s_m_Source_Path>
/home/csk/Desktop/cluster/DUD-E-result/pgh1

> <s_m_Source_File>
dock_pv.maegz

> <i_m_Source_File_Index>
357

> <chembl_id>
CHEMBL116365

> <chembl_pref_name>
None

> <i_lp_mmshare_version>
53161

> <r_lp_tautomer_probability>
1

> <s_lp_Force_Field>
OPLS_2005

> <r_lp_Energy>
7.883227

> <b_lp_Chiralities_Consistent>
1

> <s_lp_Variant>
CHEMBL221_lig81-1

> <s_i_glide_gridfile>
glide-grid_2oyu

> <i_i_glide_lignum>
98

> <i_i_glide_rotatable_bonds>
3

> <r_i_docking_score>
-7.90744201423362

> <r_i_glide_ligand_efficiency>
-0.359429182465164

> <r_i_glide_ligand_efficiency_sa>
-1.007134704815

> <r_i_glide_ligand_efficiency_ln>
-1.93286725923424

> <r_i_glide_gscore>
-7.90744201423362

> <r_i_glide_lipo>
-3.83376990751684

> <r_i_glide_hbond>
0

> <r_i_glide_metal>
0

> <r_i_glide_rewards>
-2.65056522100021

> <r_i_glide_evdw>
-16.5641994476318

> <r_i_glide_ecoul>
-6.22200584411621

> <r_i_glide_erotb>
0.338403963282455

> <r_i_glide_esite>
0

> <r_i_glide_emodel>
-27.3478644897656

> <r_i_glide_energy>
-22.786205291748

> <r_i_glide_einternal>
1.31484079360962

> <i_i_glide_confnum>
2

> <i_i_glide_posenum>
111

> <r_i_glide_eff_state_penalty>
0

> <s_user_duplicate_titles>
CHEMBL221_lig81

> <i_f3d_flags>
0

> <s_m_subgroup_title>
dock_pv

> <s_m_subgroupid>
dock_pv

> <b_m_subgroup_collapsed>
1

$$$$
CHEMBL221_lig859
                    3D
 Schrodinger Suite 2021-1.
 40 42  0  0  1  0            999 V2000
   20.5229   49.4729   14.3213 C   0  0  0  0  0  0
   20.8686   49.8687   12.9507 C   0  0  0  0  0  0
   20.1524   49.0960   12.1059 C   0  0  0  0  0  0
   19.2375   48.2292   12.9366 C   0  0  0  0  0  0
   19.5765   48.5319   14.2667 O   0  0  0  0  0  0
   20.9688   49.9150   15.3784 O   0  0  0  0  0  0
   21.9468   50.8523   12.6599 C   0  0  0  0  0  0
   22.0481   52.0393   13.4001 C   0  0  0  0  0  0
   23.0811   52.9405   13.1596 C   0  0  0  0  0  0
   24.0178   52.6659   12.1686 C   0  0  0  0  0  0
   23.9227   51.5025   11.4098 C   0  0  0  0  0  0
   22.8915   50.6007   11.6593 C   0  0  0  0  0  0
   20.0707   49.0769   10.6179 C   0  0  0  0  0  0
   19.7227   47.8732   10.0033 C   0  0  0  0  0  0
   19.5400   47.7660    8.6302 C   0  0  0  0  0  0
   19.7230   48.8803    7.8188 C   0  0  0  0  0  0
   20.1230   50.0886    8.4141 C   0  0  0  0  0  0
   20.2900   50.1897    9.8003 C   0  0  0  0  0  0
   19.4383   48.6789    6.0526 S   0  0  2  0  0  0
   17.7135   48.5904    5.4079 C   0  0  0  0  0  0
   20.1230   47.4729    5.7242 O   0  0  0  0  0  0
   19.9333   49.8731    5.4033 N   0  0  0  0  0  0
   21.3230   49.8721    5.2396 C   0  0  0  0  0  0
   18.1824   48.4415   12.7597 H   0  0  0  0  0  0
   19.3935   47.1638   12.7665 H   0  0  0  0  0  0
   21.3318   52.2663   14.1765 H   0  0  0  0  0  0
   23.1591   53.8445   13.7471 H   0  0  0  0  0  0
   24.8243   53.3607   11.9896 H   0  0  0  0  0  0
   24.6516   51.2952   10.6395 H   0  0  0  0  0  0
   22.8321   49.6939   11.0787 H   0  0  0  0  0  0
   19.5764   46.9997   10.6082 H   0  0  0  0  0  0
   19.2462   46.8204    8.1998 H   0  0  0  0  0  0
   20.2323   50.9747    7.8040 H   0  0  0  0  0  0
   20.5471   51.1457   10.2325 H   0  0  0  0  0  0
   17.1828   49.4736    5.7538 H   0  0  0  0  0  0
   17.7399   48.5854    4.3184 H   0  0  0  0  0  0
   17.2895   47.6656    5.7882 H   0  0  0  0  0  0
   21.7230   50.8296    4.9355 H   0  0  0  0  0  0
   21.6331   49.0653    4.6000 H   0  0  0  0  0  0
   21.7231   49.5793    6.1985 H   0  0  0  0  0  0
  1  2  1  0  0  0
  1  5  1  0  0  0
  1  6  2  0  0  0
  2  3  2  0  0  0
  2  7  1  0  0  0
  3  4  1  0  0  0
  3 13  1  0  0  0
  4  5  1  0  0  0
  4 24  1  0  0  0
  4 25  1  0  0  0
  7  8  2  0  0  0
  7 12  1  0  0  0
  8  9  1  0  0  0
  8 26  1  0  0  0
  9 10  2  0  0  0
  9 27  1  0  0  0
 10 11  1  0  0  0
 10 28  1  0  0  0
 11 12  2  0  0  0
 11 29  1  0  0  0
 12 30  1  0  0  0
 13 14  2  0  0  0
 13 18  1  0  0  0
 14 15  1  0  0  0
 14 31  1  0  0  0
 15 16  2  0  0  0
 15 32  1  0  0  0
 16 17  1  0  0  0
 16 19  1  0  0  0
 17 18  2  0  0  0
 17 33  1  0  0  0
 18 34  1  0  0  0
 19 20  1  0  0  0
 19 21  2  0  0  0
 19 22  2  0  0  0
 20 35  1  0  0  0
 20 36  1  0  0  0
 20 37  1  0  0  0
 22 23  1  0  0  0
 23 38  1  0  0  0
 23 39  1  0  0  0
 23 40  1  0  0  0
M  END
> <s_m_entry_id>
5367

> <s_m_entry_name>
dock_pv.358

> <s_m_Source_Path>
/home/csk/Desktop/cluster/DUD-E-result/pgh1

> <s_m_Source_File>
dock_pv.maegz

> <i_m_Source_File_Index>
358

> <chembl_id>
CHEMBL1814813

> <chembl_pref_name>
None

> <i_lp_mmshare_version>
53161

> <r_lp_tautomer_probability>
0.999841193423406

> <s_lp_Force_Field>
OPLS_2005

> <r_lp_Energy>
16.260707

> <b_lp_Chiralities_Consistent>
1

> <s_lp_Variant>
CHEMBL221_lig859-2

> <s_i_glide_gridfile>
glide-grid_2oyu

> <i_i_glide_lignum>
1063

> <i_i_glide_rotatable_bonds>
3

> <r_i_docking_score>
-7.90565367902357

> <r_i_glide_ligand_efficiency>
-0.343724073001025

> <r_i_glide_ligand_efficiency_sa>
-0.977505540366049

> <r_i_glide_ligand_efficiency_ln>
-1.91165874409217

> <r_i_glide_gscore>
-7.90565367902357

> <r_i_glide_lipo>
-4.33736589115153

> <r_i_glide_hbond>
-0.10507785032339

> <r_i_glide_metal>
0

> <r_i_glide_rewards>
-2.71350618533943

> <r_i_glide_evdw>
-13.2405672073364

> <r_i_glide_ecoul>
-4.08626317977905

> <r_i_glide_erotb>
0.525264085124459

> <r_i_glide_esite>
0

> <r_i_glide_emodel>
-57.646102153779

> <r_i_glide_energy>
-17.3268303871155

> <r_i_glide_einternal>
1.26078844070435

> <i_i_glide_confnum>
16

> <i_i_glide_posenum>
8

> <r_i_glide_eff_state_penalty>
0

> <s_user_duplicate_titles>
CHEMBL221_lig859

> <i_f3d_flags>
0

> <s_m_subgroup_title>
dock_pv

> <s_m_subgroupid>
dock_pv

> <b_m_subgroup_collapsed>
1

$$$$
CHEMBL221_lig743
                    3D
 Schrodinger Suite 2021-1.
 52 54  0  0  1  0            999 V2000
   19.0046   47.8789   12.7199 C   0  0  0  0  0  0
   19.7507   48.8022   11.9733 C   0  0  0  0  0  0
   20.4685   49.7589   12.6019 N   0  0  0  0  0  0
   20.5949   49.7049   13.9470 C   0  0  0  0  0  0
   19.9144   48.8497   14.7466 N   0  0  0  0  0  0
   19.0742   47.9742   14.1220 C   0  0  0  0  0  0
   19.8431   48.8329   10.4782 C   0  0  0  0  0  0
   19.6823   47.6729    9.7116 C   0  0  0  0  0  0
   19.7230   47.6955    8.3186 C   0  0  0  0  0  0
   19.9461   48.9003    7.6603 C   0  0  0  0  0  0
   20.1230   50.0633    8.4117 C   0  0  0  0  0  0
   20.1230   50.0269    9.7999 C   0  0  0  0  0  0
   18.1853   47.1192   15.0229 C   0  0  0  0  0  0
   16.9232   47.1661   14.6000 F   0  0  0  0  0  0
   18.6013   45.8552   14.9876 F   0  0  0  0  0  0
   18.1977   47.5313   16.2920 F   0  0  0  0  0  0
   19.9605   49.0271    5.8731 S   0  0  0  0  0  0
   18.1684   49.0730    5.4000 C   0  0  0  0  0  0
   20.4808   47.8236    5.2580 O   0  0  0  0  0  0
   20.6331   50.2730    5.5587 O   0  0  0  0  0  0
   21.5459   50.4902   14.5856 O   0  0  0  0  0  0
   22.3893   51.4720   13.9293 C   0  0  0  0  0  0
   22.8268   51.1625   12.4577 C   0  0  0  0  0  0
   24.2483   51.4732   12.0116 C   0  0  0  0  0  0
   21.6990   52.8248   14.1897 C   0  0  0  0  0  0
   22.1882   54.0456   13.4000 C   0  0  0  0  0  0
   23.6004   54.5976   13.6452 C   0  0  0  0  0  0
   24.7766   53.6317   13.3981 C   0  0  0  0  0  0
   24.7261   52.9207   12.0324 C   0  0  0  0  0  0
   18.3811   47.1435   12.2368 H   0  0  0  0  0  0
   19.5575   46.7265   10.2018 H   0  0  0  0  0  0
   19.5899   46.7812    7.7679 H   0  0  0  0  0  0
   20.2480   51.0169    7.9169 H   0  0  0  0  0  0
   20.2562   50.9552   10.3360 H   0  0  0  0  0  0
   18.0984   49.0730    4.3132 H   0  0  0  0  0  0
   17.7105   49.9659    5.8169 H   0  0  0  0  0  0
   17.7001   48.1799    5.7999 H   0  0  0  0  0  0
   23.2912   51.4730   14.5384 H   0  0  0  0  0  0
   22.8102   50.0819   12.3201 H   0  0  0  0  0  0
   22.1184   51.5825   11.7436 H   0  0  0  0  0  0
   24.9220   50.8656   12.5998 H   0  0  0  0  0  0
   24.3696   51.1022   10.9914 H   0  0  0  0  0  0
   20.6445   52.6927   13.9451 H   0  0  0  0  0  0
   21.7229   53.0519   15.2561 H   0  0  0  0  0  0
   21.4754   54.8567   13.5460 H   0  0  0  0  0  0
   22.1230   53.7822   12.3573 H   0  0  0  0  0  0
   23.6604   55.0730   14.6157 H   0  0  0  0  0  0
   23.7480   55.4571   13.0000 H   0  0  0  0  0  0
   24.8814   52.9061   14.2000 H   0  0  0  0  0  0
   25.6935   54.2216   13.4477 H   0  0  0  0  0  0
   25.7366   52.9242   11.6207 H   0  0  0  0  0  0
   24.1230   53.4730   11.3157 H   0  0  0  0  0  0
  1  6  1  0  0  0
  1  2  2  0  0  0
  1 30  1  0  0  0
  2  7  1  0  0  0
  2  3  1  0  0  0
  3  4  2  0  0  0
  4  5  1  0  0  0
  4 21  1  0  0  0
  5  6  2  0  0  0
  6 13  1  0  0  0
  7  8  2  0  0  0
  7 12  1  0  0  0
  8  9  1  0  0  0
  8 31  1  0  0  0
  9 10  2  0  0  0
  9 32  1  0  0  0
 10 17  1  0  0  0
 10 11  1  0  0  0
 11 12  2  0  0  0
 11 33  1  0  0  0
 12 34  1  0  0  0
 13 14  1  0  0  0
 13 15  1  0  0  0
 13 16  1  0  0  0
 17 18  1  0  0  0
 17 19  2  0  0  0
 17 20  2  0  0  0
 18 35  1  0  0  0
 18 36  1  0  0  0
 18 37  1  0  0  0
 21 22  1  0  0  0
 22 23  1  0  0  0
 22 25  1  0  0  0
 22 38  1  0  0  0
 23 24  1  0  0  0
 23 39  1  0  0  0
 23 40  1  0  0  0
 24 29  1  0  0  0
 24 41  1  0  0  0
 24 42  1  0  0  0
 25 26  1  0  0  0
 25 43  1  0  0  0
 25 44  1  0  0  0
 26 27  1  0  0  0
 26 45  1  0  0  0
 26 46  1  0  0  0
 27 28  1  0  0  0
 27 47  1  0  0  0
 27 48  1  0  0  0
 28 29  1  0  0  0
 28 49  1  0  0  0
 28 50  1  0  0  0
 29 51  1  0  0  0
 29 52  1  0  0  0
M  END
> <s_m_entry_id>
5368

> <s_m_entry_name>
dock_pv.359

> <s_m_Source_Path>
/home/csk/Desktop/cluster/DUD-E-result/pgh1

> <s_m_Source_File>
dock_pv.maegz

> <i_m_Source_File_Index>
359

> <chembl_id>
CHEMBL552082

> <chembl_pref_name>
None

> <i_lp_mmshare_version>
53161

> <r_lp_tautomer_probability>
1

> <s_lp_Force_Field>
OPLS_2005

> <r_lp_Energy>
22.305009

> <b_lp_Chiralities_Consistent>
1

> <s_lp_Variant>
CHEMBL221_lig743-1

> <s_i_glide_gridfile>
glide-grid_2oyu

> <i_i_glide_lignum>
912

> <i_i_glide_rotatable_bonds>
5

> <r_i_docking_score>
-7.9050953008462

> <r_i_glide_ligand_efficiency>
-0.272589493132627

> <r_i_glide_ligand_efficiency_sa>
-0.837481285316532

> <r_i_glide_ligand_efficiency_ln>
-1.81006636797276

> <r_i_glide_gscore>
-7.9050953008462

> <r_i_glide_lipo>
-4.34412309309685

> <r_i_glide_hbond>
0

> <r_i_glide_metal>
0

> <r_i_glide_rewards>
-2.70646137422577

> <r_i_glide_evdw>
-12.1854915618896

> <r_i_glide_ecoul>
-3.47229075431824

> <r_i_glide_erotb>
0.324599337505248

> <r_i_glide_esite>
-0.048991979786602

> <r_i_glide_emodel>
-9.03773480934108

> <r_i_glide_energy>
-15.6577823162079

> <r_i_glide_einternal>
17.3385162353516

> <i_i_glide_confnum>
80

> <i_i_glide_posenum>
265

> <r_i_glide_eff_state_penalty>
0

> <s_user_duplicate_titles>
CHEMBL221_lig743

> <i_f3d_flags>
0

> <s_m_subgroup_title>
dock_pv

> <s_m_subgroupid>
dock_pv

> <b_m_subgroup_collapsed>
1

$$$$
CHEMBL221_lig60
                    3D
 Schrodinger Suite 2021-1.
 28 29  0  0  1  0            999 V2000
   21.0879   50.5438   11.7960 C   0  0  0  0  0  0
   21.3414   49.2231   11.8666 N   0  0  0  0  0  0
   20.3050   48.2883   12.0837 N   0  0  0  0  0  0
   19.9766   51.0324   11.5776 O   0  0  0  0  0  0
   22.2711   51.4199   12.0801 C   0  0  0  0  0  0
   19.5712   48.2880   13.2806 C   0  0  0  0  0  0
   18.0152   48.2715   15.5887 C   0  0  0  0  0  0
   17.0285   48.2731   17.0001 Cl  0  0  0  0  0  0
   18.2438   47.8743   13.2313 C   0  0  0  0  0  0
   20.1226   48.6918   14.5033 C   0  0  0  0  0  0
   19.3487   48.6727   15.6601 C   0  0  0  0  0  0
   17.4609   47.8723   14.3780 C   0  0  0  0  0  0
   23.4445   51.3000   11.3260 C   0  0  0  0  0  0
   22.1948   52.3686   13.1072 C   0  0  0  0  0  0
   24.5231   52.1374   11.5831 C   0  0  0  0  0  0
   23.2833   53.1931   13.3722 C   0  0  0  0  0  0
   24.4444   53.0730   12.6116 C   0  0  0  0  0  0
   22.2682   48.8552   12.0299 H   0  0  0  0  0  0
   19.7721   48.1841   11.2296 H   0  0  0  0  0  0
   17.8070   47.5687   12.2924 H   0  0  0  0  0  0
   21.1443   49.0367   14.5618 H   0  0  0  0  0  0
   19.7785   48.9897   16.5988 H   0  0  0  0  0  0
   16.4270   47.5669   14.3266 H   0  0  0  0  0  0
   23.5179   50.5891   10.5167 H   0  0  0  0  0  0
   21.2937   52.4744   13.6956 H   0  0  0  0  0  0
   25.4226   52.0535   10.9884 H   0  0  0  0  0  0
   23.2243   53.9298   14.1588 H   0  0  0  0  0  0
   25.2845   53.7217   12.8159 H   0  0  0  0  0  0
  1  2  1  0  0  0
  1  4  2  0  0  0
  1  5  1  0  0  0
  2  3  1  0  0  0
  2 18  1  0  0  0
  3  6  1  0  0  0
  3 19  1  0  0  0
  5 13  2  0  0  0
  5 14  1  0  0  0
  6  9  2  0  0  0
  6 10  1  0  0  0
  7 11  1  0  0  0
  7  8  1  0  0  0
  7 12  2  0  0  0
  9 12  1  0  0  0
  9 20  1  0  0  0
 10 11  2  0  0  0
 10 21  1  0  0  0
 11 22  1  0  0  0
 12 23  1  0  0  0
 13 15  1  0  0  0
 13 24  1  0  0  0
 14 16  2  0  0  0
 14 25  1  0  0  0
 15 17  2  0  0  0
 15 26  1  0  0  0
 16 17  1  0  0  0
 16 27  1  0  0  0
 17 28  1  0  0  0
M  END
> <s_m_entry_id>
5369

> <s_m_entry_name>
dock_pv.360

> <s_m_Source_Path>
/home/csk/Desktop/cluster/DUD-E-result/pgh1

> <s_m_Source_File>
dock_pv.maegz

> <i_m_Source_File_Index>
360

> <chembl_id>
CHEMBL347267

> <chembl_pref_name>
None

> <i_lp_mmshare_version>
53161

> <r_lp_tautomer_probability>
1

> <s_lp_Force_Field>
OPLS_2005

> <r_lp_Energy>
15.972251

> <b_lp_Chiralities_Consistent>
1

> <s_lp_Variant>
CHEMBL221_lig60-1

> <s_i_glide_gridfile>
glide-grid_2oyu

> <i_i_glide_lignum>
77

> <i_i_glide_rotatable_bonds>
4

> <r_i_docking_score>
-7.90448716597946

> <r_i_glide_ligand_efficiency>
-0.464969833292909

> <r_i_glide_ligand_efficiency_sa>
-1.19556837142839

> <r_i_glide_ligand_efficiency_ln>
-2.06210467732931

> <r_i_glide_gscore>
-7.90448716597946

> <r_i_glide_lipo>
-3.67346116898533

> <r_i_glide_hbond>
0

> <r_i_glide_metal>
0

> <r_i_glide_rewards>
-2.88336354506491

> <r_i_glide_evdw>
-34.342041015625

> <r_i_glide_ecoul>
-1.35656583309174

> <r_i_glide_erotb>
0.572924473815785

> <r_i_glide_esite>
0

> <r_i_glide_emodel>
-50.3743861064967

> <r_i_glide_energy>
-35.6986068487167

> <r_i_glide_einternal>
4.63509225845337

> <i_i_glide_confnum>
1

> <i_i_glide_posenum>
382

> <r_i_glide_eff_state_penalty>
0

> <s_user_duplicate_titles>
CHEMBL221_lig60

> <i_f3d_flags>
0

> <s_m_subgroup_title>
dock_pv

> <s_m_subgroupid>
dock_pv

> <b_m_subgroup_collapsed>
1

$$$$
CHEMBL221_lig52
                    3D
 Schrodinger Suite 2021-1.
 36 38  0  0  1  0            999 V2000
   19.1771   48.1133   14.0905 O   0  0  0  0  0  0
   20.1230   49.0474   14.2496 C   0  0  0  0  0  0
   20.5473   49.5044   12.9248 C   0  0  0  0  0  0
   19.8855   48.7750   12.0017 C   0  0  0  0  0  0
   18.9230   47.8730   12.7256 C   0  0  0  0  0  0
   20.5330   49.4214   15.3480 O   0  0  0  0  0  0
   21.6481   50.4911   12.7358 C   0  0  0  0  0  0
   21.7230   51.6485   13.5245 C   0  0  0  0  0  0
   22.7645   52.5574   13.3563 C   0  0  0  0  0  0
   23.7365   52.3200   12.3884 C   0  0  0  0  0  0
   23.6765   51.1806   11.5913 C   0  0  0  0  0  0
   22.6356   50.2730   11.7690 C   0  0  0  0  0  0
   19.9102   48.8589   10.5167 C   0  0  0  0  0  0
   19.7230   47.6993    9.7536 C   0  0  0  0  0  0
   19.7230   47.7233    8.3605 C   0  0  0  0  0  0
   19.9407   48.9267    7.7020 C   0  0  0  0  0  0
   20.1230   50.0945    8.4527 C   0  0  0  0  0  0
   20.1230   50.0637    9.8445 C   0  0  0  0  0  0
   19.9532   49.0247    5.9116 S   0  0  0  0  0  0
   18.1741   49.0246    5.4000 C   0  0  0  0  0  0
   20.5009   47.8277    5.3127 O   0  0  0  0  0  0
   20.6069   50.2730    5.5832 O   0  0  0  0  0  0
   17.8800   48.0942   12.4979 H   0  0  0  0  0  0
   19.0921   46.8187   12.5054 H   0  0  0  0  0  0
   20.9745   51.8481   14.2779 H   0  0  0  0  0  0
   22.8192   53.4418   13.9754 H   0  0  0  0  0  0
   24.5443   53.0250   12.2566 H   0  0  0  0  0  0
   24.4349   51.0004   10.8422 H   0  0  0  0  0  0
   22.5922   49.3902   11.1506 H   0  0  0  0  0  0
   19.6288   46.7480   10.2451 H   0  0  0  0  0  0
   19.5842   46.8136    7.8000 H   0  0  0  0  0  0
   20.2385   51.0468    7.9531 H   0  0  0  0  0  0
   20.2524   50.9870   10.3907 H   0  0  0  0  0  0
   18.1230   49.0730    4.3175 H   0  0  0  0  0  0
   17.6829   49.8730    5.8467 H   0  0  0  0  0  0
   17.7230   48.0988    5.7374 H   0  0  0  0  0  0
  1  5  1  0  0  0
  1  2  1  0  0  0
  2  6  2  0  0  0
  2  3  1  0  0  0
  3  7  1  0  0  0
  3  4  2  0  0  0
  4  5  1  0  0  0
  4 13  1  0  0  0
  5 23  1  0  0  0
  5 24  1  0  0  0
  7  8  1  0  0  0
  7 12  2  0  0  0
  8  9  2  0  0  0
  8 25  1  0  0  0
  9 10  1  0  0  0
  9 26  1  0  0  0
 10 11  2  0  0  0
 10 27  1  0  0  0
 11 12  1  0  0  0
 11 28  1  0  0  0
 12 29  1  0  0  0
 13 14  1  0  0  0
 13 18  2  0  0  0
 14 15  2  0  0  0
 14 30  1  0  0  0
 15 16  1  0  0  0
 15 31  1  0  0  0
 16 17  2  0  0  0
 16 19  1  0  0  0
 17 18  1  0  0  0
 17 32  1  0  0  0
 18 33  1  0  0  0
 19 20  1  0  0  0
 19 21  2  0  0  0
 19 22  2  0  0  0
 20 34  1  0  0  0
 20 35  1  0  0  0
 20 36  1  0  0  0
M  END
> <s_m_entry_id>
5370

> <s_m_entry_name>
dock_pv.361

> <s_m_Source_Path>
/home/csk/Desktop/cluster/DUD-E-result/pgh1

> <s_m_Source_File>
dock_pv.maegz

> <i_m_Source_File_Index>
361

> <chembl_id>
CHEMBL122

> <chembl_pref_name>
ROFECOXIB

> <i_lp_mmshare_version>
53161

> <r_lp_tautomer_probability>
0.999841193423406

> <s_lp_Force_Field>
OPLS_2005

> <r_lp_Energy>
17.833397

> <b_lp_Chiralities_Consistent>
1

> <s_lp_Variant>
CHEMBL221_lig52-1

> <s_i_glide_gridfile>
glide-grid_2oyu

> <i_i_glide_lignum>
69

> <i_i_glide_rotatable_bonds>
3

> <r_i_docking_score>
-7.89980149084559

> <r_i_glide_ligand_efficiency>
-0.359081885947527

> <r_i_glide_ligand_efficiency_sa>
-1.00616156631419

> <r_i_glide_ligand_efficiency_ln>
-1.93099963662335

> <r_i_glide_gscore>
-7.89980149084559

> <r_i_glide_lipo>
-4.1577826505065

> <r_i_glide_hbond>
0

> <r_i_glide_metal>
0

> <r_i_glide_rewards>
-2.7872605004657

> <r_i_glide_evdw>
-14.9321012496948

> <r_i_glide_ecoul>
-3.77781748771667

> <r_i_glide_erotb>
0.376182935012322

> <r_i_glide_esite>
-0.0176635892434782

> <r_i_glide_emodel>
-23.0157325846938

> <r_i_glide_energy>
-18.7099187374115

> <r_i_glide_einternal>
0.23598875105381

> <i_i_glide_confnum>
6

> <i_i_glide_posenum>
367

> <r_i_glide_eff_state_penalty>
0

> <s_user_duplicate_titles>
CHEMBL221_lig52

> <i_f3d_flags>
0

> <s_m_subgroup_title>
dock_pv

> <s_m_subgroupid>
dock_pv

> <b_m_subgroup_collapsed>
1

$$$$
CHEMBL221_lig820
                    3D
 Schrodinger Suite 2021-1.
 30 31  0  0  1  0            999 V2000
   22.7965   53.3664   13.4785 C   0  0  0  0  0  0
   23.6153   52.9153   12.4345 C   0  0  0  0  0  0
   23.5099   51.6072   11.9632 C   0  0  0  0  0  0
   21.9340   52.4642   14.1137 C   0  0  0  0  0  0
   21.8615   51.1475   13.6799 C   0  0  0  0  0  0
   22.6008   50.7459   12.5679 C   0  0  0  0  0  0
   22.4692   49.4727   12.0604 O   0  0  0  0  0  0
   21.1542   48.8701   12.1824 C   0  0  1  0  0  0
   20.5234   49.1171   13.5783 C   0  0  0  0  0  0
   20.9228   50.2042   14.2647 C   0  0  0  0  0  0
   20.2400   49.3062   11.0056 C   0  0  0  0  0  0
   19.3231   48.3761   10.7524 F   0  0  0  0  0  0
   19.6172   50.4624   11.2430 F   0  0  0  0  0  0
   20.9279   49.4703    9.8757 F   0  0  0  0  0  0
   19.5745   48.1750   14.1483 C   0  0  0  0  0  0
   19.0405   48.3020   15.2479 O   0  0  0  0  0  0
   19.3229   47.1042   13.3479 O   0  0  0  0  0  0
   22.8604   54.8319   13.8942 C   0  0  0  0  0  0
   21.9599   55.2386   15.0848 C   0  0  0  0  0  0
   24.3151   53.5853   11.9606 H   0  0  0  0  0  0
   24.1120   51.2708   11.1316 H   0  0  0  0  0  0
   21.3045   52.7769   14.9325 H   0  0  0  0  0  0
   21.3504   47.8037   12.1010 H   0  0  0  0  0  0
   20.5325   50.4023   15.2555 H   0  0  0  0  0  0
   18.6298   46.5700   13.7406 H   0  0  0  0  0  0
   23.8957   55.0721   14.1387 H   0  0  0  0  0  0
   22.5893   55.4306   13.0184 H   0  0  0  0  0  0
   22.0994   56.2728   15.3988 H   0  0  0  0  0  0
   20.9227   55.1049   14.8114 H   0  0  0  0  0  0
   22.1227   54.6478   15.9798 H   0  0  0  0  0  0
  1  2  2  0  0  0
  1  4  1  0  0  0
  1 18  1  0  0  0
  2  3  1  0  0  0
  2 20  1  0  0  0
  3  6  2  0  0  0
  3 21  1  0  0  0
  4  5  2  0  0  0
  4 22  1  0  0  0
  5  6  1  0  0  0
  5 10  1  0  0  0
  6  7  1  0  0  0
  7  8  1  0  0  0
  8  9  1  0  0  0
  8 11  1  0  0  0
  8 23  1  0  0  0
  9 10  2  0  0  0
  9 15  1  0  0  0
 10 24  1  0  0  0
 11 12  1  0  0  0
 11 13  1  0  0  0
 11 14  1  0  0  0
 15 16  2  0  0  0
 15 17  1  0  0  0
 17 25  1  0  0  0
 18 19  1  0  0  0
 18 26  1  0  0  0
 18 27  1  0  0  0
 19 28  1  0  0  0
 19 29  1  0  0  0
 19 30  1  0  0  0
M  END
> <s_m_entry_id>
5371

> <s_m_entry_name>
dock_pv.362

> <s_m_Source_Path>
/home/csk/Desktop/cluster/DUD-E-result/pgh1

> <s_m_Source_File>
dock_pv.maegz

> <i_m_Source_File_Index>
362

> <chembl_id>
CHEMBL1288539

> <chembl_pref_name>
None

> <i_lp_mmshare_version>
53161

> <r_lp_tautomer_probability>
1

> <s_lp_Force_Field>
OPLS_2005

> <r_lp_Energy>
11.477942

> <b_lp_Chiralities_Consistent>
1

> <s_lp_Variant>
CHEMBL221_lig820-2

> <s_i_glide_gridfile>
glide-grid_2oyu

> <i_i_glide_lignum>
995

> <i_i_glide_rotatable_bonds>
4

> <r_i_docking_score>
-7.89498109823062

> <r_i_glide_ligand_efficiency>
-0.415525320959507

> <r_i_glide_ligand_efficiency_sa>
-1.10878845044581

> <r_i_glide_ligand_efficiency_ln>
-2.0015472770475

> <r_i_glide_gscore>
-7.89498109823062

> <r_i_glide_lipo>
-2.73242793971274

> <r_i_glide_hbond>
0

> <r_i_glide_metal>
0

> <r_i_glide_rewards>
-3.95913090657266

> <r_i_glide_evdw>
-28.5226669311523

> <r_i_glide_ecoul>
-0.127223998308182

> <r_i_glide_erotb>
0.24179469435862

> <r_i_glide_esite>
0

> <r_i_glide_emodel>
-39.879690445168

> <r_i_glide_energy>
-28.6498909294605

> <r_i_glide_einternal>
2.69783425331116

> <i_i_glide_confnum>
2

> <i_i_glide_posenum>
63

> <r_i_glide_eff_state_penalty>
0

> <s_user_duplicate_titles>
CHEMBL221_lig820

> <i_f3d_flags>
0

> <s_m_subgroup_title>
dock_pv

> <s_m_subgroupid>
dock_pv

> <b_m_subgroup_collapsed>
1

$$$$
CHEMBL221_lig99
                    3D
 Schrodinger Suite 2021-1.
 35 37  0  0  1  0            999 V2000
   20.0070   49.2280   12.7156 N   0  0  0  0  0  0
   20.8641   49.9554   13.5142 C   0  0  0  0  0  0
   19.5822   48.6730   14.8559 N   0  0  0  0  0  0
   19.2690   48.4756   13.6034 C   0  0  0  0  0  0
   20.0404   48.7562    6.7628 S   0  0  0  0  0  0
   20.5232   49.5962   14.8084 C   0  0  0  0  0  0
   21.8933   50.9270   13.0575 C   0  0  0  0  0  0
   19.9254   49.1930   11.3116 C   0  0  0  0  0  0
   20.0916   48.9744    8.5406 C   0  0  0  0  0  0
   19.4138   47.4730    6.6000 O   0  0  0  0  0  0
   21.3230   49.0730    6.1644 O   0  0  0  0  0  0
   22.7857   50.6037   12.0320 C   0  0  0  0  0  0
   21.9671   52.1864   13.6617 C   0  0  0  0  0  0
   22.9229   53.1080   13.2479 C   0  0  0  0  0  0
   23.7229   51.5378   11.6048 C   0  0  0  0  0  0
   23.8131   52.7705   12.2354 C   0  0  0  0  0  0
   19.7826   47.8584    9.3242 C   0  0  0  0  0  0
   20.1230   50.2248    9.1407 C   0  0  0  0  0  0
   19.7230   47.9611   10.7035 C   0  0  0  0  0  0
   20.0696   50.3443   10.5282 C   0  0  0  0  0  0
   21.2229   50.2615   16.2112 Cl  0  0  0  0  0  0
   18.9230   49.8685    5.9139 C   0  0  0  0  0  0
   22.9627   54.3393   13.8000 F   0  0  0  0  0  0
   24.5230   51.2700   10.5572 F   0  0  0  0  0  0
   18.5052   47.8033   13.2412 H   0  0  0  0  0  0
   22.7339   49.6413   11.5470 H   0  0  0  0  0  0
   21.2790   52.4648   14.4454 H   0  0  0  0  0  0
   24.5575   53.4730   11.9160 H   0  0  0  0  0  0
   19.6533   46.8835    8.8800 H   0  0  0  0  0  0
   20.1914   51.0733    8.4976 H   0  0  0  0  0  0
   19.5968   47.0730   11.2996 H   0  0  0  0  0  0
   20.1510   51.3193   10.9830 H   0  0  0  0  0  0
   19.0574   49.6668    4.8574 H   0  0  0  0  0  0
   19.3243   50.8024    6.2000 H   0  0  0  0  0  0
   17.8911   49.7265    6.2000 H   0  0  0  0  0  0
  1  2  1  0  0  0
  1  4  1  0  0  0
  1  8  1  0  0  0
  2  6  2  0  0  0
  2  7  1  0  0  0
  3  4  2  0  0  0
  3  6  1  0  0  0
  4 25  1  0  0  0
  5  9  1  0  0  0
  5 10  2  0  0  0
  5 11  2  0  0  0
  5 22  1  0  0  0
  6 21  1  0  0  0
  7 12  1  0  0  0
  7 13  2  0  0  0
  8 19  1  0  0  0
  8 20  2  0  0  0
  9 18  2  0  0  0
  9 17  1  0  0  0
 12 15  2  0  0  0
 12 26  1  0  0  0
 13 14  1  0  0  0
 13 27  1  0  0  0
 14 16  2  0  0  0
 14 23  1  0  0  0
 15 24  1  0  0  0
 15 16  1  0  0  0
 16 28  1  0  0  0
 17 19  2  0  0  0
 17 29  1  0  0  0
 18 20  1  0  0  0
 18 30  1  0  0  0
 19 31  1  0  0  0
 20 32  1  0  0  0
 22 33  1  0  0  0
 22 34  1  0  0  0
 22 35  1  0  0  0
M  END
> <s_m_entry_id>
5372

> <s_m_entry_name>
dock_pv.363

> <s_m_Source_Path>
/home/csk/Desktop/cluster/DUD-E-result/pgh1

> <s_m_Source_File>
dock_pv.maegz

> <i_m_Source_File_Index>
363

> <chembl_id>
CHEMBL324580

> <chembl_pref_name>
None

> <i_lp_mmshare_version>
53161

> <r_lp_tautomer_probability>
1

> <s_lp_Force_Field>
OPLS_2005

> <r_lp_Energy>
12.055746

> <b_lp_Chiralities_Consistent>
1

> <s_lp_Variant>
CHEMBL221_lig99-1

> <s_i_glide_gridfile>
glide-grid_2oyu

> <i_i_glide_lignum>
118

> <i_i_glide_rotatable_bonds>
3

> <r_i_docking_score>
-7.88417809330056

> <r_i_glide_ligand_efficiency>
-0.32850742055419

> <r_i_glide_ligand_efficiency_sa>
-0.947579371270331

> <r_i_glide_ligand_efficiency_ln>
-1.88704559908554

> <r_i_glide_gscore>
-7.88417809330056

> <r_i_glide_lipo>
-4.19491879410814

> <r_i_glide_hbond>
0

> <r_i_glide_metal>
0

> <r_i_glide_rewards>
-2.66466869691141

> <r_i_glide_evdw>
-15.4020872116089

> <r_i_glide_ecoul>
-3.44797611236572

> <r_i_glide_erotb>
0.283430448052039

> <r_i_glide_esite>
-0.0207202728977472

> <r_i_glide_emodel>
-19.2205855970016

> <r_i_glide_energy>
-18.8500633239746

> <r_i_glide_einternal>
1.01444923877716

> <i_i_glide_confnum>
11

> <i_i_glide_posenum>
245

> <r_i_glide_eff_state_penalty>
0

> <s_user_duplicate_titles>
CHEMBL221_lig99

> <i_f3d_flags>
0

> <s_m_subgroup_title>
dock_pv

> <s_m_subgroupid>
dock_pv

> <b_m_subgroup_collapsed>
1

$$$$
CHEMBL221_lig892
                    3D
 Schrodinger Suite 2021-1.
 57 59  0  0  1  0            999 V2000
   21.2853   50.3508   13.2276 C   0  0  0  0  0  0
   20.7468   49.9910   14.4449 C   0  0  0  0  0  0
   20.9013   49.6644   11.9761 C   0  0  0  0  0  0
   22.3120   51.4180   13.0257 C   0  0  0  0  0  0
   19.5553   49.0721   14.6376 C   0  0  0  0  0  0
   20.6722   48.2967   12.0444 C   0  0  0  0  0  0
   20.6579   50.3404   10.7768 C   0  0  0  0  0  0
   20.0596   48.6514    5.4368 N   0  0  0  0  0  0
   19.7230   48.3017    9.8390 C   0  0  0  0  0  0
   19.9358   47.6903   11.0597 C   0  0  0  0  0  0
   20.1230   49.6469    9.6953 C   0  0  0  0  0  0
   21.3671   50.4928   15.7498 C   0  0  0  0  0  0
   19.1003   47.4767    8.9104 O   0  0  0  0  0  0
   18.8937   47.8344    7.5425 C   0  0  0  0  0  0
   20.1655   48.2811    6.8463 C   0  0  0  0  0  0
   22.1234   52.6939   13.5714 C   0  0  0  0  0  0
   19.4199   48.3137   15.8001 C   0  0  0  0  0  0
   18.5230   48.9488   13.6897 C   0  0  0  0  0  0
   23.4557   51.1735   12.2514 C   0  0  0  0  0  0
   18.8968   49.4731    5.1403 C   0  0  0  0  0  0
   21.2632   49.4238    5.1719 C   0  0  0  0  0  0
   20.5229   51.3070   16.7249 C   0  0  0  0  0  0
   23.0837   53.6851   13.4000 C   0  0  0  0  0  0
   18.2908   47.5482   16.0489 C   0  0  0  0  0  0
   17.4117   48.1404   13.8970 C   0  0  0  0  0  0
   24.4056   52.1730   12.0594 C   0  0  0  0  0  0
   24.2347   53.4107   12.6697 C   0  0  0  0  0  0
   17.2970   47.4418   15.0884 C   0  0  0  0  0  0
   20.9083   47.7248   12.9295 H   0  0  0  0  0  0
   20.8372   51.4029   10.6929 H   0  0  0  0  0  0
   19.6757   46.6730   11.2123 H   0  0  0  0  0  0
   19.8873   50.2227    8.8145 H   0  0  0  0  0  0
   21.7451   49.6202   16.2657 H   0  0  0  0  0  0
   22.2421   51.0730   15.5124 H   0  0  0  0  0  0
   18.4894   46.9614    7.0400 H   0  0  0  0  0  0
   18.1253   48.5776    7.4000 H   0  0  0  0  0  0
   20.6141   49.0943    7.3939 H   0  0  0  0  0  0
   20.8677   47.4730    6.9534 H   0  0  0  0  0  0
   21.2354   52.9185   14.1434 H   0  0  0  0  0  0
   20.1565   48.3593   16.5802 H   0  0  0  0  0  0
   18.5238   49.5453   12.7917 H   0  0  0  0  0  0
   23.6151   50.2045   11.8004 H   0  0  0  0  0  0
   18.9230   49.8423    4.1194 H   0  0  0  0  0  0
   17.9727   48.9019    5.2305 H   0  0  0  0  0  0
   18.8310   50.3386    5.8002 H   0  0  0  0  0  0
   21.3228   49.8731    4.1987 H   0  0  0  0  0  0
   21.3230   50.2739    5.8458 H   0  0  0  0  0  0
   22.1230   48.7722    5.2998 H   0  0  0  0  0  0
   21.0690   51.4728   17.6531 H   0  0  0  0  0  0
   20.3249   52.2729   16.2848 H   0  0  0  0  0  0
   19.5850   50.8265   17.0000 H   0  0  0  0  0  0
   22.9476   54.6575   13.8516 H   0  0  0  0  0  0
   18.1858   47.0730   17.0075 H   0  0  0  0  0  0
   16.6288   48.0887   13.1534 H   0  0  0  0  0  0
   25.2822   51.9780   11.4577 H   0  0  0  0  0  0
   24.9866   54.1783   12.5608 H   0  0  0  0  0  0
   16.4238   46.8364   15.2789 H   0  0  0  0  0  0
  1  2  2  0  0  0
  1  3  1  0  0  0
  1  4  1  0  0  0
  2  5  1  0  0  0
  2 12  1  0  0  0
  3  6  2  0  0  0
  3  7  1  0  0  0
  4 16  2  0  0  0
  4 19  1  0  0  0
  5 17  1  0  0  0
  5 18  2  0  0  0
  6 10  1  0  0  0
  6 29  1  0  0  0
  7 11  2  0  0  0
  7 30  1  0  0  0
  8 15  1  0  0  0
  8 20  1  0  0  0
  8 21  1  0  0  0
  9 11  1  0  0  0
  9 13  1  0  0  0
  9 10  2  0  0  0
 10 31  1  0  0  0
 11 32  1  0  0  0
 12 22  1  0  0  0
 12 33  1  0  0  0
 12 34  1  0  0  0
 13 14  1  0  0  0
 14 15  1  0  0  0
 14 35  1  0  0  0
 14 36  1  0  0  0
 15 37  1  0  0  0
 15 38  1  0  0  0
 16 23  1  0  0  0
 16 39  1  0  0  0
 17 24  2  0  0  0
 17 40  1  0  0  0
 18 25  1  0  0  0
 18 41  1  0  0  0
 19 26  2  0  0  0
 19 42  1  0  0  0
 20 43  1  0  0  0
 20 44  1  0  0  0
 20 45  1  0  0  0
 21 46  1  0  0  0
 21 47  1  0  0  0
 21 48  1  0  0  0
 22 49  1  0  0  0
 22 50  1  0  0  0
 22 51  1  0  0  0
 23 27  2  0  0  0
 23 52  1  0  0  0
 24 28  1  0  0  0
 24 53  1  0  0  0
 25 28  2  0  0  0
 25 54  1  0  0  0
 26 27  1  0  0  0
 26 55  1  0  0  0
 27 56  1  0  0  0
 28 57  1  0  0  0
M  END
> <s_m_entry_id>
5373

> <s_m_entry_name>
dock_pv.364

> <s_m_Source_Path>
/home/csk/Desktop/cluster/DUD-E-result/pgh1

> <s_m_Source_File>
dock_pv.maegz

> <i_m_Source_File_Index>
364

> <chembl_id>
CHEMBL83

> <chembl_pref_name>
TAMOXIFEN

> <i_lp_mmshare_version>
53161

> <r_lp_tautomer_probability>
1

> <s_lp_Force_Field>
OPLS_2005

> <r_lp_Energy>
36.732229

> <b_lp_Chiralities_Consistent>
1

> <s_lp_Variant>
CHEMBL221_lig892-1

> <s_i_glide_gridfile>
glide-grid_2oyu

> <i_i_glide_lignum>
1099

> <i_i_glide_rotatable_bonds>
8

> <r_i_docking_score>
-7.88370351968533

> <r_i_glide_ligand_efficiency>
-0.281560839988762

> <r_i_glide_ligand_efficiency_sa>
-0.854984540672261

> <r_i_glide_ligand_efficiency_ln>
-1.81979024793696

> <r_i_glide_gscore>
-7.88370351968533

> <r_i_glide_lipo>
-5.82933486165619

> <r_i_glide_hbond>
-0.001201055682836

> <r_i_glide_metal>
0

> <r_i_glide_rewards>
-1.77551231307466

> <r_i_glide_evdw>
-17.1107444763184

> <r_i_glide_ecoul>
-2.67427802085876

> <r_i_glide_erotb>
0.979023637673086

> <r_i_glide_esite>
0

> <r_i_glide_emodel>
-18.8836407612609

> <r_i_glide_energy>
-19.7850224971771

> <r_i_glide_einternal>
7.36920547485352

> <i_i_glide_confnum>
21

> <i_i_glide_posenum>
2

> <r_i_glide_eff_state_penalty>
0

> <s_user_duplicate_titles>
CHEMBL221_lig892

> <i_f3d_flags>
0

> <s_m_subgroup_title>
dock_pv

> <s_m_subgroupid>
dock_pv

> <b_m_subgroup_collapsed>
1

$$$$
CHEMBL221_lig97
                    3D
 Schrodinger Suite 2021-1.
 45 47  0  0  1  0            999 V2000
   20.2147   49.2280   14.2122 N   0  0  0  0  0  0
   18.6561   48.2210   15.4485 N   0  0  0  0  0  0
   19.2925   48.7263   13.3290 C   0  0  0  0  0  0
   19.8097   48.8178   15.4568 C   0  0  0  0  0  0
   24.4233   53.1341   12.9485 S   0  0  0  0  0  0
   18.2885   48.2343   14.1818 C   0  0  0  0  0  0
   21.2714   50.0924   13.9319 C   0  0  0  0  0  0
   23.2568   51.9034   13.3996 C   0  0  0  0  0  0
   19.4803   48.7991   11.8418 C   0  0  0  0  0  0
   25.6121   53.0733   13.7995 O   0  0  0  0  0  0
   24.5228   53.0293   11.4940 O   0  0  0  0  0  0
   22.3383   52.1568   14.4147 C   0  0  0  0  0  0
   23.1550   50.7723   12.6007 C   0  0  0  0  0  0
   21.3590   51.2392   14.7082 C   0  0  0  0  0  0
   22.1416   49.8730   12.8577 C   0  0  0  0  0  0
   16.6985   47.7499   13.8004 Cl  0  0  0  0  0  0
   19.7736   49.9631   11.1094 C   0  0  0  0  0  0
   19.4931   47.5783   11.1928 C   0  0  0  0  0  0
   23.5220   54.6730   13.4006 C   0  0  0  0  0  0
   20.0374   48.6480    9.0890 C   0  0  0  0  0  0
   20.1229   49.8817    9.7547 C   0  0  0  0  0  0
   19.7228   47.5117    9.8213 C   0  0  0  0  0  0
   20.1230   48.4460    7.7228 O   0  0  0  0  0  0
   20.0023   49.5421    6.8239 C   0  0  0  0  0  0
   19.5872   49.0742    5.4334 C   0  0  0  0  0  0
   18.1232   48.6730    5.3890 C   0  0  0  0  0  0
   20.3897   49.0728   16.3313 H   0  0  0  0  0  0
   22.3695   53.0586   15.0001 H   0  0  0  0  0  0
   23.8349   50.6015   11.7774 H   0  0  0  0  0  0
   20.6585   51.4459   15.5056 H   0  0  0  0  0  0
   22.0628   48.9992   12.2256 H   0  0  0  0  0  0
   19.7900   50.9238   11.6039 H   0  0  0  0  0  0
   19.3234   46.6742   11.7647 H   0  0  0  0  0  0
   24.1227   55.4731   13.0009 H   0  0  0  0  0  0
   22.5128   54.6692   12.9981 H   0  0  0  0  0  0
   23.4925   54.8124   14.4770 H   0  0  0  0  0  0
   20.3586   50.7857    9.2142 H   0  0  0  0  0  0
   19.6782   46.5634    9.3118 H   0  0  0  0  0  0
   20.9230   50.0722    6.6945 H   0  0  0  0  0  0
   19.3016   50.2730    7.1975 H   0  0  0  0  0  0
   20.2241   48.2516    5.1046 H   0  0  0  0  0  0
   19.7389   49.8849    4.7219 H   0  0  0  0  0  0
   17.8165   48.3654    4.3891 H   0  0  0  0  0  0
   17.4773   49.4998    5.6827 H   0  0  0  0  0  0
   17.9279   47.8505    6.0740 H   0  0  0  0  0  0
  1  3  1  0  0  0
  1  4  1  0  0  0
  1  7  1  0  0  0
  2  4  2  0  0  0
  2  6  1  0  0  0
  3  6  2  0  0  0
  3  9  1  0  0  0
  4 27  1  0  0  0
  5  8  1  0  0  0
  5 10  2  0  0  0
  5 11  2  0  0  0
  5 19  1  0  0  0
  6 16  1  0  0  0
  7 14  1  0  0  0
  7 15  2  0  0  0
  8 13  2  0  0  0
  8 12  1  0  0  0
  9 17  2  0  0  0
  9 18  1  0  0  0
 12 14  2  0  0  0
 12 28  1  0  0  0
 13 15  1  0  0  0
 13 29  1  0  0  0
 14 30  1  0  0  0
 15 31  1  0  0  0
 17 21  1  0  0  0
 17 32  1  0  0  0
 18 22  2  0  0  0
 18 33  1  0  0  0
 19 34  1  0  0  0
 19 35  1  0  0  0
 19 36  1  0  0  0
 20 22  1  0  0  0
 20 23  1  0  0  0
 20 21  2  0  0  0
 21 37  1  0  0  0
 22 38  1  0  0  0
 23 24  1  0  0  0
 24 25  1  0  0  0
 24 39  1  0  0  0
 24 40  1  0  0  0
 25 26  1  0  0  0
 25 41  1  0  0  0
 25 42  1  0  0  0
 26 43  1  0  0  0
 26 44  1  0  0  0
 26 45  1  0  0  0
M  END
> <s_m_entry_id>
5374

> <s_m_entry_name>
dock_pv.365

> <s_m_Source_Path>
/home/csk/Desktop/cluster/DUD-E-result/pgh1

> <s_m_Source_File>
dock_pv.maegz

> <i_m_Source_File_Index>
365

> <chembl_id>
CHEMBL442018

> <chembl_pref_name>
None

> <i_lp_mmshare_version>
53161

> <r_lp_tautomer_probability>
1

> <s_lp_Force_Field>
OPLS_2005

> <r_lp_Energy>
14.965801

> <b_lp_Chiralities_Consistent>
1

> <s_lp_Variant>
CHEMBL221_lig97-1

> <s_i_glide_gridfile>
glide-grid_2oyu

> <i_i_glide_lignum>
116

> <i_i_glide_rotatable_bonds>
6

> <r_i_docking_score>
-7.87956559006362

> <r_i_glide_ligand_efficiency>
-0.303060215002447

> <r_i_glide_ligand_efficiency_sa>
-0.897814694460385

> <r_i_glide_ligand_efficiency_ln>
-1.85049012386291

> <r_i_glide_gscore>
-7.87956559006362

> <r_i_glide_lipo>
-4.28129053992859

> <r_i_glide_hbond>
0

> <r_i_glide_metal>
0

> <r_i_glide_rewards>
-2.41782711383859

> <r_i_glide_evdw>
-18.6019630432129

> <r_i_glide_ecoul>
-5.07392024993896

> <r_i_glide_erotb>
0.510738253355056

> <r_i_glide_esite>
0

> <r_i_glide_emodel>
-38.3033613273994

> <r_i_glide_energy>
-23.6758832931519

> <r_i_glide_einternal>
2.79693746566772

> <i_i_glide_confnum>
88

> <i_i_glide_posenum>
71

> <r_i_glide_eff_state_penalty>
0

> <s_user_duplicate_titles>
CHEMBL221_lig97

> <i_f3d_flags>
0

> <s_m_subgroup_title>
dock_pv

> <s_m_subgroupid>
dock_pv

> <b_m_subgroup_collapsed>
1

$$$$
CHEMBL221_lig928
                    3D
 Schrodinger Suite 2021-1.
 45 48  0  0  1  0            999 V2000
   19.9075   49.2785    6.9128 C   0  0  0  0  0  0
   19.8360   48.5006    8.1024 O   0  0  0  0  0  0
   20.1230   49.0721    9.3285 C   0  0  0  0  0  0
   20.5230   50.3912    9.5442 C   0  0  0  0  0  0
   20.8734   50.8745   10.8070 C   0  0  0  0  0  0
   20.6490   50.0401   11.9099 C   0  0  0  0  0  0
   20.0564   48.7700   11.7118 C   0  0  0  0  0  0
   19.7996   48.2898   10.4246 C   0  0  0  0  0  0
   19.7544   48.2663   12.9843 C   0  0  0  0  0  0
   18.9086   47.0844   13.2916 C   0  0  0  0  0  0
   18.2974   47.3377   14.6804 C   0  0  2  0  0  0
   19.3852   47.5619   15.7477 C   0  0  0  0  0  0
   20.1870   48.8593   15.4557 C   0  0  0  0  0  0
   20.3010   49.1032   13.9344 C   0  0  0  0  0  0
   20.8369   50.2144   13.2903 N   0  0  0  0  0  0
   21.3467   51.3375   14.0088 C   0  0  0  0  0  0
   20.9232   51.6253   15.1320 O   0  0  0  0  0  0
   22.4245   52.1801   13.3999 C   0  0  0  0  0  0
   23.4244   51.6131   12.6000 C   0  0  0  0  0  0
   24.5316   52.3736   12.2476 C   0  0  0  0  0  0
   24.6580   53.6672   12.7454 C   0  0  0  0  0  0
   26.1230   54.5587   12.6000 Cl  0  0  0  0  0  0
   23.6018   54.2730   13.4000 C   0  0  0  0  0  0
   22.4852   53.5324   13.7416 C   0  0  0  0  0  0
   17.4258   46.1357   15.0000 C   0  0  0  0  0  0
   16.2026   46.1780   15.0029 O   0  0  0  0  0  0
   18.1313   44.9701   15.0000 O   0  0  0  0  0  0
   19.4553   48.7140    6.0974 H   0  0  0  0  0  0
   19.3624   50.2180    6.9895 H   0  0  0  0  0  0
   20.9375   49.4780    6.6263 H   0  0  0  0  0  0
   20.5798   51.0727    8.7095 H   0  0  0  0  0  0
   21.2600   51.8730   10.9158 H   0  0  0  0  0  0
   19.3598   47.3152   10.2789 H   0  0  0  0  0  0
   18.1230   47.0730   12.5404 H   0  0  0  0  0  0
   19.4817   46.1620   13.2034 H   0  0  0  0  0  0
   17.6055   48.1840   14.6631 H   0  0  0  0  0  0
   20.1095   46.7452   15.7479 H   0  0  0  0  0  0
   18.9230   47.7014   16.7251 H   0  0  0  0  0  0
   21.1722   48.7889   15.9158 H   0  0  0  0  0  0
   19.6951   49.6881   15.9577 H   0  0  0  0  0  0
   23.3946   50.5731   12.3060 H   0  0  0  0  0  0
   25.3230   51.9316   11.6627 H   0  0  0  0  0  0
   23.6925   55.2885   13.7485 H   0  0  0  0  0  0
   21.7200   53.9955   14.3498 H   0  0  0  0  0  0
   17.5206   44.2368   15.0994 H   0  0  0  0  0  0
  1  2  1  0  0  0
  1 28  1  0  0  0
  1 29  1  0  0  0
  1 30  1  0  0  0
  2  3  1  0  0  0
  3  4  2  0  0  0
  3  8  1  0  0  0
  4  5  1  0  0  0
  4 31  1  0  0  0
  5  6  2  0  0  0
  5 32  1  0  0  0
  6  7  1  0  0  0
  6 15  1  0  0  0
  7  8  2  0  0  0
  7  9  1  0  0  0
  8 33  1  0  0  0
  9 10  1  0  0  0
  9 14  2  0  0  0
 10 11  1  0  0  0
 10 34  1  0  0  0
 10 35  1  0  0  0
 11 12  1  0  0  0
 11 25  1  0  0  0
 11 36  1  0  0  0
 12 13  1  0  0  0
 12 37  1  0  0  0
 12 38  1  0  0  0
 13 14  1  0  0  0
 13 39  1  0  0  0
 13 40  1  0  0  0
 14 15  1  0  0  0
 15 16  1  0  0  0
 16 17  2  0  0  0
 16 18  1  0  0  0
 18 19  2  0  0  0
 18 24  1  0  0  0
 19 20  1  0  0  0
 19 41  1  0  0  0
 20 21  2  0  0  0
 20 42  1  0  0  0
 21 22  1  0  0  0
 21 23  1  0  0  0
 23 24  2  0  0  0
 23 43  1  0  0  0
 24 44  1  0  0  0
 25 26  2  0  0  0
 25 27  1  0  0  0
 27 45  1  0  0  0
M  END
> <s_m_entry_id>
5375

> <s_m_entry_name>
dock_pv.366

> <s_m_Source_Path>
/home/csk/Desktop/cluster/DUD-E-result/pgh1

> <s_m_Source_File>
dock_pv.maegz

> <i_m_Source_File_Index>
366

> <chembl_id>
CHEMBL2323522

> <chembl_pref_name>
None

> <i_lp_mmshare_version>
53161

> <r_lp_tautomer_probability>
1

> <s_lp_Force_Field>
OPLS_2005

> <r_lp_Energy>
34.815847

> <b_lp_Chiralities_Consistent>
1

> <s_lp_Variant>
CHEMBL221_lig928-1

> <s_i_glide_gridfile>
glide-grid_2oyu

> <i_i_glide_lignum>
1149

> <i_i_glide_rotatable_bonds>
5

> <r_i_docking_score>
-7.8780070159371

> <r_i_glide_ligand_efficiency>
-0.2917780376273

> <r_i_glide_ligand_efficiency_sa>
-0.875334111920248

> <r_i_glide_ligand_efficiency_ln>
-1.8338701542139

> <r_i_glide_gscore>
-7.8780070159371

> <r_i_glide_lipo>
-4.41522919170523

> <r_i_glide_hbond>
0

> <r_i_glide_metal>
0

> <r_i_glide_rewards>
-2.43187665197588

> <r_i_glide_evdw>
-22.5599803924561

> <r_i_glide_ecoul>
-1.99129152297974

> <r_i_glide_erotb>
0.395791575813775

> <r_i_glide_esite>
0

> <r_i_glide_emodel>
-42.1169534751271

> <r_i_glide_energy>
-24.5512719154358

> <r_i_glide_einternal>
9.07551956176758

> <i_i_glide_confnum>
22

> <i_i_glide_posenum>
379

> <r_i_glide_eff_state_penalty>
0

> <s_user_duplicate_titles>
CHEMBL221_lig928

> <i_f3d_flags>
0

> <s_m_subgroup_title>
dock_pv

> <s_m_subgroupid>
dock_pv

> <b_m_subgroup_collapsed>
1

$$$$
CHEMBL221_lig826
                    3D
 Schrodinger Suite 2021-1.
 33 34  0  0  1  0            999 V2000
   22.7093   53.3954   13.5979 C   0  0  0  0  0  0
   23.5587   52.9512   12.5809 C   0  0  0  0  0  0
   23.4828   51.6403   12.1088 C   0  0  0  0  0  0
   21.8293   52.4896   14.2007 C   0  0  0  0  0  0
   21.7973   51.1636   13.7802 C   0  0  0  0  0  0
   22.5644   50.7639   12.6870 C   0  0  0  0  0  0
   22.4652   49.4731   12.1987 O   0  0  0  0  0  0
   21.1567   48.8554   12.2930 C   0  0  1  0  0  0
   20.5228   49.0893   13.6891 C   0  0  0  0  0  0
   20.8963   50.1891   14.3726 C   0  0  0  0  0  0
   20.2464   49.3030   11.1168 C   0  0  0  0  0  0
   19.6273   50.4590   11.3593 F   0  0  0  0  0  0
   20.9418   49.4731    9.9922 F   0  0  0  0  0  0
   19.3234   48.3803   10.8532 F   0  0  0  0  0  0
   19.5982   48.1272   14.2640 C   0  0  0  0  0  0
   19.0977   48.2236   15.3822 O   0  0  0  0  0  0
   19.3201   47.0803   13.4414 O   0  0  0  0  0  0
   22.8054   54.8523   14.0334 C   0  0  0  0  0  0
   21.9551   55.2737   15.2471 C   0  0  0  0  0  0
   24.4137   51.1599   11.0188 C   0  0  0  0  0  0
   24.2759   53.6355   12.1526 H   0  0  0  0  0  0
   21.1853   52.8007   15.0085 H   0  0  0  0  0  0
   21.3676   47.7904   12.1976 H   0  0  0  0  0  0
   20.5179   50.3766   15.3687 H   0  0  0  0  0  0
   18.6397   46.5368   13.8436 H   0  0  0  0  0  0
   23.8530   55.0728   14.2397 H   0  0  0  0  0  0
   22.5232   55.4670   13.1797 H   0  0  0  0  0  0
   22.1232   56.3095   15.5292 H   0  0  0  0  0  0
   20.9135   55.1909   15.0013 H   0  0  0  0  0  0
   22.1230   54.6726   16.1363 H   0  0  0  0  0  0
   25.1694   51.8967   10.7451 H   0  0  0  0  0  0
   24.9228   50.2744   11.3998 H   0  0  0  0  0  0
   23.8540   50.8674   10.1306 H   0  0  0  0  0  0
  1  2  2  0  0  0
  1  4  1  0  0  0
  1 18  1  0  0  0
  2  3  1  0  0  0
  2 21  1  0  0  0
  3  6  2  0  0  0
  3 20  1  0  0  0
  4  5  2  0  0  0
  4 22  1  0  0  0
  5  6  1  0  0  0
  5 10  1  0  0  0
  6  7  1  0  0  0
  7  8  1  0  0  0
  8  9  1  0  0  0
  8 11  1  0  0  0
  8 23  1  0  0  0
  9 10  2  0  0  0
  9 15  1  0  0  0
 10 24  1  0  0  0
 11 12  1  0  0  0
 11 13  1  0  0  0
 11 14  1  0  0  0
 15 16  2  0  0  0
 15 17  1  0  0  0
 17 25  1  0  0  0
 18 19  1  0  0  0
 18 26  1  0  0  0
 18 27  1  0  0  0
 19 28  1  0  0  0
 19 29  1  0  0  0
 19 30  1  0  0  0
 20 31  1  0  0  0
 20 32  1  0  0  0
 20 33  1  0  0  0
M  END
> <s_m_entry_id>
5376

> <s_m_entry_name>
dock_pv.367

> <s_m_Source_Path>
/home/csk/Desktop/cluster/DUD-E-result/pgh1

> <s_m_Source_File>
dock_pv.maegz

> <i_m_Source_File_Index>
367

> <chembl_id>
CHEMBL1288641

> <chembl_pref_name>
None

> <i_lp_mmshare_version>
53161

> <r_lp_tautomer_probability>
1

> <s_lp_Force_Field>
OPLS_2005

> <r_lp_Energy>
11.424894

> <b_lp_Chiralities_Consistent>
1

> <s_lp_Variant>
CHEMBL221_lig826-2

> <s_i_glide_gridfile>
glide-grid_2oyu

> <i_i_glide_lignum>
1007

> <i_i_glide_rotatable_bonds>
4

> <r_i_docking_score>
-7.87306105434484

> <r_i_glide_ligand_efficiency>
-0.393653052717242

> <r_i_glide_ligand_efficiency_sa>
-1.06853878005503

> <r_i_glide_ligand_efficiency_ln>
-1.97036751096994

> <r_i_glide_gscore>
-7.87306105434484

> <r_i_glide_lipo>
-2.74738676515487

> <r_i_glide_hbond>
0

> <r_i_glide_metal>
0

> <r_i_glide_rewards>
-3.79841759436512

> <r_i_glide_evdw>
-29.952356338501

> <r_i_glide_ecoul>
-0.341564536094666

> <r_i_glide_erotb>
0.221595802514401

> <r_i_glide_esite>
0

> <r_i_glide_emodel>
-42.2610756124905

> <r_i_glide_energy>
-30.2939208745956

> <r_i_glide_einternal>
2.64488863945007

> <i_i_glide_confnum>
2

> <i_i_glide_posenum>
97

> <r_i_glide_eff_state_penalty>
0

> <s_user_duplicate_titles>
CHEMBL221_lig826

> <i_f3d_flags>
0

> <s_m_subgroup_title>
dock_pv

> <s_m_subgroupid>
dock_pv

> <b_m_subgroup_collapsed>
1

$$$$
CHEMBL221_lig605
                    3D
 Schrodinger Suite 2021-1.
 29 30  0  0  1  0            999 V2000
   17.8195   45.4001   15.0000 O   0  0  0  0  0  0
   18.5231   46.5420   14.7484 C   0  0  0  0  0  0
   19.1506   46.6730   13.5180 C   0  0  0  0  0  0
   19.9147   47.7876   13.2383 C   0  0  0  0  0  0
   20.0698   48.7752   14.2120 C   0  0  0  0  0  0
   20.9327   49.9334   13.9859 C   0  0  0  0  0  0
   21.6403   50.1962   12.8699 C   0  0  0  0  0  0
   22.5079   51.3592   12.7153 C   0  0  0  0  0  0
   23.6251   51.2816   11.8799 C   0  0  0  0  0  0
   24.5224   52.3439   11.8192 C   0  0  0  0  0  0
   25.6157   52.2730   10.9998 O   0  0  0  0  0  0
   24.3163   53.4730   12.6123 C   0  0  0  0  0  0
   23.1700   53.5755   13.4000 C   0  0  0  0  0  0
   22.9229   54.6730   14.1771 O   0  0  0  0  0  0
   22.2718   52.5243   13.4478 C   0  0  0  0  0  0
   19.4171   48.6549   15.4426 C   0  0  0  0  0  0
   18.6302   47.5400   15.7109 C   0  0  0  0  0  0
   17.2944   45.4439   15.8000 H   0  0  0  0  0  0
   19.0505   45.8955   12.7790 H   0  0  0  0  0  0
   20.3922   47.8458   12.2731 H   0  0  0  0  0  0
   21.0060   50.6161   14.8200 H   0  0  0  0  0  0
   21.5918   49.5414   12.0143 H   0  0  0  0  0  0
   23.8129   50.3891   11.3015 H   0  0  0  0  0  0
   25.7659   51.4011   10.6074 H   0  0  0  0  0  0
   25.0264   54.2868   12.6000 H   0  0  0  0  0  0
   23.2933   54.5308   15.0651 H   0  0  0  0  0  0
   21.4015   52.6226   14.0793 H   0  0  0  0  0  0
   19.5255   49.4175   16.2006 H   0  0  0  0  0  0
   18.1361   47.4488   16.6670 H   0  0  0  0  0  0
  1  2  1  0  0  0
  1 18  1  0  0  0
  2  3  2  0  0  0
  2 17  1  0  0  0
  3  4  1  0  0  0
  3 19  1  0  0  0
  4  5  2  0  0  0
  4 20  1  0  0  0
  5  6  1  0  0  0
  5 16  1  0  0  0
  6  7  2  0  0  0
  6 21  1  0  0  0
  7  8  1  0  0  0
  7 22  1  0  0  0
  8  9  2  0  0  0
  8 15  1  0  0  0
  9 10  1  0  0  0
  9 23  1  0  0  0
 10 11  1  0  0  0
 10 12  2  0  0  0
 11 24  1  0  0  0
 12 13  1  0  0  0
 12 25  1  0  0  0
 13 14  1  0  0  0
 13 15  2  0  0  0
 14 26  1  0  0  0
 15 27  1  0  0  0
 16 17  2  0  0  0
 16 28  1  0  0  0
 17 29  1  0  0  0
M  END
> <s_m_entry_id>
5377

> <s_m_entry_name>
dock_pv.368

> <s_m_Source_Path>
/home/csk/Desktop/cluster/DUD-E-result/pgh1

> <s_m_Source_File>
dock_pv.maegz

> <i_m_Source_File_Index>
368

> <chembl_id>
CHEMBL165

> <chembl_pref_name>
RESVERATROL

> <i_lp_mmshare_version>
53161

> <r_lp_tautomer_probability>
1

> <s_lp_Force_Field>
OPLS_2005

> <r_lp_Energy>
13.543861

> <b_lp_Chiralities_Consistent>
1

> <s_lp_Variant>
CHEMBL221_lig605-1

> <s_i_glide_gridfile>
glide-grid_2oyu

> <i_i_glide_lignum>
744

> <i_i_glide_rotatable_bonds>
5

> <r_i_docking_score>
-7.86860856018461

> <r_i_glide_ligand_efficiency>
-0.462859327069683

> <r_i_glide_ligand_efficiency_sa>
-1.19014166563476

> <r_i_glide_ligand_efficiency_ln>
-2.05274474805471

> <r_i_glide_gscore>
-7.86860856018461

> <r_i_glide_lipo>
-3.21849861550487

> <r_i_glide_hbond>
-0.608

> <r_i_glide_metal>
0

> <r_i_glide_rewards>
-2.26781134637634

> <r_i_glide_evdw>
-19.7047901153564

> <r_i_glide_ecoul>
-9.62063980102539

> <r_i_glide_erotb>
0.654036877618227

> <r_i_glide_esite>
0

> <r_i_glide_emodel>
-37.4603716380774

> <r_i_glide_energy>
-29.3254299163818

> <r_i_glide_einternal>
5.39639854431152

> <i_i_glide_confnum>
4

> <i_i_glide_posenum>
374

> <r_i_glide_eff_state_penalty>
0

> <s_user_duplicate_titles>
CHEMBL221_lig605,103658

> <i_f3d_flags>
0

> <s_m_subgroup_title>
dock_pv

> <s_m_subgroupid>
dock_pv

> <b_m_subgroup_collapsed>
1

$$$$
CHEMBL221_lig26
                    3D
 Schrodinger Suite 2021-1.
 28 30  0  0  1  0            999 V2000
   21.0317   50.1941   14.2670 C   0  0  0  0  0  0
   20.9230   49.9844   15.5594 N   0  0  0  0  0  0
   20.2070   49.3399   13.5017 C   0  0  0  0  0  0
   21.9289   51.2308   13.7966 C   0  0  0  0  0  0
   19.9840   48.9698   15.7036 O   0  0  0  0  0  0
   22.7805   50.9103   12.7852 O   0  0  0  0  0  0
   19.5330   48.6120   14.4764 C   0  0  0  0  0  0
   23.4776   52.0303   12.4663 C   0  0  0  0  0  0
   22.1230   52.5566   14.1542 C   0  0  0  0  0  0
   23.1076   53.0662   13.3064 C   0  0  0  0  0  0
   20.0776   49.2457   12.0077 C   0  0  0  0  0  0
   24.5902   51.9395   11.1615 Cl  0  0  0  0  0  0
   18.4517   47.5579   14.4661 C   0  0  0  0  0  0
   19.7230   48.0348   11.4003 C   0  0  0  0  0  0
   20.3464   50.3548   11.1960 C   0  0  0  0  0  0
   20.3906   50.2249    9.8136 C   0  0  0  0  0  0
   19.7230   47.9174   10.0116 C   0  0  0  0  0  0
   20.1230   48.9950    9.2284 C   0  0  0  0  0  0
   21.6057   53.0958   14.9346 H   0  0  0  0  0  0
   23.4995   54.0732   13.3044 H   0  0  0  0  0  0
   17.8341   47.6162   13.5700 H   0  0  0  0  0  0
   18.8689   46.5532   14.5156 H   0  0  0  0  0  0
   17.7762   47.6707   15.3144 H   0  0  0  0  0  0
   19.4879   47.1624   11.9900 H   0  0  0  0  0  0
   20.5548   51.3227   11.6225 H   0  0  0  0  0  0
   20.6231   51.0730    9.1914 H   0  0  0  0  0  0
   19.4657   46.9809    9.5423 H   0  0  0  0  0  0
   20.1483   48.8965    8.1526 H   0  0  0  0  0  0
  1  2  2  0  0  0
  1  3  1  0  0  0
  1  4  1  0  0  0
  2  5  1  0  0  0
  3  7  2  0  0  0
  3 11  1  0  0  0
  4  6  1  0  0  0
  4  9  2  0  0  0
  5  7  1  0  0  0
  6  8  1  0  0  0
  7 13  1  0  0  0
  8 12  1  0  0  0
  8 10  2  0  0  0
  9 10  1  0  0  0
  9 19  1  0  0  0
 10 20  1  0  0  0
 11 14  1  0  0  0
 11 15  2  0  0  0
 13 21  1  0  0  0
 13 22  1  0  0  0
 13 23  1  0  0  0
 14 17  2  0  0  0
 14 24  1  0  0  0
 15 16  1  0  0  0
 15 25  1  0  0  0
 16 18  2  0  0  0
 16 26  1  0  0  0
 17 18  1  0  0  0
 17 27  1  0  0  0
 18 28  1  0  0  0
M  END
> <s_m_entry_id>
5378

> <s_m_entry_name>
dock_pv.369

> <s_m_Source_Path>
/home/csk/Desktop/cluster/DUD-E-result/pgh1

> <s_m_Source_File>
dock_pv.maegz

> <i_m_Source_File_Index>
369

> <chembl_id>
CHEMBL363228

> <chembl_pref_name>
None

> <i_lp_mmshare_version>
53161

> <r_lp_tautomer_probability>
1

> <s_lp_Force_Field>
OPLS_2005

> <r_lp_Energy>
9.47978

> <b_lp_Chiralities_Consistent>
1

> <s_lp_Variant>
CHEMBL221_lig26-1

> <s_i_glide_gridfile>
glide-grid_2oyu

> <i_i_glide_lignum>
31

> <i_i_glide_rotatable_bonds>
2

> <r_i_docking_score>
-7.86524086891591

> <r_i_glide_ligand_efficiency>
-0.436957826050884

> <r_i_glide_ligand_efficiency_sa>
-1.14515346115178

> <r_i_glide_ligand_efficiency_ln>
-2.02171960891709

> <r_i_glide_gscore>
-7.86524086891591

> <r_i_glide_lipo>
-4.12916131640037

> <r_i_glide_hbond>
0

> <r_i_glide_metal>
0

> <r_i_glide_rewards>
-2.47660015356283

> <r_i_glide_evdw>
-33.2345848083496

> <r_i_glide_ecoul>
-0.81560081243515

> <r_i_glide_erotb>
0.524589963330045

> <r_i_glide_esite>
0

> <r_i_glide_emodel>
-47.951440145952

> <r_i_glide_energy>
-34.0501856207848

> <r_i_glide_einternal>
2.34331464767456

> <i_i_glide_confnum>
1

> <i_i_glide_posenum>
290

> <r_i_glide_eff_state_penalty>
0

> <s_user_duplicate_titles>
CHEMBL221_lig26,313084

> <i_f3d_flags>
0

> <s_m_subgroup_title>
dock_pv

> <s_m_subgroupid>
dock_pv

> <b_m_subgroup_collapsed>
1

$$$$
CHEMBL221_lig926
                    3D
 Schrodinger Suite 2021-1.
 31 32  0  0  1  0            999 V2000
   18.7992   47.1077   15.4716 C   0  0  0  0  0  0
   22.5228   52.7040   12.7374 C   0  0  0  0  0  0
   18.4530   47.3832   13.9980 C   0  0  2  0  0  0
   22.9429   51.8310   11.7172 C   0  0  0  0  0  0
   19.4732   48.2673   13.2622 C   0  0  0  0  0  0
   22.0370   50.8925   10.9358 C   0  0  0  0  0  0
   19.7165   46.3587   15.7986 O   0  0  0  0  0  0
   19.4271   48.2745   11.8620 C   0  0  0  0  0  0
   20.4139   49.0966   13.9034 C   0  0  0  0  0  0
   21.1781   49.9414   11.7642 C   0  0  0  0  0  0
   18.0618   47.8537   16.3468 O   0  0  0  0  0  0
   21.2717   49.8853   13.1568 C   0  0  0  0  0  0
   20.2526   49.1186   11.1207 C   0  0  0  0  0  0
   23.5355   53.4464   13.3125 C   0  0  0  0  0  0
   25.0591   53.0734   12.6063 S   0  0  0  0  0  0
   24.3112   51.9515   11.5216 C   0  0  0  0  0  0
   17.0104   47.9014   13.7903 C   0  0  0  0  0  0
   20.5223   49.1823   15.2492 F   0  0  0  0  0  0
   21.4939   52.7833   13.0543 H   0  0  0  0  0  0
   18.5233   46.4004   13.5320 H   0  0  0  0  0  0
   22.6046   50.2936   10.2214 H   0  0  0  0  0  0
   21.3497   51.4716   10.3168 H   0  0  0  0  0  0
   18.7218   47.6429   11.3407 H   0  0  0  0  0  0
   17.4395   48.4168   15.8849 H   0  0  0  0  0  0
   21.9945   50.4653   13.7062 H   0  0  0  0  0  0
   20.1701   49.1328   10.0431 H   0  0  0  0  0  0
   23.4573   54.1760   14.1074 H   0  0  0  0  0  0
   24.9175   51.4168   10.8044 H   0  0  0  0  0  0
   16.9216   48.9374   14.1140 H   0  0  0  0  0  0
   16.7240   47.8752   12.7390 H   0  0  0  0  0  0
   16.2773   47.3011   14.3306 H   0  0  0  0  0  0
  1  3  1  0  0  0
  1  7  2  0  0  0
  1 11  1  0  0  0
  2  4  1  0  0  0
  2 14  2  0  0  0
  2 19  1  0  0  0
  3  5  1  0  0  0
  3 17  1  0  0  0
  3 20  1  0  0  0
  4  6  1  0  0  0
  4 16  2  0  0  0
  5  8  2  0  0  0
  5  9  1  0  0  0
  6 10  1  0  0  0
  6 21  1  0  0  0
  6 22  1  0  0  0
  8 13  1  0  0  0
  8 23  1  0  0  0
  9 12  2  0  0  0
  9 18  1  0  0  0
 10 12  1  0  0  0
 10 13  2  0  0  0
 11 24  1  0  0  0
 12 25  1  0  0  0
 13 26  1  0  0  0
 14 15  1  0  0  0
 14 27  1  0  0  0
 15 16  1  0  0  0
 16 28  1  0  0  0
 17 29  1  0  0  0
 17 30  1  0  0  0
 17 31  1  0  0  0
M  END
> <s_m_entry_id>
5379

> <s_m_entry_name>
dock_pv.370

> <s_m_Source_Path>
/home/csk/Desktop/cluster/DUD-E-result/pgh1

> <s_m_Source_File>
dock_pv.maegz

> <i_m_Source_File_Index>
370

> <chembl_id>
CHEMBL2063855

> <chembl_pref_name>
None

> <i_lp_mmshare_version>
53161

> <r_lp_tautomer_probability>
1

> <s_lp_Force_Field>
OPLS_2005

> <r_lp_Energy>
9.357359

> <b_lp_Chiralities_Consistent>
1

> <s_lp_Variant>
CHEMBL221_lig926-1

> <s_i_glide_gridfile>
glide-grid_2oyu

> <i_i_glide_lignum>
1146

> <i_i_glide_rotatable_bonds>
5

> <r_i_docking_score>
-7.86379650811187

> <r_i_glide_ligand_efficiency>
-0.436877583783992

> <r_i_glide_ligand_efficiency_sa>
-1.14494316692157

> <r_i_glide_ligand_efficiency_ln>
-2.02134834342013

> <r_i_glide_gscore>
-7.86379650811187

> <r_i_glide_lipo>
-3.92795736955064

> <r_i_glide_hbond>
-0.0460414926061015

> <r_i_glide_metal>
0

> <r_i_glide_rewards>
-2.94775241198929

> <r_i_glide_evdw>
-26.8167362213135

> <r_i_glide_ecoul>
-4.12611818313599

> <r_i_glide_erotb>
1.01770930457024

> <r_i_glide_esite>
0

> <r_i_glide_emodel>
-42.6751373022174

> <r_i_glide_energy>
-30.9428544044495

> <r_i_glide_einternal>
7.47923707962036

> <i_i_glide_confnum>
30

> <i_i_glide_posenum>
310

> <r_i_glide_eff_state_penalty>
0

> <s_user_duplicate_titles>
CHEMBL221_lig926

> <i_f3d_flags>
0

> <s_m_subgroup_title>
dock_pv

> <s_m_subgroupid>
dock_pv

> <b_m_subgroup_collapsed>
1

$$$$
CHEMBL221_lig78
                    3D
 Schrodinger Suite 2021-1.
 34 36  0  0  1  0            999 V2000
   20.9456   50.0151   13.4834 C   0  0  0  0  0  0
   20.0436   49.3152   12.7041 N   0  0  0  0  0  0
   19.6069   48.8059   14.8460 N   0  0  0  0  0  0
   19.2711   48.6148   13.6013 C   0  0  0  0  0  0
   20.5887   49.6843   14.7858 C   0  0  0  0  0  0
   20.0373   48.7554    6.7629 S   0  0  0  0  0  0
   22.0748   50.8636   12.9742 C   0  0  0  0  0  0
   19.9570   49.2425   11.3035 C   0  0  0  0  0  0
   20.0828   48.9781    8.5386 C   0  0  0  0  0  0
   22.3360   52.1934   13.3519 C   0  0  0  0  0  0
   19.4103   47.4730    6.6000 O   0  0  0  0  0  0
   21.3230   49.0730    6.1699 O   0  0  0  0  0  0
   24.0260   50.9161   11.5273 N   0  0  0  0  0  0
   19.7716   47.8730    9.3393 C   0  0  0  0  0  0
   20.1230   50.2369    9.1186 C   0  0  0  0  0  0
   19.7230   48.0005   10.7190 C   0  0  0  0  0  0
   20.1139   50.3781   10.5034 C   0  0  0  0  0  0
   21.3230   50.2730   16.2000 Cl  0  0  0  0  0  0
   22.9665   50.2730   12.0749 C   0  0  0  0  0  0
   18.9230   49.8704    5.9126 C   0  0  0  0  0  0
   21.3230   53.0543   14.4466 Cl  0  0  0  0  0  0
   23.4379   52.8644   12.8168 C   0  0  0  0  0  0
   24.2467   52.1977   11.8992 C   0  0  0  0  0  0
   18.4761   47.9731   13.2506 H   0  0  0  0  0  0
   19.6275   46.8952    8.9061 H   0  0  0  0  0  0
   20.1866   51.0730    8.4594 H   0  0  0  0  0  0
   19.5834   47.1204   11.3282 H   0  0  0  0  0  0
   20.2242   51.3572   10.9441 H   0  0  0  0  0  0
   22.8459   49.2369   11.7997 H   0  0  0  0  0  0
   19.0576   49.6692    4.8561 H   0  0  0  0  0  0
   19.3268   50.8029    6.2000 H   0  0  0  0  0  0
   17.8910   49.7312    6.2000 H   0  0  0  0  0  0
   23.6554   53.8816   13.1070 H   0  0  0  0  0  0
   25.1101   52.6730   11.4593 H   0  0  0  0  0  0
  1  2  1  0  0  0
  1  5  2  0  0  0
  1  7  1  0  0  0
  2  4  1  0  0  0
  2  8  1  0  0  0
  3  5  1  0  0  0
  3  4  2  0  0  0
  4 24  1  0  0  0
  5 18  1  0  0  0
  6  9  1  0  0  0
  6 11  2  0  0  0
  6 12  2  0  0  0
  6 20  1  0  0  0
  7 10  1  0  0  0
  7 19  2  0  0  0
  8 16  1  0  0  0
  8 17  2  0  0  0
  9 15  2  0  0  0
  9 14  1  0  0  0
 10 21  1  0  0  0
 10 22  2  0  0  0
 13 19  1  0  0  0
 13 23  2  0  0  0
 14 16  2  0  0  0
 14 25  1  0  0  0
 15 17  1  0  0  0
 15 26  1  0  0  0
 16 27  1  0  0  0
 17 28  1  0  0  0
 19 29  1  0  0  0
 20 30  1  0  0  0
 20 31  1  0  0  0
 20 32  1  0  0  0
 22 23  1  0  0  0
 22 33  1  0  0  0
 23 34  1  0  0  0
M  END
> <s_m_entry_id>
5380

> <s_m_entry_name>
dock_pv.371

> <s_m_Source_Path>
/home/csk/Desktop/cluster/DUD-E-result/pgh1

> <s_m_Source_File>
dock_pv.maegz

> <i_m_Source_File_Index>
371

> <chembl_id>
CHEMBL116252

> <chembl_pref_name>
None

> <i_lp_mmshare_version>
53161

> <r_lp_tautomer_probability>
1

> <s_lp_Force_Field>
OPLS_2005

> <r_lp_Energy>
10.607924

> <b_lp_Chiralities_Consistent>
1

> <s_lp_Variant>
CHEMBL221_lig78-1

> <s_i_glide_gridfile>
glide-grid_2oyu

> <i_i_glide_lignum>
95

> <i_i_glide_rotatable_bonds>
3

> <r_i_docking_score>
-7.85427060383439

> <r_i_glide_ligand_efficiency>
-0.341490026253669

> <r_i_glide_ligand_efficiency_sa>
-0.97115220859644

> <r_i_glide_ligand_efficiency_ln>
-1.89923385059547

> <r_i_glide_gscore>
-7.85427060383439

> <r_i_glide_lipo>
-4.03668778005812

> <r_i_glide_hbond>
0

> <r_i_glide_metal>
0

> <r_i_glide_rewards>
-2.52850961075875

> <r_i_glide_evdw>
-16.5627384185791

> <r_i_glide_ecoul>
-4.96747255325317

> <r_i_glide_erotb>
0.284184590899397

> <r_i_glide_esite>
0

> <r_i_glide_emodel>
-21.6609596609486

> <r_i_glide_energy>
-21.5302109718323

> <r_i_glide_einternal>
2.25348901748657

> <i_i_glide_confnum>
13

> <i_i_glide_posenum>
231

> <r_i_glide_eff_state_penalty>
0

> <s_user_duplicate_titles>
CHEMBL221_lig78

> <i_f3d_flags>
0

> <s_m_subgroup_title>
dock_pv

> <s_m_subgroupid>
dock_pv

> <b_m_subgroup_collapsed>
1

$$$$
CHEMBL221_lig378
                    3D
 Schrodinger Suite 2021-1.
 39 40  0  0  1  0            999 V2000
   19.4806   48.4802    7.0404 S   0  0  0  0  0  0
   20.9896   50.1994   13.2522 C   0  0  0  0  0  0
   20.5510   49.7796   14.6490 C   0  0  0  0  0  0
   20.1230   49.4730    8.4029 C   0  0  0  0  0  0
   18.7461   47.3594    7.6256 O   0  0  0  0  0  0
   20.5230   48.2730    6.0472 O   0  0  0  0  0  0
   20.1910   49.0282    9.6824 C   0  0  0  0  0  0
   22.0835   51.0730   13.0071 C   0  0  0  0  0  0
   20.3172   49.6610   12.1233 C   0  0  0  0  0  0
   18.3706   49.4730    6.2000 N   0  0  0  0  0  0
   20.9230   50.3696   15.6645 O   0  0  0  0  0  0
   19.6380   48.6057   14.8187 C   0  0  0  0  0  0
   20.8501   49.7210   10.8326 C   0  0  0  0  0  0
   22.6556   51.0677   11.7379 C   0  0  0  0  0  0
   22.0753   50.3701   10.6976 C   0  0  0  0  0  0
   22.7116   52.0421   14.0229 C   0  0  0  0  0  0
   19.8253   47.4521   14.0506 C   0  0  0  0  0  0
   18.6089   48.6345   15.7692 C   0  0  0  0  0  0
   22.9915   53.4486   13.4384 C   0  0  0  0  0  0
   18.9230   46.4047   14.1345 C   0  0  0  0  0  0
   17.6904   47.5953   15.8346 C   0  0  0  0  0  0
   17.8411   46.4949   15.0000 C   0  0  0  0  0  0
   20.4784   50.4485    8.1129 H   0  0  0  0  0  0
   19.7839   48.0514    9.9058 H   0  0  0  0  0  0
   19.3890   49.1201   12.2369 H   0  0  0  0  0  0
   18.6007   49.6291    5.2158 H   0  0  0  0  0  0
   17.4093   49.1268    6.3048 H   0  0  0  0  0  0
   23.5681   51.6075   11.5355 H   0  0  0  0  0  0
   22.6379   50.3572    9.8000 H   0  0  0  0  0  0
   22.0519   52.2251   14.8650 H   0  0  0  0  0  0
   23.6270   51.6049   14.4219 H   0  0  0  0  0  0
   20.6466   47.3696   13.3525 H   0  0  0  0  0  0
   18.4739   49.4730   16.4320 H   0  0  0  0  0  0
   23.3230   54.1498   14.2000 H   0  0  0  0  0  0
   23.7691   53.4416   12.6757 H   0  0  0  0  0  0
   22.0901   53.8756   13.0000 H   0  0  0  0  0  0
   19.0206   45.5397   13.4956 H   0  0  0  0  0  0
   16.8647   47.6426   16.5297 H   0  0  0  0  0  0
   17.1197   45.6915   15.0352 H   0  0  0  0  0  0
  1  4  1  0  0  0
  1  5  2  0  0  0
  1  6  2  0  0  0
  1 10  1  0  0  0
  2  9  2  0  0  0
  2  3  1  0  0  0
  2  8  1  0  0  0
  3 11  2  0  0  0
  3 12  1  0  0  0
  4  7  2  0  0  0
  4 23  1  0  0  0
  7 13  1  0  0  0
  7 24  1  0  0  0
  8 14  2  0  0  0
  8 16  1  0  0  0
  9 13  1  0  0  0
  9 25  1  0  0  0
 10 26  1  0  0  0
 10 27  1  0  0  0
 12 17  1  0  0  0
 12 18  2  0  0  0
 13 15  2  0  0  0
 14 15  1  0  0  0
 14 28  1  0  0  0
 15 29  1  0  0  0
 16 19  1  0  0  0
 16 30  1  0  0  0
 16 31  1  0  0  0
 17 20  2  0  0  0
 17 32  1  0  0  0
 18 21  1  0  0  0
 18 33  1  0  0  0
 19 34  1  0  0  0
 19 35  1  0  0  0
 19 36  1  0  0  0
 20 22  1  0  0  0
 20 37  1  0  0  0
 21 22  2  0  0  0
 21 38  1  0  0  0
 22 39  1  0  0  0
M  END
> <s_m_entry_id>
5381

> <s_m_entry_name>
dock_pv.372

> <s_m_Source_Path>
/home/csk/Desktop/cluster/DUD-E-result/pgh1

> <s_m_Source_File>
dock_pv.maegz

> <i_m_Source_File_Index>
372

> <chembl_id>
CHEMBL147189

> <chembl_pref_name>
None

> <i_lp_mmshare_version>
53161

> <r_lp_tautomer_probability>
1

> <s_lp_Force_Field>
OPLS_2005

> <r_lp_Energy>
16.083776

> <b_lp_Chiralities_Consistent>
1

> <s_lp_Variant>
CHEMBL221_lig378-1

> <s_i_glide_gridfile>
glide-grid_2oyu

> <i_i_glide_lignum>
444

> <i_i_glide_rotatable_bonds>
5

> <r_i_docking_score>
-7.85327734315481

> <r_i_glide_ligand_efficiency>
-0.356967151961582

> <r_i_glide_ligand_efficiency_sa>
-1.0002359985178

> <r_i_glide_ligand_efficiency_ln>
-1.9196274379182

> <r_i_glide_gscore>
-7.85327734315481

> <r_i_glide_lipo>
-3.46714380324239

> <r_i_glide_hbond>
-0.370887199263043

> <r_i_glide_metal>
0

> <r_i_glide_rewards>
-3.00812149305245

> <r_i_glide_evdw>
-22.1948566436768

> <r_i_glide_ecoul>
-3.86443161964417

> <r_i_glide_erotb>
0.748044608873506

> <r_i_glide_esite>
-0.0657618813399745

> <r_i_glide_emodel>
-22.6232100207806

> <r_i_glide_energy>
-26.0592882633209

> <r_i_glide_einternal>
10.1162137985229

> <i_i_glide_confnum>
47

> <i_i_glide_posenum>
24

> <r_i_glide_eff_state_penalty>
0

> <s_user_duplicate_titles>
CHEMBL221_lig378,250253

> <i_f3d_flags>
0

> <s_m_subgroup_title>
dock_pv

> <s_m_subgroupid>
dock_pv

> <b_m_subgroup_collapsed>
1

$$$$
CHEMBL221_lig815
                    3D
 Schrodinger Suite 2021-1.
 28 29  0  0  1  0            999 V2000
   22.0949   53.5216   14.1999 C   0  0  0  0  0  0
   23.0322   53.3414   13.1845 C   0  0  0  0  0  0
   23.1466   52.1067   12.5288 C   0  0  0  0  0  0
   21.3241   52.4453   14.6373 C   0  0  0  0  0  0
   21.4459   51.2046   14.0197 C   0  0  0  0  0  0
   22.3045   51.0602   12.9268 C   0  0  0  0  0  0
   22.3760   49.8528   12.2547 O   0  0  0  0  0  0
   21.1559   49.0734   12.1954 C   0  0  1  0  0  0
   20.4297   49.0338   13.5606 C   0  0  0  0  0  0
   20.6088   50.0684   14.4016 C   0  0  0  0  0  0
   19.5880   47.9063   13.9255 C   0  0  0  0  0  0
   19.5906   46.9092   12.9992 O   0  0  0  0  0  0
   18.9287   47.8311   14.9610 O   0  0  0  0  0  0
   20.2416   49.5255   11.0254 C   0  0  0  0  0  0
   19.3231   48.6041   10.7421 F   0  0  0  0  0  0
   19.6121   50.6719   11.2855 F   0  0  0  0  0  0
   20.9426   49.7079    9.9081 F   0  0  0  0  0  0
   21.8962   55.0659   14.9469 Cl  0  0  0  0  0  0
   24.1446   51.8892   11.4648 C   0  0  0  0  0  0
   25.3403   52.4926   11.3987 C   0  0  0  0  0  0
   23.6602   54.1751   12.9120 H   0  0  0  0  0  0
   20.6278   52.5814   15.4513 H   0  0  0  0  0  0
   21.5120   48.0735   11.9715 H   0  0  0  0  0  0
   20.1334   50.0704   15.3741 H   0  0  0  0  0  0
   18.9224   46.2522   13.2087 H   0  0  0  0  0  0
   23.8742   51.1964   10.6787 H   0  0  0  0  0  0
   26.0222   52.2805   10.5877 H   0  0  0  0  0  0
   25.6650   53.1964   12.1522 H   0  0  0  0  0  0
  1  2  2  0  0  0
  1  4  1  0  0  0
  1 18  1  0  0  0
  2  3  1  0  0  0
  2 21  1  0  0  0
  3  6  2  0  0  0
  3 19  1  0  0  0
  4  5  2  0  0  0
  4 22  1  0  0  0
  5  6  1  0  0  0
  5 10  1  0  0  0
  6  7  1  0  0  0
  7  8  1  0  0  0
  8  9  1  0  0  0
  8 14  1  0  0  0
  8 23  1  0  0  0
  9 10  2  0  0  0
  9 11  1  0  0  0
 10 24  1  0  0  0
 11 12  1  0  0  0
 11 13  2  0  0  0
 12 25  1  0  0  0
 14 15  1  0  0  0
 14 16  1  0  0  0
 14 17  1  0  0  0
 19 20  2  0  0  0
 19 26  1  0  0  0
 20 27  1  0  0  0
 20 28  1  0  0  0
M  END
> <s_m_entry_id>
5382

> <s_m_entry_name>
dock_pv.373

> <s_m_Source_Path>
/home/csk/Desktop/cluster/DUD-E-result/pgh1

> <s_m_Source_File>
dock_pv.maegz

> <i_m_Source_File_Index>
373

> <chembl_id>
CHEMBL1288618

> <chembl_pref_name>
None

> <i_lp_mmshare_version>
53161

> <r_lp_tautomer_probability>
1

> <s_lp_Force_Field>
OPLS_2005

> <r_lp_Energy>
14.661704

> <b_lp_Chiralities_Consistent>
1

> <s_lp_Variant>
CHEMBL221_lig815-2

> <s_i_glide_gridfile>
glide-grid_2oyu

> <i_i_glide_lignum>
985

> <i_i_glide_rotatable_bonds>
4

> <r_i_docking_score>
-7.84474289900018

> <r_i_glide_ligand_efficiency>
-0.392237144950009

> <r_i_glide_ligand_efficiency_sa>
-1.06469541507201

> <r_i_glide_ligand_efficiency_ln>
-1.96328041068245

> <r_i_glide_gscore>
-7.84474289900018

> <r_i_glide_lipo>
-2.96387027354744

> <r_i_glide_hbond>
0

> <r_i_glide_metal>
0

> <r_i_glide_rewards>
-3.71716067134912

> <r_i_glide_evdw>
-30.2319450378418

> <r_i_glide_ecoul>
-0.330651164054871

> <r_i_glide_erotb>
0.397482972396704

> <r_i_glide_esite>
0

> <r_i_glide_emodel>
-43.2797769475711

> <r_i_glide_energy>
-30.5625962018967

> <r_i_glide_einternal>
2.2121160030365

> <i_i_glide_confnum>
2

> <i_i_glide_posenum>
4

> <r_i_glide_eff_state_penalty>
0

> <s_user_duplicate_titles>
CHEMBL221_lig815

> <i_f3d_flags>
0

> <s_m_subgroup_title>
dock_pv

> <s_m_subgroupid>
dock_pv

> <b_m_subgroup_collapsed>
1

$$$$
CHEMBL221_lig58
                    3D
 Schrodinger Suite 2021-1.
 42 44  0  0  1  0            999 V2000
   19.7784   48.6088   11.9542 N   0  0  0  0  0  0
   19.0073   47.7896   13.9196 N   0  0  0  0  0  0
   20.4569   49.2268   12.9886 C   0  0  0  0  0  0
   18.9230   47.7609   12.6174 C   0  0  0  0  0  0
   19.8974   49.0331    5.9510 S   0  0  0  0  0  0
   19.9421   48.6804   14.1669 C   0  0  0  0  0  0
   19.8841   48.7536   10.5413 C   0  0  0  0  0  0
   19.9059   48.9069    7.7379 C   0  0  0  0  0  0
   21.5008   50.2557   12.8180 C   0  0  0  0  0  0
   20.5730   50.2730    5.6448 O   0  0  0  0  0  0
   20.4233   47.8305    5.3455 O   0  0  0  0  0  0
   19.7230   47.6811    8.3600 C   0  0  0  0  0  0
   20.1230   50.0516    8.5218 C   0  0  0  0  0  0
   19.7230   47.6205    9.7457 C   0  0  0  0  0  0
   20.1230   49.9820    9.9164 C   0  0  0  0  0  0
   20.4088   49.0480   15.7837 Cl  0  0  0  0  0  0
   22.5231   50.0724   11.8894 C   0  0  0  0  0  0
   21.4360   51.4117   13.5897 C   0  0  0  0  0  0
   18.1230   49.0730    5.4044 C   0  0  0  0  0  0
   23.3910   52.2375   12.4535 C   0  0  0  0  0  0
   23.4614   51.0731   11.6970 C   0  0  0  0  0  0
   22.3724   52.4110   13.3999 C   0  0  0  0  0  0
   24.3697   53.1616   12.2138 O   0  0  0  0  0  0
   24.6273   54.1433   13.2034 C   0  0  0  0  0  0
   26.1230   54.2730   13.1953 C   0  0  0  0  0  0
   18.2421   47.1464   12.0546 H   0  0  0  0  0  0
   19.5882   46.7804    7.7876 H   0  0  0  0  0  0
   20.2411   51.0160    8.0463 H   0  0  0  0  0  0
   19.6328   46.6730   10.2234 H   0  0  0  0  0  0
   20.2430   50.8896   10.4906 H   0  0  0  0  0  0
   22.5689   49.1651   11.3071 H   0  0  0  0  0  0
   20.6552   51.5510   14.3224 H   0  0  0  0  0  0
   18.0985   49.0730    4.3155 H   0  0  0  0  0  0
   17.6426   48.1767    5.7833 H   0  0  0  0  0  0
   17.6436   49.9639    5.8001 H   0  0  0  0  0  0
   24.2528   50.9439   10.9720 H   0  0  0  0  0  0
   22.2832   53.3125   13.9864 H   0  0  0  0  0  0
   24.3466   53.8310   14.2000 H   0  0  0  0  0  0
   24.1245   55.0860   13.0000 H   0  0  0  0  0  0
   26.4817   55.0730   13.8233 H   0  0  0  0  0  0
   26.5145   54.4711   12.2000 H   0  0  0  0  0  0
   26.5230   53.3312   13.5645 H   0  0  0  0  0  0
  1  3  1  0  0  0
  1  4  1  0  0  0
  1  7  1  0  0  0
  2  4  2  0  0  0
  2  6  1  0  0  0
  3  6  2  0  0  0
  3  9  1  0  0  0
  4 26  1  0  0  0
  5  8  1  0  0  0
  5 10  2  0  0  0
  5 11  2  0  0  0
  5 19  1  0  0  0
  6 16  1  0  0  0
  7 14  1  0  0  0
  7 15  2  0  0  0
  8 13  2  0  0  0
  8 12  1  0  0  0
  9 17  2  0  0  0
  9 18  1  0  0  0
 12 14  2  0  0  0
 12 27  1  0  0  0
 13 15  1  0  0  0
 13 28  1  0  0  0
 14 29  1  0  0  0
 15 30  1  0  0  0
 17 21  1  0  0  0
 17 31  1  0  0  0
 18 22  2  0  0  0
 18 32  1  0  0  0
 19 33  1  0  0  0
 19 34  1  0  0  0
 19 35  1  0  0  0
 20 22  1  0  0  0
 20 23  1  0  0  0
 20 21  2  0  0  0
 21 36  1  0  0  0
 22 37  1  0  0  0
 23 24  1  0  0  0
 24 25  1  0  0  0
 24 38  1  0  0  0
 24 39  1  0  0  0
 25 40  1  0  0  0
 25 41  1  0  0  0
 25 42  1  0  0  0
M  END
> <s_m_entry_id>
5383

> <s_m_entry_name>
dock_pv.374

> <s_m_Source_Path>
/home/csk/Desktop/cluster/DUD-E-result/pgh1

> <s_m_Source_File>
dock_pv.maegz

> <i_m_Source_File_Index>
374

> <chembl_id>
CHEMBL324509

> <chembl_pref_name>
None

> <i_lp_mmshare_version>
53161

> <r_lp_tautomer_probability>
1

> <s_lp_Force_Field>
OPLS_2005

> <r_lp_Energy>
15.124543

> <b_lp_Chiralities_Consistent>
1

> <s_lp_Variant>
CHEMBL221_lig58-1

> <s_i_glide_gridfile>
glide-grid_2oyu

> <i_i_glide_lignum>
75

> <i_i_glide_rotatable_bonds>
5

> <r_i_docking_score>
-7.83370292829004

> <r_i_glide_ligand_efficiency>
-0.313348117131601

> <r_i_glide_ligand_efficiency_sa>
-0.916235451745323

> <r_i_glide_ligand_efficiency_ln>
-1.85682235113776

> <r_i_glide_gscore>
-7.83370292829004

> <r_i_glide_lipo>
-4.45270417161259

> <r_i_glide_hbond>
0

> <r_i_glide_metal>
0

> <r_i_glide_rewards>
-2.31758410347712

> <r_i_glide_evdw>
-14.9072399139404

> <r_i_glide_ecoul>
-4.69991016387939

> <r_i_glide_erotb>
0.408997614265718

> <r_i_glide_esite>
-0.022063747187113

> <r_i_glide_emodel>
-18.3552104027113

> <r_i_glide_energy>
-19.6071500778198

> <r_i_glide_einternal>
4.25971794128418

> <i_i_glide_confnum>
21

> <i_i_glide_posenum>
367

> <r_i_glide_eff_state_penalty>
0

> <s_user_duplicate_titles>
CHEMBL221_lig58

> <i_f3d_flags>
0

> <s_m_subgroup_title>
dock_pv

> <s_m_subgroupid>
dock_pv

> <b_m_subgroup_collapsed>
1

$$$$
CHEMBL221_lig118
                    3D
 Schrodinger Suite 2021-1.
 35 37  0  0  1  0            999 V2000
   19.9157   48.9025   11.9442 N   0  0  0  0  0  0
   20.6430   49.5901   12.9132 C   0  0  0  0  0  0
   19.2318   48.1728   13.9677 N   0  0  0  0  0  0
   19.0830   48.0860   12.6768 C   0  0  0  0  0  0
   19.9490   49.0445    5.9243 S   0  0  0  0  0  0
   20.1771   49.0730   14.1328 C   0  0  0  0  0  0
   21.6912   50.6445   12.6950 C   0  0  0  0  0  0
   19.9366   48.9610   10.5244 C   0  0  0  0  0  0
   19.9344   48.9888    7.7166 C   0  0  0  0  0  0
   20.4790   47.8234    5.3642 O   0  0  0  0  0  0
   20.6194   50.2730    5.5557 O   0  0  0  0  0  0
   22.6586   50.5479   11.6875 C   0  0  0  0  0  0
   19.7230   47.7940    8.3926 C   0  0  0  0  0  0
   20.1230   50.1684    8.4490 C   0  0  0  0  0  0
   19.7230   47.7888    9.7853 C   0  0  0  0  0  0
   20.1230   50.1638    9.8426 C   0  0  0  0  0  0
   20.7132   49.4730   15.7206 Cl  0  0  0  0  0  0
   23.6186   51.5495   11.5263 C   0  0  0  0  0  0
   18.1712   49.0320    5.4000 C   0  0  0  0  0  0
   24.5230   51.4730   10.5282 F   0  0  0  0  0  0
   21.7230   51.7569   13.5475 C   0  0  0  0  0  0
   22.6926   52.7480   13.4000 C   0  0  0  0  0  0
   23.6422   52.6434   12.3875 C   0  0  0  0  0  0
   18.3678   47.4535   12.1736 H   0  0  0  0  0  0
   22.6618   49.7021   11.0182 H   0  0  0  0  0  0
   19.5782   46.8783    7.8426 H   0  0  0  0  0  0
   20.2361   51.1087    7.9278 H   0  0  0  0  0  0
   19.6175   46.8464   10.2922 H   0  0  0  0  0  0
   20.2471   51.0950   10.3759 H   0  0  0  0  0  0
   18.1256   49.0730    4.3170 H   0  0  0  0  0  0
   17.6632   49.8730    5.8374 H   0  0  0  0  0  0
   17.7230   48.1043    5.7369 H   0  0  0  0  0  0
   20.9880   51.8645   14.3316 H   0  0  0  0  0  0
   22.7071   53.5962   14.0702 H   0  0  0  0  0  0
   24.3910   53.4117   12.2633 H   0  0  0  0  0  0
  1  2  1  0  0  0
  1  4  1  0  0  0
  1  8  1  0  0  0
  2  6  2  0  0  0
  2  7  1  0  0  0
  3  4  2  0  0  0
  3  6  1  0  0  0
  4 24  1  0  0  0
  5  9  1  0  0  0
  5 10  2  0  0  0
  5 11  2  0  0  0
  5 19  1  0  0  0
  6 17  1  0  0  0
  7 12  2  0  0  0
  7 21  1  0  0  0
  8 15  1  0  0  0
  8 16  2  0  0  0
  9 14  2  0  0  0
  9 13  1  0  0  0
 12 18  1  0  0  0
 12 25  1  0  0  0
 13 15  2  0  0  0
 13 26  1  0  0  0
 14 16  1  0  0  0
 14 27  1  0  0  0
 15 28  1  0  0  0
 16 29  1  0  0  0
 18 20  1  0  0  0
 18 23  2  0  0  0
 19 30  1  0  0  0
 19 31  1  0  0  0
 19 32  1  0  0  0
 21 22  2  0  0  0
 21 33  1  0  0  0
 22 23  1  0  0  0
 22 34  1  0  0  0
 23 35  1  0  0  0
M  END
> <s_m_entry_id>
5384

> <s_m_entry_name>
dock_pv.375

> <s_m_Source_Path>
/home/csk/Desktop/cluster/DUD-E-result/pgh1

> <s_m_Source_File>
dock_pv.maegz

> <i_m_Source_File_Index>
375

> <chembl_id>
CHEMBL119852

> <chembl_pref_name>
None

> <i_lp_mmshare_version>
53161

> <r_lp_tautomer_probability>
1

> <s_lp_Force_Field>
OPLS_2005

> <r_lp_Energy>
12.054275

> <b_lp_Chiralities_Consistent>
1

> <s_lp_Variant>
CHEMBL221_lig118-1

> <s_i_glide_gridfile>
glide-grid_2oyu

> <i_i_glide_lignum>
140

> <i_i_glide_rotatable_bonds>
3

> <r_i_docking_score>
-7.82030253289436

> <r_i_glide_ligand_efficiency>
-0.340013153604103

> <r_i_glide_ligand_efficiency_sa>
-0.966952179239282

> <r_i_glide_ligand_efficiency_ln>
-1.89102006303673

> <r_i_glide_gscore>
-7.82030253289436

> <r_i_glide_lipo>
-4.05214394707833

> <r_i_glide_hbond>
0

> <r_i_glide_metal>
0

> <r_i_glide_rewards>
-2.79706129324264

> <r_i_glide_evdw>
-15.780818939209

> <r_i_glide_ecoul>
-3.15941643714905

> <r_i_glide_erotb>
0.30985739921175

> <r_i_glide_esite>
-0.0180012792523422

> <r_i_glide_emodel>
-23.208603468556

> <r_i_glide_energy>
-18.940235376358

> <r_i_glide_einternal>
0.34067976474762

> <i_i_glide_confnum>
14

> <i_i_glide_posenum>
193

> <r_i_glide_eff_state_penalty>
0

> <s_user_duplicate_titles>
CHEMBL221_lig118

> <i_f3d_flags>
0

> <s_m_subgroup_title>
dock_pv

> <s_m_subgroupid>
dock_pv

> <b_m_subgroup_collapsed>
1

$$$$
CHEMBL221_lig655
                    3D
 Schrodinger Suite 2021-1.
 31 32  0  0  1  0            999 V2000
   20.8361   49.8969   11.7404 C   0  0  0  0  0  0
   19.4734   48.6878   13.3448 C   0  0  0  0  0  0
   18.6659   46.6993   14.7757 C   0  0  0  0  0  0
   21.5237   50.5474   12.7813 C   0  0  0  0  0  0
   19.8282   48.9768   12.0243 C   0  0  0  0  0  0
   18.3528   47.6811   13.6235 C   0  0  1  0  0  0
   21.1383   50.2730   14.0994 C   0  0  0  0  0  0
   20.1230   49.3696   14.3783 C   0  0  0  0  0  0
   17.6461   45.8310   15.0000 O   0  0  0  0  0  0
   19.7230   46.6730   15.4000 O   0  0  0  0  0  0
   22.6645   51.4757   12.5439 C   0  0  0  0  0  0
   21.1189   50.1533   10.4419 F   0  0  0  0  0  0
   16.9866   48.3718   13.8085 C   0  0  0  0  0  0
   22.8753   52.5665   13.3999 C   0  0  0  0  0  0
   23.5757   51.2476   11.5045 C   0  0  0  0  0  0
   24.6960   52.0551   11.3606 C   0  0  0  0  0  0
   24.0034   53.3634   13.2662 C   0  0  0  0  0  0
   24.9272   53.0730   12.2748 C   0  0  0  0  0  0
   19.3230   48.4881   11.2043 H   0  0  0  0  0  0
   18.2706   47.0730   12.7266 H   0  0  0  0  0  0
   21.6389   50.7452   14.9317 H   0  0  0  0  0  0
   19.8511   49.2001   15.4099 H   0  0  0  0  0  0
   17.8564   45.2369   15.7222 H   0  0  0  0  0  0
   16.9388   48.9214   14.7489 H   0  0  0  0  0  0
   16.7832   49.0730   13.0000 H   0  0  0  0  0  0
   16.1661   47.6540   13.8039 H   0  0  0  0  0  0
   22.1780   52.7969   14.1919 H   0  0  0  0  0  0
   23.4494   50.4197   10.8245 H   0  0  0  0  0  0
   25.4084   51.8730   10.5701 H   0  0  0  0  0  0
   24.1677   54.1973   13.9327 H   0  0  0  0  0  0
   25.8175   53.6790   12.2000 H   0  0  0  0  0  0
  1  4  1  0  0  0
  1  5  2  0  0  0
  1 12  1  0  0  0
  2  5  1  0  0  0
  2  6  1  0  0  0
  2  8  2  0  0  0
  3  6  1  0  0  0
  3  9  1  0  0  0
  3 10  2  0  0  0
  4  7  2  0  0  0
  4 11  1  0  0  0
  5 19  1  0  0  0
  6 13  1  0  0  0
  6 20  1  0  0  0
  7  8  1  0  0  0
  7 21  1  0  0  0
  8 22  1  0  0  0
  9 23  1  0  0  0
 11 14  2  0  0  0
 11 15  1  0  0  0
 13 24  1  0  0  0
 13 25  1  0  0  0
 13 26  1  0  0  0
 14 17  1  0  0  0
 14 27  1  0  0  0
 15 16  2  0  0  0
 15 28  1  0  0  0
 16 18  1  0  0  0
 16 29  1  0  0  0
 17 18  2  0  0  0
 17 30  1  0  0  0
 18 31  1  0  0  0
M  END
> <s_m_entry_id>
5385

> <s_m_entry_name>
dock_pv.376

> <s_m_Source_Path>
/home/csk/Desktop/cluster/DUD-E-result/pgh1

> <s_m_Source_File>
dock_pv.maegz

> <i_m_Source_File_Index>
376

> <chembl_id>
CHEMBL563

> <chembl_pref_name>
FLURBIPROFEN

> <i_lp_mmshare_version>
53161

> <r_lp_tautomer_probability>
1

> <s_lp_Force_Field>
OPLS_2005

> <r_lp_Energy>
16.544644

> <b_lp_Chiralities_Consistent>
1

> <s_lp_Variant>
CHEMBL221_lig655-1

> <s_i_glide_gridfile>
glide-grid_2oyu

> <i_i_glide_lignum>
795

> <i_i_glide_rotatable_bonds>
4

> <r_i_docking_score>
-7.82005220982533

> <r_i_glide_ligand_efficiency>
-0.434447344990296

> <r_i_glide_ligand_efficiency_sa>
-1.13857413952325

> <r_i_glide_ligand_efficiency_ln>
-2.01010409710928

> <r_i_glide_gscore>
-7.82005220982533

> <r_i_glide_lipo>
-3.96895114635882

> <r_i_glide_hbond>
-0.00542537668457906

> <r_i_glide_metal>
0

> <r_i_glide_rewards>
-3.03501274917304

> <r_i_glide_evdw>
-27.9753360748291

> <r_i_glide_ecoul>
-1.90643286705017

> <r_i_glide_erotb>
0.874068796190095

> <r_i_glide_esite>
0

> <r_i_glide_emodel>
-42.9370234833574

> <r_i_glide_energy>
-29.8817689418793

> <r_i_glide_einternal>
0.9909548163414

> <i_i_glide_confnum>
3

> <i_i_glide_posenum>
343

> <r_i_glide_eff_state_penalty>
0

> <s_user_duplicate_titles>
CHEMBL221_lig655,CHEMBL221_lig601,317541,16308

> <i_f3d_flags>
0

> <s_m_subgroup_title>
dock_pv

> <s_m_subgroupid>
dock_pv

> <b_m_subgroup_collapsed>
1

$$$$
CHEMBL221_lig173
                    3D
 Schrodinger Suite 2021-1.
 37 38  0  0  1  0            999 V2000
   19.5698   48.5625   11.9877 C   0  0  0  0  0  0
   20.2212   49.4850   12.8019 C   0  0  0  0  0  0
   20.9694   50.5176   12.2522 C   0  0  0  0  0  0
   21.6957   51.4337   13.1792 C   0  0  0  0  0  0
   18.7808   47.4375   12.6408 C   0  0  2  0  0  0
   17.8933   47.8775   13.8273 C   0  0  0  0  0  0
   19.7230   48.6245   10.5883 C   0  0  0  0  0  0
   20.9892   50.6625   10.8599 C   0  0  0  0  0  0
   21.3230   51.5683   14.3490 O   0  0  0  0  0  0
   18.2749   47.8839   14.9964 O   0  0  0  0  0  0
   22.9205   52.1343   12.7225 C   0  0  0  0  0  0
   20.4072   49.7108   10.0359 C   0  0  0  0  0  0
   16.6566   48.2730   13.4189 O   0  0  0  0  0  0
   19.1958   47.6028    9.8211 O   0  0  0  0  0  0
   19.7223   46.3030   13.0374 C   0  0  0  0  0  0
   23.3278   53.2777   13.4126 C   0  0  0  0  0  0
   23.7334   51.6040   11.7127 C   0  0  0  0  0  0
   19.4695   47.5228    8.4248 C   0  0  0  0  0  0
   24.9234   52.2265   11.4008 C   0  0  0  0  0  0
   24.5764   53.8242   13.1818 C   0  0  0  0  0  0
   25.3721   53.2626   12.2009 C   0  0  0  0  0  0
   20.1639   49.3779   13.8773 H   0  0  0  0  0  0
   18.1230   47.0733   11.8712 H   0  0  0  0  0  0
   21.5020   51.4791   10.3864 H   0  0  0  0  0  0
   20.5063   49.8304    8.9690 H   0  0  0  0  0  0
   16.5037   48.2111   12.4734 H   0  0  0  0  0  0
   20.4312   46.6728   13.7825 H   0  0  0  0  0  0
   19.1714   45.4571   13.4513 H   0  0  0  0  0  0
   20.2966   45.9463   12.1827 H   0  0  0  0  0  0
   22.7180   53.7093   14.1947 H   0  0  0  0  0  0
   23.4901   50.7018   11.1726 H   0  0  0  0  0  0
   18.9160   46.6847    8.0100 H   0  0  0  0  0  0
   19.1784   48.4058    7.8577 H   0  0  0  0  0  0
   20.5217   47.3268    8.2457 H   0  0  0  0  0  0
   25.5487   51.8683   10.5977 H   0  0  0  0  0  0
   24.9167   54.6755   13.7524 H   0  0  0  0  0  0
   26.3195   53.7229   11.9835 H   0  0  0  0  0  0
  1  2  2  0  0  0
  1  5  1  0  0  0
  1  7  1  0  0  0
  2  3  1  0  0  0
  2 22  1  0  0  0
  3  4  1  0  0  0
  3  8  2  0  0  0
  4  9  2  0  0  0
  4 11  1  0  0  0
  5  6  1  0  0  0
  5 15  1  0  0  0
  5 23  1  0  0  0
  6 10  2  0  0  0
  6 13  1  0  0  0
  7 12  2  0  0  0
  7 14  1  0  0  0
  8 12  1  0  0  0
  8 24  1  0  0  0
 11 16  1  0  0  0
 11 17  2  0  0  0
 12 25  1  0  0  0
 13 26  1  0  0  0
 14 18  1  0  0  0
 15 27  1  0  0  0
 15 28  1  0  0  0
 15 29  1  0  0  0
 16 20  2  0  0  0
 16 30  1  0  0  0
 17 19  1  0  0  0
 17 31  1  0  0  0
 18 32  1  0  0  0
 18 33  1  0  0  0
 18 34  1  0  0  0
 19 21  2  0  0  0
 19 35  1  0  0  0
 20 21  1  0  0  0
 20 36  1  0  0  0
 21 37  1  0  0  0
M  END
> <s_m_entry_id>
5387

> <s_m_entry_name>
dock_pv.378

> <s_m_Source_Path>
/home/csk/Desktop/cluster/DUD-E-result/pgh1

> <s_m_Source_File>
dock_pv.maegz

> <i_m_Source_File_Index>
378

> <chembl_id>
CHEMBL74276

> <chembl_pref_name>
None

> <i_lp_mmshare_version>
53161

> <r_lp_tautomer_probability>
1

> <s_lp_Force_Field>
OPLS_2005

> <r_lp_Energy>
24.706804

> <b_lp_Chiralities_Consistent>
1

> <s_lp_Variant>
CHEMBL221_lig173-1

> <s_i_glide_gridfile>
glide-grid_2oyu

> <i_i_glide_lignum>
198

> <i_i_glide_rotatable_bonds>
6

> <r_i_docking_score>
-7.81687868041655

> <r_i_glide_ligand_efficiency>
-0.372232318115074

> <r_i_glide_ligand_efficiency_sa>
-1.02696074063586

> <r_i_glide_ligand_efficiency_ln>
-1.93270745824234

> <r_i_glide_gscore>
-7.81687868041655

> <r_i_glide_lipo>
-4.01509944701171

> <r_i_glide_hbond>
0

> <r_i_glide_metal>
0

> <r_i_glide_rewards>
-2.83988949174102

> <r_i_glide_evdw>
-27.9726696014404

> <r_i_glide_ecoul>
-3.06794834136963

> <r_i_glide_erotb>
0.896935989613644

> <r_i_glide_esite>
0

> <r_i_glide_emodel>
-34.9907150829258

> <r_i_glide_energy>
-31.0406179428101

> <r_i_glide_einternal>
8.83442306518555

> <i_i_glide_confnum>
5

> <i_i_glide_posenum>
172

> <r_i_glide_eff_state_penalty>
0

> <s_user_duplicate_titles>
CHEMBL221_lig173,117738

> <i_f3d_flags>
0

> <s_m_subgroup_title>
dock_pv

> <s_m_subgroupid>
dock_pv

> <b_m_subgroup_collapsed>
1

$$$$
CHEMBL221_lig228
                    3D
 Schrodinger Suite 2021-1.
 37 39  0  0  1  0            999 V2000
   19.4675   48.2506   15.3691 S   0  0  0  0  0  0
   20.4898   49.6524   13.2284 C   0  0  0  0  0  0
   20.8079   49.3204   11.9050 C   0  0  0  0  0  0
   22.6833   50.8522   11.9818 C   0  0  0  0  0  0
   19.3581   49.0730   13.8239 N   0  0  0  0  0  0
   21.9517   49.8731   11.3114 C   0  0  0  0  0  0
   19.7230   48.2221   11.0036 S   0  0  0  0  0  0
   22.3281   51.2331   13.2668 C   0  0  0  0  0  0
   21.2561   50.6147   13.9009 C   0  0  0  0  0  0
   19.9141   48.6331    9.2932 C   0  0  0  0  0  0
   23.8497   51.6353   11.5238 C   0  0  0  0  0  0
   19.7230   47.6539    8.3122 C   0  0  0  0  0  0
   19.7661   48.0012    6.9666 C   0  0  0  0  0  0
   19.7229   46.8384   15.0782 O   0  0  0  0  0  0
   20.3818   49.0327   16.2000 O   0  0  0  0  0  0
   23.2651   52.2764   13.7967 C   0  0  0  0  0  0
   24.1748   52.6361   12.6243 C   0  0  0  0  0  0
   24.4424   51.5353   10.4565 O   0  0  0  0  0  0
   20.1230   49.9559    8.8945 C   0  0  0  0  0  0
   19.9569   49.3064    6.5701 C   0  0  0  0  0  0
   19.5543   46.3606    8.6388 F   0  0  0  0  0  0
   17.7230   48.4084   16.0466 C   0  0  0  0  0  0
   20.1230   50.2730    7.5369 C   0  0  0  0  0  0
   19.9894   49.6313    5.2619 F   0  0  0  0  0  0
   18.8949   48.4823   13.1486 H   0  0  0  0  0  0
   22.2317   49.5885   10.3102 H   0  0  0  0  0  0
   20.9891   50.9239   14.8993 H   0  0  0  0  0  0
   19.7230   47.2726    6.2000 H   0  0  0  0  0  0
   23.8746   51.8730   14.6000 H   0  0  0  0  0  0
   22.7499   53.1631   14.1698 H   0  0  0  0  0  0
   25.2313   52.6095   12.8900 H   0  0  0  0  0  0
   23.9572   53.6354   12.2514 H   0  0  0  0  0  0
   20.1899   50.7535    9.6177 H   0  0  0  0  0  0
   17.6710   47.8730   16.9931 H   0  0  0  0  0  0
   17.4992   49.4624   16.2008 H   0  0  0  0  0  0
   17.0265   47.9749   15.3301 H   0  0  0  0  0  0
   20.1971   51.2992    7.2186 H   0  0  0  0  0  0
  1  5  1  0  0  0
  1 14  2  0  0  0
  1 15  2  0  0  0
  1 22  1  0  0  0
  2  5  1  0  0  0
  2  3  2  0  0  0
  2  9  1  0  0  0
  3  6  1  0  0  0
  3  7  1  0  0  0
  4  8  1  0  0  0
  4 11  1  0  0  0
  4  6  2  0  0  0
  5 25  1  0  0  0
  6 26  1  0  0  0
  7 10  1  0  0  0
  8  9  2  0  0  0
  8 16  1  0  0  0
  9 27  1  0  0  0
 10 12  2  0  0  0
 10 19  1  0  0  0
 11 18  2  0  0  0
 11 17  1  0  0  0
 12 13  1  0  0  0
 12 21  1  0  0  0
 13 20  2  0  0  0
 13 28  1  0  0  0
 16 17  1  0  0  0
 16 29  1  0  0  0
 16 30  1  0  0  0
 17 31  1  0  0  0
 17 32  1  0  0  0
 19 23  2  0  0  0
 19 33  1  0  0  0
 20 23  1  0  0  0
 20 24  1  0  0  0
 22 34  1  0  0  0
 22 35  1  0  0  0
 22 36  1  0  0  0
 23 37  1  0  0  0
M  END
> <s_m_entry_id>
5388

> <s_m_entry_name>
dock_pv.379

> <s_m_Source_Path>
/home/csk/Desktop/cluster/DUD-E-result/pgh1

> <s_m_Source_File>
dock_pv.maegz

> <i_m_Source_File_Index>
379

> <chembl_id>
CHEMBL287919

> <chembl_pref_name>
None

> <i_lp_mmshare_version>
53161

> <r_lp_tautomer_probability>
0.99995

> <s_lp_Force_Field>
OPLS_2005

> <r_lp_Energy>
19.836593

> <b_lp_Chiralities_Consistent>
1

> <s_lp_Variant>
CHEMBL221_lig228-1

> <s_i_glide_gridfile>
glide-grid_2oyu

> <i_i_glide_lignum>
256

> <i_i_glide_rotatable_bonds>
4

> <r_i_docking_score>
-7.80877579040871

> <r_i_glide_ligand_efficiency>
-0.325365657933696

> <r_i_glide_ligand_efficiency_sa>
-0.938516959701103

> <r_i_glide_ligand_efficiency_ln>
-1.86899836801729

> <r_i_glide_gscore>
-7.80877579040871

> <r_i_glide_lipo>
-4.14495277261145

> <r_i_glide_hbond>
0

> <r_i_glide_metal>
0

> <r_i_glide_rewards>
-2.87269862370439

> <r_i_glide_evdw>
-20.9289093017578

> <r_i_glide_ecoul>
-0.861380100250244

> <r_i_glide_erotb>
0.423867668573566

> <r_i_glide_esite>
-0.0393395825410204

> <r_i_glide_emodel>
-23.4866983177828

> <r_i_glide_energy>
-21.7902894020081

> <r_i_glide_einternal>
11.6171789169312

> <i_i_glide_confnum>
3

> <i_i_glide_posenum>
255

> <r_i_glide_eff_state_penalty>
0

> <s_user_duplicate_titles>
CHEMBL221_lig228

> <i_f3d_flags>
0

> <s_m_subgroup_title>
dock_pv

> <s_m_subgroupid>
dock_pv

> <b_m_subgroup_collapsed>
1

$$$$
CHEMBL221_lig122
                    3D
 Schrodinger Suite 2021-1.
 35 37  0  0  1  0            999 V2000
   19.5375   48.8002   14.3676 N   0  0  0  0  0  0
   19.1790   48.6514   13.1248 C   0  0  0  0  0  0
   20.5871   49.5841   14.3285 C   0  0  0  0  0  0
   20.0352   49.2325   12.2075 N   0  0  0  0  0  0
   20.9635   49.8916   13.0142 C   0  0  0  0  0  0
   19.9007   49.0445    6.1625 S   0  0  0  0  0  0
   19.9508   49.1733   10.7827 C   0  0  0  0  0  0
   19.9297   49.0286    7.9649 C   0  0  0  0  0  0
   22.1256   50.7201   12.5520 C   0  0  0  0  0  0
   20.4330   47.8215    5.6242 O   0  0  0  0  0  0
   20.5437   50.2730    5.7653 O   0  0  0  0  0  0
   17.7230   47.8730   12.6972 Cl  0  0  0  0  0  0
   21.3229   50.0930   15.8000 Cl  0  0  0  0  0  0
   19.7230   47.8730    8.7216 C   0  0  0  0  0  0
   20.1230   50.2470    8.6323 C   0  0  0  0  0  0
   19.7230   47.9573   10.1217 C   0  0  0  0  0  0
   20.1230   50.3270   10.0209 C   0  0  0  0  0  0
   22.8387   50.3479   11.4121 C   0  0  0  0  0  0
   22.5439   51.8400   13.2838 C   0  0  0  0  0  0
   18.1691   49.0263    5.5342 C   0  0  0  0  0  0
   24.4133   52.1140   11.7961 C   0  0  0  0  0  0
   23.9576   51.0678   11.0152 C   0  0  0  0  0  0
   23.6983   52.5295   12.9160 C   0  0  0  0  0  0
   25.5966   52.6730   11.4823 F   0  0  0  0  0  0
   19.5590   46.9258    8.2300 H   0  0  0  0  0  0
   20.2360   51.1581    8.0622 H   0  0  0  0  0  0
   19.5759   47.0700   10.7089 H   0  0  0  0  0  0
   20.2692   51.2872   10.4957 H   0  0  0  0  0  0
   22.5344   49.4853   10.8387 H   0  0  0  0  0  0
   22.0014   52.1622   14.1600 H   0  0  0  0  0  0
   18.2094   49.0730    4.4518 H   0  0  0  0  0  0
   17.6416   49.8730    5.9371 H   0  0  0  0  0  0
   17.7230   48.0774    5.8000 H   0  0  0  0  0  0
   24.5225   50.7635   10.1461 H   0  0  0  0  0  0
   24.0525   53.3578   13.5124 H   0  0  0  0  0  0
  1  2  2  0  0  0
  1  3  1  0  0  0
  2  4  1  0  0  0
  2 12  1  0  0  0
  3  5  2  0  0  0
  3 13  1  0  0  0
  4  7  1  0  0  0
  4  5  1  0  0  0
  5  9  1  0  0  0
  6  8  1  0  0  0
  6 10  2  0  0  0
  6 11  2  0  0  0
  6 20  1  0  0  0
  7 16  1  0  0  0
  7 17  2  0  0  0
  8 15  2  0  0  0
  8 14  1  0  0  0
  9 18  1  0  0  0
  9 19  2  0  0  0
 14 16  2  0  0  0
 14 25  1  0  0  0
 15 17  1  0  0  0
 15 26  1  0  0  0
 16 27  1  0  0  0
 17 28  1  0  0  0
 18 22  2  0  0  0
 18 29  1  0  0  0
 19 23  1  0  0  0
 19 30  1  0  0  0
 20 31  1  0  0  0
 20 32  1  0  0  0
 20 33  1  0  0  0
 21 23  2  0  0  0
 21 24  1  0  0  0
 21 22  1  0  0  0
 22 34  1  0  0  0
 23 35  1  0  0  0
M  END
> <s_m_entry_id>
5389

> <s_m_entry_name>
dock_pv.380

> <s_m_Source_Path>
/home/csk/Desktop/cluster/DUD-E-result/pgh1

> <s_m_Source_File>
dock_pv.maegz

> <i_m_Source_File_Index>
380

> <chembl_id>
CHEMBL116933

> <chembl_pref_name>
None

> <i_lp_mmshare_version>
53161

> <r_lp_tautomer_probability>
1

> <s_lp_Force_Field>
OPLS_2005

> <r_lp_Energy>
12.987847

> <b_lp_Chiralities_Consistent>
1

> <s_lp_Variant>
CHEMBL221_lig122-1

> <s_i_glide_gridfile>
glide-grid_2oyu

> <i_i_glide_lignum>
144

> <i_i_glide_rotatable_bonds>
3

> <r_i_docking_score>
-7.8028758392299

> <r_i_glide_ligand_efficiency>
-0.325119826634579

> <r_i_glide_ligand_efficiency_sa>
-0.937807859530814

> <r_i_glide_ligand_efficiency_ln>
-1.86758623896909

> <r_i_glide_gscore>
-7.8028758392299

> <r_i_glide_lipo>
-4.07039064902315

> <r_i_glide_hbond>
0

> <r_i_glide_metal>
0

> <r_i_glide_rewards>
-2.78361214894164

> <r_i_glide_evdw>
-12.7526664733887

> <r_i_glide_ecoul>
-3.71859121322632

> <r_i_glide_erotb>
0.26212413701101

> <r_i_glide_esite>
-0.0155751726227412

> <r_i_glide_emodel>
-25.2369378519486

> <r_i_glide_energy>
-16.471257686615

> <r_i_glide_einternal>
1.68125927448273

> <i_i_glide_confnum>
16

> <i_i_glide_posenum>
263

> <r_i_glide_eff_state_penalty>
0

> <s_user_duplicate_titles>
CHEMBL221_lig122

> <i_f3d_flags>
0

> <s_m_subgroup_title>
dock_pv

> <s_m_subgroupid>
dock_pv

> <b_m_subgroup_collapsed>
1

$$$$
CHEMBL221_lig793
                    3D
 Schrodinger Suite 2021-1.
 41 43  0  0  1  0            999 V2000
   20.3209   49.8320   12.4054 N   0  0  0  0  0  0
   19.9180   48.6115   12.9392 C   0  0  0  0  0  0
   19.6624   48.6836    6.6410 S   0  0  0  0  0  0
   19.5994   47.7463   11.9036 C   0  0  0  0  0  0
   20.1178   49.7676   11.0330 C   0  0  0  0  0  0
   19.7799   48.4398   10.6818 C   0  0  0  0  0  0
   19.8587   48.3444   14.3773 C   0  0  0  0  0  0
   19.9617   49.0717    8.3505 C   0  0  0  0  0  0
   19.7229   48.0884    9.3261 C   0  0  0  0  0  0
   20.9230   51.0225   13.0500 C   0  0  0  0  0  0
   20.2706   50.7523   10.0649 C   0  0  0  0  0  0
   18.8653   47.4798    6.7415 O   0  0  0  0  0  0
   20.9230   48.7319    5.9089 O   0  0  0  0  0  0
   20.1245   50.3902    8.7340 C   0  0  0  0  0  0
   20.3730   49.0126   15.2768 O   0  0  0  0  0  0
   22.3397   51.3882   12.6140 C   0  0  0  0  0  0
   18.5233   49.8730    5.7999 C   0  0  0  0  0  0
   19.1208   47.2361   14.5607 O   0  0  0  0  0  0
   24.7622   52.2703   11.5868 C   0  0  0  0  0  0
   26.3293   52.6628   10.9983 Cl  0  0  0  0  0  0
   22.9724   50.6884   11.5852 C   0  0  0  0  0  0
   22.9617   52.5158   13.1647 C   0  0  0  0  0  0
   24.1925   52.9454   12.6664 C   0  0  0  0  0  0
   24.1242   51.1790   11.0213 C   0  0  0  0  0  0
   18.9215   46.7027   15.8419 C   0  0  0  0  0  0
   19.2972   46.7165   12.0268 H   0  0  0  0  0  0
   19.4861   47.0734    9.0454 H   0  0  0  0  0  0
   20.3379   51.8720   12.7061 H   0  0  0  0  0  0
   20.8539   50.9961   14.1328 H   0  0  0  0  0  0
   20.5229   51.7634   10.3364 H   0  0  0  0  0  0
   20.1846   51.1533    7.9703 H   0  0  0  0  0  0
   18.4501   49.4734    4.7874 H   0  0  0  0  0  0
   18.9232   50.8742    5.7947 H   0  0  0  0  0  0
   17.5294   49.8726    6.2208 H   0  0  0  0  0  0
   22.5697   49.7916   11.1469 H   0  0  0  0  0  0
   22.4942   53.0654   13.9699 H   0  0  0  0  0  0
   24.6929   53.7947   13.1095 H   0  0  0  0  0  0
   24.5276   50.6728   10.1616 H   0  0  0  0  0  0
   18.1720   45.9172   15.7791 H   0  0  0  0  0  0
   19.8551   46.2729   16.1999 H   0  0  0  0  0  0
   18.5711   47.4564   16.5499 H   0  0  0  0  0  0
  1  2  1  0  0  0
  1  5  1  0  0  0
  1 10  1  0  0  0
  2  4  2  0  0  0
  2  7  1  0  0  0
  3  8  1  0  0  0
  3 12  2  0  0  0
  3 13  2  0  0  0
  3 17  1  0  0  0
  4  6  1  0  0  0
  4 26  1  0  0  0
  5  6  1  0  0  0
  5 11  2  0  0  0
  6  9  2  0  0  0
  7 15  2  0  0  0
  7 18  1  0  0  0
  8 14  2  0  0  0
  8  9  1  0  0  0
  9 27  1  0  0  0
 10 16  1  0  0  0
 10 28  1  0  0  0
 10 29  1  0  0  0
 11 14  1  0  0  0
 11 30  1  0  0  0
 14 31  1  0  0  0
 16 21  2  0  0  0
 16 22  1  0  0  0
 17 32  1  0  0  0
 17 33  1  0  0  0
 17 34  1  0  0  0
 18 25  1  0  0  0
 19 23  1  0  0  0
 19 20  1  0  0  0
 19 24  2  0  0  0
 21 24  1  0  0  0
 21 35  1  0  0  0
 22 23  2  0  0  0
 22 36  1  0  0  0
 23 37  1  0  0  0
 24 38  1  0  0  0
 25 39  1  0  0  0
 25 40  1  0  0  0
 25 41  1  0  0  0
M  END
> <s_m_entry_id>
5390

> <s_m_entry_name>
dock_pv.381

> <s_m_Source_Path>
/home/csk/Desktop/cluster/DUD-E-result/pgh1

> <s_m_Source_File>
dock_pv.maegz

> <i_m_Source_File_Index>
381

> <chembl_id>
CHEMBL285975

> <chembl_pref_name>
None

> <i_lp_mmshare_version>
53161

> <r_lp_tautomer_probability>
1

> <s_lp_Force_Field>
OPLS_2005

> <r_lp_Energy>
8.374011

> <b_lp_Chiralities_Consistent>
1

> <s_lp_Variant>
CHEMBL221_lig793-1

> <s_i_glide_gridfile>
glide-grid_2oyu

> <i_i_glide_lignum>
963

> <i_i_glide_rotatable_bonds>
5

> <r_i_docking_score>
-7.80235098123992

> <r_i_glide_ligand_efficiency>
-0.312094039249597

> <r_i_glide_ligand_efficiency_sa>
-0.912568505777176

> <r_i_glide_ligand_efficiency_ln>
-1.84939100014485

> <r_i_glide_gscore>
-7.80235098123992

> <r_i_glide_lipo>
-3.86319876959948

> <r_i_glide_hbond>
0

> <r_i_glide_metal>
0

> <r_i_glide_rewards>
-2.60712659628569

> <r_i_glide_evdw>
-17.3327960968018

> <r_i_glide_ecoul>
-5.63097238540649

> <r_i_glide_erotb>
0.407090971743888

> <r_i_glide_esite>
-0.027830924447581

> <r_i_glide_emodel>
-33.3710271403026

> <r_i_glide_energy>
-22.9637684822083

> <r_i_glide_einternal>
6.98926782608032

> <i_i_glide_confnum>
3

> <i_i_glide_posenum>
171

> <r_i_glide_eff_state_penalty>
0

> <s_user_duplicate_titles>
CHEMBL221_lig793

> <i_f3d_flags>
0

> <s_m_subgroup_title>
dock_pv

> <s_m_subgroupid>
dock_pv

> <b_m_subgroup_collapsed>
1

$$$$
CHEMBL221_lig16
                    3D
 Schrodinger Suite 2021-1.
 43 44  0  0  1  0            999 V2000
   17.2833   47.5198   15.0070 C   0  0  0  0  0  0
   18.1285   47.7923   16.0745 C   0  0  0  0  0  0
   19.2916   48.5163   15.8543 C   0  0  0  0  0  0
   17.5819   47.9885   13.7291 C   0  0  0  0  0  0
   18.7850   48.6730   13.5206 C   0  0  0  0  0  0
   19.5864   48.9850   14.6153 N   0  0  0  0  0  0
   20.5230   49.8730   14.1500 C   0  0  0  0  0  0
   20.4273   49.7830   12.7582 C   0  0  0  0  0  0
   19.3360   49.1418   12.3942 N   0  0  0  0  0  0
   21.3230   50.7189   14.9827 N   0  3  0  0  0  0
   21.2077   50.6631   16.2000 O   0  0  0  0  0  0
   22.0633   51.5124   14.4286 O   0  5  0  0  0  0
   21.3192   50.2580   11.8263 N   0  0  0  0  0  0
   22.6574   49.6538   11.8540 C   0  0  0  0  0  0
   23.8480   50.5211   11.4202 C   0  0  0  0  0  0
   23.9807   51.8281   12.2011 C   0  0  0  0  0  0
   25.0029   52.7467   11.5700 C   0  0  0  0  0  0
   20.8981   50.9171   10.5793 C   0  0  0  0  0  0
   19.8843   50.1684    9.6930 C   0  0  0  0  0  0
   20.2452   48.7003    9.4000 C   0  0  0  0  0  0
   19.7042   48.1119    8.0873 C   0  0  0  0  0  0
   16.3862   46.9470   15.1720 H   0  0  0  0  0  0
   17.8760   47.4730   17.0739 H   0  0  0  0  0  0
   20.0089   48.7618   16.6000 H   0  0  0  0  0  0
   16.8922   47.8730   12.9117 H   0  0  0  0  0  0
   22.6546   48.6730   11.4000 H   0  0  0  0  0  0
   22.8545   49.4733   12.9089 H   0  0  0  0  0  0
   23.8022   50.7200   10.3494 H   0  0  0  0  0  0
   24.7606   49.9409   11.5572 H   0  0  0  0  0  0
   24.2627   51.6222   13.2326 H   0  0  0  0  0  0
   23.0272   52.3568   12.2304 H   0  0  0  0  0  0
   25.1630   53.6236   12.2000 H   0  0  0  0  0  0
   24.6104   53.0730   10.6065 H   0  0  0  0  0  0
   25.9682   52.2730   11.4000 H   0  0  0  0  0  0
   20.4701   51.8730   10.8455 H   0  0  0  0  0  0
   21.7810   51.0730    9.9704 H   0  0  0  0  0  0
   18.9230   50.2296   10.2000 H   0  0  0  0  0  0
   19.7680   50.7193    8.7590 H   0  0  0  0  0  0
   21.3230   48.6730    9.4000 H   0  0  0  0  0  0
   19.9464   48.0447   10.2154 H   0  0  0  0  0  0
   20.2077   47.1750    7.8520 H   0  0  0  0  0  0
   18.6415   47.8730    8.1549 H   0  0  0  0  0  0
   19.8570   48.7882    7.2454 H   0  0  0  0  0  0
  1  2  1  0  0  0
  1  4  2  0  0  0
  1 22  1  0  0  0
  2  3  2  0  0  0
  2 23  1  0  0  0
  3  6  1  0  0  0
  3 24  1  0  0  0
  4  5  1  0  0  0
  4 25  1  0  0  0
  5  6  1  0  0  0
  5  9  2  0  0  0
  6  7  1  0  0  0
  7  8  2  0  0  0
  7 10  1  0  0  0
  8  9  1  0  0  0
  8 13  1  0  0  0
 10 11  2  0  0  0
 10 12  1  0  0  0
 13 14  1  0  0  0
 13 18  1  0  0  0
 14 15  1  0  0  0
 14 26  1  0  0  0
 14 27  1  0  0  0
 15 16  1  0  0  0
 15 28  1  0  0  0
 15 29  1  0  0  0
 16 17  1  0  0  0
 16 30  1  0  0  0
 16 31  1  0  0  0
 17 32  1  0  0  0
 17 33  1  0  0  0
 17 34  1  0  0  0
 18 19  1  0  0  0
 18 35  1  0  0  0
 18 36  1  0  0  0
 19 20  1  0  0  0
 19 37  1  0  0  0
 19 38  1  0  0  0
 20 21  1  0  0  0
 20 39  1  0  0  0
 20 40  1  0  0  0
 21 41  1  0  0  0
 21 42  1  0  0  0
 21 43  1  0  0  0
M  CHG  2  10   1  12  -1
M  END
> <s_m_entry_id>
5391

> <s_m_entry_name>
dock_pv.382

> <s_m_Source_Path>
/home/csk/Desktop/cluster/DUD-E-result/pgh1

> <s_m_Source_File>
dock_pv.maegz

> <i_m_Source_File_Index>
382

> <chembl_id>
CHEMBL2236577

> <chembl_pref_name>
None

> <i_lp_mmshare_version>
53161

> <r_lp_tautomer_probability>
1

> <s_lp_Force_Field>
OPLS_2005

> <r_lp_Energy>
13.681373

> <b_lp_Chiralities_Consistent>
1

> <s_lp_Variant>
CHEMBL221_lig16-1

> <s_i_glide_gridfile>
glide-grid_2oyu

> <i_i_glide_lignum>
20

> <i_i_glide_rotatable_bonds>
8

> <r_i_docking_score>
-7.79789023218782

> <r_i_glide_ligand_efficiency>
-0.371328106294658

> <r_i_glide_ligand_efficiency_sa>
-1.02446608878648

> <r_i_glide_ligand_efficiency_ln>
-1.92801260278756

> <r_i_glide_gscore>
-7.79789023218782

> <r_i_glide_lipo>
-3.75371591312255

> <r_i_glide_hbond>
0

> <r_i_glide_metal>
0

> <r_i_glide_rewards>
-3.60708314222715

> <r_i_glide_evdw>
-27.8398914337158

> <r_i_glide_ecoul>
-0.83908873796463

> <r_i_glide_erotb>
1.08076670554236

> <r_i_glide_esite>
0

> <r_i_glide_emodel>
-30.7154701525535

> <r_i_glide_energy>
-28.6789801716805

> <r_i_glide_einternal>
5.13464403152466

> <i_i_glide_confnum>
70

> <i_i_glide_posenum>
380

> <r_i_glide_eff_state_penalty>
0

> <s_user_duplicate_titles>
CHEMBL221_lig16

> <i_f3d_flags>
0

> <s_m_subgroup_title>
dock_pv

> <s_m_subgroupid>
dock_pv

> <b_m_subgroup_collapsed>
1

$$$$
CHEMBL221_lig945
                    3D
 Schrodinger Suite 2021-1.
 28 30  0  0  1  0            999 V2000
   19.9411   49.0730   14.7519 C   0  0  0  0  0  0
   20.5230   49.6862   13.6416 C   0  0  0  0  0  0
   21.3860   50.6386   14.2321 C   0  0  0  0  0  0
   21.3230   50.6378   15.5436 N   0  0  0  0  0  0
   20.4573   49.6082   15.8834 O   0  0  0  0  0  0
   20.2817   49.4379   12.1755 C   0  0  0  0  0  0
   18.8744   48.0277   14.9819 C   0  0  0  0  0  0
   19.8763   48.1949   11.6605 C   0  0  0  0  0  0
   19.7230   48.0170   10.2835 C   0  0  0  0  0  0
   20.1230   49.0178    9.4000 C   0  0  0  0  0  0
   20.4592   50.2692    9.8936 C   0  0  0  0  0  0
   20.4991   50.4836   11.2662 C   0  0  0  0  0  0
   22.2955   51.5744   13.5925 C   0  0  0  0  0  0
   23.0842   51.1071   12.5864 O   0  0  0  0  0  0
   23.8586   52.1404   12.1644 C   0  0  0  0  0  0
   23.6129   53.2578   12.9388 C   0  0  0  0  0  0
   22.5768   52.9151   13.8000 C   0  0  0  0  0  0
   24.9230   51.8730   10.8479 Cl  0  0  0  0  0  0
   19.6992   47.1243   12.4663 F   0  0  0  0  0  0
   18.1458   48.0041   14.1717 H   0  0  0  0  0  0
   19.3018   47.0306   15.0780 H   0  0  0  0  0  0
   18.3117   48.2249   15.8945 H   0  0  0  0  0  0
   19.4045   47.0662    9.8930 H   0  0  0  0  0  0
   20.0798   48.8510    8.3332 H   0  0  0  0  0  0
   20.6745   51.0730    9.2088 H   0  0  0  0  0  0
   20.7454   51.4730   11.6073 H   0  0  0  0  0  0
   24.1039   54.2176   12.8676 H   0  0  0  0  0  0
   22.1229   53.5579   14.5410 H   0  0  0  0  0  0
  1  2  2  0  0  0
  1  5  1  0  0  0
  1  7  1  0  0  0
  2  3  1  0  0  0
  2  6  1  0  0  0
  3  4  2  0  0  0
  3 13  1  0  0  0
  4  5  1  0  0  0
  6  8  2  0  0  0
  6 12  1  0  0  0
  7 20  1  0  0  0
  7 21  1  0  0  0
  7 22  1  0  0  0
  8  9  1  0  0  0
  8 19  1  0  0  0
  9 10  2  0  0  0
  9 23  1  0  0  0
 10 11  1  0  0  0
 10 24  1  0  0  0
 11 12  2  0  0  0
 11 25  1  0  0  0
 12 26  1  0  0  0
 13 14  1  0  0  0
 13 17  2  0  0  0
 14 15  1  0  0  0
 15 16  2  0  0  0
 15 18  1  0  0  0
 16 17  1  0  0  0
 16 27  1  0  0  0
 17 28  1  0  0  0
M  END
> <s_m_entry_id>
5392

> <s_m_entry_name>
dock_pv.383

> <s_m_Source_Path>
/home/csk/Desktop/cluster/DUD-E-result/pgh1

> <s_m_Source_File>
dock_pv.maegz

> <i_m_Source_File_Index>
383

> <chembl_id>
CHEMBL2380865

> <chembl_pref_name>
None

> <i_lp_mmshare_version>
53161

> <r_lp_tautomer_probability>
1

> <s_lp_Force_Field>
OPLS_2005

> <r_lp_Energy>
9.072973

> <b_lp_Chiralities_Consistent>
1

> <s_lp_Variant>
CHEMBL221_lig945-1

> <s_i_glide_gridfile>
glide-grid_2oyu

> <i_i_glide_lignum>
1173

> <i_i_glide_rotatable_bonds>
2

> <r_i_docking_score>
-7.78590347243017

> <r_i_glide_ligand_efficiency>
-0.409784393285799

> <r_i_glide_ligand_efficiency_sa>
-1.09346934959113

> <r_i_glide_ligand_efficiency_ln>
-1.9738937561345

> <r_i_glide_gscore>
-7.78590347243017

> <r_i_glide_lipo>
-4.0853046384871

> <r_i_glide_hbond>
0

> <r_i_glide_metal>
0

> <r_i_glide_rewards>
-2.39848898496323

> <r_i_glide_evdw>
-33.1836929321289

> <r_i_glide_ecoul>
-0.637694954872131

> <r_i_glide_erotb>
0.467232766330238

> <r_i_glide_esite>
-0.0145037254728076

> <r_i_glide_emodel>
-46.4897074526053

> <r_i_glide_energy>
-33.821387887001

> <r_i_glide_einternal>
2.2000720500946

> <i_i_glide_confnum>
5

> <i_i_glide_posenum>
149

> <r_i_glide_eff_state_penalty>
0

> <s_user_duplicate_titles>
CHEMBL221_lig945

> <i_f3d_flags>
0

> <s_m_subgroup_title>
dock_pv

> <s_m_subgroupid>
dock_pv

> <b_m_subgroup_collapsed>
1

$$$$
CHEMBL221_lig729
                    3D
 Schrodinger Suite 2021-1.
 41 43  0  0  1  0            999 V2000
   23.7745   51.7144   11.6684 C   0  0  0  0  0  0
   23.7233   51.8746   13.0495 C   0  0  0  0  0  0
   22.6406   51.3729   13.7660 C   0  0  0  0  0  0
   21.5831   50.7582   13.0905 C   0  0  0  0  0  0
   21.5494   50.7528   11.6888 C   0  0  0  0  0  0
   22.6944   51.1438   11.0000 C   0  0  0  0  0  0
   20.2256   50.5149   10.9412 C   0  0  0  0  0  0
   20.1228   49.4568    9.8486 C   0  0  0  0  0  0
   19.7230   48.1638   10.1794 C   0  0  0  0  0  0
   19.4069   47.2863    9.1458 C   0  0  0  0  0  0
   19.3922   47.7119    7.8308 C   0  0  0  0  0  0
   19.7587   49.0173    7.5644 C   0  0  0  0  0  0
   20.1230   49.8898    8.5548 N   0  0  0  0  0  0
   19.7211   49.5074    6.1613 C   0  0  0  0  0  0
   18.6629   49.0723    5.4170 O   0  0  0  0  0  0
   20.5683   50.2729    5.7480 O   0  0  0  0  0  0
   20.5229   50.1884   13.7319 O   0  0  0  0  0  0
   20.6310   49.6068   15.0199 C   0  0  0  0  0  0
   19.5368   48.5482   15.0801 C   0  0  0  0  0  0
   19.5624   47.4700   14.1963 C   0  0  0  0  0  0
   18.5351   46.5390   14.2001 C   0  0  0  0  0  0
   17.4253   46.7024   15.0245 C   0  0  0  0  0  0
   17.3816   47.7786   15.9032 C   0  0  0  0  0  0
   18.4451   48.6729   15.9425 C   0  0  0  0  0  0
   25.1435   52.2729   10.7825 Cl  0  0  0  0  0  0
   16.1232   45.5653   15.0001 Cl  0  0  0  0  0  0
   20.5656   47.3126   13.3111 F   0  0  0  0  0  0
   24.5385   52.3511   13.5732 H   0  0  0  0  0  0
   22.6235   51.4718   14.8398 H   0  0  0  0  0  0
   22.7193   51.0729    9.9262 H   0  0  0  0  0  0
   19.9397   51.4726   10.5105 H   0  0  0  0  0  0
   19.4180   50.3201   11.6474 H   0  0  0  0  0  0
   19.6542   47.8432   11.2064 H   0  0  0  0  0  0
   19.1536   46.2733    9.3575 H   0  0  0  0  0  0
   19.0828   47.0728    7.0252 H   0  0  0  0  0  0
   21.5930   49.1275   15.1781 H   0  0  0  0  0  0
   20.5166   50.3678   15.7928 H   0  0  0  0  0  0
   18.6051   45.6946   13.5362 H   0  0  0  0  0  0
   16.5303   47.9174   16.5540 H   0  0  0  0  0  0
   18.3817   49.5213   16.6000 H   0  0  0  0  0  0
   18.5720   49.5854    4.6079 H   0  0  0  0  0  0
  1  6  1  0  0  0
  1  2  2  0  0  0
  1 25  1  0  0  0
  2  3  1  0  0  0
  2 28  1  0  0  0
  3  4  2  0  0  0
  3 29  1  0  0  0
  4 17  1  0  0  0
  4  5  1  0  0  0
  5  7  1  0  0  0
  5  6  2  0  0  0
  6 30  1  0  0  0
  7  8  1  0  0  0
  7 31  1  0  0  0
  7 32  1  0  0  0
  8 13  1  0  0  0
  8  9  2  0  0  0
  9 10  1  0  0  0
  9 33  1  0  0  0
 10 11  2  0  0  0
 10 34  1  0  0  0
 11 12  1  0  0  0
 11 35  1  0  0  0
 12 14  1  0  0  0
 12 13  2  0  0  0
 14 15  1  0  0  0
 14 16  2  0  0  0
 15 41  1  0  0  0
 17 18  1  0  0  0
 18 19  1  0  0  0
 18 36  1  0  0  0
 18 37  1  0  0  0
 19 20  2  0  0  0
 19 24  1  0  0  0
 20 21  1  0  0  0
 20 27  1  0  0  0
 21 22  2  0  0  0
 21 38  1  0  0  0
 22 23  1  0  0  0
 22 26  1  0  0  0
 23 24  2  0  0  0
 23 39  1  0  0  0
 24 40  1  0  0  0
M  END
> <s_m_entry_id>
5394

> <s_m_entry_name>
dock_pv.385

> <s_m_Source_Path>
/home/csk/Desktop/cluster/DUD-E-result/pgh1

> <s_m_Source_File>
dock_pv.maegz

> <i_m_Source_File_Index>
385

> <chembl_id>
CHEMBL467114

> <chembl_pref_name>
None

> <i_lp_mmshare_version>
53161

> <r_lp_tautomer_probability>
1

> <s_lp_Force_Field>
OPLS_2005

> <r_lp_Energy>
17.546281

> <b_lp_Chiralities_Consistent>
1

> <s_lp_Variant>
CHEMBL221_lig729-1

> <s_i_glide_gridfile>
glide-grid_2oyu

> <i_i_glide_lignum>
898

> <i_i_glide_rotatable_bonds>
7

> <r_i_docking_score>
-7.77612732304255

> <r_i_glide_ligand_efficiency>
-0.288004715668243

> <r_i_glide_ligand_efficiency_sa>
-0.864014146055511

> <r_i_glide_ligand_efficiency_ln>
-1.81015424132605

> <r_i_glide_gscore>
-7.77612732304255

> <r_i_glide_lipo>
-5.1401681699475

> <r_i_glide_hbond>
0

> <r_i_glide_metal>
0

> <r_i_glide_rewards>
-1.98931457045454

> <r_i_glide_evdw>
-24.3442039489746

> <r_i_glide_ecoul>
-0.794603824615479

> <r_i_glide_erotb>
0.714809012320776

> <r_i_glide_esite>
-0.0250528238202264

> <r_i_glide_emodel>
-37.3407697797053

> <r_i_glide_energy>
-25.1388077735901

> <r_i_glide_einternal>
9.69907283782959

> <i_i_glide_confnum>
4

> <i_i_glide_posenum>
182

> <r_i_glide_eff_state_penalty>
0

> <s_user_duplicate_titles>
CHEMBL221_lig729

> <i_f3d_flags>
0

> <s_m_subgroup_title>
dock_pv

> <s_m_subgroupid>
dock_pv

> <b_m_subgroup_collapsed>
1

$$$$
CHEMBL221_lig757
                    3D
 Schrodinger Suite 2021-1.
 31 32  0  0  1  0            999 V2000
   19.5347   47.9476   11.2026 C   0  0  0  0  0  0
   19.7228   48.1699    9.8398 C   0  0  0  0  0  0
   20.3544   49.2630    9.3552 N   0  0  0  0  0  0
   20.8519   50.1497   10.2471 C   0  0  0  0  0  0
   20.7587   49.9851   11.6327 C   0  0  0  0  0  0
   20.0447   48.8753   12.1177 C   0  0  0  0  0  0
   19.8669   48.6978   13.4969 N   0  0  0  0  0  0
   18.5222   47.7822   14.1836 S   0  0  0  0  0  0
   21.3351   50.9128   12.5156 N   0  0  0  0  0  0
   22.5289   51.6443   12.4287 C   0  0  0  0  0  0
   22.7787   52.6610   13.3636 C   0  0  0  0  0  0
   23.9729   53.3773   13.3130 C   0  0  0  0  0  0
   24.9284   53.0730   12.3506 C   0  0  0  0  0  0
   24.6772   52.0909   11.4000 C   0  0  0  0  0  0
   23.4921   51.3663   11.4492 C   0  0  0  0  0  0
   18.9230   46.3721   14.1050 O   0  0  0  0  0  0
   18.5220   48.3437   15.9910 C   0  0  0  0  0  0
   18.5227   47.2623   16.7632 F   0  0  0  0  0  0
   17.4305   49.0735   16.2145 F   0  0  0  0  0  0
   19.6215   49.0697   16.2000 F   0  0  0  0  0  0
   17.3082   48.2596   13.5127 O   0  0  0  0  0  0
   21.6364   53.0556   14.6003 Cl  0  0  0  0  0  0
   18.9955   47.0733   11.5310 H   0  0  0  0  0  0
   19.3350   47.4752    9.1092 H   0  0  0  0  0  0
   21.3228   51.0224    9.8227 H   0  0  0  0  0  0
   20.3029   49.3729   14.1058 H   0  0  0  0  0  0
   20.8120   51.0912   13.3593 H   0  0  0  0  0  0
   24.1611   54.1731   14.0191 H   0  0  0  0  0  0
   25.8547   53.6275   12.3241 H   0  0  0  0  0  0
   25.4148   51.8735   10.6408 H   0  0  0  0  0  0
   23.3545   50.5757   10.7295 H   0  0  0  0  0  0
  1  6  1  0  0  0
  1  2  2  0  0  0
  1 23  1  0  0  0
  2  3  1  0  0  0
  2 24  1  0  0  0
  3  4  2  0  0  0
  4  5  1  0  0  0
  4 25  1  0  0  0
  5  6  2  0  0  0
  5  9  1  0  0  0
  6  7  1  0  0  0
  7  8  1  0  0  0
  7 26  1  0  0  0
  8 16  2  0  0  0
  8 17  1  0  0  0
  8 21  2  0  0  0
  9 10  1  0  0  0
  9 27  1  0  0  0
 10 11  2  0  0  0
 10 15  1  0  0  0
 11 12  1  0  0  0
 11 22  1  0  0  0
 12 13  2  0  0  0
 12 28  1  0  0  0
 13 14  1  0  0  0
 13 29  1  0  0  0
 14 15  2  0  0  0
 14 30  1  0  0  0
 15 31  1  0  0  0
 17 18  1  0  0  0
 17 19  1  0  0  0
 17 20  1  0  0  0
M  END
> <s_m_entry_id>
5395

> <s_m_entry_name>
dock_pv.386

> <s_m_Source_Path>
/home/csk/Desktop/cluster/DUD-E-result/pgh1

> <s_m_Source_File>
dock_pv.maegz

> <i_m_Source_File_Index>
386

> <chembl_id>
CHEMBL1075636

> <chembl_pref_name>
None

> <i_lp_mmshare_version>
53161

> <r_lp_tautomer_probability>
1

> <s_lp_Force_Field>
OPLS_2005

> <r_lp_Energy>
11.602916

> <b_lp_Chiralities_Consistent>
1

> <s_lp_Variant>
CHEMBL221_lig757-1

> <s_i_glide_gridfile>
glide-grid_2oyu

> <i_i_glide_lignum>
927

> <i_i_glide_rotatable_bonds>
5

> <r_i_docking_score>
-7.77232270708904

> <r_i_glide_ligand_efficiency>
-0.353287395776775

> <r_i_glide_ligand_efficiency_sa>
-0.989925176971372

> <r_i_glide_ligand_efficiency_ln>
-1.89983917197163

> <r_i_glide_gscore>
-7.77232270708904

> <r_i_glide_lipo>
-3.93509951802318

> <r_i_glide_hbond>
0

> <r_i_glide_metal>
0

> <r_i_glide_rewards>
-2.40304245158656

> <r_i_glide_evdw>
-36.7295112609863

> <r_i_glide_ecoul>
-1.39914035797119

> <r_i_glide_erotb>
0.616782252326945

> <r_i_glide_esite>
-0.00461637306124992

> <r_i_glide_emodel>
-50.6409853022246

> <r_i_glide_energy>
-38.1286516189575

> <r_i_glide_einternal>
10.3981037139893

> <i_i_glide_confnum>
2

> <i_i_glide_posenum>
369

> <r_i_glide_eff_state_penalty>
0

> <s_user_duplicate_titles>
CHEMBL221_lig757,616700

> <i_f3d_flags>
0

> <s_m_subgroup_title>
dock_pv

> <s_m_subgroupid>
dock_pv

> <b_m_subgroup_collapsed>
1

$$$$
CHEMBL221_lig703
                    3D
 Schrodinger Suite 2021-1.
 34 36  0  0  1  0            999 V2000
   20.1053   48.9913   14.0870 C   0  0  0  0  0  0
   20.6205   49.4634   12.8832 C   0  0  0  0  0  0
   19.8925   48.7620   11.9274 N   0  0  0  0  0  0
   19.0268   47.9303   12.5356 N   0  0  0  0  0  0
   19.1727   48.0850   13.8964 N   0  0  0  0  0  0
   19.9205   48.8173   10.5068 C   0  0  0  0  0  0
   19.7230   47.6550    9.7469 C   0  0  0  0  0  0
   19.7230   47.6869    8.3551 C   0  0  0  0  0  0
   19.9307   48.8963    7.7012 C   0  0  0  0  0  0
   20.1230   50.0614    8.4547 C   0  0  0  0  0  0
   20.1230   50.0297    9.8455 C   0  0  0  0  0  0
   19.9519   49.0134    5.9122 S   0  0  0  0  0  0
   18.1744   49.0205    5.4000 C   0  0  0  0  0  0
   20.5065   47.8273    5.2963 O   0  0  0  0  0  0
   20.5933   50.2730    5.6051 O   0  0  0  0  0  0
   21.7155   50.4574   12.6723 C   0  0  0  0  0  0
   21.8310   51.5494   13.5383 C   0  0  0  0  0  0
   22.8921   52.4411   13.4000 C   0  0  0  0  0  0
   23.8388   52.2372   12.3994 C   0  0  0  0  0  0
   23.7230   51.1632   11.5228 C   0  0  0  0  0  0
   22.6639   50.2730   11.6651 C   0  0  0  0  0  0
   24.8930   53.0735   12.2901 F   0  0  0  0  0  0
   20.4128   49.2899   15.0786 H   0  0  0  0  0  0
   19.6329   46.7030   10.2396 H   0  0  0  0  0  0
   19.5841   46.7754    7.8000 H   0  0  0  0  0  0
   20.2337   51.0160    7.9581 H   0  0  0  0  0  0
   20.2449   50.9533   10.3934 H   0  0  0  0  0  0
   18.1235   49.0730    4.3177 H   0  0  0  0  0  0
   17.6896   49.8730    5.8487 H   0  0  0  0  0  0
   17.7230   48.0947    5.7363 H   0  0  0  0  0  0
   21.1085   51.7043   14.3266 H   0  0  0  0  0  0
   22.9915   53.2778   14.0767 H   0  0  0  0  0  0
   24.4651   51.0133   10.7514 H   0  0  0  0  0  0
   22.5819   49.4287   11.0000 H   0  0  0  0  0  0
  1  2  2  0  0  0
  1  5  1  0  0  0
  1 23  1  0  0  0
  2  3  1  0  0  0
  2 16  1  0  0  0
  3  6  1  0  0  0
  3  4  1  0  0  0
  4  5  2  0  0  0
  6 11  1  0  0  0
  6  7  2  0  0  0
  7  8  1  0  0  0
  7 24  1  0  0  0
  8  9  2  0  0  0
  8 25  1  0  0  0
  9 12  1  0  0  0
  9 10  1  0  0  0
 10 11  2  0  0  0
 10 26  1  0  0  0
 11 27  1  0  0  0
 12 13  1  0  0  0
 12 14  2  0  0  0
 12 15  2  0  0  0
 13 28  1  0  0  0
 13 29  1  0  0  0
 13 30  1  0  0  0
 16 17  2  0  0  0
 16 21  1  0  0  0
 17 18  1  0  0  0
 17 31  1  0  0  0
 18 19  2  0  0  0
 18 32  1  0  0  0
 19 20  1  0  0  0
 19 22  1  0  0  0
 20 21  2  0  0  0
 20 33  1  0  0  0
 21 34  1  0  0  0
M  END
> <s_m_entry_id>
5396

> <s_m_entry_name>
dock_pv.387

> <s_m_Source_Path>
/home/csk/Desktop/cluster/DUD-E-result/pgh1

> <s_m_Source_File>
dock_pv.maegz

> <i_m_Source_File_Index>
387

> <chembl_id>
CHEMBL457332

> <chembl_pref_name>
None

> <i_lp_mmshare_version>
53161

> <r_lp_tautomer_probability>
1

> <s_lp_Force_Field>
OPLS_2005

> <r_lp_Energy>
12.866242

> <b_lp_Chiralities_Consistent>
1

> <s_lp_Variant>
CHEMBL221_lig703-1

> <s_i_glide_gridfile>
glide-grid_2oyu

> <i_i_glide_lignum>
872

> <i_i_glide_rotatable_bonds>
3

> <r_i_docking_score>
-7.7709810963253

> <r_i_glide_ligand_efficiency>
-0.353226413469332

> <r_i_glide_ligand_efficiency_sa>
-0.989754302147618

> <r_i_glide_ligand_efficiency_ln>
-1.89951123336453

> <r_i_glide_gscore>
-7.7709810963253

> <r_i_glide_lipo>
-3.79491844458091

> <r_i_glide_hbond>
0

> <r_i_glide_metal>
0

> <r_i_glide_rewards>
-3.14976609517358

> <r_i_glide_evdw>
-14.6089277267456

> <r_i_glide_ecoul>
-2.98820376396179

> <r_i_glide_erotb>
0.369984440245969

> <r_i_glide_esite>
-0.017604045885231

> <r_i_glide_emodel>
-20.4302703030171

> <r_i_glide_energy>
-17.5971314907074

> <r_i_glide_einternal>
0.266955107450485

> <i_i_glide_confnum>
4

> <i_i_glide_posenum>
225

> <r_i_glide_eff_state_penalty>
0

> <s_user_duplicate_titles>
CHEMBL221_lig703,496814

> <i_f3d_flags>
0

> <s_m_subgroup_title>
dock_pv

> <s_m_subgroupid>
dock_pv

> <b_m_subgroup_collapsed>
1

$$$$
CHEMBL221_lig69
                    3D
 Schrodinger Suite 2021-1.
 39 42  0  0  1  0            999 V2000
   20.4058   49.1456   10.5649 N   0  0  0  0  0  0
   19.6402   48.4777   11.4093 N   0  0  0  0  0  0
   20.9157   49.9208   12.5808 C   0  0  0  0  0  0
   21.3300   49.9049   11.2650 C   0  0  0  0  0  0
   19.9465   48.9104   12.5952 C   0  0  0  0  0  0
   19.1856   48.4134   13.7243 C   0  0  0  0  0  0
   20.1230   48.9583    9.1927 C   0  0  0  0  0  0
   17.8548   48.0206   13.5869 C   0  0  0  0  0  0
   19.8109   48.4003   14.9547 C   0  0  0  0  0  0
   21.5385   50.8428   13.6411 C   0  0  0  0  0  0
   22.5138   50.6739   10.7618 C   0  0  0  0  0  0
   17.7007   47.9185   15.9665 C   0  0  0  0  0  0
   19.0406   48.1997   16.0644 C   0  0  0  0  0  0
   17.1267   47.7346   14.7235 C   0  0  0  0  0  0
   16.7775   47.8731   17.4000 Cl  0  0  0  0  0  0
   20.1230   50.0448    8.3195 C   0  0  0  0  0  0
   19.6831   47.7107    8.7280 C   0  0  0  0  0  0
   22.9422   51.2847   13.1968 C   0  0  0  0  0  0
   22.9446   51.7787   11.7515 C   0  0  0  0  0  0
   19.2265   47.5798    7.4255 C   0  0  0  0  0  0
   19.7818   49.8694    6.9780 C   0  0  0  0  0  0
   19.3220   48.6412    6.5360 C   0  0  0  0  0  0
   17.3724   47.9829   12.6209 H   0  0  0  0  0  0
   20.8620   48.5941   15.0748 H   0  0  0  0  0  0
   21.6147   50.4173   14.6354 H   0  0  0  0  0  0
   20.9111   51.7257   13.7600 H   0  0  0  0  0  0
   22.3152   51.0730    9.8000 H   0  0  0  0  0  0
   23.3229   49.9713   10.6680 H   0  0  0  0  0  0
   19.5063   48.2755   17.0000 H   0  0  0  0  0  0
   16.1229   47.4169   14.6306 H   0  0  0  0  0  0
   20.3852   51.0351    8.6621 H   0  0  0  0  0  0
   19.6054   46.8650    9.3949 H   0  0  0  0  0  0
   23.3161   52.0630   13.8643 H   0  0  0  0  0  0
   23.6360   50.4502   13.2842 H   0  0  0  0  0  0
   23.9338   52.1504   11.4802 H   0  0  0  0  0  0
   22.2761   52.6333   11.6884 H   0  0  0  0  0  0
   18.7363   46.6731    7.1273 H   0  0  0  0  0  0
   19.8023   50.6974    6.2915 H   0  0  0  0  0  0
   18.9779   48.5390    5.5172 H   0  0  0  0  0  0
  1  2  1  0  0  0
  1  4  1  0  0  0
  1  7  1  0  0  0
  2  5  2  0  0  0
  3  4  2  0  0  0
  3 10  1  0  0  0
  3  5  1  0  0  0
  4 11  1  0  0  0
  5  6  1  0  0  0
  6  8  1  0  0  0
  6  9  2  0  0  0
  7 16  1  0  0  0
  7 17  2  0  0  0
  8 14  2  0  0  0
  8 23  1  0  0  0
  9 13  1  0  0  0
  9 24  1  0  0  0
 10 18  1  0  0  0
 10 25  1  0  0  0
 10 26  1  0  0  0
 11 19  1  0  0  0
 11 27  1  0  0  0
 11 28  1  0  0  0
 12 13  2  0  0  0
 12 15  1  0  0  0
 12 14  1  0  0  0
 13 29  1  0  0  0
 14 30  1  0  0  0
 16 21  2  0  0  0
 16 31  1  0  0  0
 17 20  1  0  0  0
 17 32  1  0  0  0
 18 19  1  0  0  0
 18 33  1  0  0  0
 18 34  1  0  0  0
 19 35  1  0  0  0
 19 36  1  0  0  0
 20 22  2  0  0  0
 20 37  1  0  0  0
 21 22  1  0  0  0
 21 38  1  0  0  0
 22 39  1  0  0  0
M  END
> <s_m_entry_id>
5397

> <s_m_entry_name>
dock_pv.388

> <s_m_Source_Path>
/home/csk/Desktop/cluster/DUD-E-result/pgh1

> <s_m_Source_File>
dock_pv.maegz

> <i_m_Source_File_Index>
388

> <chembl_id>
CHEMBL156256

> <chembl_pref_name>
None

> <i_lp_mmshare_version>
53161

> <r_lp_tautomer_probability>
1

> <s_lp_Force_Field>
OPLS_2005

> <r_lp_Energy>
21.046598

> <b_lp_Chiralities_Consistent>
1

> <s_lp_Variant>
CHEMBL221_lig69-1

> <s_i_glide_gridfile>
glide-grid_2oyu

> <i_i_glide_lignum>
86

> <i_i_glide_rotatable_bonds>
2

> <r_i_docking_score>
-7.76937326475502

> <r_i_glide_ligand_efficiency>
-0.353153330216137

> <r_i_glide_ligand_efficiency_sa>
-0.989549519997967

> <r_i_glide_ligand_efficiency_ln>
-1.89911822068167

> <r_i_glide_gscore>
-7.76937326475502

> <r_i_glide_lipo>
-4.95448944559224

> <r_i_glide_hbond>
0

> <r_i_glide_metal>
0

> <r_i_glide_rewards>
-2.50777153478196

> <r_i_glide_evdw>
-14.9578485488892

> <r_i_glide_ecoul>
0.350882530212402

> <r_i_glide_erotb>
0.388147763531768

> <r_i_glide_esite>
0

> <r_i_glide_emodel>
-33.4384987183152

> <r_i_glide_energy>
-14.6069660186768

> <r_i_glide_einternal>
2.40504217147827

> <i_i_glide_confnum>
10

> <i_i_glide_posenum>
132

> <r_i_glide_eff_state_penalty>
0

> <s_user_duplicate_titles>
CHEMBL221_lig69

> <i_f3d_flags>
0

> <s_m_subgroup_title>
dock_pv

> <s_m_subgroupid>
dock_pv

> <b_m_subgroup_collapsed>
1

$$$$
CHEMBL221_lig736
                    3D
 Schrodinger Suite 2021-1.
 37 39  0  0  1  0            999 V2000
   19.8996   49.6768   11.5934 C   0  0  2  0  0  0
   21.2586   49.5188   12.3234 C   0  0  2  0  0  0
   20.9230   49.1233   13.6555 O   0  0  0  0  0  0
   19.7945   48.2703   13.6139 C   0  0  2  0  0  0
   18.9325   48.9469   12.5626 C   0  0  0  0  0  0
   19.1211   48.1885   14.9938 C   0  0  0  0  0  0
   19.9280   49.1322   10.1462 C   0  0  0  0  0  0
   19.7072   47.7768    9.8974 C   0  0  0  0  0  0
   19.5611   47.3033    8.6000 C   0  0  0  0  0  0
   19.7304   48.1534    7.5159 C   0  0  0  0  0  0
   20.1087   49.4737    7.7339 C   0  0  0  0  0  0
   20.1302   49.9738    9.0392 C   0  0  0  0  0  0
   19.4827   51.0348   11.4902 O   0  0  0  0  0  0
   22.2388   50.6890   12.2885 C   0  0  0  0  0  0
   23.0610   50.8683   11.1739 C   0  0  0  0  0  0
   24.0232   51.8728   11.1702 C   0  0  0  0  0  0
   24.1308   52.7236   12.2667 C   0  0  0  0  0  0
   23.2825   52.5827   13.3628 C   0  0  0  0  0  0
   22.3410   51.5588   13.3777 C   0  0  0  0  0  0
   17.9418   47.5019   14.9567 O   0  0  0  0  0  0
   19.6094   48.6731   16.0087 O   0  0  0  0  0  0
   21.8111   48.6718   11.9113 H   0  0  0  0  0  0
   20.0850   47.2508   13.3501 H   0  0  0  0  0  0
   18.3044   48.2010   12.0798 H   0  0  0  0  0  0
   18.2226   49.6427   13.0000 H   0  0  0  0  0  0
   19.5877   47.0740   10.7079 H   0  0  0  0  0  0
   19.3152   46.2728    8.4382 H   0  0  0  0  0  0
   19.6339   47.7771    6.5080 H   0  0  0  0  0  0
   20.2712   50.1372    6.8956 H   0  0  0  0  0  0
   20.3366   51.0265    9.1724 H   0  0  0  0  0  0
   18.5698   51.0587   11.1939 H   0  0  0  0  0  0
   22.9589   50.2271   10.3126 H   0  0  0  0  0  0
   24.6715   51.9981   10.3138 H   0  0  0  0  0  0
   24.8701   53.5114   12.2636 H   0  0  0  0  0  0
   23.3550   53.2618   14.1995 H   0  0  0  0  0  0
   21.6966   51.4395   14.2372 H   0  0  0  0  0  0
   17.6779   47.2520   14.0694 H   0  0  0  0  0  0
  1  5  1  0  0  0
  1  2  1  0  0  0
  1 13  1  0  0  0
  1  7  1  0  0  0
  2  3  1  0  0  0
  2 14  1  0  0  0
  2 22  1  0  0  0
  3  4  1  0  0  0
  4  6  1  0  0  0
  4  5  1  0  0  0
  4 23  1  0  0  0
  5 24  1  0  0  0
  5 25  1  0  0  0
  6 20  1  0  0  0
  6 21  2  0  0  0
  7 12  1  0  0  0
  7  8  2  0  0  0
  8  9  1  0  0  0
  8 26  1  0  0  0
  9 10  2  0  0  0
  9 27  1  0  0  0
 10 11  1  0  0  0
 10 28  1  0  0  0
 11 12  2  0  0  0
 11 29  1  0  0  0
 12 30  1  0  0  0
 13 31  1  0  0  0
 14 15  2  0  0  0
 14 19  1  0  0  0
 15 16  1  0  0  0
 15 32  1  0  0  0
 16 17  2  0  0  0
 16 33  1  0  0  0
 17 18  1  0  0  0
 17 34  1  0  0  0
 18 19  2  0  0  0
 18 35  1  0  0  0
 19 36  1  0  0  0
 20 37  1  0  0  0
M  END
> <s_m_entry_id>
5398

> <s_m_entry_name>
dock_pv.389

> <s_m_Source_Path>
/home/csk/Desktop/cluster/DUD-E-result/pgh1

> <s_m_Source_File>
dock_pv.maegz

> <i_m_Source_File_Index>
389

> <chembl_id>
CHEMBL516139

> <chembl_pref_name>
None

> <i_lp_mmshare_version>
53161

> <r_lp_tautomer_probability>
1

> <s_lp_Force_Field>
OPLS_2005

> <r_lp_Energy>
33.527847

> <b_lp_Chiralities_Consistent>
1

> <s_lp_Variant>
CHEMBL221_lig736-1

> <s_i_glide_gridfile>
glide-grid_2oyu

> <i_i_glide_lignum>
905

> <i_i_glide_rotatable_bonds>
5

> <r_i_docking_score>
-7.76432538433824

> <r_i_glide_ligand_efficiency>
-0.369729780206583

> <r_i_glide_ligand_efficiency_sa>
-1.02005642830482

> <r_i_glide_ligand_efficiency_ln>
-1.91971376198091

> <r_i_glide_gscore>
-7.76432538433824

> <r_i_glide_lipo>
-4.31917294564068

> <r_i_glide_hbond>
0

> <r_i_glide_metal>
0

> <r_i_glide_rewards>
-2.52859931253774

> <r_i_glide_evdw>
-27.0633945465088

> <r_i_glide_ecoul>
-1.57390260696411

> <r_i_glide_erotb>
0.672701992210233

> <r_i_glide_esite>
0

> <r_i_glide_emodel>
-39.4943917927241

> <r_i_glide_energy>
-28.6372971534729

> <r_i_glide_einternal>
1.48001670837402

> <i_i_glide_confnum>
5

> <i_i_glide_posenum>
337

> <r_i_glide_eff_state_penalty>
0

> <s_user_duplicate_titles>
CHEMBL221_lig736

> <i_f3d_flags>
0

> <s_m_subgroup_title>
dock_pv

> <s_m_subgroupid>
dock_pv

> <b_m_subgroup_collapsed>
1

$$$$
CHEMBL221_lig108
                    3D
 Schrodinger Suite 2021-1.
 43 46  0  0  1  0            999 V2000
   20.6611   49.6167   13.9317 N   0  0  0  0  0  0
   19.7382   49.0496   13.0781 C   0  0  0  0  0  0
   19.1802   48.5078   15.1936 N   0  0  0  0  0  0
   20.2814   49.2122   15.1877 C   0  0  0  0  0  0
   25.2769   53.0730   12.6547 S   0  0  0  0  0  0
   18.8006   48.4679   13.9278 C   0  0  0  0  0  0
   19.8015   49.1838   11.5947 C   0  0  0  0  0  0
   19.7230   48.2618    9.3616 C   0  0  0  0  0  0
   20.1230   49.5663    7.5019 O   0  0  0  0  0  0
   20.1230   49.4766    8.8641 C   0  0  0  0  0  0
   19.6070   48.0836   10.7455 C   0  0  0  0  0  0
   21.7228   50.4740   13.5909 C   0  0  0  0  0  0
   23.7901   52.1625   12.9221 C   0  0  0  0  0  0
   26.1359   52.9312   13.8000 O   0  0  0  0  0  0
   25.7507   52.6730   11.3239 O   0  0  0  0  0  0
   19.3312   47.4256    8.1876 C   0  0  0  0  0  0
   20.1156   50.4332   11.0413 C   0  0  0  0  0  0
   19.7230   48.3137    6.9794 C   0  0  1  0  0  0
   20.3537   50.5557    9.6846 C   0  0  0  0  0  0
   22.8126   52.6070   13.8005 C   0  0  0  0  0  0
   23.6706   50.9413   12.2613 C   0  0  0  0  0  0
   21.7874   51.7440   14.1697 C   0  0  0  0  0  0
   22.6355   50.0923   12.6000 C   0  0  0  0  0  0
   17.2577   47.8730   13.4869 Cl  0  0  0  0  0  0
   25.0143   54.8354   13.0000 C   0  0  0  0  0  0
   18.6545   48.6731    5.9303 C   0  0  0  0  0  0
   20.8576   49.5108   16.0509 H   0  0  0  0  0  0
   19.3140   47.1314   11.1626 H   0  0  0  0  0  0
   18.2557   47.2464    8.1905 H   0  0  0  0  0  0
   19.8849   46.4893    8.2000 H   0  0  0  0  0  0
   20.2352   51.3075   11.6623 H   0  0  0  0  0  0
   20.5813   47.8730    6.4831 H   0  0  0  0  0  0
   20.6667   51.4730    9.2465 H   0  0  0  0  0  0
   22.8941   53.5767   14.2682 H   0  0  0  0  0  0
   24.4135   50.6106   11.5476 H   0  0  0  0  0  0
   21.0521   52.0653   14.8943 H   0  0  0  0  0  0
   22.5664   49.1269   12.1183 H   0  0  0  0  0  0
   25.8633   55.3924   12.6023 H   0  0  0  0  0  0
   24.1230   55.2087   12.6002 H   0  0  0  0  0  0
   24.9424   54.9755   14.0771 H   0  0  0  0  0  0
   17.9450   47.8730    5.7494 H   0  0  0  0  0  0
   19.1157   48.9440    4.9806 H   0  0  0  0  0  0
   18.0651   49.5361    6.2405 H   0  0  0  0  0  0
  1  2  1  0  0  0
  1  4  1  0  0  0
  1 12  1  0  0  0
  2  6  2  0  0  0
  2  7  1  0  0  0
  3  4  2  0  0  0
  3  6  1  0  0  0
  4 27  1  0  0  0
  5 13  1  0  0  0
  5 14  2  0  0  0
  5 15  2  0  0  0
  5 25  1  0  0  0
  6 24  1  0  0  0
  7 11  2  0  0  0
  7 17  1  0  0  0
  8 11  1  0  0  0
  8 16  1  0  0  0
  8 10  2  0  0  0
  9 10  1  0  0  0
  9 18  1  0  0  0
 10 19  1  0  0  0
 11 28  1  0  0  0
 12 22  2  0  0  0
 12 23  1  0  0  0
 13 21  1  0  0  0
 13 20  2  0  0  0
 16 18  1  0  0  0
 16 29  1  0  0  0
 16 30  1  0  0  0
 17 19  2  0  0  0
 17 31  1  0  0  0
 18 26  1  0  0  0
 18 32  1  0  0  0
 19 33  1  0  0  0
 20 22  1  0  0  0
 20 34  1  0  0  0
 21 23  2  0  0  0
 21 35  1  0  0  0
 22 36  1  0  0  0
 23 37  1  0  0  0
 25 38  1  0  0  0
 25 39  1  0  0  0
 25 40  1  0  0  0
 26 41  1  0  0  0
 26 42  1  0  0  0
 26 43  1  0  0  0
M  END
> <s_m_entry_id>
5399

> <s_m_entry_name>
dock_pv.390

> <s_m_Source_Path>
/home/csk/Desktop/cluster/DUD-E-result/pgh1

> <s_m_Source_File>
dock_pv.maegz

> <i_m_Source_File_Index>
390

> <chembl_id>
CHEMBL324275

> <chembl_pref_name>
None

> <i_lp_mmshare_version>
53161

> <r_lp_tautomer_probability>
1

> <s_lp_Force_Field>
OPLS_2005

> <r_lp_Energy>
21.745298

> <b_lp_Chiralities_Consistent>
1

> <s_lp_Variant>
CHEMBL221_lig108-2

> <s_i_glide_gridfile>
glide-grid_2oyu

> <i_i_glide_lignum>
130

> <i_i_glide_rotatable_bonds>
3

> <r_i_docking_score>
-7.75243317605289

> <r_i_glide_ligand_efficiency>
-0.298170506771265

> <r_i_glide_ligand_efficiency_sa>
-0.883328953065583

> <r_i_glide_ligand_efficiency_ln>
-1.82063349358797

> <r_i_glide_gscore>
-7.75243317605289

> <r_i_glide_lipo>
-4.55303542813037

> <r_i_glide_hbond>
0

> <r_i_glide_metal>
0

> <r_i_glide_rewards>
-2.52641997745966

> <r_i_glide_evdw>
-10.908860206604

> <r_i_glide_ecoul>
-2.56857466697693

> <r_i_glide_erotb>
0.257751439913869

> <r_i_glide_esite>
0

> <r_i_glide_emodel>
-50.1444878317713

> <r_i_glide_energy>
-13.4774348735809

> <r_i_glide_einternal>
3.04984831809998

> <i_i_glide_confnum>
1

> <i_i_glide_posenum>
383

> <r_i_glide_eff_state_penalty>
0

> <s_user_duplicate_titles>
CHEMBL221_lig108

> <i_f3d_flags>
0

> <s_m_subgroup_title>
dock_pv

> <s_m_subgroupid>
dock_pv

> <b_m_subgroup_collapsed>
1

$$$$
CHEMBL221_lig345
                    3D
 Schrodinger Suite 2021-1.
 44 46  0  0  1  0            999 V2000
   19.0754   48.1051   12.6841 N   0  0  0  0  0  0
   19.9600   48.8978   12.0357 N   0  0  0  0  0  0
   19.2204   48.3394   13.9705 C   0  0  0  0  0  0
   20.7407   49.6221   12.9301 C   0  0  0  0  0  0
   20.2653   49.2443   14.1743 C   0  0  0  0  0  0
   19.8874   49.0425    6.0074 S   0  0  0  0  0  0
   18.3491   47.7845   15.0064 C   0  0  0  0  0  0
   19.9403   48.9278   10.6117 C   0  0  0  0  0  0
   19.9080   48.9588    7.8000 C   0  0  0  0  0  0
   20.5637   50.2730    5.6609 O   0  0  0  0  0  0
   20.3961   47.8211    5.4304 O   0  0  0  0  0  0
   21.8363   50.5961   12.6370 C   0  0  0  0  0  0
   17.7917   46.6877   14.9440 O   0  0  0  0  0  0
   20.1230   50.1287    9.9238 C   0  0  0  0  0  0
   19.7230   47.7549    9.8753 C   0  0  0  0  0  0
   19.7229   47.7595    8.4799 C   0  0  0  0  0  0
   20.1230   50.1341    8.5321 C   0  0  0  0  0  0
   18.1230   49.0730    5.4442 C   0  0  0  0  0  0
   18.2148   48.6730   16.0142 O   0  0  0  0  0  0
   21.9553   51.7444   13.4279 C   0  0  0  0  0  0
   22.7685   50.3570   11.6263 C   0  0  0  0  0  0
   17.2039   48.5433   17.0000 C   0  0  0  0  0  0
   16.9230   49.9192   17.6534 C   0  0  0  0  0  0
   23.8045   51.2581   11.3980 C   0  0  0  0  0  0
   22.9920   52.6466   13.2036 C   0  0  0  0  0  0
   23.9136   52.3980   12.1899 C   0  0  0  0  0  0
   20.6119   49.6161   15.1283 H   0  0  0  0  0  0
   20.2578   51.0618   10.4522 H   0  0  0  0  0  0
   19.6341   46.8155   10.3910 H   0  0  0  0  0  0
   19.5772   46.8419    7.9327 H   0  0  0  0  0  0
   20.2350   51.0759    8.0146 H   0  0  0  0  0  0
   18.1137   49.0730    4.3551 H   0  0  0  0  0  0
   17.6441   48.1673    5.8000 H   0  0  0  0  0  0
   17.6309   49.9586    5.8359 H   0  0  0  0  0  0
   21.2463   51.9422   14.2190 H   0  0  0  0  0  0
   22.6843   49.4730   11.0153 H   0  0  0  0  0  0
   17.4998   47.8096   17.7508 H   0  0  0  0  0  0
   16.2832   48.1817   16.5413 H   0  0  0  0  0  0
   15.9863   49.8730   18.1998 H   0  0  0  0  0  0
   16.8381   50.7125   16.9151 H   0  0  0  0  0  0
   17.6893   50.2730   18.3410 H   0  0  0  0  0  0
   24.5230   51.0722   10.6122 H   0  0  0  0  0  0
   23.0839   53.5324   13.8160 H   0  0  0  0  0  0
   24.7206   53.0944   12.0166 H   0  0  0  0  0  0
  1  2  1  0  0  0
  1  3  2  0  0  0
  2  4  1  0  0  0
  2  8  1  0  0  0
  3  5  1  0  0  0
  3  7  1  0  0  0
  4 12  1  0  0  0
  4  5  2  0  0  0
  5 27  1  0  0  0
  6  9  1  0  0  0
  6 10  2  0  0  0
  6 11  2  0  0  0
  6 18  1  0  0  0
  7 13  2  0  0  0
  7 19  1  0  0  0
  8 14  1  0  0  0
  8 15  2  0  0  0
  9 16  2  0  0  0
  9 17  1  0  0  0
 12 20  1  0  0  0
 12 21  2  0  0  0
 14 17  2  0  0  0
 14 28  1  0  0  0
 15 16  1  0  0  0
 15 29  1  0  0  0
 16 30  1  0  0  0
 17 31  1  0  0  0
 18 32  1  0  0  0
 18 33  1  0  0  0
 18 34  1  0  0  0
 19 22  1  0  0  0
 20 25  2  0  0  0
 20 35  1  0  0  0
 21 24  1  0  0  0
 21 36  1  0  0  0
 22 23  1  0  0  0
 22 37  1  0  0  0
 22 38  1  0  0  0
 23 39  1  0  0  0
 23 40  1  0  0  0
 23 41  1  0  0  0
 24 26  2  0  0  0
 24 42  1  0  0  0
 25 26  1  0  0  0
 25 43  1  0  0  0
 26 44  1  0  0  0
M  END
> <s_m_entry_id>
5400

> <s_m_entry_name>
dock_pv.391

> <s_m_Source_Path>
/home/csk/Desktop/cluster/DUD-E-result/pgh1

> <s_m_Source_File>
dock_pv.maegz

> <i_m_Source_File_Index>
391

> <chembl_id>
CHEMBL164393

> <chembl_pref_name>
None

> <i_lp_mmshare_version>
53161

> <r_lp_tautomer_probability>
1

> <s_lp_Force_Field>
OPLS_2005

> <r_lp_Energy>
16.268133

> <b_lp_Chiralities_Consistent>
1

> <s_lp_Variant>
CHEMBL221_lig345-1

> <s_i_glide_gridfile>
glide-grid_2oyu

> <i_i_glide_lignum>
411

> <i_i_glide_rotatable_bonds>
6

> <r_i_docking_score>
-7.75169862620324

> <r_i_glide_ligand_efficiency>
-0.298142254853971

> <r_i_glide_ligand_efficiency_sa>
-0.883245256871763

> <r_i_glide_ligand_efficiency_ln>
-1.82046098696603

> <r_i_glide_gscore>
-7.75169862620324

> <r_i_glide_lipo>
-4.27242736870838

> <r_i_glide_hbond>
0

> <r_i_glide_metal>
0

> <r_i_glide_rewards>
-2.45032330917355

> <r_i_glide_evdw>
-21.3521671295166

> <r_i_glide_ecoul>
-3.34642481803894

> <r_i_glide_erotb>
0.562391985145854

> <r_i_glide_esite>
-0.0217678542854961

> <r_i_glide_emodel>
-28.0646976678452

> <r_i_glide_energy>
-24.6985919475555

> <r_i_glide_einternal>
5.61153650283813

> <i_i_glide_confnum>
31

> <i_i_glide_posenum>
221

> <r_i_glide_eff_state_penalty>
0

> <s_user_duplicate_titles>
CHEMBL221_lig345

> <i_f3d_flags>
0

> <s_m_subgroup_title>
dock_pv

> <s_m_subgroupid>
dock_pv

> <b_m_subgroup_collapsed>
1

$$$$
CHEMBL221_lig810
                    3D
 Schrodinger Suite 2021-1.
 38 39  0  0  1  0            999 V2000
   21.4306   50.4226   12.0229 C   0  0  0  0  0  0
   20.7348   49.6025   11.1354 C   0  0  0  0  0  0
   19.8161   48.6703   11.6032 C   0  0  0  0  0  0
   19.5508   48.5521   12.9750 C   0  0  0  0  0  0
   20.2237   49.4102   13.8577 C   0  0  0  0  0  0
   21.1673   50.3198   13.3906 C   0  0  0  0  0  0
   22.4421   51.3994   11.4452 C   0  0  0  0  0  0
   23.5197   51.9686   12.4016 C   0  0  2  0  0  0
   23.1915   53.3384   13.0383 C   0  0  2  0  0  0
   24.5296   54.0981   13.1719 C   0  0  0  0  0  0
   25.5814   53.2189   12.5119 C   0  0  0  0  0  0
   24.7971   52.2632   11.6190 C   0  0  0  0  0  0
   22.3985   53.3078   14.2000 O   0  0  0  0  0  0
   18.5242   47.5155   13.4700 C   0  0  2  0  0  0
   17.1040   48.1151   13.5832 C   0  0  0  0  0  0
   18.9234   46.7455   14.7448 C   0  0  0  0  0  0
   18.0732   45.7153   15.0000 O   0  0  0  0  0  0
   19.9352   46.9665   15.4000 O   0  0  0  0  0  0
   19.2022   47.8730   10.7039 F   0  0  0  0  0  0
   20.9167   49.6691   10.0727 H   0  0  0  0  0  0
   20.0242   49.3830   14.9185 H   0  0  0  0  0  0
   21.6720   50.9452   14.1080 H   0  0  0  0  0  0
   22.9421   50.8697   10.6309 H   0  0  0  0  0  0
   21.8872   52.2079   10.9819 H   0  0  0  0  0  0
   23.7584   51.2350   13.1739 H   0  0  0  0  0  0
   22.5893   53.8730   12.3105 H   0  0  0  0  0  0
   24.5230   55.0833   12.7126 H   0  0  0  0  0  0
   24.8230   54.2590   14.2000 H   0  0  0  0  0  0
   26.3013   53.8100   11.9521 H   0  0  0  0  0  0
   26.1230   52.6730   13.2840 H   0  0  0  0  0  0
   25.3230   51.3401   11.4000 H   0  0  0  0  0  0
   24.5682   52.7259   10.6573 H   0  0  0  0  0  0
   22.9786   53.4730   14.9581 H   0  0  0  0  0  0
   18.5230   46.7259   12.7182 H   0  0  0  0  0  0
   17.1108   49.0703   14.1056 H   0  0  0  0  0  0
   16.6702   48.2733   12.6000 H   0  0  0  0  0  0
   16.4032   47.4702   14.1116 H   0  0  0  0  0  0
   17.3063   45.7249   14.4270 H   0  0  0  0  0  0
  1  6  1  0  0  0
  1  2  2  0  0  0
  1  7  1  0  0  0
  2  3  1  0  0  0
  2 20  1  0  0  0
  3  4  2  0  0  0
  3 19  1  0  0  0
  4  5  1  0  0  0
  4 14  1  0  0  0
  5  6  2  0  0  0
  5 21  1  0  0  0
  6 22  1  0  0  0
  7  8  1  0  0  0
  7 23  1  0  0  0
  7 24  1  0  0  0
  8 12  1  0  0  0
  8  9  1  0  0  0
  8 25  1  0  0  0
  9 10  1  0  0  0
  9 13  1  0  0  0
  9 26  1  0  0  0
 10 11  1  0  0  0
 10 27  1  0  0  0
 10 28  1  0  0  0
 11 12  1  0  0  0
 11 29  1  0  0  0
 11 30  1  0  0  0
 12 31  1  0  0  0
 12 32  1  0  0  0
 13 33  1  0  0  0
 14 15  1  0  0  0
 14 16  1  0  0  0
 14 34  1  0  0  0
 15 35  1  0  0  0
 15 36  1  0  0  0
 15 37  1  0  0  0
 16 17  1  0  0  0
 16 18  2  0  0  0
 17 38  1  0  0  0
M  END
> <s_m_entry_id>
5401

> <s_m_entry_name>
dock_pv.392

> <s_m_Source_Path>
/home/csk/Desktop/cluster/DUD-E-result/pgh1

> <s_m_Source_File>
dock_pv.maegz

> <i_m_Source_File_Index>
392

> <chembl_id>
CHEMBL1275972

> <chembl_pref_name>
None

> <i_lp_mmshare_version>
53161

> <r_lp_tautomer_probability>
1

> <s_lp_Force_Field>
OPLS_2005

> <r_lp_Energy>
29.309652

> <b_lp_Chiralities_Consistent>
1

> <s_lp_Variant>
CHEMBL221_lig810-1

> <s_i_glide_gridfile>
glide-grid_2oyu

> <i_i_glide_lignum>
974

> <i_i_glide_rotatable_bonds>
6

> <r_i_docking_score>
-7.75007451819604

> <r_i_glide_ligand_efficiency>
-0.407898658852423

> <r_i_glide_ligand_efficiency_sa>
-1.088437452725

> <r_i_glide_ligand_efficiency_ln>
-1.96481034670077

> <r_i_glide_gscore>
-7.75007451819604

> <r_i_glide_lipo>
-3.88426853873733

> <r_i_glide_hbond>
-0.32

> <r_i_glide_metal>
0

> <r_i_glide_rewards>
-2.73708159557133

> <r_i_glide_evdw>
-22.5760154724121

> <r_i_glide_ecoul>
-4.56352758407593

> <r_i_glide_erotb>
1.00460552734461

> <r_i_glide_esite>
0

> <r_i_glide_emodel>
-37.9532023715431

> <r_i_glide_energy>
-27.139543056488

> <r_i_glide_einternal>
5.74758100509644

> <i_i_glide_confnum>
113

> <i_i_glide_posenum>
206

> <r_i_glide_eff_state_penalty>
0

> <s_user_duplicate_titles>
CHEMBL221_lig810

> <i_f3d_flags>
0

> <s_m_subgroup_title>
dock_pv

> <s_m_subgroupid>
dock_pv

> <b_m_subgroup_collapsed>
1

$$$$
CHEMBL221_lig300
                    3D
 Schrodinger Suite 2021-1.
 37 39  0  0  1  0            999 V2000
   19.9483   49.0120    5.9214 S   0  0  0  0  0  0
   20.5316   49.4317   12.9374 C   0  0  0  0  0  0
   19.8772   48.7021   12.0091 C   0  0  0  0  0  0
   20.1191   48.9552   14.2587 C   0  0  0  0  0  0
   19.1803   48.0144   14.0926 O   0  0  0  0  0  0
   18.9231   47.7858   12.7262 C   0  0  0  0  0  0
   19.9352   48.8871    7.7113 C   0  0  0  0  0  0
   19.9052   48.7955   10.5253 C   0  0  0  0  0  0
   21.6285   50.4232   12.7607 C   0  0  0  0  0  0
   20.5114   47.8328    5.3003 O   0  0  0  0  0  0
   20.5884   50.2730    5.6215 O   0  0  0  0  0  0
   20.5253   49.3236   15.3603 O   0  0  0  0  0  0
   20.1230   50.0476    8.4725 C   0  0  0  0  0  0
   19.7230   47.6771    8.3604 C   0  0  0  0  0  0
   20.1230   50.0049    9.8637 C   0  0  0  0  0  0
   19.7230   47.6411    9.7526 C   0  0  0  0  0  0
   21.6890   51.5766   13.5549 C   0  0  0  0  0  0
   22.6363   50.2035   11.8160 C   0  0  0  0  0  0
   18.1732   49.0196    5.4000 C   0  0  0  0  0  0
   23.7550   52.2189   12.5051 C   0  0  0  0  0  0
   22.7459   52.4724   13.4278 C   0  0  0  0  0  0
   23.7000   51.0936   11.6885 C   0  0  0  0  0  0
   24.8185   53.0730   12.4151 O   0  0  0  0  0  0
   17.8781   48.0004   12.5008 H   0  0  0  0  0  0
   19.1008   46.7352   12.4959 H   0  0  0  0  0  0
   20.2390   51.0051    7.9831 H   0  0  0  0  0  0
   19.5883   46.7679    7.8000 H   0  0  0  0  0  0
   20.2528   50.9237   10.4171 H   0  0  0  0  0  0
   19.6431   46.6824   10.2337 H   0  0  0  0  0  0
   20.9233   51.7767   14.2906 H   0  0  0  0  0  0
   22.6005   49.3232   11.1939 H   0  0  0  0  0  0
   18.1263   49.0730    4.3176 H   0  0  0  0  0  0
   17.6856   49.8730    5.8454 H   0  0  0  0  0  0
   17.7230   48.0928    5.7345 H   0  0  0  0  0  0
   22.7869   53.3445   14.0648 H   0  0  0  0  0  0
   24.4870   50.9032   10.9725 H   0  0  0  0  0  0
   24.7445   53.8187   13.0148 H   0  0  0  0  0  0
  1  7  1  0  0  0
  1 10  2  0  0  0
  1 11  2  0  0  0
  1 19  1  0  0  0
  2  3  2  0  0  0
  2  4  1  0  0  0
  2  9  1  0  0  0
  3  8  1  0  0  0
  3  6  1  0  0  0
  4 12  2  0  0  0
  4  5  1  0  0  0
  5  6  1  0  0  0
  6 24  1  0  0  0
  6 25  1  0  0  0
  7 13  2  0  0  0
  7 14  1  0  0  0
  8 16  1  0  0  0
  8 15  2  0  0  0
  9 17  1  0  0  0
  9 18  2  0  0  0
 13 15  1  0  0  0
 13 26  1  0  0  0
 14 16  2  0  0  0
 14 27  1  0  0  0
 15 28  1  0  0  0
 16 29  1  0  0  0
 17 21  2  0  0  0
 17 30  1  0  0  0
 18 22  1  0  0  0
 18 31  1  0  0  0
 19 32  1  0  0  0
 19 33  1  0  0  0
 19 34  1  0  0  0
 20 22  2  0  0  0
 20 23  1  0  0  0
 20 21  1  0  0  0
 21 35  1  0  0  0
 22 36  1  0  0  0
 23 37  1  0  0  0
M  END
> <s_m_entry_id>
5402

> <s_m_entry_name>
dock_pv.393

> <s_m_Source_Path>
/home/csk/Desktop/cluster/DUD-E-result/pgh1

> <s_m_Source_File>
dock_pv.maegz

> <i_m_Source_File_Index>
393

> <chembl_id>
CHEMBL313527

> <chembl_pref_name>
None

> <i_lp_mmshare_version>
53161

> <r_lp_tautomer_probability>
0.999841193423406

> <s_lp_Force_Field>
OPLS_2005

> <r_lp_Energy>
17.098418

> <b_lp_Chiralities_Consistent>
1

> <s_lp_Variant>
CHEMBL221_lig300-1

> <s_i_glide_gridfile>
glide-grid_2oyu

> <i_i_glide_lignum>
333

> <i_i_glide_rotatable_bonds>
4

> <r_i_docking_score>
-7.7499475885422

> <r_i_glide_ligand_efficiency>
-0.336954242980096

> <r_i_glide_ligand_efficiency_sa>
-0.958253044330443

> <r_i_glide_ligand_efficiency_ln>
-1.87400759954901

> <r_i_glide_gscore>
-7.7499475885422

> <r_i_glide_lipo>
-4.10093082424207

> <r_i_glide_hbond>
0

> <r_i_glide_metal>
0

> <r_i_glide_rewards>
-2.46543631897272

> <r_i_glide_evdw>
-17.1776733398438

> <r_i_glide_ecoul>
-4.34696626663208

> <r_i_glide_erotb>
0.344656028566207

> <r_i_glide_esite>
-0.0173078669066174

> <r_i_glide_emodel>
-25.2064325241331

> <r_i_glide_energy>
-21.5246396064758

> <r_i_glide_einternal>
0.550189018249512

> <i_i_glide_confnum>
9

> <i_i_glide_posenum>
164

> <r_i_glide_eff_state_penalty>
0

> <s_user_duplicate_titles>
CHEMBL221_lig300

> <i_f3d_flags>
0

> <s_m_subgroup_title>
dock_pv

> <s_m_subgroupid>
dock_pv

> <b_m_subgroup_collapsed>
1

$$$$
CHEMBL221_lig834
                    3D
 Schrodinger Suite 2021-1.
 31 32  0  0  1  0            999 V2000
   20.0619   48.8596   14.1836 C   0  0  0  0  0  0
   19.8733   48.5790   12.8172 C   0  0  0  0  0  0
   20.4773   49.3804   11.8371 C   0  0  0  0  0  0
   20.8969   49.9090   14.5556 C   0  0  0  0  0  0
   21.4659   50.7292   13.5886 C   0  0  0  0  0  0
   21.2830   50.4539   12.2326 C   0  0  0  0  0  0
   21.8023   51.2953   11.2584 O   0  0  0  0  0  0
   22.9903   52.0670   11.5813 C   0  0  1  0  0  0
   23.0271   52.5087   13.0537 C   0  0  0  0  0  0
   22.2710   51.8735   13.9616 C   0  0  0  0  0  0
   24.2668   51.3709   11.0911 C   0  0  0  0  0  0
   23.7307   53.7128   13.4000 C   0  0  0  0  0  0
   24.9431   53.8742   13.2991 O   0  0  0  0  0  0
   22.8658   54.6805   13.8000 O   0  0  0  0  0  0
   20.2365   49.1117   10.3608 C   0  0  0  0  0  0
   25.3211   52.1886   11.1182 F   0  0  0  0  0  0
   24.5230   50.2767   11.8000 F   0  0  0  0  0  0
   24.1230   50.9931    9.8301 F   0  0  0  0  0  0
   19.4452   48.2057   15.2277 O   0  0  0  0  0  0
   18.2160   47.5197   15.0195 C   0  0  0  0  0  0
   17.6034   47.4730   16.1994 F   0  0  0  0  0  0
   17.3888   48.1507   14.1822 F   0  0  0  0  0  0
   18.4561   46.2779   14.6000 F   0  0  0  0  0  0
   19.2366   47.7622   12.5102 H   0  0  0  0  0  0
   21.0368   50.1229   15.6059 H   0  0  0  0  0  0
   22.9231   52.9669   10.9828 H   0  0  0  0  0  0
   22.2010   52.2430   14.9751 H   0  0  0  0  0  0
   23.3229   55.5043   14.0135 H   0  0  0  0  0  0
   19.7077   48.1742   10.1851 H   0  0  0  0  0  0
   19.6725   49.9343    9.9220 H   0  0  0  0  0  0
   21.1882   49.0730    9.8296 H   0  0  0  0  0  0
  1  2  2  0  0  0
  1  4  1  0  0  0
  1 19  1  0  0  0
  2  3  1  0  0  0
  2 24  1  0  0  0
  3 15  1  0  0  0
  3  6  2  0  0  0
  4  5  2  0  0  0
  4 25  1  0  0  0
  5 10  1  0  0  0
  5  6  1  0  0  0
  6  7  1  0  0  0
  7  8  1  0  0  0
  8  9  1  0  0  0
  8 11  1  0  0  0
  8 26  1  0  0  0
  9 12  1  0  0  0
  9 10  2  0  0  0
 10 27  1  0  0  0
 11 16  1  0  0  0
 11 17  1  0  0  0
 11 18  1  0  0  0
 12 13  2  0  0  0
 12 14  1  0  0  0
 14 28  1  0  0  0
 15 29  1  0  0  0
 15 30  1  0  0  0
 15 31  1  0  0  0
 19 20  1  0  0  0
 20 21  1  0  0  0
 20 22  1  0  0  0
 20 23  1  0  0  0
M  END
> <s_m_entry_id>
5403

> <s_m_entry_name>
dock_pv.394

> <s_m_Source_Path>
/home/csk/Desktop/cluster/DUD-E-result/pgh1

> <s_m_Source_File>
dock_pv.maegz

> <i_m_Source_File_Index>
394

> <chembl_id>
CHEMBL1290802

> <chembl_pref_name>
None

> <i_lp_mmshare_version>
53161

> <r_lp_tautomer_probability>
1

> <s_lp_Force_Field>
OPLS_2005

> <r_lp_Energy>
11.488883

> <b_lp_Chiralities_Consistent>
1

> <s_lp_Variant>
CHEMBL221_lig834-1

> <s_i_glide_gridfile>
glide-grid_2oyu

> <i_i_glide_lignum>
1020

> <i_i_glide_rotatable_bonds>
5

> <r_i_docking_score>
-7.7492133271776

> <r_i_glide_ligand_efficiency>
-0.336922318572939

> <r_i_glide_ligand_efficiency_sa>
-0.958162255563174

> <r_i_glide_ligand_efficiency_ln>
-1.87383004849313

> <r_i_glide_gscore>
-7.7492133271776

> <r_i_glide_lipo>
-3.47985827354515

> <r_i_glide_hbond>
0

> <r_i_glide_metal>
0

> <r_i_glide_rewards>
-2.5783375258978

> <r_i_glide_evdw>
-29.2961483001709

> <r_i_glide_ecoul>
-3.54445648193359

> <r_i_glide_erotb>
0.323830994076033

> <r_i_glide_esite>
-0.0183726345120957

> <r_i_glide_emodel>
-43.8367880052597

> <r_i_glide_energy>
-32.8406047821045

> <r_i_glide_einternal>
6.6007285118103

> <i_i_glide_confnum>
1

> <i_i_glide_posenum>
342

> <r_i_glide_eff_state_penalty>
0

> <s_user_duplicate_titles>
CHEMBL221_lig834,CHEMBL221_lig827

> <i_f3d_flags>
0

> <s_m_subgroup_title>
dock_pv

> <s_m_subgroupid>
dock_pv

> <b_m_subgroup_collapsed>
1

$$$$
CHEMBL221_lig21
                    3D
 Schrodinger Suite 2021-1.
 28 30  0  0  1  0            999 V2000
   19.5307   48.6196   14.4751 C   0  0  0  0  0  0
   20.2053   49.3453   13.4995 C   0  0  0  0  0  0
   21.0309   50.1997   14.2636 C   0  0  0  0  0  0
   20.9224   49.9913   15.5563 N   0  0  0  0  0  0
   19.9824   48.9778   15.7019 O   0  0  0  0  0  0
   20.0758   49.2492   12.0056 C   0  0  0  0  0  0
   18.4480   47.5669   14.4663 C   0  0  0  0  0  0
   20.3427   50.3575   11.1923 C   0  0  0  0  0  0
   20.3881   50.2256    9.8101 C   0  0  0  0  0  0
   20.1230   48.9941    9.2269 C   0  0  0  0  0  0
   19.7230   47.9175   10.0115 C   0  0  0  0  0  0
   19.7230   48.0369   11.4000 C   0  0  0  0  0  0
   21.9270   51.2364   13.7919 C   0  0  0  0  0  0
   22.7737   50.9185   12.7758 O   0  0  0  0  0  0
   23.4686   52.0397   12.4568 C   0  0  0  0  0  0
   23.1046   53.0726   13.3028 C   0  0  0  0  0  0
   22.1232   52.5611   14.1526 C   0  0  0  0  0  0
   24.6872   51.9457   11.0000 Br  0  0  0  0  0  0
   17.8336   47.6220   13.5678 H   0  0  0  0  0  0
   18.8633   46.5617   14.5220 H   0  0  0  0  0  0
   17.7699   47.6847   15.3118 H   0  0  0  0  0  0
   20.5494   51.3264   11.6176 H   0  0  0  0  0  0
   20.6199   51.0730    9.1865 H   0  0  0  0  0  0
   20.1489   48.8942    8.1512 H   0  0  0  0  0  0
   19.4672   46.9799    9.5437 H   0  0  0  0  0  0
   19.4888   47.1652   11.9911 H   0  0  0  0  0  0
   23.4963   54.0797   13.3017 H   0  0  0  0  0  0
   21.6093   53.0985   14.9364 H   0  0  0  0  0  0
  1  2  2  0  0  0
  1  5  1  0  0  0
  1  7  1  0  0  0
  2  3  1  0  0  0
  2  6  1  0  0  0
  3  4  2  0  0  0
  3 13  1  0  0  0
  4  5  1  0  0  0
  6  8  2  0  0  0
  6 12  1  0  0  0
  7 19  1  0  0  0
  7 20  1  0  0  0
  7 21  1  0  0  0
  8  9  1  0  0  0
  8 22  1  0  0  0
  9 10  2  0  0  0
  9 23  1  0  0  0
 10 11  1  0  0  0
 10 24  1  0  0  0
 11 12  2  0  0  0
 11 25  1  0  0  0
 12 26  1  0  0  0
 13 14  1  0  0  0
 13 17  2  0  0  0
 14 15  1  0  0  0
 15 16  2  0  0  0
 15 18  1  0  0  0
 16 17  1  0  0  0
 16 27  1  0  0  0
 17 28  1  0  0  0
M  END
> <s_m_entry_id>
5404

> <s_m_entry_name>
dock_pv.395

> <s_m_Source_Path>
/home/csk/Desktop/cluster/DUD-E-result/pgh1

> <s_m_Source_File>
dock_pv.maegz

> <i_m_Source_File_Index>
395

> <chembl_id>
CHEMBL2380876

> <chembl_pref_name>
None

> <i_lp_mmshare_version>
53161

> <r_lp_tautomer_probability>
1

> <s_lp_Force_Field>
OPLS_2005

> <r_lp_Energy>
9.311679

> <b_lp_Chiralities_Consistent>
1

> <s_lp_Variant>
CHEMBL221_lig21-1

> <s_i_glide_gridfile>
glide-grid_2oyu

> <i_i_glide_lignum>
25

> <i_i_glide_rotatable_bonds>
2

> <r_i_docking_score>
-7.7445558330901

> <r_i_glide_ligand_efficiency>
-0.430253101838339

> <r_i_glide_ligand_efficiency_sa>
-1.12758211288813

> <r_i_glide_ligand_efficiency_ln>
-1.99069814276007

> <r_i_glide_gscore>
-7.7445558330901

> <r_i_glide_lipo>
-4.12960525492496

> <r_i_glide_hbond>
0

> <r_i_glide_metal>
0

> <r_i_glide_rewards>
-2.17400889131941

> <r_i_glide_evdw>
-34.1830978393555

> <r_i_glide_ecoul>
-0.869592010974884

> <r_i_glide_erotb>
0.398652006768275

> <r_i_glide_esite>
0

> <r_i_glide_emodel>
-48.7378325933768

> <r_i_glide_energy>
-35.0526898503304

> <r_i_glide_einternal>
1.93743717670441

> <i_i_glide_confnum>
7

> <i_i_glide_posenum>
89

> <r_i_glide_eff_state_penalty>
0

> <s_user_duplicate_titles>
CHEMBL221_lig21

> <i_f3d_flags>
0

> <s_m_subgroup_title>
dock_pv

> <s_m_subgroupid>
dock_pv

> <b_m_subgroup_collapsed>
1

$$$$
CHEMBL221_lig252
                    3D
 Schrodinger Suite 2021-1.
 52 53  0  0  1  0            999 V2000
   20.5805   49.7023   13.3759 C   0  0  0  0  0  0
   19.5801   48.7022   13.2038 C   0  0  0  0  0  0
   21.2559   50.2716   12.2569 C   0  0  0  0  0  0
   19.9724   48.7883   10.7775 C   0  0  0  0  0  0
   19.3368   48.2582   11.8948 C   0  0  0  0  0  0
   20.9229   49.7777   10.9790 C   0  0  0  0  0  0
   18.8022   47.9910   14.3584 C   0  0  0  0  0  0
   20.9243   50.3580   14.9857 S   0  0  0  0  0  0
   22.3693   51.3920   12.3650 C   0  0  0  0  0  0
   19.7231   48.2105    9.4161 C   0  0  0  0  0  0
   19.3229   47.0679    9.2435 O   0  0  0  0  0  0
   20.4072   49.0827   16.0934 C   0  0  0  0  0  0
   18.9900   48.6309   15.7616 C   0  0  0  0  0  0
   19.3645   46.5656   14.4673 C   0  0  0  0  0  0
   17.2780   48.0258   14.0775 C   0  0  0  0  0  0
   22.6817   51.9968   11.0002 C   0  0  0  0  0  0
   23.7172   50.8081   12.7932 C   0  0  0  0  0  0
   21.9927   52.6129   13.2727 C   0  0  0  0  0  0
   19.8883   49.0953    8.1757 C   0  0  0  0  0  0
   19.2004   48.5813    6.8871 C   0  0  0  0  0  0
   19.5617   49.4157    5.6565 C   0  0  0  0  0  0
   21.0047   49.1861    5.1948 C   0  0  0  0  0  0
   18.6251   47.4605   11.7409 H   0  0  0  0  0  0
   21.4246   50.1322   10.0953 H   0  0  0  0  0  0
   20.3890   49.6570   17.0000 H   0  0  0  0  0  0
   21.1723   48.3131   16.2000 H   0  0  0  0  0  0
   18.3136   49.4722   15.8883 H   0  0  0  0  0  0
   18.6569   47.9414   16.5399 H   0  0  0  0  0  0
   18.8964   45.9907   15.2675 H   0  0  0  0  0  0
   20.4286   46.6724   14.6824 H   0  0  0  0  0  0
   19.2469   46.0001   13.5418 H   0  0  0  0  0  0
   16.7028   47.5930   14.8987 H   0  0  0  0  0  0
   16.9221   49.0443   13.9318 H   0  0  0  0  0  0
   17.0046   47.4729   13.1851 H   0  0  0  0  0  0
   21.7160   52.2729   10.6004 H   0  0  0  0  0  0
   23.3221   52.8802   11.0406 H   0  0  0  0  0  0
   23.1762   51.2958   10.3252 H   0  0  0  0  0  0
   23.7231   50.6723   13.8554 H   0  0  0  0  0  0
   23.9293   49.8535   12.3103 H   0  0  0  0  0  0
   24.5450   51.4813   12.5861 H   0  0  0  0  0  0
   22.4018   52.5185   14.2789 H   0  0  0  0  0  0
   22.3822   53.5681   12.9179 H   0  0  0  0  0  0
   20.9152   52.7343   13.3882 H   0  0  0  0  0  0
   19.6703   50.1421    8.3832 H   0  0  0  0  0  0
   20.9230   49.0809    7.9721 H   0  0  0  0  0  0
   19.4608   47.5372    6.7000 H   0  0  0  0  0  0
   18.1241   48.5951    7.0011 H   0  0  0  0  0  0
   18.8827   49.1787    4.8348 H   0  0  0  0  0  0
   19.3904   50.4677    5.8833 H   0  0  0  0  0  0
   21.3469   50.0236    4.5948 H   0  0  0  0  0  0
   21.7031   49.0748    6.0205 H   0  0  0  0  0  0
   21.0890   48.2737    4.6034 H   0  0  0  0  0  0
  1  2  2  0  0  0
  1  3  1  0  0  0
  1  8  1  0  0  0
  2  5  1  0  0  0
  2  7  1  0  0  0
  3  6  2  0  0  0
  3  9  1  0  0  0
  4  6  1  0  0  0
  4 10  1  0  0  0
  4  5  2  0  0  0
  5 23  1  0  0  0
  6 24  1  0  0  0
  7 14  1  0  0  0
  7 15  1  0  0  0
  7 13  1  0  0  0
  8 12  1  0  0  0
  9 16  1  0  0  0
  9 17  1  0  0  0
  9 18  1  0  0  0
 10 11  2  0  0  0
 10 19  1  0  0  0
 12 13  1  0  0  0
 12 25  1  0  0  0
 12 26  1  0  0  0
 13 27  1  0  0  0
 13 28  1  0  0  0
 14 29  1  0  0  0
 14 30  1  0  0  0
 14 31  1  0  0  0
 15 32  1  0  0  0
 15 33  1  0  0  0
 15 34  1  0  0  0
 16 35  1  0  0  0
 16 36  1  0  0  0
 16 37  1  0  0  0
 17 38  1  0  0  0
 17 39  1  0  0  0
 17 40  1  0  0  0
 18 41  1  0  0  0
 18 42  1  0  0  0
 18 43  1  0  0  0
 19 20  1  0  0  0
 19 44  1  0  0  0
 19 45  1  0  0  0
 20 21  1  0  0  0
 20 46  1  0  0  0
 20 47  1  0  0  0
 21 22  1  0  0  0
 21 48  1  0  0  0
 21 49  1  0  0  0
 22 50  1  0  0  0
 22 51  1  0  0  0
 22 52  1  0  0  0
M  END
> <s_m_entry_id>
5405

> <s_m_entry_name>
dock_pv.396

> <s_m_Source_Path>
/home/csk/Desktop/cluster/DUD-E-result/pgh1

> <s_m_Source_File>
dock_pv.maegz

> <i_m_Source_File_Index>
396

> <chembl_id>
CHEMBL276800

> <chembl_pref_name>
None

> <i_lp_mmshare_version>
53161

> <r_lp_tautomer_probability>
0.99990000499975

> <s_lp_Force_Field>
OPLS_2005

> <r_lp_Energy>
38.860014

> <b_lp_Chiralities_Consistent>
1

> <s_lp_Variant>
CHEMBL221_lig252-1

> <s_i_glide_gridfile>
glide-grid_2oyu

> <i_i_glide_lignum>
285

> <i_i_glide_rotatable_bonds>
5

> <r_i_docking_score>
-7.74023592192508

> <r_i_glide_ligand_efficiency>
-0.351828905542049

> <r_i_glide_ligand_efficiency_sa>
-0.985838429974505

> <r_i_glide_ligand_efficiency_ln>
-1.89199599128363

> <r_i_glide_gscore>
-7.74023592192508

> <r_i_glide_lipo>
-4.75864450179513

> <r_i_glide_hbond>
-0.000505585694581948

> <r_i_glide_metal>
0

> <r_i_glide_rewards>
-2.28722564095194

> <r_i_glide_evdw>
-22.3700466156006

> <r_i_glide_ecoul>
-0.84482741355896

> <r_i_glide_erotb>
0.55136624933044

> <r_i_glide_esite>
0

> <r_i_glide_emodel>
-41.7169884073428

> <r_i_glide_energy>
-23.2148740291595

> <r_i_glide_einternal>
10.6377182006836

> <i_i_glide_confnum>
6

> <i_i_glide_posenum>
311

> <r_i_glide_eff_state_penalty>
0

> <s_user_duplicate_titles>
CHEMBL221_lig252,14448

> <i_f3d_flags>
0

> <s_m_subgroup_title>
dock_pv

> <s_m_subgroupid>
dock_pv

> <b_m_subgroup_collapsed>
1

$$$$
CHEMBL221_lig942
                    3D
 Schrodinger Suite 2021-1.
 28 30  0  0  1  0            999 V2000
   20.0052   49.0485   14.8231 C   0  0  0  0  0  0
   20.5459   49.7471   13.7454 C   0  0  0  0  0  0
   21.3231   50.7417   14.3866 C   0  0  0  0  0  0
   21.2612   50.6727   15.6963 N   0  0  0  0  0  0
   20.4596   49.5770   15.9830 O   0  0  0  0  0  0
   20.3370   49.5024   12.2741 C   0  0  0  0  0  0
   19.0486   47.8893   14.9841 C   0  0  0  0  0  0
   20.6195   50.5098   11.3443 C   0  0  0  0  0  0
   20.5229   50.2740    9.9807 C   0  0  0  0  0  0
   20.1230   49.0254    9.5274 C   0  0  0  0  0  0
   19.7229   48.0458   10.4323 C   0  0  0  0  0  0
   19.8607   48.2730   11.8003 C   0  0  0  0  0  0
   22.1680   51.7674   13.7994 C   0  0  0  0  0  0
   21.8202   53.0618   14.0342 O   0  0  0  0  0  0
   22.7299   53.8462   13.4001 C   0  0  0  0  0  0
   23.6692   53.0622   12.7545 C   0  0  0  0  0  0
   23.2994   51.7370   12.9934 C   0  0  0  0  0  0
   18.2454   47.9227   14.2492 H   0  0  0  0  0  0
   19.5576   46.9318   14.8808 H   0  0  0  0  0  0
   18.5716   47.8954   15.9647 H   0  0  0  0  0  0
   20.9299   51.4884   11.6571 H   0  0  0  0  0  0
   20.7580   51.0610    9.2807 H   0  0  0  0  0  0
   20.0539   48.8387    8.4653 H   0  0  0  0  0  0
   19.3657   47.0924   10.0736 H   0  0  0  0  0  0
   19.6145   47.4683   12.4724 H   0  0  0  0  0  0
   22.6010   54.9133   13.5135 H   0  0  0  0  0  0
   24.5161   53.4069   12.1793 H   0  0  0  0  0  0
   23.8020   50.8516   12.6309 H   0  0  0  0  0  0
  1  2  2  0  0  0
  1  5  1  0  0  0
  1  7  1  0  0  0
  2  3  1  0  0  0
  2  6  1  0  0  0
  3  4  2  0  0  0
  3 13  1  0  0  0
  4  5  1  0  0  0
  6  8  2  0  0  0
  6 12  1  0  0  0
  7 18  1  0  0  0
  7 19  1  0  0  0
  7 20  1  0  0  0
  8  9  1  0  0  0
  8 21  1  0  0  0
  9 10  2  0  0  0
  9 22  1  0  0  0
 10 11  1  0  0  0
 10 23  1  0  0  0
 11 12  2  0  0  0
 11 24  1  0  0  0
 12 25  1  0  0  0
 13 14  1  0  0  0
 13 17  2  0  0  0
 14 15  1  0  0  0
 15 16  2  0  0  0
 15 26  1  0  0  0
 16 17  1  0  0  0
 16 27  1  0  0  0
 17 28  1  0  0  0
M  END
> <s_m_entry_id>
5406

> <s_m_entry_name>
dock_pv.397

> <s_m_Source_Path>
/home/csk/Desktop/cluster/DUD-E-result/pgh1

> <s_m_Source_File>
dock_pv.maegz

> <i_m_Source_File_Index>
397

> <chembl_id>
CHEMBL2380874

> <chembl_pref_name>
None

> <i_lp_mmshare_version>
53161

> <r_lp_tautomer_probability>
1

> <s_lp_Force_Field>
OPLS_2005

> <r_lp_Energy>
9.464611

> <b_lp_Chiralities_Consistent>
1

> <s_lp_Variant>
CHEMBL221_lig942-1

> <s_i_glide_gridfile>
glide-grid_2oyu

> <i_i_glide_lignum>
1170

> <i_i_glide_rotatable_bonds>
2

> <r_i_docking_score>
-7.73651728307575

> <r_i_glide_ligand_efficiency>
-0.455089251945633

> <r_i_glide_ligand_efficiency_sa>
-1.17016261452913

> <r_i_glide_ligand_efficiency_ln>
-2.01828507538512

> <r_i_glide_gscore>
-7.73651728307575

> <r_i_glide_lipo>
-4.08331042095823

> <r_i_glide_hbond>
0

> <r_i_glide_metal>
0

> <r_i_glide_rewards>
-2.66002338885963

> <r_i_glide_evdw>
-31.1922245025635

> <r_i_glide_ecoul>
-0.682910084724426

> <r_i_glide_erotb>
0.668864264578944

> <r_i_glide_esite>
0

> <r_i_glide_emodel>
-44.228903076275

> <r_i_glide_energy>
-31.8751345872879

> <r_i_glide_einternal>
3.73131608963013

> <i_i_glide_confnum>
7

> <i_i_glide_posenum>
112

> <r_i_glide_eff_state_penalty>
0

> <s_user_duplicate_titles>
CHEMBL221_lig942

> <i_f3d_flags>
0

> <s_m_subgroup_title>
dock_pv

> <s_m_subgroupid>
dock_pv

> <b_m_subgroup_collapsed>
1

$$$$
CHEMBL221_lig817
                    3D
 Schrodinger Suite 2021-1.
 34 36  0  0  1  0            999 V2000
   20.8470   51.5304   16.2990 C   0  0  0  0  0  0
   20.5230   50.2052   16.1561 C   0  0  0  0  0  0
   20.5231   49.5986   14.9067 C   0  0  0  0  0  0
   21.3230   52.2614   15.2231 C   0  0  0  0  0  0
   21.6427   51.5773   14.0606 C   0  0  0  0  0  0
   21.2252   50.2521   13.8877 C   0  0  0  0  0  0
   21.6052   49.5254   12.7774 O   0  0  0  0  0  0
   21.9163   50.2416   11.5837 C   0  0  2  0  0  0
   22.7216   51.5359   11.9083 C   0  0  0  0  0  0
   22.4860   52.1807   13.0604 C   0  0  0  0  0  0
   23.9382   51.8580   11.2018 C   0  0  0  0  0  0
   24.7808   52.6730   11.5673 O   0  0  0  0  0  0
   20.5934   50.4211   10.8011 C   0  0  0  0  0  0
   19.6550   51.0730   11.4801 F   0  0  0  0  0  0
   20.7706   51.0730    9.6706 F   0  0  0  0  0  0
   20.0844   49.2309   10.4781 F   0  0  0  0  0  0
   20.5230   52.2730   17.8000 Cl  0  0  0  0  0  0
   19.6866   48.3883   14.7353 C   0  0  0  0  0  0
   18.5327   48.2725   15.5286 C   0  0  0  0  0  0
   17.7481   47.1432   15.4799 C   0  0  0  0  0  0
   18.1230   46.1146   14.6393 C   0  0  0  0  0  0
   19.1511   46.2755   13.7296 C   0  0  0  0  0  0
   19.9517   47.4025   13.7839 C   0  0  0  0  0  0
   24.1230   51.0730   10.1282 O   0  0  0  0  0  0
   20.1230   49.6881   17.0000 H   0  0  0  0  0  0
   21.5936   53.3004   15.3546 H   0  0  0  0  0  0
   22.5230   49.5361   11.0171 H   0  0  0  0  0  0
   23.0931   53.0278   13.3594 H   0  0  0  0  0  0
   18.2213   49.0577   16.2011 H   0  0  0  0  0  0
   16.8741   47.0730   16.1106 H   0  0  0  0  0  0
   17.5340   45.2094   14.6209 H   0  0  0  0  0  0
   19.3231   45.5000   13.0000 H   0  0  0  0  0  0
   20.7863   47.4530   13.1058 H   0  0  0  0  0  0
   25.0170   51.1947    9.7974 H   0  0  0  0  0  0
  1  2  2  0  0  0
  1  4  1  0  0  0
  1 17  1  0  0  0
  2  3  1  0  0  0
  2 25  1  0  0  0
  3  6  2  0  0  0
  3 18  1  0  0  0
  4  5  2  0  0  0
  4 26  1  0  0  0
  5  6  1  0  0  0
  5 10  1  0  0  0
  6  7  1  0  0  0
  7  8  1  0  0  0
  8  9  1  0  0  0
  8 13  1  0  0  0
  8 27  1  0  0  0
  9 10  2  0  0  0
  9 11  1  0  0  0
 10 28  1  0  0  0
 11 12  2  0  0  0
 11 24  1  0  0  0
 13 14  1  0  0  0
 13 15  1  0  0  0
 13 16  1  0  0  0
 18 19  2  0  0  0
 18 23  1  0  0  0
 19 20  1  0  0  0
 19 29  1  0  0  0
 20 21  2  0  0  0
 20 30  1  0  0  0
 21 22  1  0  0  0
 21 31  1  0  0  0
 22 23  2  0  0  0
 22 32  1  0  0  0
 23 33  1  0  0  0
 24 34  1  0  0  0
M  END
> <s_m_entry_id>
5407

> <s_m_entry_name>
dock_pv.398

> <s_m_Source_Path>
/home/csk/Desktop/cluster/DUD-E-result/pgh1

> <s_m_Source_File>
dock_pv.maegz

> <i_m_Source_File_Index>
398

> <chembl_id>
CHEMBL1290320

> <chembl_pref_name>
None

> <i_lp_mmshare_version>
53161

> <r_lp_tautomer_probability>
1

> <s_lp_Force_Field>
OPLS_2005

> <r_lp_Energy>
19.161589

> <b_lp_Chiralities_Consistent>
1

> <s_lp_Variant>
CHEMBL221_lig817-1

> <s_i_glide_gridfile>
glide-grid_2oyu

> <i_i_glide_lignum>
988

> <i_i_glide_rotatable_bonds>
4

> <r_i_docking_score>
-7.71940333388499

> <r_i_glide_ligand_efficiency>
-0.321641805578541

> <r_i_glide_ligand_efficiency_sa>
-0.92777551079426

> <r_i_glide_ligand_efficiency_ln>
-1.84760743813636

> <r_i_glide_gscore>
-7.71940333388499

> <r_i_glide_lipo>
-3.63407733510298

> <r_i_glide_hbond>
0

> <r_i_glide_metal>
0

> <r_i_glide_rewards>
-3.23930139441976

> <r_i_glide_evdw>
-13.8172044754028

> <r_i_glide_ecoul>
-3.05979061126709

> <r_i_glide_erotb>
0.303804211097961

> <r_i_glide_esite>
0

> <r_i_glide_emodel>
-27.2311356248788

> <r_i_glide_energy>
-16.8769950866699

> <r_i_glide_einternal>
4.62865972518921

> <i_i_glide_confnum>
8

> <i_i_glide_posenum>
94

> <r_i_glide_eff_state_penalty>
0

> <s_user_duplicate_titles>
CHEMBL221_lig817

> <i_f3d_flags>
0

> <s_m_subgroup_title>
dock_pv

> <s_m_subgroupid>
dock_pv

> <b_m_subgroup_collapsed>
1

$$$$
CHEMBL221_lig888
                    3D
 Schrodinger Suite 2021-1.
 32 34  0  0  1  0            999 V2000
   20.3691   49.3489   13.0233 N   0  0  0  0  0  0
   19.8055   49.0726   14.2439 C   0  0  0  0  0  0
   21.3216   50.3329   13.1829 C   0  0  0  0  0  0
   18.6274   48.1485   14.0560 C   0  0  2  0  0  0
   20.5226   49.7639   15.2156 C   0  0  0  0  0  0
   21.4031   50.6095   14.5468 C   0  0  0  0  0  0
   22.0540   50.8434   12.0117 C   0  0  0  0  0  0
   18.5854   47.0722   15.1477 C   0  0  0  0  0  0
   19.7801   48.5995   11.9326 C   0  0  0  0  0  0
   18.8388   47.6211   12.6326 C   0  0  0  0  0  0
   21.9131   50.3289   10.8985 O   0  0  0  0  0  0
   23.1002   51.8759   12.2437 C   0  0  0  0  0  0
   18.9222   45.9018   15.0005 O   0  0  0  0  0  0
   18.1292   47.5885   16.3157 O   0  0  0  0  0  0
   24.2934   51.7895   11.5256 C   0  0  0  0  0  0
   22.9006   52.9363   13.1358 C   0  0  0  0  0  0
   25.3229   52.6736   11.8001 C   0  0  0  0  0  0
   23.9302   53.8292   13.3996 C   0  0  0  0  0  0
   25.1579   53.6657   12.7662 C   0  0  0  0  0  0
   17.6706   48.6736   14.1182 H   0  0  0  0  0  0
   20.3518   49.7360   16.2806 H   0  0  0  0  0  0
   22.0728   51.3110   15.0243 H   0  0  0  0  0  0
   19.3214   49.2803   11.2163 H   0  0  0  0  0  0
   20.5256   48.0733   11.3584 H   0  0  0  0  0  0
   17.8936   47.5719   12.0946 H   0  0  0  0  0  0
   19.2545   46.6142   12.5989 H   0  0  0  0  0  0
   18.1035   46.9030   16.9856 H   0  0  0  0  0  0
   24.4599   51.0112   10.7963 H   0  0  0  0  0  0
   21.9577   53.0814   13.6408 H   0  0  0  0  0  0
   26.2575   52.5946   11.2678 H   0  0  0  0  0  0
   23.7863   54.6385   14.1029 H   0  0  0  0  0  0
   25.9646   54.3591   12.9782 H   0  0  0  0  0  0
  1  2  1  0  0  0
  1  3  1  0  0  0
  1  9  1  0  0  0
  2  4  1  0  0  0
  2  5  2  0  0  0
  3  6  2  0  0  0
  3  7  1  0  0  0
  4  8  1  0  0  0
  4 10  1  0  0  0
  4 20  1  0  0  0
  5  6  1  0  0  0
  5 21  1  0  0  0
  6 22  1  0  0  0
  7 11  2  0  0  0
  7 12  1  0  0  0
  8 13  2  0  0  0
  8 14  1  0  0  0
  9 10  1  0  0  0
  9 23  1  0  0  0
  9 24  1  0  0  0
 10 25  1  0  0  0
 10 26  1  0  0  0
 12 15  1  0  0  0
 12 16  2  0  0  0
 14 27  1  0  0  0
 15 17  2  0  0  0
 15 28  1  0  0  0
 16 18  1  0  0  0
 16 29  1  0  0  0
 17 19  1  0  0  0
 17 30  1  0  0  0
 18 19  2  0  0  0
 18 31  1  0  0  0
 19 32  1  0  0  0
M  END
> <s_m_entry_id>
5408

> <s_m_entry_name>
dock_pv.399

> <s_m_Source_Path>
/home/csk/Desktop/cluster/DUD-E-result/pgh1

> <s_m_Source_File>
dock_pv.maegz

> <i_m_Source_File_Index>
399

> <chembl_id>
CHEMBL469

> <chembl_pref_name>
KETOROLAC

> <i_lp_mmshare_version>
53161

> <r_lp_tautomer_probability>
1

> <s_lp_Force_Field>
OPLS_2005

> <r_lp_Energy>
34.268531

> <b_lp_Chiralities_Consistent>
1

> <s_lp_Variant>
CHEMBL221_lig888-1

> <s_i_glide_gridfile>
glide-grid_2oyu

> <i_i_glide_lignum>
1094

> <i_i_glide_rotatable_bonds>
4

> <r_i_docking_score>
-7.71885439025554

> <r_i_glide_ligand_efficiency>
-0.406255494223976

> <r_i_glide_ligand_efficiency_sa>
-1.08405282952563

> <r_i_glide_ligand_efficiency_ln>
-1.95689537372099

> <r_i_glide_gscore>
-7.71885439025554

> <r_i_glide_lipo>
-3.58925953016009

> <r_i_glide_hbond>
-0.00185820098702395

> <r_i_glide_metal>
0

> <r_i_glide_rewards>
-3.1538175200084

> <r_i_glide_evdw>
-29.697847366333

> <r_i_glide_ecoul>
-1.9965968132019

> <r_i_glide_erotb>
0.810462751196914

> <r_i_glide_esite>
0

> <r_i_glide_emodel>
-40.7698713203843

> <r_i_glide_energy>
-31.6944441795349

> <r_i_glide_einternal>
6.82757806777954

> <i_i_glide_confnum>
11

> <i_i_glide_posenum>
173

> <r_i_glide_eff_state_penalty>
0

> <s_user_duplicate_titles>
CHEMBL221_lig888

> <i_f3d_flags>
0

> <s_m_subgroup_title>
dock_pv

> <s_m_subgroupid>
dock_pv

> <b_m_subgroup_collapsed>
1

$$$$
CHEMBL221_lig823
                    3D
 Schrodinger Suite 2021-1.
 27 28  0  0  1  0            999 V2000
   22.8412   53.2721   13.3999 C   0  0  0  0  0  0
   23.5521   52.8308   12.2813 C   0  0  0  0  0  0
   23.3656   51.5448   11.7922 C   0  0  0  0  0  0
   21.9868   52.3980   14.0766 C   0  0  0  0  0  0
   21.8464   51.0862   13.6259 C   0  0  0  0  0  0
   22.5255   50.6738   12.4767 C   0  0  0  0  0  0
   22.3948   49.3906   11.9922 O   0  0  0  0  0  0
   21.1257   48.7384   12.2008 C   0  0  1  0  0  0
   20.5216   49.0379   13.5978 C   0  0  0  0  0  0
   20.9229   50.1486   14.2477 C   0  0  0  0  0  0
   19.6546   48.0727   14.2539 C   0  0  0  0  0  0
   19.0683   47.1847   13.4002 O   0  0  0  0  0  0
   19.4757   48.0308   15.4688 O   0  0  0  0  0  0
   20.1860   49.0711   11.0158 C   0  0  0  0  0  0
   19.5735   50.2447   11.1745 F   0  0  0  0  0  0
   20.8271   49.1224    9.8488 F   0  0  0  0  0  0
   19.2708   48.1173   10.8909 F   0  0  0  0  0  0
   22.9802   54.7063   13.8511 C   0  0  0  0  0  0
   24.1231   51.0732   10.3185 Cl  0  0  0  0  0  0
   24.2188   53.4925   11.7554 H   0  0  0  0  0  0
   21.4334   52.7418   14.9394 H   0  0  0  0  0  0
   21.3754   47.6764   12.1987 H   0  0  0  0  0  0
   20.5637   50.3599   15.2474 H   0  0  0  0  0  0
   19.1333   47.4247   12.4725 H   0  0  0  0  0  0
   22.5227   54.8823   14.8255 H   0  0  0  0  0  0
   24.0344   54.9726   13.9322 H   0  0  0  0  0  0
   22.5222   55.3802   13.1280 H   0  0  0  0  0  0
  1  2  2  0  0  0
  1  4  1  0  0  0
  1 18  1  0  0  0
  2  3  1  0  0  0
  2 20  1  0  0  0
  3  6  2  0  0  0
  3 19  1  0  0  0
  4  5  2  0  0  0
  4 21  1  0  0  0
  5  6  1  0  0  0
  5 10  1  0  0  0
  6  7  1  0  0  0
  7  8  1  0  0  0
  8  9  1  0  0  0
  8 14  1  0  0  0
  8 22  1  0  0  0
  9 10  2  0  0  0
  9 11  1  0  0  0
 10 23  1  0  0  0
 11 12  1  0  0  0
 11 13  2  0  0  0
 12 24  1  0  0  0
 14 15  1  0  0  0
 14 16  1  0  0  0
 14 17  1  0  0  0
 18 25  1  0  0  0
 18 26  1  0  0  0
 18 27  1  0  0  0
M  END
> <s_m_entry_id>
5409

> <s_m_entry_name>
dock_pv.400

> <s_m_Source_Path>
/home/csk/Desktop/cluster/DUD-E-result/pgh1

> <s_m_Source_File>
dock_pv.maegz

> <i_m_Source_File_Index>
400

> <chembl_id>
CHEMBL1288566

> <chembl_pref_name>
None

> <i_lp_mmshare_version>
53161

> <r_lp_tautomer_probability>
1

> <s_lp_Force_Field>
OPLS_2005

> <r_lp_Energy>
13.272535

> <b_lp_Chiralities_Consistent>
1

> <s_lp_Variant>
CHEMBL221_lig823-2

> <s_i_glide_gridfile>
glide-grid_2oyu

> <i_i_glide_lignum>
1001

> <i_i_glide_rotatable_bonds>
3

> <r_i_docking_score>
-7.71127192083727

> <r_i_glide_ligand_efficiency>
-0.405856416886172

> <r_i_glide_ligand_efficiency_sa>
-1.08298793090051

> <r_i_glide_ligand_efficiency_ln>
-1.95497305486694

> <r_i_glide_gscore>
-7.71127192083727

> <r_i_glide_lipo>
-2.75395386776779

> <r_i_glide_hbond>
0

> <r_i_glide_metal>
0

> <r_i_glide_rewards>
-3.5598548998888

> <r_i_glide_evdw>
-30.1485385894775

> <r_i_glide_ecoul>
-0.688423991203308

> <r_i_glide_erotb>
0.213227374973688

> <r_i_glide_esite>
0

> <r_i_glide_emodel>
-42.7214921961837

> <r_i_glide_energy>
-30.8369625806808

> <r_i_glide_einternal>
1.47631907463074

> <i_i_glide_confnum>
1

> <i_i_glide_posenum>
176

> <r_i_glide_eff_state_penalty>
0

> <s_user_duplicate_titles>
CHEMBL221_lig823

> <i_f3d_flags>
0

> <s_m_subgroup_title>
dock_pv

> <s_m_subgroupid>
dock_pv

> <b_m_subgroup_collapsed>
1

$$$$
CHEMBL221_lig119
                    3D
 Schrodinger Suite 2021-1.
 42 44  0  0  1  0            999 V2000
   19.7845   48.6156   11.9688 N   0  0  0  0  0  0
   20.4670   49.2302   13.0055 C   0  0  0  0  0  0
   19.0145   47.7889   13.9306 N   0  0  0  0  0  0
   18.9230   47.7714   12.6292 C   0  0  0  0  0  0
   19.8960   49.0324    5.9649 S   0  0  0  0  0  0
   19.9548   48.6729   14.1809 C   0  0  0  0  0  0
   21.5025   50.2730   12.8443 C   0  0  0  0  0  0
   22.4777   50.1646   11.8541 C   0  0  0  0  0  0
   19.8857   48.7578   10.5544 C   0  0  0  0  0  0
   19.9065   48.9059    7.7509 C   0  0  0  0  0  0
   23.3598   51.2096   11.6325 C   0  0  0  0  0  0
   20.5697   50.2730    5.6577 O   0  0  0  0  0  0
   20.4178   47.8296    5.3571 O   0  0  0  0  0  0
   21.4746   51.3971   13.6695 C   0  0  0  0  0  0
   23.3396   52.3362   12.4529 C   0  0  0  0  0  0
   19.7230   47.6808    8.3742 C   0  0  0  0  0  0
   20.1230   50.0521    8.5319 C   0  0  0  0  0  0
   19.7230   47.6223    9.7606 C   0  0  0  0  0  0
   20.1229   49.9851    9.9259 C   0  0  0  0  0  0
   22.3869   52.4250   13.4782 C   0  0  0  0  0  0
   20.4265   49.0210   15.7999 Cl  0  0  0  0  0  0
   24.2246   51.1305   10.6009 F   0  0  0  0  0  0
   18.1231   49.0730    5.4228 C   0  0  0  0  0  0
   24.2928   53.2880   12.2012 O   0  0  0  0  0  0
   24.6181   54.2310   13.2073 C   0  0  0  0  0  0
   26.1230   54.2731   13.1980 C   0  0  0  0  0  0
   18.2365   47.1647   12.0645 H   0  0  0  0  0  0
   22.5229   49.2951   11.2163 H   0  0  0  0  0  0
   20.7326   51.4943   14.4481 H   0  0  0  0  0  0
   19.5895   46.7804    7.7999 H   0  0  0  0  0  0
   20.2399   51.0159    8.0549 H   0  0  0  0  0  0
   19.6380   46.6730   10.2382 H   0  0  0  0  0  0
   20.2368   50.8957   10.4963 H   0  0  0  0  0  0
   22.3177   53.2898   14.1203 H   0  0  0  0  0  0
   18.0968   49.0730    4.3339 H   0  0  0  0  0  0
   17.6432   48.1751    5.7985 H   0  0  0  0  0  0
   17.6446   49.9635    5.8204 H   0  0  0  0  0  0
   24.3091   53.9507   14.2000 H   0  0  0  0  0  0
   24.1820   55.2056   13.0000 H   0  0  0  0  0  0
   26.5221   55.0730   13.8022 H   0  0  0  0  0  0
   26.5111   54.4518   12.2000 H   0  0  0  0  0  0
   26.5230   53.3289   13.5680 H   0  0  0  0  0  0
  1  2  1  0  0  0
  1  4  1  0  0  0
  1  9  1  0  0  0
  2  6  2  0  0  0
  2  7  1  0  0  0
  3  4  2  0  0  0
  3  6  1  0  0  0
  4 27  1  0  0  0
  5 10  1  0  0  0
  5 12  2  0  0  0
  5 13  2  0  0  0
  5 23  1  0  0  0
  6 21  1  0  0  0
  7  8  2  0  0  0
  7 14  1  0  0  0
  8 11  1  0  0  0
  8 28  1  0  0  0
  9 18  1  0  0  0
  9 19  2  0  0  0
 10 17  2  0  0  0
 10 16  1  0  0  0
 11 22  1  0  0  0
 11 15  2  0  0  0
 14 20  2  0  0  0
 14 29  1  0  0  0
 15 20  1  0  0  0
 15 24  1  0  0  0
 16 18  2  0  0  0
 16 30  1  0  0  0
 17 19  1  0  0  0
 17 31  1  0  0  0
 18 32  1  0  0  0
 19 33  1  0  0  0
 20 34  1  0  0  0
 23 35  1  0  0  0
 23 36  1  0  0  0
 23 37  1  0  0  0
 24 25  1  0  0  0
 25 26  1  0  0  0
 25 38  1  0  0  0
 25 39  1  0  0  0
 26 40  1  0  0  0
 26 41  1  0  0  0
 26 42  1  0  0  0
M  END
> <s_m_entry_id>
5410

> <s_m_entry_name>
dock_pv.401

> <s_m_Source_Path>
/home/csk/Desktop/cluster/DUD-E-result/pgh1

> <s_m_Source_File>
dock_pv.maegz

> <i_m_Source_File_Index>
401

> <chembl_id>
CHEMBL332725

> <chembl_pref_name>
None

> <i_lp_mmshare_version>
53161

> <r_lp_tautomer_probability>
1

> <s_lp_Force_Field>
OPLS_2005

> <r_lp_Energy>
15.572307

> <b_lp_Chiralities_Consistent>
1

> <s_lp_Variant>
CHEMBL221_lig119-1

> <s_i_glide_gridfile>
glide-grid_2oyu

> <i_i_glide_lignum>
141

> <i_i_glide_rotatable_bonds>
5

> <r_i_docking_score>
-7.70880908940448

> <r_i_glide_ligand_efficiency>
-0.296492657284788

> <r_i_glide_ligand_efficiency_sa>
-0.878358330563912

> <r_i_glide_ligand_efficiency_ln>
-1.81038851998089

> <r_i_glide_gscore>
-7.70880908940448

> <r_i_glide_lipo>
-4.39706749692975

> <r_i_glide_hbond>
0

> <r_i_glide_metal>
0

> <r_i_glide_rewards>
-2.2930047141885

> <r_i_glide_evdw>
-14.9566850662231

> <r_i_glide_ecoul>
-4.1661319732666

> <r_i_glide_erotb>
0.376170642521629

> <r_i_glide_esite>
-0.0221534715067186

> <r_i_glide_emodel>
-18.2717900977043

> <r_i_glide_energy>
-19.1228170394897

> <r_i_glide_einternal>
1.78509843349457

> <i_i_glide_confnum>
43

> <i_i_glide_posenum>
244

> <r_i_glide_eff_state_penalty>
0

> <s_user_duplicate_titles>
CHEMBL221_lig119

> <i_f3d_flags>
0

> <s_m_subgroup_title>
dock_pv

> <s_m_subgroupid>
dock_pv

> <b_m_subgroup_collapsed>
1

$$$$
CHEMBL221_lig745
                    3D
 Schrodinger Suite 2021-1.
 46 48  0  0  1  0            999 V2000
   19.1815   47.8731   12.3706 C   0  0  0  0  0  0
   19.9344   48.7193   11.5425 C   0  0  0  0  0  0
   20.7613   49.6491   12.0723 N   0  0  0  0  0  0
   20.8140   49.7477   13.4216 C   0  0  0  0  0  0
   20.1230   48.9824   14.2994 N   0  0  0  0  0  0
   19.2859   48.0541   13.7588 C   0  0  0  0  0  0
   19.8613   48.7262   10.0528 C   0  0  0  0  0  0
   20.1240   49.8931    9.3216 C   0  0  0  0  0  0
   20.1230   49.8730    7.9295 C   0  0  0  0  0  0
   19.8310   48.6990    7.2455 C   0  0  0  0  0  0
   19.4837   47.5591    7.9557 C   0  0  0  0  0  0
   19.5293   47.5733    9.3422 C   0  0  0  0  0  0
   18.4088   47.2604   14.7291 C   0  0  0  0  0  0
   18.6599   45.9582   14.6001 F   0  0  0  0  0  0
   18.6050   47.5972   16.0057 F   0  0  0  0  0  0
   17.1245   47.4739   14.4439 F   0  0  0  0  0  0
   19.8741   48.6856    5.4658 S   0  0  0  0  0  0
   18.0413   48.6730    5.0287 C   0  0  0  0  0  0
   20.5229   47.4730    4.9985 O   0  0  0  0  0  0
   20.4976   49.9187    5.0330 O   0  0  0  0  0  0
   21.5744   50.7429   13.9863 O   0  0  0  0  0  0
   22.0652   53.0415   14.0524 C   0  0  0  0  0  0
   22.0950   51.7946   13.1680 C   0  0  0  0  0  0
   23.4918   51.4471   12.6045 C   0  0  0  0  0  0
   24.1976   52.6716   11.9918 C   0  0  0  0  0  0
   24.2355   53.8338   13.0001 C   0  0  0  0  0  0
   22.8089   54.2318   13.4379 C   0  0  0  0  0  0
   18.5116   47.1361   11.9597 H   0  0  0  0  0  0
   20.3508   50.8241    9.8207 H   0  0  0  0  0  0
   20.3223   50.7856    7.3844 H   0  0  0  0  0  0
   19.1713   46.6730    7.4416 H   0  0  0  0  0  0
   19.3230   46.6731    9.8716 H   0  0  0  0  0  0
   17.8900   48.6769    3.9541 H   0  0  0  0  0  0
   17.5992   49.5716    5.4493 H   0  0  0  0  0  0
   17.5406   47.8284    5.4875 H   0  0  0  0  0  0
   21.0329   53.3366   14.2309 H   0  0  0  0  0  0
   22.5230   52.7978   15.0000 H   0  0  0  0  0  0
   21.4262   51.9980   12.3318 H   0  0  0  0  0  0
   24.1226   51.0735   13.4062 H   0  0  0  0  0  0
   23.4142   50.6701   11.8433 H   0  0  0  0  0  0
   23.6831   52.9850   11.0819 H   0  0  0  0  0  0
   25.2113   52.4054   11.6887 H   0  0  0  0  0  0
   24.7653   54.6967   12.6001 H   0  0  0  0  0  0
   24.8185   53.5309   13.8694 H   0  0  0  0  0  0
   22.2168   54.6029   12.6007 H   0  0  0  0  0  0
   22.8598   55.0501   14.1587 H   0  0  0  0  0  0
  1  2  2  0  0  0
  1  6  1  0  0  0
  1 28  1  0  0  0
  2  7  1  0  0  0
  2  3  1  0  0  0
  3  4  2  0  0  0
  4  5  1  0  0  0
  4 21  1  0  0  0
  5  6  2  0  0  0
  6 13  1  0  0  0
  7  8  2  0  0  0
  7 12  1  0  0  0
  8  9  1  0  0  0
  8 29  1  0  0  0
  9 10  2  0  0  0
  9 30  1  0  0  0
 10 17  1  0  0  0
 10 11  1  0  0  0
 11 12  2  0  0  0
 11 31  1  0  0  0
 12 32  1  0  0  0
 13 14  1  0  0  0
 13 15  1  0  0  0
 13 16  1  0  0  0
 17 18  1  0  0  0
 17 19  2  0  0  0
 17 20  2  0  0  0
 18 33  1  0  0  0
 18 34  1  0  0  0
 18 35  1  0  0  0
 21 23  1  0  0  0
 22 23  1  0  0  0
 22 27  1  0  0  0
 22 36  1  0  0  0
 22 37  1  0  0  0
 23 24  1  0  0  0
 23 38  1  0  0  0
 24 25  1  0  0  0
 24 39  1  0  0  0
 24 40  1  0  0  0
 25 26  1  0  0  0
 25 41  1  0  0  0
 25 42  1  0  0  0
 26 27  1  0  0  0
 26 43  1  0  0  0
 26 44  1  0  0  0
 27 45  1  0  0  0
 27 46  1  0  0  0
M  END
> <s_m_entry_id>
5411

> <s_m_entry_name>
dock_pv.402

> <s_m_Source_Path>
/home/csk/Desktop/cluster/DUD-E-result/pgh1

> <s_m_Source_File>
dock_pv.maegz

> <i_m_Source_File_Index>
402

> <chembl_id>
CHEMBL552081

> <chembl_pref_name>
None

> <i_lp_mmshare_version>
53161

> <r_lp_tautomer_probability>
1

> <s_lp_Force_Field>
OPLS_2005

> <r_lp_Energy>
10.870622

> <b_lp_Chiralities_Consistent>
1

> <s_lp_Variant>
CHEMBL221_lig745-1

> <s_i_glide_gridfile>
glide-grid_2oyu

> <i_i_glide_lignum>
914

> <i_i_glide_rotatable_bonds>
5

> <r_i_docking_score>
-7.70723868484529

> <r_i_glide_ligand_efficiency>
-0.2854532846239

> <r_i_glide_ligand_efficiency_sa>
-0.856359852930891

> <r_i_glide_ligand_efficiency_ln>
-1.79411810207169

> <r_i_glide_gscore>
-7.70723868484529

> <r_i_glide_lipo>
-3.86335245827765

> <r_i_glide_hbond>
0

> <r_i_glide_metal>
0

> <r_i_glide_rewards>
-2.87456570250835

> <r_i_glide_evdw>
-17.0399169921875

> <r_i_glide_ecoul>
-3.03737449645996

> <r_i_glide_erotb>
0.366812565045438

> <r_i_glide_esite>
-0.028531065026363

> <r_i_glide_emodel>
-22.5581949847584

> <r_i_glide_energy>
-20.0772914886475

> <r_i_glide_einternal>
1.832878947258

> <i_i_glide_confnum>
7

> <i_i_glide_posenum>
78

> <r_i_glide_eff_state_penalty>
0

> <s_user_duplicate_titles>
CHEMBL221_lig745

> <i_f3d_flags>
0

> <s_m_subgroup_title>
dock_pv

> <s_m_subgroupid>
dock_pv

> <b_m_subgroup_collapsed>
1

$$$$
CHEMBL221_lig1004
                    3D
 Schrodinger Suite 2021-1.
 29 30  0  0  1  0            999 V2000
   22.9871   52.1469   11.4777 C   0  0  2  0  0  0
   22.8945   52.4897   12.9675 C   0  0  0  0  0  0
   22.0827   51.7699   13.7697 C   0  0  0  0  0  0
   21.2941   50.6563   13.2236 C   0  0  0  0  0  0
   20.6159   49.7200   14.0169 C   0  0  0  0  0  0
   19.8397   48.7150   13.4122 C   0  0  0  0  0  0
   19.7866   48.6339   12.0124 C   0  0  0  0  0  0
   20.4788   49.5431   11.2220 C   0  0  0  0  0  0
   21.2257   50.5415   11.8315 C   0  0  0  0  0  0
   21.8042   51.4730   11.0000 O   0  0  0  0  0  0
   23.5758   53.6812   13.4000 C   0  0  0  0  0  0
   24.7928   53.8373   13.3580 O   0  0  0  0  0  0
   22.7097   54.6532   13.8000 O   0  0  0  0  0  0
   24.2676   51.4355   11.0497 C   0  0  0  0  0  0
   18.8714   47.5450   14.3928 S   0  0  0  0  0  0
   17.5639   47.8730   13.4980 F   0  0  0  0  0  0
   20.1230   47.2022   15.3523 F   0  0  0  0  0  0
   17.9895   46.4716   15.2110 F   0  0  0  0  0  0
   19.3230   46.3344   13.4151 F   0  0  0  0  0  0
   18.4083   48.6730   15.4514 F   0  0  0  0  0  0
   25.3223   52.2553   11.0608 F   0  0  0  0  0  0
   24.5230   50.3694   11.8000 F   0  0  0  0  0  0
   24.1230   51.0069    9.8041 F   0  0  0  0  0  0
   23.0188   53.0730   10.9184 H   0  0  0  0  0  0
   21.9611   52.0500   14.8075 H   0  0  0  0  0  0
   20.6601   49.7930   15.0948 H   0  0  0  0  0  0
   19.1908   47.8730   11.5275 H   0  0  0  0  0  0
   20.4184   49.4913   10.1445 H   0  0  0  0  0  0
   23.1998   55.4297   14.0901 H   0  0  0  0  0  0
  1  2  1  0  0  0
  1 10  1  0  0  0
  1 14  1  0  0  0
  1 24  1  0  0  0
  2  3  2  0  0  0
  2 11  1  0  0  0
  3  4  1  0  0  0
  3 25  1  0  0  0
  4  5  1  0  0  0
  4  9  2  0  0  0
  5  6  2  0  0  0
  5 26  1  0  0  0
  6  7  1  0  0  0
  6 15  1  0  0  0
  7  8  2  0  0  0
  7 27  1  0  0  0
  8  9  1  0  0  0
  8 28  1  0  0  0
  9 10  1  0  0  0
 11 12  2  0  0  0
 11 13  1  0  0  0
 13 29  1  0  0  0
 14 21  1  0  0  0
 14 22  1  0  0  0
 14 23  1  0  0  0
 15 16  1  0  0  0
 15 17  1  0  0  0
 15 18  1  0  0  0
 15 19  1  0  0  0
 15 20  1  0  0  0
M  END
> <s_m_entry_id>
5412

> <s_m_entry_name>
dock_pv.403

> <s_m_Source_Path>
/home/csk/Desktop/cluster/DUD-E-result/pgh1

> <s_m_Source_File>
dock_pv.maegz

> <i_m_Source_File_Index>
403

> <chembl_id>
CHEMBL4091547

> <chembl_pref_name>
None

> <i_lp_mmshare_version>
53161

> <r_lp_tautomer_probability>
1

> <s_lp_Force_Field>
OPLS_2005

> <r_lp_Energy>
13.368647

> <b_lp_Chiralities_Consistent>
1

> <s_lp_Variant>
CHEMBL221_lig1004-1

> <s_i_glide_gridfile>
glide-grid_2oyu

> <i_i_glide_lignum>
1256

> <i_i_glide_rotatable_bonds>
4

> <r_i_docking_score>
-7.70582208755219

> <r_i_glide_ligand_efficiency>
-0.335035742937052

> <r_i_glide_ligand_efficiency_sa>
-0.952797085412889

> <r_i_glide_ligand_efficiency_ln>
-1.8633376533017

> <r_i_glide_gscore>
-7.70582208755219

> <r_i_glide_lipo>
-2.99927114168469

> <r_i_glide_hbond>
0

> <r_i_glide_metal>
0

> <r_i_glide_rewards>
-2.7753513977008

> <r_i_glide_evdw>
-28.5335369110107

> <r_i_glide_ecoul>
-3.6787428855896

> <r_i_glide_erotb>
0.140738168681626

> <r_i_glide_esite>
-0.0934494384593547

> <r_i_glide_emodel>
-43.0587228169406

> <r_i_glide_energy>
-32.2122797966003

> <r_i_glide_einternal>
3.94793653488159

> <i_i_glide_confnum>
1

> <i_i_glide_posenum>
300

> <r_i_glide_eff_state_penalty>
0

> <s_user_duplicate_titles>
CHEMBL221_lig1004

> <i_f3d_flags>
0

> <s_m_subgroup_title>
dock_pv

> <s_m_subgroupid>
dock_pv

> <b_m_subgroup_collapsed>
1

$$$$
CHEMBL221_lig102
                    3D
 Schrodinger Suite 2021-1.
 34 36  0  0  1  0            999 V2000
   20.0565   49.3015   12.6961 N   0  0  0  0  0  0
   19.6478   48.7744   14.8443 N   0  0  0  0  0  0
   20.9442   50.0162   13.4772 C   0  0  0  0  0  0
   19.3121   48.5758   13.5987 C   0  0  0  0  0  0
   20.0423   48.7619    6.7506 S   0  0  0  0  0  0
   20.6045   49.6805   14.7842 C   0  0  0  0  0  0
   19.9551   49.2477   11.2934 C   0  0  0  0  0  0
   20.0937   49.0094    8.5250 C   0  0  0  0  0  0
   22.0261   50.9208   12.9829 C   0  0  0  0  0  0
   19.4199   47.4730    6.6000 O   0  0  0  0  0  0
   21.3230   49.0730    6.1455 O   0  0  0  0  0  0
   23.1735   53.0531   13.1257 N   0  0  0  0  0  0
   20.1230   50.2730    9.1116 C   0  0  0  0  0  0
   19.7873   47.8964    9.3194 C   0  0  0  0  0  0
   20.1045   50.3932   10.5007 C   0  0  0  0  0  0
   19.7230   48.0111   10.6972 C   0  0  0  0  0  0
   21.3230   50.3095   16.2000 Cl  0  0  0  0  0  0
   18.9230   49.8724    5.9044 C   0  0  0  0  0  0
   22.1957   52.2001   13.5244 C   0  0  0  0  0  0
   22.9230   50.5107   11.9884 C   0  0  0  0  0  0
   24.0260   52.6316   12.1591 C   0  0  0  0  0  0
   23.9318   51.3751   11.5609 C   0  0  0  0  0  0
   18.5308   47.9154   13.2521 H   0  0  0  0  0  0
   20.2270   51.1449    8.4859 H   0  0  0  0  0  0
   19.6468   46.9179    8.8857 H   0  0  0  0  0  0
   20.2167   51.3698   10.9498 H   0  0  0  0  0  0
   19.5625   47.1191   11.2863 H   0  0  0  0  0  0
   19.0563   49.6748    4.8471 H   0  0  0  0  0  0
   19.3235   50.8041    6.2000 H   0  0  0  0  0  0
   17.8940   49.7270    6.2000 H   0  0  0  0  0  0
   21.5384   52.5666   14.2994 H   0  0  0  0  0  0
   22.8412   49.5264   11.5512 H   0  0  0  0  0  0
   24.7999   53.3251   11.8683 H   0  0  0  0  0  0
   24.6287   51.0731   10.7928 H   0  0  0  0  0  0
  1  3  1  0  0  0
  1  4  1  0  0  0
  1  7  1  0  0  0
  2  4  2  0  0  0
  2  6  1  0  0  0
  3  6  2  0  0  0
  3  9  1  0  0  0
  4 23  1  0  0  0
  5  8  1  0  0  0
  5 10  2  0  0  0
  5 11  2  0  0  0
  5 18  1  0  0  0
  6 17  1  0  0  0
  7 15  1  0  0  0
  7 16  2  0  0  0
  8 14  2  0  0  0
  8 13  1  0  0  0
  9 19  2  0  0  0
  9 20  1  0  0  0
 12 19  1  0  0  0
 12 21  2  0  0  0
 13 15  2  0  0  0
 13 24  1  0  0  0
 14 16  1  0  0  0
 14 25  1  0  0  0
 15 26  1  0  0  0
 16 27  1  0  0  0
 18 28  1  0  0  0
 18 29  1  0  0  0
 18 30  1  0  0  0
 19 31  1  0  0  0
 20 22  2  0  0  0
 20 32  1  0  0  0
 21 22  1  0  0  0
 21 33  1  0  0  0
 22 34  1  0  0  0
M  END
> <s_m_entry_id>
5413

> <s_m_entry_name>
dock_pv.404

> <s_m_Source_Path>
/home/csk/Desktop/cluster/DUD-E-result/pgh1

> <s_m_Source_File>
dock_pv.maegz

> <i_m_Source_File_Index>
404

> <chembl_id>
CHEMBL117491

> <chembl_pref_name>
None

> <i_lp_mmshare_version>
53161

> <r_lp_tautomer_probability>
1

> <s_lp_Force_Field>
OPLS_2005

> <r_lp_Energy>
12.224011

> <b_lp_Chiralities_Consistent>
1

> <s_lp_Variant>
CHEMBL221_lig102-1

> <s_i_glide_gridfile>
glide-grid_2oyu

> <i_i_glide_lignum>
122

> <i_i_glide_rotatable_bonds>
3

> <r_i_docking_score>
-7.70301399752973

> <r_i_glide_ligand_efficiency>
-0.350136999887715

> <r_i_glide_ligand_efficiency_sa>
-0.981097643792186

> <r_i_glide_ligand_efficiency_ln>
-1.88289759525872

> <r_i_glide_gscore>
-7.70301399752973

> <r_i_glide_lipo>
-3.84073502019621

> <r_i_glide_hbond>
0

> <r_i_glide_metal>
0

> <r_i_glide_rewards>
-2.64480759157117

> <r_i_glide_evdw>
-15.890064239502

> <r_i_glide_ecoul>
-5.07581424713135

> <r_i_glide_erotb>
0.338403963282455

> <r_i_glide_esite>
0

> <r_i_glide_emodel>
-24.761922419173

> <r_i_glide_energy>
-20.9658784866333

> <r_i_glide_einternal>
1.67970383167267

> <i_i_glide_confnum>
7

> <i_i_glide_posenum>
131

> <r_i_glide_eff_state_penalty>
0

> <s_user_duplicate_titles>
CHEMBL221_lig102

> <i_f3d_flags>
0

> <s_m_subgroup_title>
dock_pv

> <s_m_subgroupid>
dock_pv

> <b_m_subgroup_collapsed>
1

$$$$
CHEMBL221_lig632
                    3D
 Schrodinger Suite 2021-1.
 32 34  0  0  1  0            999 V2000
   18.3035   47.0730   14.6234 C   0  0  0  0  0  0
   18.5877   48.2049   15.6362 C   0  0  0  0  0  0
   19.8891   48.7515   15.4000 O   0  0  0  0  0  0
   18.3904   47.5465   13.2740 O   0  0  0  0  0  0
   19.4274   48.4226   13.0323 C   0  0  0  0  0  0
   20.1221   49.0530   14.0730 C   0  0  0  0  0  0
   21.1218   49.9729   13.7823 C   0  0  0  0  0  0
   21.4160   50.3057   12.4518 C   0  0  0  0  0  0
   20.7028   49.6843   11.4145 C   0  0  0  0  0  0
   19.7230   48.7330   11.7057 C   0  0  0  0  0  0
   22.4887   51.1863   12.1701 N   0  0  0  0  0  0
   23.3721   51.0341   11.1248 C   0  0  0  0  0  0
   24.4151   51.9199   11.2438 C   0  0  0  0  0  0
   24.1362   52.6813   12.3661 C   0  0  0  0  0  0
   22.8845   52.3193   12.8725 C   0  0  0  0  0  0
   22.0258   52.9408   13.9847 C   0  0  0  0  0  0
   22.1230   54.4593   14.2000 C   0  0  0  0  0  0
   23.0218   55.0730   13.4000 O   0  0  0  0  0  0
   21.4984   55.0473   15.0790 O   0  0  0  0  0  0
   17.3106   46.6554   14.7919 H   0  0  0  0  0  0
   19.0293   46.2721   14.7679 H   0  0  0  0  0  0
   17.8350   48.9873   15.5211 H   0  0  0  0  0  0
   18.5230   47.8329   16.6585 H   0  0  0  0  0  0
   21.6764   50.3988   14.6018 H   0  0  0  0  0  0
   20.9115   49.9175   10.3800 H   0  0  0  0  0  0
   19.1888   48.2444   10.9051 H   0  0  0  0  0  0
   23.2003   50.2730   10.3874 H   0  0  0  0  0  0
   25.2788   52.0033   10.6000 H   0  0  0  0  0  0
   24.7645   53.4781   12.7364 H   0  0  0  0  0  0
   22.2641   52.4863   14.9444 H   0  0  0  0  0  0
   20.9681   52.7464   13.8057 H   0  0  0  0  0  0
   23.1670   55.9914   13.6723 H   0  0  0  0  0  0
  1  2  1  0  0  0
  1  4  1  0  0  0
  1 20  1  0  0  0
  1 21  1  0  0  0
  2  3  1  0  0  0
  2 22  1  0  0  0
  2 23  1  0  0  0
  3  6  1  0  0  0
  4  5  1  0  0  0
  5 10  1  0  0  0
  5  6  2  0  0  0
  6  7  1  0  0  0
  7  8  2  0  0  0
  7 24  1  0  0  0
  8 11  1  0  0  0
  8  9  1  0  0  0
  9 10  2  0  0  0
  9 25  1  0  0  0
 10 26  1  0  0  0
 11 12  1  0  0  0
 11 15  1  0  0  0
 12 13  2  0  0  0
 12 27  1  0  0  0
 13 14  1  0  0  0
 13 28  1  0  0  0
 14 15  2  0  0  0
 14 29  1  0  0  0
 15 16  1  0  0  0
 16 17  1  0  0  0
 16 30  1  0  0  0
 16 31  1  0  0  0
 17 18  1  0  0  0
 17 19  2  0  0  0
 18 32  1  0  0  0
M  END
> <s_m_entry_id>
5414

> <s_m_entry_name>
dock_pv.405

> <s_m_Source_Path>
/home/csk/Desktop/cluster/DUD-E-result/pgh1

> <s_m_Source_File>
dock_pv.maegz

> <i_m_Source_File_Index>
405

> <chembl_id>
CHEMBL396182

> <chembl_pref_name>
None

> <i_lp_mmshare_version>
53161

> <r_lp_tautomer_probability>
1

> <s_lp_Force_Field>
OPLS_2005

> <r_lp_Energy>
16.476251

> <b_lp_Chiralities_Consistent>
1

> <s_lp_Variant>
CHEMBL221_lig632-1

> <s_i_glide_gridfile>
glide-grid_2oyu

> <i_i_glide_lignum>
772

> <i_i_glide_rotatable_bonds>
4

> <r_i_docking_score>
-7.70172497182331

> <r_i_glide_ligand_efficiency>
-0.405353945885437

> <r_i_glide_ligand_efficiency_sa>
-1.08164713645503

> <r_i_glide_ligand_efficiency_ln>
-1.95255269824224

> <r_i_glide_gscore>
-7.70172497182331

> <r_i_glide_lipo>
-3.60492692706606

> <r_i_glide_hbond>
0

> <r_i_glide_metal>
0

> <r_i_glide_rewards>
-2.48883472245426

> <r_i_glide_evdw>
-29.733341217041

> <r_i_glide_ecoul>
-5.85882949829102

> <r_i_glide_erotb>
0.789133873725557

> <r_i_glide_esite>
-0.0316057104328423

> <r_i_glide_emodel>
-48.1807852804191

> <r_i_glide_energy>
-35.592170715332

> <r_i_glide_einternal>
3.28227639198303

> <i_i_glide_confnum>
43

> <i_i_glide_posenum>
230

> <r_i_glide_eff_state_penalty>
0

> <s_user_duplicate_titles>
CHEMBL221_lig632

> <i_f3d_flags>
0

> <s_m_subgroup_title>
dock_pv

> <s_m_subgroupid>
dock_pv

> <b_m_subgroup_collapsed>
1

$$$$
CHEMBL221_lig156
                    3D
 Schrodinger Suite 2021-1.
 35 37  0  0  1  0            999 V2000
   21.0203   49.9053   12.9721 N   0  0  0  0  0  0
   19.6776   48.8580   14.4374 N   0  0  0  0  0  0
   20.0513   49.2283   12.2351 C   0  0  0  0  0  0
   20.7219   49.6167   14.2831 C   0  0  0  0  0  0
   19.9135   49.0456    6.1119 S   0  0  0  0  0  0
   19.2196   48.6730   13.2168 C   0  0  0  0  0  0
   22.1234   50.6855   12.5511 C   0  0  0  0  0  0
   19.9435   49.0263    7.9137 C   0  0  0  0  0  0
   19.9566   49.1682   10.7321 C   0  0  0  0  0  0
   20.4482   47.8248    5.5688 O   0  0  0  0  0  0
   20.5616   50.2730    5.7142 O   0  0  0  0  0  0
   20.1230   50.2449    8.5811 C   0  0  0  0  0  0
   19.7230   47.8730    8.6711 C   0  0  0  0  0  0
   20.1230   50.3201    9.9690 C   0  0  0  0  0  0
   19.7230   47.9563   10.0713 C   0  0  0  0  0  0
   17.7247   47.8730   13.0000 Cl  0  0  0  0  0  0
   22.5441   51.7892   13.3092 C   0  0  0  0  0  0
   22.8266   50.3292   11.4000 C   0  0  0  0  0  0
   18.1700   49.0268    5.5119 C   0  0  0  0  0  0
   24.3939   52.0992   11.8002 C   0  0  0  0  0  0
   23.6916   52.4888   12.9384 C   0  0  0  0  0  0
   23.9373   51.0629   11.0063 C   0  0  0  0  0  0
   25.5694   52.6730   11.4842 F   0  0  0  0  0  0
   21.3416   49.9961   15.0803 H   0  0  0  0  0  0
   20.2329   51.1577    8.0134 H   0  0  0  0  0  0
   19.5536   46.9256    8.1828 H   0  0  0  0  0  0
   20.2672   51.2776   10.4483 H   0  0  0  0  0  0
   19.5657   47.0730   10.6641 H   0  0  0  0  0  0
   22.0129   52.0937   14.1999 H   0  0  0  0  0  0
   22.5231   49.4766   10.8103 H   0  0  0  0  0  0
   18.1863   49.0728    4.4287 H   0  0  0  0  0  0
   17.6515   49.8730    5.9265 H   0  0  0  0  0  0
   17.7230   48.0840    5.8000 H   0  0  0  0  0  0
   24.0511   53.3076   13.5448 H   0  0  0  0  0  0
   24.4950   50.7779   10.1259 H   0  0  0  0  0  0
  1  3  1  0  0  0
  1  4  1  0  0  0
  1  7  1  0  0  0
  2  4  2  0  0  0
  2  6  1  0  0  0
  3  6  2  0  0  0
  3  9  1  0  0  0
  4 24  1  0  0  0
  5  8  1  0  0  0
  5 10  2  0  0  0
  5 11  2  0  0  0
  5 19  1  0  0  0
  6 16  1  0  0  0
  7 17  2  0  0  0
  7 18  1  0  0  0
  8 13  2  0  0  0
  8 12  1  0  0  0
  9 14  1  0  0  0
  9 15  2  0  0  0
 12 14  2  0  0  0
 12 25  1  0  0  0
 13 15  1  0  0  0
 13 26  1  0  0  0
 14 27  1  0  0  0
 15 28  1  0  0  0
 17 21  1  0  0  0
 17 29  1  0  0  0
 18 22  2  0  0  0
 18 30  1  0  0  0
 19 31  1  0  0  0
 19 32  1  0  0  0
 19 33  1  0  0  0
 20 22  1  0  0  0
 20 23  1  0  0  0
 20 21  2  0  0  0
 21 34  1  0  0  0
 22 35  1  0  0  0
M  END
> <s_m_entry_id>
5415

> <s_m_entry_name>
dock_pv.406

> <s_m_Source_Path>
/home/csk/Desktop/cluster/DUD-E-result/pgh1

> <s_m_Source_File>
dock_pv.maegz

> <i_m_Source_File_Index>
406

> <chembl_id>
CHEMBL119089

> <chembl_pref_name>
None

> <i_lp_mmshare_version>
53161

> <r_lp_tautomer_probability>
1

> <s_lp_Force_Field>
OPLS_2005

> <r_lp_Energy>
11.851854

> <b_lp_Chiralities_Consistent>
1

> <s_lp_Variant>
CHEMBL221_lig156-1

> <s_i_glide_gridfile>
glide-grid_2oyu

> <i_i_glide_lignum>
178

> <i_i_glide_rotatable_bonds>
3

> <r_i_docking_score>
-7.6953653072407

> <r_i_glide_ligand_efficiency>
-0.334581100314813

> <r_i_glide_ligand_efficiency_sa>
-0.951504142273222

> <r_i_glide_ligand_efficiency_ln>
-1.86080910900554

> <r_i_glide_gscore>
-7.6953653072407

> <r_i_glide_lipo>
-4.0337503069526

> <r_i_glide_hbond>
0

> <r_i_glide_metal>
0

> <r_i_glide_rewards>
-2.88528627798345

> <r_i_glide_evdw>
-12.4123182296753

> <r_i_glide_ecoul>
-2.99797964096069

> <r_i_glide_erotb>
0.30985739921175

> <r_i_glide_esite>
-0.015873263888535

> <r_i_glide_emodel>
-17.8646832441509

> <r_i_glide_energy>
-15.410297870636

> <r_i_glide_einternal>
1.97388696670532

> <i_i_glide_confnum>
16

> <i_i_glide_posenum>
206

> <r_i_glide_eff_state_penalty>
0

> <s_user_duplicate_titles>
CHEMBL221_lig156

> <i_f3d_flags>
0

> <s_m_subgroup_title>
dock_pv

> <s_m_subgroupid>
dock_pv

> <b_m_subgroup_collapsed>
1

$$$$
CHEMBL221_lig790
                    3D
 Schrodinger Suite 2021-1.
 41 44  0  0  1  0            999 V2000
   18.6054   46.6810   14.6876 C   0  0  0  0  0  0
   18.9848   47.5700   15.6819 C   0  0  0  0  0  0
   19.7917   48.6779   15.4140 C   0  0  0  0  0  0
   18.9796   46.9245   13.3770 C   0  0  0  0  0  0
   19.6894   48.0699   13.0414 C   0  0  0  0  0  0
   20.1230   48.9423   14.0690 C   0  0  0  0  0  0
   20.8482   49.9757   13.4632 N   0  0  0  0  0  0
   20.0584   48.6350   11.7998 C   0  0  0  0  0  0
   20.7470   49.7977   12.0770 C   0  0  0  0  0  0
   21.1150   50.7597   10.9415 C   0  0  0  0  0  0
   20.2089   50.4824    9.7255 C   0  0  0  0  0  0
   20.2654   49.0685    9.3716 N   0  0  1  0  0  0
   19.7230   48.1688   10.3902 C   0  0  0  0  0  0
   21.4695   51.0766   14.1411 C   0  0  0  0  0  0
   22.5164   51.9283   13.4800 C   0  0  0  0  0  0
   22.5736   53.2870   13.8000 C   0  0  0  0  0  0
   23.6622   54.0470   13.4000 C   0  0  0  0  0  0
   24.6426   53.4730   12.6000 C   0  0  0  0  0  0
   24.5230   52.1636   12.1579 C   0  0  0  0  0  0
   23.4978   51.3696   12.6531 C   0  0  0  0  0  0
   17.7841   45.6276   15.0000 O   0  0  0  0  0  0
   18.1565   44.3252   14.5562 C   0  0  0  0  0  0
   21.1922   51.3080   15.3204 O   0  0  0  0  0  0
   18.6472   47.3875   16.6908 H   0  0  0  0  0  0
   20.0905   49.3296   16.2214 H   0  0  0  0  0  0
   18.6488   46.2730   12.6000 H   0  0  0  0  0  0
   21.0292   51.8038   11.2259 H   0  0  0  0  0  0
   22.1423   50.6432   10.6001 H   0  0  0  0  0  0
   19.1874   50.7873    9.9495 H   0  0  0  0  0  0
   20.5229   51.0730    8.8664 H   0  0  0  0  0  0
   19.8118   48.9001    8.4829 H   0  0  0  0  0  0
   20.1161   47.1678   10.2125 H   0  0  0  0  0  0
   18.6468   48.0863   10.2614 H   0  0  0  0  0  0
   21.8361   53.7392   14.4491 H   0  0  0  0  0  0
   23.7498   55.0730   13.7210 H   0  0  0  0  0  0
   25.4907   54.0649   12.2923 H   0  0  0  0  0  0
   25.2637   51.7486   11.4881 H   0  0  0  0  0  0
   23.4910   50.3170   12.4058 H   0  0  0  0  0  0
   17.2785   43.6820   14.6000 H   0  0  0  0  0  0
   18.5230   44.2792   13.5306 H   0  0  0  0  0  0
   18.9230   43.9029   15.2053 H   0  0  0  0  0  0
  1  2  2  0  0  0
  1  4  1  0  0  0
  1 21  1  0  0  0
  2  3  1  0  0  0
  2 24  1  0  0  0
  3  6  2  0  0  0
  3 25  1  0  0  0
  4  5  2  0  0  0
  4 26  1  0  0  0
  5  8  1  0  0  0
  5  6  1  0  0  0
  6  7  1  0  0  0
  7 14  1  0  0  0
  7  9  1  0  0  0
  8 13  1  0  0  0
  8  9  2  0  0  0
  9 10  1  0  0  0
 10 11  1  0  0  0
 10 27  1  0  0  0
 10 28  1  0  0  0
 11 12  1  0  0  0
 11 29  1  0  0  0
 11 30  1  0  0  0
 12 13  1  0  0  0
 12 31  1  0  0  0
 13 32  1  0  0  0
 13 33  1  0  0  0
 14 15  1  0  0  0
 14 23  2  0  0  0
 15 16  2  0  0  0
 15 20  1  0  0  0
 16 17  1  0  0  0
 16 34  1  0  0  0
 17 18  2  0  0  0
 17 35  1  0  0  0
 18 19  1  0  0  0
 18 36  1  0  0  0
 19 20  2  0  0  0
 19 37  1  0  0  0
 20 38  1  0  0  0
 21 22  1  0  0  0
 22 39  1  0  0  0
 22 40  1  0  0  0
 22 41  1  0  0  0
M  END
> <s_m_entry_id>
5416

> <s_m_entry_name>
dock_pv.407

> <s_m_Source_Path>
/home/csk/Desktop/cluster/DUD-E-result/pgh1

> <s_m_Source_File>
dock_pv.maegz

> <i_m_Source_File_Index>
407

> <chembl_id>
CHEMBL1164245

> <chembl_pref_name>
None

> <i_lp_mmshare_version>
53161

> <r_lp_tautomer_probability>
1

> <s_lp_Force_Field>
OPLS_2005

> <r_lp_Energy>
36.341929

> <b_lp_Chiralities_Consistent>
1

> <s_lp_Variant>
CHEMBL221_lig790-1

> <s_i_glide_gridfile>
glide-grid_2oyu

> <i_i_glide_lignum>
960

> <i_i_glide_rotatable_bonds>
3

> <r_i_docking_score>
-7.69512091641838

> <r_i_glide_ligand_efficiency>
-0.334570474626886

> <r_i_glide_ligand_efficiency_sa>
-0.951473924230221

> <r_i_glide_ligand_efficiency_ln>
-1.86075001308869

> <r_i_glide_gscore>
-7.69512091641838

> <r_i_glide_lipo>
-4.0444116532935

> <r_i_glide_hbond>
0

> <r_i_glide_metal>
0

> <r_i_glide_rewards>
-2.04919211043098

> <r_i_glide_evdw>
-31.6095294952393

> <r_i_glide_ecoul>
-2.76428270339966

> <r_i_glide_erotb>
0.393601727578009

> <r_i_glide_esite>
0

> <r_i_glide_emodel>
-36.753375627544

> <r_i_glide_energy>
-34.3738121986389

> <r_i_glide_einternal>
4.64907789230347

> <i_i_glide_confnum>
1

> <i_i_glide_posenum>
30

> <r_i_glide_eff_state_penalty>
0

> <s_user_duplicate_titles>
CHEMBL221_lig790

> <i_f3d_flags>
0

> <s_m_subgroup_title>
dock_pv

> <s_m_subgroupid>
dock_pv

> <b_m_subgroup_collapsed>
1

$$$$
CHEMBL221_lig407
                    3D
 Schrodinger Suite 2021-1.
 46 47  0  0  1  0            999 V2000
   19.7230   47.7528    8.5390 S   0  0  0  0  0  0
   20.1231   49.3047    9.2264 C   0  0  0  0  0  0
   20.1230   50.2732    8.3456 N   0  0  0  0  0  0
   19.7766   49.8721    7.0654 N   0  0  0  0  0  0
   19.4723   48.6024    7.0402 C   0  0  0  0  0  0
   21.5714   50.8801   12.3481 C   0  0  0  0  0  0
   19.9951   49.0775   13.0221 C   0  0  0  0  0  0
   20.8885   50.1387   13.3515 C   0  0  0  0  0  0
   20.4202   49.5414   10.6631 C   0  0  0  0  0  0
   19.7937   48.8091   11.6623 C   0  0  0  0  0  0
   21.3032   50.5574   11.0159 C   0  0  0  0  0  0
   19.2366   48.1374   14.0260 C   0  0  0  0  0  0
   22.6371   51.9857   12.6680 C   0  0  0  0  0  0
   21.0883   50.4951   14.6575 O   0  0  0  0  0  0
   18.8626   47.9175    6.0337 O   0  0  0  0  0  0
   23.7230   51.3746   13.5360 C   0  0  0  0  0  0
   22.0330   53.2113   13.4067 C   0  0  0  0  0  0
   19.4548   48.4301   15.5347 C   0  0  0  0  0  0
   19.7234   46.6954   13.7915 C   0  0  0  0  0  0
   23.4824   52.4700   11.4472 C   0  0  0  0  0  0
   17.7038   48.1254   13.7777 C   0  0  0  0  0  0
   18.2156   48.7188    5.0450 C   0  0  0  0  0  0
   19.1189   48.0209   11.3649 H   0  0  0  0  0  0
   21.7892   51.0898   10.2163 H   0  0  0  0  0  0
   21.6367   51.2805   14.7166 H   0  0  0  0  0  0
   24.1229   50.5102   13.0004 H   0  0  0  0  0  0
   24.5340   52.0791   13.7199 H   0  0  0  0  0  0
   23.3898   51.0731   14.5176 H   0  0  0  0  0  0
   21.7260   54.0001   12.7283 H   0  0  0  0  0  0
   21.1632   52.9657   14.0135 H   0  0  0  0  0  0
   22.7591   53.6851   14.0694 H   0  0  0  0  0  0
   18.8937   47.7383   16.1650 H   0  0  0  0  0  0
   19.1295   49.4310   15.8173 H   0  0  0  0  0  0
   20.5023   48.3234   15.8194 H   0  0  0  0  0  0
   19.4438   46.3093   12.8105 H   0  0  0  0  0  0
   20.8100   46.6731   13.8553 H   0  0  0  0  0  0
   19.3172   46.0021   14.5298 H   0  0  0  0  0  0
   22.9231   52.9927   10.6940 H   0  0  0  0  0  0
   24.2649   53.1680   11.7499 H   0  0  0  0  0  0
   23.9819   51.6428   10.9386 H   0  0  0  0  0  0
   17.4358   47.8732   12.7525 H   0  0  0  0  0  0
   17.2053   47.3888   14.4096 H   0  0  0  0  0  0
   17.2358   49.0729   14.0057 H   0  0  0  0  0  0
   17.7196   48.0874    4.3089 H   0  0  0  0  0  0
   17.4506   49.3603    5.4854 H   0  0  0  0  0  0
   18.9231   49.3590    4.5192 H   0  0  0  0  0  0
  1  2  1  0  0  0
  1  5  1  0  0  0
  2  3  2  0  0  0
  2  9  1  0  0  0
  3  4  1  0  0  0
  4  5  2  0  0  0
  5 15  1  0  0  0
  6 11  2  0  0  0
  6  8  1  0  0  0
  6 13  1  0  0  0
  7 10  1  0  0  0
  7 12  1  0  0  0
  7  8  2  0  0  0
  8 14  1  0  0  0
  9 10  2  0  0  0
  9 11  1  0  0  0
 10 23  1  0  0  0
 11 24  1  0  0  0
 12 18  1  0  0  0
 12 19  1  0  0  0
 12 21  1  0  0  0
 13 16  1  0  0  0
 13 17  1  0  0  0
 13 20  1  0  0  0
 14 25  1  0  0  0
 15 22  1  0  0  0
 16 26  1  0  0  0
 16 27  1  0  0  0
 16 28  1  0  0  0
 17 29  1  0  0  0
 17 30  1  0  0  0
 17 31  1  0  0  0
 18 32  1  0  0  0
 18 33  1  0  0  0
 18 34  1  0  0  0
 19 35  1  0  0  0
 19 36  1  0  0  0
 19 37  1  0  0  0
 20 38  1  0  0  0
 20 39  1  0  0  0
 20 40  1  0  0  0
 21 41  1  0  0  0
 21 42  1  0  0  0
 21 43  1  0  0  0
 22 44  1  0  0  0
 22 45  1  0  0  0
 22 46  1  0  0  0
M  END
> <s_m_entry_id>
5417

> <s_m_entry_name>
dock_pv.408

> <s_m_Source_Path>
/home/csk/Desktop/cluster/DUD-E-result/pgh1

> <s_m_Source_File>
dock_pv.maegz

> <i_m_Source_File_Index>
408

> <chembl_id>
CHEMBL16881

> <chembl_pref_name>
None

> <i_lp_mmshare_version>
53161

> <r_lp_tautomer_probability>
0.999999999997365

> <s_lp_Force_Field>
OPLS_2005

> <r_lp_Energy>
25.804004

> <b_lp_Chiralities_Consistent>
1

> <s_lp_Variant>
CHEMBL221_lig407-1

> <s_i_glide_gridfile>
glide-grid_2oyu

> <i_i_glide_lignum>
475

> <i_i_glide_rotatable_bonds>
5

> <r_i_docking_score>
-7.69500935321122

> <r_i_glide_ligand_efficiency>
-0.349773152418692

> <r_i_glide_ligand_efficiency_sa>
-0.980078128874675

> <r_i_glide_ligand_efficiency_ln>
-1.88094096821079

> <r_i_glide_gscore>
-7.69500935321122

> <r_i_glide_lipo>
-4.32601446449219

> <r_i_glide_hbond>
-0.277798924842636

> <r_i_glide_metal>
0

> <r_i_glide_rewards>
-1.9409667411828

> <r_i_glide_evdw>
-17.6816577911377

> <r_i_glide_ecoul>
-2.79624629020691

> <r_i_glide_erotb>
0.181840189549114

> <r_i_glide_esite>
-0.0285495791547754

> <r_i_glide_emodel>
-17.854941236896

> <r_i_glide_energy>
-20.4779040813446

> <r_i_glide_einternal>
13.6727209091187

> <i_i_glide_confnum>
2

> <i_i_glide_posenum>
102

> <r_i_glide_eff_state_penalty>
0

> <s_user_duplicate_titles>
CHEMBL221_lig407,17897

> <i_f3d_flags>
0

> <s_m_subgroup_title>
dock_pv

> <s_m_subgroupid>
dock_pv

> <b_m_subgroup_collapsed>
1

$$$$
CHEMBL221_lig894
                    3D
 Schrodinger Suite 2021-1.
 34 35  0  0  1  0            999 V2000
   21.7019   49.9410   10.5243 O   0  0  0  0  0  0
   16.5228   46.3094   15.0009 O   0  0  0  0  0  0
   17.5252   48.0805   16.0439 O   0  0  0  0  0  0
   19.8369   48.8782   12.4597 N   0  0  0  0  0  0
   20.8824   49.7601   12.7357 C   0  0  0  0  0  0
   21.7049   50.3782   11.6751 C   0  0  0  0  0  0
   19.3170   48.4533   13.6789 C   0  0  0  0  0  0
   22.6695   51.4540   12.0674 C   0  0  0  0  0  0
   20.9965   49.8730   14.1155 C   0  0  0  0  0  0
   20.0561   49.0451   14.6922 C   0  0  0  0  0  0
   18.1560   47.4741   13.7435 C   0  0  0  0  0  0
   23.9131   51.5360   11.4282 C   0  0  0  0  0  0
   22.3321   52.4142   13.0317 C   0  0  0  0  0  0
   19.3351   48.4484   11.1424 C   0  0  0  0  0  0
   17.3952   47.3488   15.0654 C   0  0  0  0  0  0
   24.4916   53.4418   12.7884 C   0  0  0  0  0  0
   24.8236   52.5208   11.7982 C   0  0  0  0  0  0
   23.2411   53.3957   13.3998 C   0  0  0  0  0  0
   25.4854   54.5035   13.2028 C   0  0  0  0  0  0
   16.0287   46.2493   15.8214 H   0  0  0  0  0  0
   21.7209   50.4570   14.6647 H   0  0  0  0  0  0
   19.9187   48.9013   15.7538 H   0  0  0  0  0  0
   18.5230   46.4969   13.4285 H   0  0  0  0  0  0
   17.3837   47.7731   13.0351 H   0  0  0  0  0  0
   24.1952   50.8279   10.6601 H   0  0  0  0  0  0
   21.3596   52.4236   13.5020 H   0  0  0  0  0  0
   20.1231   47.9814   10.5606 H   0  0  0  0  0  0
   18.5562   47.6961   11.2297 H   0  0  0  0  0  0
   18.9234   49.3002   10.6010 H   0  0  0  0  0  0
   25.7886   52.5613   11.3126 H   0  0  0  0  0  0
   22.9726   54.1233   14.1543 H   0  0  0  0  0  0
   25.3890   54.6727   14.2740 H   0  0  0  0  0  0
   26.5214   54.2176   13.0298 H   0  0  0  0  0  0
   25.2937   55.4359   12.6700 H   0  0  0  0  0  0
  1  6  2  0  0  0
  2 15  1  0  0  0
  2 20  1  0  0  0
  3 15  2  0  0  0
  4  5  1  0  0  0
  4  7  1  0  0  0
  4 14  1  0  0  0
  5  6  1  0  0  0
  5  9  2  0  0  0
  6  8  1  0  0  0
  7 10  2  0  0  0
  7 11  1  0  0  0
  8 12  2  0  0  0
  8 13  1  0  0  0
  9 10  1  0  0  0
  9 21  1  0  0  0
 10 22  1  0  0  0
 11 15  1  0  0  0
 11 23  1  0  0  0
 11 24  1  0  0  0
 12 17  1  0  0  0
 12 25  1  0  0  0
 13 18  2  0  0  0
 13 26  1  0  0  0
 14 27  1  0  0  0
 14 28  1  0  0  0
 14 29  1  0  0  0
 16 17  2  0  0  0
 16 18  1  0  0  0
 16 19  1  0  0  0
 17 30  1  0  0  0
 18 31  1  0  0  0
 19 32  1  0  0  0
 19 33  1  0  0  0
 19 34  1  0  0  0
M  END
> <s_m_entry_id>
5418

> <s_m_entry_name>
dock_pv.409

> <s_m_Source_Path>
/home/csk/Desktop/cluster/DUD-E-result/pgh1

> <s_m_Source_File>
dock_pv.maegz

> <i_m_Source_File_Index>
409

> <chembl_id>
CHEMBL1020

> <chembl_pref_name>
TOLMETIN

> <i_lp_mmshare_version>
53161

> <r_lp_tautomer_probability>
1

> <s_lp_Force_Field>
OPLS_2005

> <r_lp_Energy>
18.480073

> <b_lp_Chiralities_Consistent>
1

> <s_lp_Variant>
CHEMBL221_lig894-1

> <s_i_glide_gridfile>
glide-grid_2oyu

> <i_i_glide_lignum>
1101

> <i_i_glide_rotatable_bonds>
5

> <r_i_docking_score>
-7.6924142291986

> <r_i_glide_ligand_efficiency>
-0.404863906799926

> <r_i_glide_ligand_efficiency_sa>
-1.0803395153526

> <r_i_glide_ligand_efficiency_ln>
-1.95019222501046

> <r_i_glide_gscore>
-7.6924142291986

> <r_i_glide_lipo>
-3.48791709191343

> <r_i_glide_hbond>
0

> <r_i_glide_metal>
0

> <r_i_glide_rewards>
-3.32263485537121

> <r_i_glide_evdw>
-34.7204666137695

> <r_i_glide_ecoul>
-1.41293179988861

> <r_i_glide_erotb>
1.06610081875781

> <r_i_glide_esite>
0

> <r_i_glide_emodel>
-47.8450390896374

> <r_i_glide_energy>
-36.1333984136581

> <r_i_glide_einternal>
7.92185115814209

> <i_i_glide_confnum>
54

> <i_i_glide_posenum>
282

> <r_i_glide_eff_state_penalty>
0

> <s_user_duplicate_titles>
CHEMBL221_lig894

> <i_f3d_flags>
0

> <s_m_subgroup_title>
dock_pv

> <s_m_subgroupid>
dock_pv

> <b_m_subgroup_collapsed>
1

$$$$
CHEMBL221_lig90
                    3D
 Schrodinger Suite 2021-1.
 32 33  0  0  1  0            999 V2000
   20.5030   50.3541   11.5851 C   0  0  0  0  0  0
   20.5893   49.0142   11.6472 N   0  0  0  0  0  0
   21.8014   51.0558   11.8406 C   0  0  0  0  0  0
   19.5047   48.2396   12.1077 N   0  0  0  0  0  0
   19.4617   50.9889   11.4001 O   0  0  0  0  0  0
   21.9120   51.9262   12.9276 C   0  0  0  0  0  0
   22.8989   50.8479   11.0018 C   0  0  0  0  0  0
   24.1857   52.4366   12.2823 C   0  0  0  0  0  0
   19.0796   48.2716   13.4464 C   0  0  0  0  0  0
   23.0977   52.6200   13.1458 C   0  0  0  0  0  0
   24.0805   51.5448   11.2212 C   0  0  0  0  0  0
   25.3955   53.0816   12.4033 O   0  0  0  0  0  0
   19.9271   48.6709   14.4853 C   0  0  0  0  0  0
   17.7783   47.8731   13.7462 C   0  0  0  0  0  0
   25.4923   54.2012   13.2720 C   0  0  0  0  0  0
   19.4742   48.6731   15.8006 C   0  0  0  0  0  0
   17.3236   47.8659   15.0582 C   0  0  0  0  0  0
   18.1709   48.2686   16.0823 C   0  0  0  0  0  0
   21.4775   48.5552   11.7806 H   0  0  0  0  0  0
   18.8278   48.0901   11.3729 H   0  0  0  0  0  0
   21.0735   52.0900   13.5910 H   0  0  0  0  0  0
   22.8328   50.1841   10.1541 H   0  0  0  0  0  0
   23.1519   53.2989   13.9836 H   0  0  0  0  0  0
   24.9192   51.4156   10.5535 H   0  0  0  0  0  0
   20.9348   48.9940   14.2810 H   0  0  0  0  0  0
   17.1049   47.5684   12.9627 H   0  0  0  0  0  0
   26.4793   54.6547   13.1840 H   0  0  0  0  0  0
   25.3555   53.9067   14.3090 H   0  0  0  0  0  0
   24.7569   54.9673   13.0220 H   0  0  0  0  0  0
   20.1252   49.0058   16.5968 H   0  0  0  0  0  0
   16.3151   47.5561   15.2759 H   0  0  0  0  0  0
   17.8053   48.2689   17.0975 H   0  0  0  0  0  0
  1  2  1  0  0  0
  1  3  1  0  0  0
  1  5  2  0  0  0
  2  4  1  0  0  0
  2 19  1  0  0  0
  3  6  1  0  0  0
  3  7  2  0  0  0
  4  9  1  0  0  0
  4 20  1  0  0  0
  6 10  2  0  0  0
  6 21  1  0  0  0
  7 11  1  0  0  0
  7 22  1  0  0  0
  8 11  2  0  0  0
  8 12  1  0  0  0
  8 10  1  0  0  0
  9 13  1  0  0  0
  9 14  2  0  0  0
 10 23  1  0  0  0
 11 24  1  0  0  0
 12 15  1  0  0  0
 13 16  2  0  0  0
 13 25  1  0  0  0
 14 17  1  0  0  0
 14 26  1  0  0  0
 15 27  1  0  0  0
 15 28  1  0  0  0
 15 29  1  0  0  0
 16 18  1  0  0  0
 16 30  1  0  0  0
 17 18  2  0  0  0
 17 31  1  0  0  0
 18 32  1  0  0  0
M  END
> <s_m_entry_id>
5419

> <s_m_entry_name>
dock_pv.410

> <s_m_Source_Path>
/home/csk/Desktop/cluster/DUD-E-result/pgh1

> <s_m_Source_File>
dock_pv.maegz

> <i_m_Source_File_Index>
410

> <chembl_id>
CHEMBL346258

> <chembl_pref_name>
None

> <i_lp_mmshare_version>
53161

> <r_lp_tautomer_probability>
1

> <s_lp_Force_Field>
OPLS_2005

> <r_lp_Energy>
20.038394

> <b_lp_Chiralities_Consistent>
1

> <s_lp_Variant>
CHEMBL221_lig90-1

> <s_i_glide_gridfile>
glide-grid_2oyu

> <i_i_glide_lignum>
108

> <i_i_glide_rotatable_bonds>
5

> <r_i_docking_score>
-7.68762099193536

> <r_i_glide_ligand_efficiency>
-0.42709005510752

> <r_i_glide_ligand_efficiency_sa>
-1.11929258539685

> <r_i_glide_ligand_efficiency_ln>
-1.97606333542085

> <r_i_glide_gscore>
-7.68762099193536

> <r_i_glide_lipo>
-3.89045245326516

> <r_i_glide_hbond>
0

> <r_i_glide_metal>
0

> <r_i_glide_rewards>
-2.64843371092311

> <r_i_glide_evdw>
-36.8771171569824

> <r_i_glide_ecoul>
-1.27491343021393

> <r_i_glide_erotb>
0.886358044634123

> <r_i_glide_esite>
0

> <r_i_glide_emodel>
-46.5880964195131

> <r_i_glide_energy>
-38.1520305871964

> <r_i_glide_einternal>
12.5350894927979

> <i_i_glide_confnum>
5

> <i_i_glide_posenum>
208

> <r_i_glide_eff_state_penalty>
0

> <s_user_duplicate_titles>
CHEMBL221_lig90

> <i_f3d_flags>
0

> <s_m_subgroup_title>
dock_pv

> <s_m_subgroupid>
dock_pv

> <b_m_subgroup_collapsed>
1

$$$$
CHEMBL221_lig830
                    3D
 Schrodinger Suite 2021-1.
 32 33  0  0  1  0            999 V2000
   20.1225   48.8695   14.2148 C   0  0  0  0  0  0
   19.9725   48.5463   12.8553 C   0  0  0  0  0  0
   20.5608   49.3418   11.8523 C   0  0  0  0  0  0
   20.9121   49.9549   14.5758 C   0  0  0  0  0  0
   21.4584   50.7755   13.5981 C   0  0  0  0  0  0
   21.3056   50.4634   12.2448 C   0  0  0  0  0  0
   21.8077   51.3131   11.2664 O   0  0  0  0  0  0
   22.9749   52.1195   11.5922 C   0  0  1  0  0  0
   22.9762   52.5897   13.0581 C   0  0  0  0  0  0
   22.2191   51.9526   13.9633 C   0  0  0  0  0  0
   24.2647   51.4432   11.1158 C   0  0  0  0  0  0
   25.3123   52.2728   11.1630 F   0  0  0  0  0  0
   24.5230   50.3401   11.8045 F   0  0  0  0  0  0
   24.1230   51.0730    9.8525 F   0  0  0  0  0  0
   23.6477   53.8145   13.4000 C   0  0  0  0  0  0
   24.8577   53.9988   13.3079 O   0  0  0  0  0  0
   22.7653   54.7680   13.8000 O   0  0  0  0  0  0
   19.5042   48.2138   15.2557 O   0  0  0  0  0  0
   18.2775   47.5274   15.0292 C   0  0  0  0  0  0
   17.6494   47.4730   16.1998 F   0  0  0  0  0  0
   17.4600   48.1646   14.1866 F   0  0  0  0  0  0
   18.5222   46.2889   14.6000 F   0  0  0  0  0  0
   19.7118   47.9454   10.0580 C   0  0  0  0  0  0
   20.4322   49.0938   10.4969 O   0  0  0  0  0  0
   19.3740   47.6913   12.5842 H   0  0  0  0  0  0
   21.0284   50.1967   15.6229 H   0  0  0  0  0  0
   22.9230   53.0091   10.9775 H   0  0  0  0  0  0
   22.1233   52.3359   14.9704 H   0  0  0  0  0  0
   23.2223   55.5902   14.0211 H   0  0  0  0  0  0
   19.7487   47.8865    8.9702 H   0  0  0  0  0  0
   20.1230   47.0187   10.4559 H   0  0  0  0  0  0
   18.6671   47.9918   10.3523 H   0  0  0  0  0  0
  1  2  2  0  0  0
  1  4  1  0  0  0
  1 18  1  0  0  0
  2  3  1  0  0  0
  2 25  1  0  0  0
  3  6  2  0  0  0
  3 24  1  0  0  0
  4  5  2  0  0  0
  4 26  1  0  0  0
  5 10  1  0  0  0
  5  6  1  0  0  0
  6  7  1  0  0  0
  7  8  1  0  0  0
  8  9  1  0  0  0
  8 11  1  0  0  0
  8 27  1  0  0  0
  9 15  1  0  0  0
  9 10  2  0  0  0
 10 28  1  0  0  0
 11 12  1  0  0  0
 11 13  1  0  0  0
 11 14  1  0  0  0
 15 16  2  0  0  0
 15 17  1  0  0  0
 17 29  1  0  0  0
 18 19  1  0  0  0
 19 20  1  0  0  0
 19 21  1  0  0  0
 19 22  1  0  0  0
 23 24  1  0  0  0
 23 30  1  0  0  0
 23 31  1  0  0  0
 23 32  1  0  0  0
M  END
> <s_m_entry_id>
5420

> <s_m_entry_name>
dock_pv.411

> <s_m_Source_Path>
/home/csk/Desktop/cluster/DUD-E-result/pgh1

> <s_m_Source_File>
dock_pv.maegz

> <i_m_Source_File_Index>
411

> <chembl_id>
CHEMBL1290683

> <chembl_pref_name>
None

> <i_lp_mmshare_version>
53161

> <r_lp_tautomer_probability>
1

> <s_lp_Force_Field>
OPLS_2005

> <r_lp_Energy>
15.575644

> <b_lp_Chiralities_Consistent>
1

> <s_lp_Variant>
CHEMBL221_lig830-2

> <s_i_glide_gridfile>
glide-grid_2oyu

> <i_i_glide_lignum>
1015

> <i_i_glide_rotatable_bonds>
6

> <r_i_docking_score>
-7.68579489702788

> <r_i_glide_ligand_efficiency>
-0.320241454042828

> <r_i_glide_ligand_efficiency_sa>
-0.923736197997217

> <r_i_glide_ligand_efficiency_ln>
-1.83956339700578

> <r_i_glide_gscore>
-7.68579489702788

> <r_i_glide_lipo>
-3.53433270633801

> <r_i_glide_hbond>
0

> <r_i_glide_metal>
0

> <r_i_glide_rewards>
-2.34733329707033

> <r_i_glide_evdw>
-29.8295383453369

> <r_i_glide_ecoul>
-3.96966648101807

> <r_i_glide_erotb>
0.298563652088623

> <r_i_glide_esite>
-0.0157656562886088

> <r_i_glide_emodel>
-43.6517778862076

> <r_i_glide_energy>
-33.799204826355

> <r_i_glide_einternal>
7.6697826385498

> <i_i_glide_confnum>
1

> <i_i_glide_posenum>
14

> <r_i_glide_eff_state_penalty>
0

> <s_user_duplicate_titles>
CHEMBL221_lig830

> <i_f3d_flags>
0

> <s_m_subgroup_title>
dock_pv

> <s_m_subgroupid>
dock_pv

> <b_m_subgroup_collapsed>
1

$$$$
CHEMBL221_lig168
                    3D
 Schrodinger Suite 2021-1.
 33 35  0  0  1  0            999 V2000
   21.6907   49.8847   12.3986 N   0  0  0  0  0  0
   21.3230   51.7781   14.7984 S   0  0  0  0  0  0
   20.9230   49.3792   13.4723 C   0  0  0  0  0  0
   22.5941   50.9618   12.4720 C   0  0  0  0  0  0
   20.8587   50.0820   14.6910 C   0  0  0  0  0  0
   22.5062   51.9096   13.5067 C   0  0  0  0  0  0
   21.4710   49.3314   11.0546 C   0  0  0  0  0  0
   20.1230   49.2236    8.7743 S   0  0  0  0  0  0
   20.7008   50.2766   10.1402 C   0  0  1  0  0  0
   23.7057   51.0599   11.6095 C   0  0  0  0  0  0
   20.3958   48.0643   13.4680 C   0  0  0  0  0  0
   20.2192   49.5169   15.8000 C   0  0  0  0  0  0
   23.3210   53.0421   13.4807 C   0  0  0  0  0  0
   19.5078   50.8901   10.8599 C   0  0  0  0  0  0
   24.5534   52.1605   11.6317 C   0  0  0  0  0  0
   19.7103   47.5371   14.5574 C   0  0  0  0  0  0
   19.6088   48.2730   15.7250 C   0  0  0  0  0  0
   24.3587   53.1600   12.5710 C   0  0  0  0  0  0
   20.9226   48.4027   11.0813 H   0  0  0  0  0  0
   22.4088   49.0730   10.5792 H   0  0  0  0  0  0
   19.6122   50.2133    8.0321 H   0  0  0  0  0  0
   21.3438   51.0730    9.7752 H   0  0  0  0  0  0
   23.9240   50.3150   10.8663 H   0  0  0  0  0  0
   20.4842   47.3936   12.6326 H   0  0  0  0  0  0
   20.1236   50.0962   16.7059 H   0  0  0  0  0  0
   23.1800   53.8318   14.2000 H   0  0  0  0  0  0
   19.8126   51.5125   11.6951 H   0  0  0  0  0  0
   18.9230   50.0943   11.2957 H   0  0  0  0  0  0
   18.9230   51.5057   10.2000 H   0  0  0  0  0  0
   25.3716   52.2247   10.9285 H   0  0  0  0  0  0
   19.2667   46.5544   14.4978 H   0  0  0  0  0  0
   19.0586   47.8820   16.5688 H   0  0  0  0  0  0
   25.0061   54.0248   12.6000 H   0  0  0  0  0  0
  1  3  1  0  0  0
  1  4  1  0  0  0
  1  7  1  0  0  0
  2  6  1  0  0  0
  2  5  1  0  0  0
  3  5  1  0  0  0
  3 11  2  0  0  0
  4  6  2  0  0  0
  4 10  1  0  0  0
  5 12  2  0  0  0
  6 13  1  0  0  0
  7  9  1  0  0  0
  7 19  1  0  0  0
  7 20  1  0  0  0
  8  9  1  0  0  0
  8 21  1  0  0  0
  9 14  1  0  0  0
  9 22  1  0  0  0
 10 15  2  0  0  0
 10 23  1  0  0  0
 11 16  1  0  0  0
 11 24  1  0  0  0
 12 17  1  0  0  0
 12 25  1  0  0  0
 13 18  2  0  0  0
 13 26  1  0  0  0
 14 27  1  0  0  0
 14 28  1  0  0  0
 14 29  1  0  0  0
 15 18  1  0  0  0
 15 30  1  0  0  0
 16 17  2  0  0  0
 16 31  1  0  0  0
 17 32  1  0  0  0
 18 33  1  0  0  0
M  END
> <s_m_entry_id>
5421

> <s_m_entry_name>
dock_pv.412

> <s_m_Source_Path>
/home/csk/Desktop/cluster/DUD-E-result/pgh1

> <s_m_Source_File>
dock_pv.maegz

> <i_m_Source_File_Index>
412

> <chembl_id>
CHEMBL149032

> <chembl_pref_name>
None

> <i_lp_mmshare_version>
53161

> <r_lp_tautomer_probability>
1

> <s_lp_Force_Field>
OPLS_2005

> <r_lp_Energy>
20.451554

> <b_lp_Chiralities_Consistent>
1

> <s_lp_Variant>
CHEMBL221_lig168-1

> <s_i_glide_gridfile>
glide-grid_2oyu

> <i_i_glide_lignum>
191

> <i_i_glide_rotatable_bonds>
3

> <r_i_docking_score>
-7.68543221288385

> <r_i_glide_ligand_efficiency>
-0.426968456271325

> <r_i_glide_ligand_efficiency_sa>
-1.11897390629365

> <r_i_glide_ligand_efficiency_ln>
-1.97550072105191

> <r_i_glide_gscore>
-7.68543221288385

> <r_i_glide_lipo>
-4.06104125202344

> <r_i_glide_hbond>
-0.0216478267592444

> <r_i_glide_metal>
0

> <r_i_glide_rewards>
-2.62438524326206

> <r_i_glide_evdw>
-20.4233207702637

> <r_i_glide_ecoul>
-1.31436061859131

> <r_i_glide_erotb>
0.239962240462771

> <r_i_glide_esite>
0

> <r_i_glide_emodel>
-22.7369150977891

> <r_i_glide_energy>
-21.737681388855

> <r_i_glide_einternal>
5.97244167327881

> <i_i_glide_confnum>
1

> <i_i_glide_posenum>
297

> <r_i_glide_eff_state_penalty>
0

> <s_user_duplicate_titles>
CHEMBL221_lig168

> <i_f3d_flags>
0

> <s_m_subgroup_title>
dock_pv

> <s_m_subgroupid>
dock_pv

> <b_m_subgroup_collapsed>
1

$$$$
CHEMBL221_lig36
                    3D
 Schrodinger Suite 2021-1.
 48 50  0  0  1  0            999 V2000
   20.0938   49.3606   12.9927 N   0  0  0  0  0  0
   21.0764   50.0244   13.7230 C   0  0  0  0  0  0
   20.8719   49.8120   15.0712 C   0  0  0  0  0  0
   19.1904   48.8492   13.9193 C   0  0  0  0  0  0
   19.7219   49.0729   15.1889 C   0  0  0  0  0  0
   20.0075   49.2836   11.5761 C   0  0  0  0  0  0
   22.1691   50.8553   13.1836 C   0  0  0  0  0  0
   18.1362   46.1520   15.0000 C   0  0  0  0  0  0
   20.1230   49.0860    8.7736 C   0  0  0  0  0  0
   20.0265   49.0738    7.2718 C   0  0  0  0  0  0
   17.8296   48.2536   13.5524 C   0  0  0  0  0  0
   19.3227   46.2710   15.2880 O   0  0  0  0  0  0
   19.7230   48.0687   10.9408 C   0  0  0  0  0  0
   20.2542   50.4167   10.7987 C   0  0  0  0  0  0
   20.1230   50.0708    6.5626 O   0  0  0  0  0  0
   19.7230   47.9827    9.5487 C   0  0  0  0  0  0
   20.3341   50.3066    9.4184 C   0  0  0  0  0  0
   23.0484   50.4040   12.2006 C   0  0  0  0  0  0
   22.3205   52.1162   13.7548 C   0  0  0  0  0  0
   17.2231   47.3236   14.6249 C   0  0  0  0  0  0
   24.3334   52.4259   12.4744 C   0  0  0  0  0  0
   17.4705   44.9660   15.0000 O   0  0  0  0  0  0
   24.1230   51.2044   11.8364 C   0  0  0  0  0  0
   23.3990   52.9026   13.3999 C   0  0  0  0  0  0
   25.5080   53.0735   12.1846 O   0  0  0  0  0  0
   19.7233   47.7602    6.5890 C   0  0  0  0  0  0
   25.7219   54.3730   12.7323 C   0  0  0  0  0  0
   21.4761   50.1861   15.8850 H   0  0  0  0  0  0
   19.2681   48.7823   16.1248 H   0  0  0  0  0  0
   17.1279   49.0730   13.4001 H   0  0  0  0  0  0
   17.8050   47.7292   12.6027 H   0  0  0  0  0  0
   19.5360   47.1709   11.5114 H   0  0  0  0  0  0
   20.4233   51.3816   11.2538 H   0  0  0  0  0  0
   19.4707   47.0367    9.0943 H   0  0  0  0  0  0
   20.5228   51.1951    8.8365 H   0  0  0  0  0  0
   22.9233   49.4268   11.7576 H   0  0  0  0  0  0
   21.6304   52.4750   14.5057 H   0  0  0  0  0  0
   17.0570   47.8839   15.5457 H   0  0  0  0  0  0
   16.2419   46.9795   14.2978 H   0  0  0  0  0  0
   16.5378   45.0642   14.8031 H   0  0  0  0  0  0
   24.8369   50.8516   11.1079 H   0  0  0  0  0  0
   23.5159   53.8526   13.8965 H   0  0  0  0  0  0
   20.5117   47.0720    6.8611 H   0  0  0  0  0  0
   19.7183   47.8760    5.5050 H   0  0  0  0  0  0
   18.7645   47.3681    6.9286 H   0  0  0  0  0  0
   26.5230   54.8712   12.2008 H   0  0  0  0  0  0
   24.8628   55.0281   12.6015 H   0  0  0  0  0  0
   25.9764   54.3245   13.7908 H   0  0  0  0  0  0
  1  2  1  0  0  0
  1  4  1  0  0  0
  1  6  1  0  0  0
  2  3  2  0  0  0
  2  7  1  0  0  0
  3  5  1  0  0  0
  3 28  1  0  0  0
  4  5  2  0  0  0
  4 11  1  0  0  0
  5 29  1  0  0  0
  6 13  2  0  0  0
  6 14  1  0  0  0
  7 18  1  0  0  0
  7 19  2  0  0  0
  8 20  1  0  0  0
  8 12  2  0  0  0
  8 22  1  0  0  0
  9 17  1  0  0  0
  9 10  1  0  0  0
  9 16  2  0  0  0
 10 15  2  0  0  0
 10 26  1  0  0  0
 11 20  1  0  0  0
 11 30  1  0  0  0
 11 31  1  0  0  0
 13 16  1  0  0  0
 13 32  1  0  0  0
 14 17  2  0  0  0
 14 33  1  0  0  0
 16 34  1  0  0  0
 17 35  1  0  0  0
 18 23  2  0  0  0
 18 36  1  0  0  0
 19 24  1  0  0  0
 19 37  1  0  0  0
 20 38  1  0  0  0
 20 39  1  0  0  0
 21 24  2  0  0  0
 21 25  1  0  0  0
 21 23  1  0  0  0
 22 40  1  0  0  0
 23 41  1  0  0  0
 24 42  1  0  0  0
 25 27  1  0  0  0
 26 43  1  0  0  0
 26 44  1  0  0  0
 26 45  1  0  0  0
 27 46  1  0  0  0
 27 47  1  0  0  0
 27 48  1  0  0  0
M  END
> <s_m_entry_id>
5422

> <s_m_entry_name>
dock_pv.413

> <s_m_Source_Path>
/home/csk/Desktop/cluster/DUD-E-result/pgh1

> <s_m_Source_File>
dock_pv.maegz

> <i_m_Source_File_Index>
413

> <chembl_id>
CHEMBL43664

> <chembl_pref_name>
None

> <i_lp_mmshare_version>
53161

> <r_lp_tautomer_probability>
0.99995

> <s_lp_Force_Field>
OPLS_2005

> <r_lp_Energy>
27.250446

> <b_lp_Chiralities_Consistent>
1

> <s_lp_Variant>
CHEMBL221_lig36-1

> <s_i_glide_gridfile>
glide-grid_2oyu

> <i_i_glide_lignum>
43

> <i_i_glide_rotatable_bonds>
8

> <r_i_docking_score>
-7.68341629570347

> <r_i_glide_ligand_efficiency>
-0.284570973914943

> <r_i_glide_ligand_efficiency_sa>
-0.85371292080693

> <r_i_glide_ligand_efficiency_ln>
-1.78857264262225

> <r_i_glide_gscore>
-7.68341629570347

> <r_i_glide_lipo>
-4.89641837237412

> <r_i_glide_hbond>
-0.0130071546101124

> <r_i_glide_metal>
0

> <r_i_glide_rewards>
-1.79027681110725

> <r_i_glide_evdw>
-30.2631435394287

> <r_i_glide_ecoul>
-1.31980240345001

> <r_i_glide_erotb>
0.727413579876951

> <r_i_glide_esite>
0

> <r_i_glide_emodel>
-38.1622019455269

> <r_i_glide_energy>
-31.5829459428787

> <r_i_glide_einternal>
4.87545537948608

> <i_i_glide_confnum>
204

> <i_i_glide_posenum>
232

> <r_i_glide_eff_state_penalty>
0

> <s_user_duplicate_titles>
CHEMBL221_lig36

> <i_f3d_flags>
0

> <s_m_subgroup_title>
dock_pv

> <s_m_subgroupid>
dock_pv

> <b_m_subgroup_collapsed>
1

$$$$
CHEMBL221_lig38
                    3D
 Schrodinger Suite 2021-1.
 41 45  0  0  1  0            999 V2000
   19.9145   48.8921   12.5075 C   0  0  0  0  0  0
   19.5644   48.5659   11.2305 N   0  0  0  0  0  0
   20.4129   49.0880   10.2943 C   0  0  0  0  0  0
   19.1296   48.4614   13.6700 C   0  0  0  0  0  0
   19.6790   48.5538   14.9423 C   0  0  0  0  0  0
   18.9012   48.2136   16.0312 C   0  0  0  0  0  0
   17.5981   47.7780   15.8726 C   0  0  0  0  0  0
   17.0887   47.6009   14.6000 C   0  0  0  0  0  0
   17.8357   47.9702   13.4971 C   0  0  0  0  0  0
   20.1230   48.8792    8.8715 C   0  0  0  0  0  0
   19.5797   47.6563    8.4827 C   0  0  0  0  0  0
   19.0030   47.5471    7.2312 C   0  0  0  0  0  0
   19.1152   48.5799    6.3038 C   0  0  0  0  0  0
   19.7230   49.7710    6.6626 C   0  0  0  0  0  0
   20.1230   49.9458    7.9797 C   0  0  0  0  0  0
   21.0754   49.6184   12.3713 C   0  0  0  0  0  0
   21.4010   49.7186   11.0266 C   0  0  0  0  0  0
   22.7363   50.4286   10.9569 C   0  0  1  0  0  0
   22.5140   51.8730   11.4000 C   0  0  0  0  0  0
   22.0968   51.8018   12.8818 C   0  0  0  0  0  0
   22.1772   50.2935   13.1464 C   0  0  2  0  0  0
   23.3357   49.8749   12.2298 C   0  0  0  0  0  0
   16.8340   47.5179   16.9545 F   0  0  0  0  0  0
   18.5770   48.4448    5.0734 F   0  0  0  0  0  0
   18.7505   48.0168   10.9984 H   0  0  0  0  0  0
   20.6864   48.8971   15.1045 H   0  0  0  0  0  0
   19.3230   48.2730   17.0000 H   0  0  0  0  0  0
   16.1230   47.1756   14.4612 H   0  0  0  0  0  0
   17.3912   47.8730   12.5196 H   0  0  0  0  0  0
   19.4896   46.8382    9.1811 H   0  0  0  0  0  0
   18.4238   46.6730    7.0000 H   0  0  0  0  0  0
   19.7487   50.5950    5.9712 H   0  0  0  0  0  0
   20.4526   50.9225    8.3058 H   0  0  0  0  0  0
   23.3230   50.2982   10.0479 H   0  0  0  0  0  0
   21.7230   52.2730   10.7841 H   0  0  0  0  0  0
   23.4076   52.4840   11.2604 H   0  0  0  0  0  0
   21.0994   52.2047   13.0648 H   0  0  0  0  0  0
   22.8002   52.3495   13.5114 H   0  0  0  0  0  0
   22.2301   50.0462   14.1997 H   0  0  0  0  0  0
   23.4941   48.7974   12.2000 H   0  0  0  0  0  0
   24.2852   50.3455   12.4895 H   0  0  0  0  0  0
  1  2  1  0  0  0
  1  4  1  0  0  0
  1 16  2  0  0  0
  2  3  1  0  0  0
  2 25  1  0  0  0
  3 10  1  0  0  0
  3 17  2  0  0  0
  4  9  1  0  0  0
  4  5  2  0  0  0
  5  6  1  0  0  0
  5 26  1  0  0  0
  6  7  2  0  0  0
  6 27  1  0  0  0
  7  8  1  0  0  0
  7 23  1  0  0  0
  8  9  2  0  0  0
  8 28  1  0  0  0
  9 29  1  0  0  0
 10 15  1  0  0  0
 10 11  2  0  0  0
 11 12  1  0  0  0
 11 30  1  0  0  0
 12 13  2  0  0  0
 12 31  1  0  0  0
 13 14  1  0  0  0
 13 24  1  0  0  0
 14 15  2  0  0  0
 14 32  1  0  0  0
 15 33  1  0  0  0
 16 17  1  0  0  0
 16 21  1  0  0  0
 17 18  1  0  0  0
 18 19  1  0  0  0
 18 22  1  0  0  0
 18 34  1  0  0  0
 19 20  1  0  0  0
 19 35  1  0  0  0
 19 36  1  0  0  0
 20 21  1  0  0  0
 20 37  1  0  0  0
 20 38  1  0  0  0
 21 22  1  0  0  0
 21 39  1  0  0  0
 22 40  1  0  0  0
 22 41  1  0  0  0
M  END
> <s_m_entry_id>
5423

> <s_m_entry_name>
dock_pv.414

> <s_m_Source_Path>
/home/csk/Desktop/cluster/DUD-E-result/pgh1

> <s_m_Source_File>
dock_pv.maegz

> <i_m_Source_File_Index>
414

> <chembl_id>
CHEMBL143776

> <chembl_pref_name>
None

> <i_lp_mmshare_version>
53161

> <r_lp_tautomer_probability>
1

> <s_lp_Force_Field>
OPLS_2005

> <r_lp_Energy>
72.522689

> <b_lp_Chiralities_Consistent>
1

> <s_lp_Variant>
CHEMBL221_lig38-1

> <s_i_glide_gridfile>
glide-grid_2oyu

> <i_i_glide_lignum>
45

> <i_i_glide_rotatable_bonds>
2

> <r_i_docking_score>
-7.67529665652327

> <r_i_glide_ligand_efficiency>
-0.319804027355136

> <r_i_glide_ligand_efficiency_sa>
-0.922474441093823

> <r_i_glide_ligand_efficiency_ln>
-1.83705068632016

> <r_i_glide_gscore>
-7.67529665652327

> <r_i_glide_lipo>
-4.9486044425366

> <r_i_glide_hbond>
0

> <r_i_glide_metal>
0

> <r_i_glide_rewards>
-2.39546384531628

> <r_i_glide_evdw>
-12.3628511428833

> <r_i_glide_ecoul>
0.167012438178062

> <r_i_glide_erotb>
0.361862322747065

> <r_i_glide_esite>
-0.1

> <r_i_glide_emodel>
-27.0078077480238

> <r_i_glide_energy>
-12.1958387047052

> <r_i_glide_einternal>
1.39037501811981

> <i_i_glide_confnum>
2

> <i_i_glide_posenum>
361

> <r_i_glide_eff_state_penalty>
0

> <s_user_duplicate_titles>
CHEMBL221_lig38,235438

> <i_f3d_flags>
0

> <s_m_subgroup_title>
dock_pv

> <s_m_subgroupid>
dock_pv

> <b_m_subgroup_collapsed>
1

$$$$
CHEMBL221_lig19
                    3D
 Schrodinger Suite 2021-1.
 37 38  0  0  1  0            999 V2000
   24.3154   52.4160   10.6484 C   0  0  0  0  0  0
   23.4513   51.3257   11.3579 C   0  0  0  0  0  0
   22.9238   50.4267   10.2540 C   0  0  0  0  0  0
   19.1099   48.1238   15.5480 C   0  0  0  0  0  0
   18.5463   47.7078   14.3504 C   0  0  0  0  0  0
   18.9802   48.2620   13.1511 C   0  0  0  0  0  0
   20.1300   49.0766   15.5655 C   0  0  0  0  0  0
   20.5635   49.6483   14.3546 C   0  0  0  0  0  0
   19.9602   49.2312   13.1626 N   0  0  0  0  0  0
   20.4763   50.0659   12.1939 C   0  0  0  0  0  0
   21.4633   50.8720   12.8262 C   0  0  0  0  0  0
   21.4907   50.6104   14.1235 N   0  0  0  0  0  0
   19.9897   50.0149   10.8577 N   0  3  0  0  0  0
   19.8589   51.0728   10.2664 O   0  0  0  0  0  0
   19.7227   48.9181   10.3796 O   0  5  0  0  0  0
   22.3787   51.7932   12.2845 N   0  0  0  0  0  0
   22.7382   53.0552   12.9844 C   0  0  0  0  0  0
   24.0376   52.9365   13.7979 C   0  0  0  0  0  0
   21.6361   53.6540   13.8894 C   0  0  0  0  0  0
   24.9219   52.0007    9.8433 H   0  0  0  0  0  0
   25.0382   52.8831   11.3034 H   0  0  0  0  0  0
   23.7216   53.2101   10.2065 H   0  0  0  0  0  0
   24.1289   50.7147   11.9574 H   0  0  0  0  0  0
   23.6727   50.2737    9.4749 H   0  0  0  0  0  0
   22.5248   49.4795   10.6088 H   0  0  0  0  0  0
   22.1017   50.9476    9.7994 H   0  0  0  0  0  0
   18.7308   47.7156   16.4737 H   0  0  0  0  0  0
   17.7460   46.9833   14.3629 H   0  0  0  0  0  0
   18.5354   47.9924   12.2052 H   0  0  0  0  0  0
   20.5334   49.4217   16.5015 H   0  0  0  0  0  0
   22.8664   53.8385   12.2353 H   0  0  0  0  0  0
   24.3426   53.9104   14.1806 H   0  0  0  0  0  0
   23.8697   52.2441   14.6070 H   0  0  0  0  0  0
   24.8996   52.5296   13.2837 H   0  0  0  0  0  0
   21.8772   54.6839   14.1542 H   0  0  0  0  0  0
   20.6646   53.6664   13.4021 H   0  0  0  0  0  0
   21.5247   53.1103   14.8280 H   0  0  0  0  0  0
  1  2  1  0  0  0
  1 20  1  0  0  0
  1 21  1  0  0  0
  1 22  1  0  0  0
  2  3  1  0  0  0
  2 16  1  0  0  0
  2 23  1  0  0  0
  3 24  1  0  0  0
  3 25  1  0  0  0
  3 26  1  0  0  0
  4  5  1  0  0  0
  4  7  2  0  0  0
  4 27  1  0  0  0
  5  6  2  0  0  0
  5 28  1  0  0  0
  6  9  1  0  0  0
  6 29  1  0  0  0
  7  8  1  0  0  0
  7 30  1  0  0  0
  8  9  1  0  0  0
  8 12  2  0  0  0
  9 10  1  0  0  0
 10 11  2  0  0  0
 10 13  1  0  0  0
 11 12  1  0  0  0
 11 16  1  0  0  0
 13 14  2  0  0  0
 13 15  1  0  0  0
 16 17  1  0  0  0
 17 18  1  0  0  0
 17 19  1  0  0  0
 17 31  1  0  0  0
 18 32  1  0  0  0
 18 33  1  0  0  0
 18 34  1  0  0  0
 19 35  1  0  0  0
 19 36  1  0  0  0
 19 37  1  0  0  0
M  CHG  2  13   1  15  -1
M  END
> <s_m_entry_id>
5424

> <s_m_entry_name>
dock_pv.415

> <s_m_Source_Path>
/home/csk/Desktop/cluster/DUD-E-result/pgh1

> <s_m_Source_File>
dock_pv.maegz

> <i_m_Source_File_Index>
415

> <chembl_id>
CHEMBL2236574

> <chembl_pref_name>
None

> <i_lp_mmshare_version>
53161

> <r_lp_tautomer_probability>
1

> <s_lp_Force_Field>
OPLS_2005

> <r_lp_Energy>
18.803839

> <b_lp_Chiralities_Consistent>
1

> <s_lp_Variant>
CHEMBL221_lig19-1

> <s_i_glide_gridfile>
glide-grid_2oyu

> <i_i_glide_lignum>
23

> <i_i_glide_rotatable_bonds>
4

> <r_i_docking_score>
-7.67005324772794

> <r_i_glide_ligand_efficiency>
-0.403687013038313

> <r_i_glide_ligand_efficiency_sa>
-1.07719909010182

> <r_i_glide_ligand_efficiency_ln>
-1.94452323593781

> <r_i_glide_gscore>
-7.67005324772794

> <r_i_glide_lipo>
-2.80607873936212

> <r_i_glide_hbond>
0

> <r_i_glide_metal>
0

> <r_i_glide_rewards>
-3.7136355496673

> <r_i_glide_evdw>
-28.0433044433594

> <r_i_glide_ecoul>
-0.0398043170571327

> <r_i_glide_erotb>
0.257796911028014

> <r_i_glide_esite>
0

> <r_i_glide_emodel>
-34.7001485764659

> <r_i_glide_energy>
-28.0831087604165

> <r_i_glide_einternal>
4.55966854095459

> <i_i_glide_confnum>
3

> <i_i_glide_posenum>
382

> <r_i_glide_eff_state_penalty>
0

> <s_user_duplicate_titles>
CHEMBL221_lig19

> <i_f3d_flags>
0

> <s_m_subgroup_title>
dock_pv

> <s_m_subgroupid>
dock_pv

> <b_m_subgroup_collapsed>
1

$$$$
CHEMBL221_lig138
                    3D
 Schrodinger Suite 2021-1.
 36 39  0  0  1  0            999 V2000
   21.6148   50.7385   12.3925 N   0  0  0  0  0  0
   21.4210   50.5555   11.0766 N   0  0  0  0  0  0
   20.2031   49.0750   12.2260 C   0  0  0  0  0  0
   20.8562   49.8618   13.1286 C   0  0  0  0  0  0
   20.5609   49.5644   10.9604 C   0  0  0  0  0  0
   22.4014   51.8207   12.8054 C   0  0  0  0  0  0
   20.1230   49.0870    9.6238 C   0  0  0  0  0  0
   19.3910   48.0174   12.9274 C   0  0  0  0  0  0
   20.5230   49.5320   14.5595 C   0  0  0  0  0  0
   19.3512   48.5458   14.3754 C   0  0  0  0  0  0
   23.7262   51.9300   12.3683 C   0  0  0  0  0  0
   21.8088   52.8382   13.5520 C   0  0  0  0  0  0
   19.7190   47.7650    9.4859 C   0  0  0  0  0  0
   20.1230   49.9261    8.5041 C   0  0  0  0  0  0
   22.5230   54.0038   13.8000 C   0  0  0  0  0  0
   24.4615   53.0684   12.6870 C   0  0  0  0  0  0
   19.3164   47.2871    8.2513 C   0  0  0  0  0  0
   19.7481   49.4421    7.2511 C   0  0  0  0  0  0
   23.8545   54.0999   13.4000 C   0  0  0  0  0  0
   19.3346   48.1215    7.1360 C   0  0  0  0  0  0
   18.3898   47.8877   12.5138 H   0  0  0  0  0  0
   19.8900   47.0488   12.8931 H   0  0  0  0  0  0
   21.3474   49.0730   15.0957 H   0  0  0  0  0  0
   20.2225   50.3999   15.1422 H   0  0  0  0  0  0
   19.3760   47.7383   15.1082 H   0  0  0  0  0  0
   18.4090   49.0730   14.5323 H   0  0  0  0  0  0
   24.1807   51.1471   11.7766 H   0  0  0  0  0  0
   20.7805   52.7600   13.8720 H   0  0  0  0  0  0
   19.7062   47.0985   10.3353 H   0  0  0  0  0  0
   20.4114   50.9632    8.5999 H   0  0  0  0  0  0
   22.0677   54.8163   14.3471 H   0  0  0  0  0  0
   25.4878   53.1616   12.3633 H   0  0  0  0  0  0
   18.9606   46.2730    8.2000 H   0  0  0  0  0  0
   19.7432   50.0976    6.3920 H   0  0  0  0  0  0
   24.4136   54.9953   13.6307 H   0  0  0  0  0  0
   19.0037   47.7612    6.1792 H   0  0  0  0  0  0
  1  2  1  0  0  0
  1  4  1  0  0  0
  1  6  1  0  0  0
  2  5  2  0  0  0
  3  4  2  0  0  0
  3  8  1  0  0  0
  3  5  1  0  0  0
  4  9  1  0  0  0
  5  7  1  0  0  0
  6 11  1  0  0  0
  6 12  2  0  0  0
  7 13  2  0  0  0
  7 14  1  0  0  0
  8 10  1  0  0  0
  8 21  1  0  0  0
  8 22  1  0  0  0
  9 10  1  0  0  0
  9 23  1  0  0  0
  9 24  1  0  0  0
 10 25  1  0  0  0
 10 26  1  0  0  0
 11 16  2  0  0  0
 11 27  1  0  0  0
 12 15  1  0  0  0
 12 28  1  0  0  0
 13 17  1  0  0  0
 13 29  1  0  0  0
 14 18  2  0  0  0
 14 30  1  0  0  0
 15 19  2  0  0  0
 15 31  1  0  0  0
 16 19  1  0  0  0
 16 32  1  0  0  0
 17 20  2  0  0  0
 17 33  1  0  0  0
 18 20  1  0  0  0
 18 34  1  0  0  0
 19 35  1  0  0  0
 20 36  1  0  0  0
M  END
> <s_m_entry_id>
5425

> <s_m_entry_name>
dock_pv.416

> <s_m_Source_Path>
/home/csk/Desktop/cluster/DUD-E-result/pgh1

> <s_m_Source_File>
dock_pv.maegz

> <i_m_Source_File_Index>
416

> <chembl_id>
CHEMBL349310

> <chembl_pref_name>
None

> <i_lp_mmshare_version>
53161

> <r_lp_tautomer_probability>
1

> <s_lp_Force_Field>
OPLS_2005

> <r_lp_Energy>
40.124446

> <b_lp_Chiralities_Consistent>
1

> <s_lp_Variant>
CHEMBL221_lig138-1

> <s_i_glide_gridfile>
glide-grid_2oyu

> <i_i_glide_lignum>
160

> <i_i_glide_rotatable_bonds>
2

> <r_i_docking_score>
-7.66159808768044

> <r_i_glide_ligand_efficiency>
-0.383079904384022

> <r_i_glide_ligand_efficiency_sa>
-1.03983883998512

> <r_i_glide_ligand_efficiency_ln>
-1.91744530492926

> <r_i_glide_gscore>
-7.66159808768044

> <r_i_glide_lipo>
-4.17239384815925

> <r_i_glide_hbond>
0

> <r_i_glide_metal>
0

> <r_i_glide_rewards>
-2.67041569528754

> <r_i_glide_evdw>
-28.4530696868896

> <r_i_glide_ecoul>
0.543424069881439

> <r_i_glide_erotb>
0.522351329628622

> <r_i_glide_esite>
0

> <r_i_glide_emodel>
-33.9721167594513

> <r_i_glide_energy>
-27.9096456170082

> <r_i_glide_einternal>
2.1542866230011

> <i_i_glide_confnum>
6

> <i_i_glide_posenum>
276

> <r_i_glide_eff_state_penalty>
0

> <s_user_duplicate_titles>
CHEMBL221_lig138

> <i_f3d_flags>
0

> <s_m_subgroup_title>
dock_pv

> <s_m_subgroupid>
dock_pv

> <b_m_subgroup_collapsed>
1

$$$$
CHEMBL221_lig456
                    3D
 Schrodinger Suite 2021-1.
 38 40  0  0  1  0            999 V2000
   19.3208   48.1112   13.2478 C   0  0  2  0  0  0
   24.0966   53.1651   13.0000 S   0  0  0  0  0  0
   20.2733   48.6400   14.3406 C   0  0  2  0  0  0
   19.5003   48.6234   11.8095 C   0  0  0  0  0  0
   17.9317   48.2730   13.8674 C   0  0  0  0  0  0
   19.7230   47.7429   10.7532 C   0  0  0  0  0  0
   19.4115   48.6730   15.5779 C   0  0  0  0  0  0
   22.9768   51.9199   13.4993 C   0  0  0  0  0  0
   19.9562   48.2107    9.4573 C   0  0  0  0  0  0
   21.1822   49.8730   14.0633 C   0  0  0  0  0  0
   24.1507   53.0730   11.5383 O   0  0  0  0  0  0
   25.3198   53.0730   13.8000 O   0  0  0  0  0  0
   20.1230   49.5740    9.2283 C   0  0  0  0  0  0
   19.5765   49.9855   11.5365 C   0  0  0  0  0  0
   18.1213   48.4528   15.2904 C   0  0  0  0  0  0
   16.8307   48.2730   13.3381 O   0  0  0  0  0  0
   22.9229   50.8399   12.6563 C   0  0  0  0  0  0
   22.1192   52.0294   14.6000 C   0  0  0  0  0  0
   22.0115   49.8730   12.9346 C   0  0  0  0  0  0
   21.2468   50.9867   14.9053 C   0  0  0  0  0  0
   19.9605   50.4584   10.2934 C   0  0  0  0  0  0
   20.0083   47.3276    8.4341 F   0  0  0  0  0  0
   23.1503   54.6730   13.4705 C   0  0  0  0  0  0
   20.1230   50.1592    7.6032 Cl  0  0  0  0  0  0
   19.7230   46.6804   10.9281 H   0  0  0  0  0  0
   19.8259   48.8536   16.5593 H   0  0  0  0  0  0
   20.9230   47.8006   14.5223 H   0  0  0  0  0  0
   19.4002   50.6731   12.3302 H   0  0  0  0  0  0
   17.2869   48.4679   15.9759 H   0  0  0  0  0  0
   19.4544   47.0307   13.1865 H   0  0  0  0  0  0
   23.5612   50.7398   11.7890 H   0  0  0  0  0  0
   22.1230   52.9007   15.2348 H   0  0  0  0  0  0
   22.0068   49.0267   12.2639 H   0  0  0  0  0  0
   20.6173   51.0634   15.7791 H   0  0  0  0  0  0
   20.0313   51.5192   10.1977 H   0  0  0  0  0  0
   23.7576   55.4731   13.0820 H   0  0  0  0  0  0
   23.0781   54.7705   14.5515 H   0  0  0  0  0  0
   22.1688   54.6591   13.0000 H   0  0  0  0  0  0
  1  3  1  0  0  0
  1  4  1  0  0  0
  1 30  1  0  0  0
  1  5  1  0  0  0
  2  8  1  0  0  0
  2 11  2  0  0  0
  2 12  2  0  0  0
  2 23  1  0  0  0
  3  7  1  0  0  0
  3 10  1  0  0  0
  3 27  1  0  0  0
  4  6  1  0  0  0
  4 14  2  0  0  0
  5 16  2  0  0  0
  5 15  1  0  0  0
  6  9  2  0  0  0
  6 25  1  0  0  0
  7 26  1  0  0  0
  7 15  2  0  0  0
  8 18  2  0  0  0
  8 17  1  0  0  0
  9 22  1  0  0  0
  9 13  1  0  0  0
 10 19  1  0  0  0
 10 20  2  0  0  0
 13 21  2  0  0  0
 13 24  1  0  0  0
 14 21  1  0  0  0
 14 28  1  0  0  0
 15 29  1  0  0  0
 17 19  2  0  0  0
 17 31  1  0  0  0
 18 20  1  0  0  0
 18 32  1  0  0  0
 19 33  1  0  0  0
 20 34  1  0  0  0
 21 35  1  0  0  0
 23 36  1  0  0  0
 23 37  1  0  0  0
 23 38  1  0  0  0
M  END
> <s_m_entry_id>
5426

> <s_m_entry_name>
dock_pv.417

> <s_m_Source_Path>
/home/csk/Desktop/cluster/DUD-E-result/pgh1

> <s_m_Source_File>
dock_pv.maegz

> <i_m_Source_File_Index>
417

> <chembl_id>
CHEMBL23175

> <chembl_pref_name>
None

> <i_lp_mmshare_version>
53161

> <r_lp_tautomer_probability>
0.499977396165832

> <s_lp_Force_Field>
OPLS_2005

> <r_lp_Energy>
18.75863

> <b_lp_Chiralities_Consistent>
1

> <s_lp_Variant>
CHEMBL221_lig456-3

> <s_i_glide_gridfile>
glide-grid_2oyu

> <i_i_glide_lignum>
557

> <i_i_glide_rotatable_bonds>
3

> <r_i_docking_score>
-7.66044659586369

> <r_i_glide_ligand_efficiency>
-0.319185274827654

> <r_i_glide_ligand_efficiency_sa>
-0.920689649961938

> <r_i_glide_ligand_efficiency_ln>
-1.83349638537944

> <r_i_glide_gscore>
-7.66044659586369

> <r_i_glide_lipo>
-4.14540633873349

> <r_i_glide_hbond>
0

> <r_i_glide_metal>
0

> <r_i_glide_rewards>
-2.65921966667315

> <r_i_glide_evdw>
-15.4481525421143

> <r_i_glide_ecoul>
-2.48247265815735

> <r_i_glide_erotb>
0.288957935372269

> <r_i_glide_esite>
0

> <r_i_glide_emodel>
-20.1935226290923

> <r_i_glide_energy>
-17.9306252002716

> <r_i_glide_einternal>
27.5421161651611

> <i_i_glide_confnum>
2

> <i_i_glide_posenum>
303

> <r_i_glide_eff_state_penalty>
0

> <s_user_duplicate_titles>
CHEMBL221_lig456

> <i_f3d_flags>
0

> <s_m_subgroup_title>
dock_pv

> <s_m_subgroupid>
dock_pv

> <b_m_subgroup_collapsed>
1

$$$$
CHEMBL221_lig1000
                    3D
 Schrodinger Suite 2021-1.
 29 30  0  0  1  0            999 V2000
   22.9756   52.1481   11.4811 C   0  0  2  0  0  0
   22.8814   52.4955   12.9694 C   0  0  0  0  0  0
   22.0709   51.7785   13.7742 C   0  0  0  0  0  0
   21.2815   50.6635   13.2345 C   0  0  0  0  0  0
   20.6091   49.7319   14.0403 C   0  0  0  0  0  0
   19.8310   48.7206   13.4497 C   0  0  0  0  0  0
   19.7729   48.6280   12.0526 C   0  0  0  0  0  0
   20.4590   49.5291   11.2494 C   0  0  0  0  0  0
   21.2036   50.5447   11.8413 C   0  0  0  0  0  0
   21.8009   51.4619   11.0001 O   0  0  0  0  0  0
   23.5623   53.6885   13.4000 C   0  0  0  0  0  0
   24.7791   53.8450   13.3583 O   0  0  0  0  0  0
   22.6958   54.6603   13.8000 O   0  0  0  0  0  0
   24.2624   51.4472   11.0537 C   0  0  0  0  0  0
   18.8700   47.5498   14.4381 S   0  0  0  0  0  0
   19.3230   46.3379   13.4628 F   0  0  0  0  0  0
   18.4068   48.6730   15.4994 F   0  0  0  0  0  0
   17.9936   46.4763   15.2610 F   0  0  0  0  0  0
   20.1230   47.2136   15.3962 F   0  0  0  0  0  0
   17.5581   47.8730   13.5477 F   0  0  0  0  0  0
   25.3123   52.2730   11.0706 F   0  0  0  0  0  0
   24.5230   50.3796   11.8000 F   0  0  0  0  0  0
   24.1230   51.0228    9.8064 F   0  0  0  0  0  0
   20.3463   49.3686    9.3570 Br  0  0  0  0  0  0
   22.9996   53.0730   10.9202 H   0  0  0  0  0  0
   21.9504   52.0629   14.8110 H   0  0  0  0  0  0
   20.6605   49.8127   15.1174 H   0  0  0  0  0  0
   19.1789   47.8592   11.5778 H   0  0  0  0  0  0
   23.1859   55.4371   14.0895 H   0  0  0  0  0  0
  1  2  1  0  0  0
  1 10  1  0  0  0
  1 14  1  0  0  0
  1 25  1  0  0  0
  2  3  2  0  0  0
  2 11  1  0  0  0
  3  4  1  0  0  0
  3 26  1  0  0  0
  4  5  1  0  0  0
  4  9  2  0  0  0
  5  6  2  0  0  0
  5 27  1  0  0  0
  6  7  1  0  0  0
  6 15  1  0  0  0
  7  8  2  0  0  0
  7 28  1  0  0  0
  8  9  1  0  0  0
  8 24  1  0  0  0
  9 10  1  0  0  0
 11 12  2  0  0  0
 11 13  1  0  0  0
 13 29  1  0  0  0
 14 21  1  0  0  0
 14 22  1  0  0  0
 14 23  1  0  0  0
 15 16  1  0  0  0
 15 17  1  0  0  0
 15 18  1  0  0  0
 15 19  1  0  0  0
 15 20  1  0  0  0
M  END
> <s_m_entry_id>
5427

> <s_m_entry_name>
dock_pv.418

> <s_m_Source_Path>
/home/csk/Desktop/cluster/DUD-E-result/pgh1

> <s_m_Source_File>
dock_pv.maegz

> <i_m_Source_File_Index>
418

> <chembl_id>
CHEMBL4084676

> <chembl_pref_name>
None

> <i_lp_mmshare_version>
53161

> <r_lp_tautomer_probability>
1

> <s_lp_Force_Field>
OPLS_2005

> <r_lp_Energy>
12.21991

> <b_lp_Chiralities_Consistent>
1

> <s_lp_Variant>
CHEMBL221_lig1000-1

> <s_i_glide_gridfile>
glide-grid_2oyu

> <i_i_glide_lignum>
1250

> <i_i_glide_rotatable_bonds>
4

> <r_i_docking_score>
-7.65765366026616

> <r_i_glide_ligand_efficiency>
-0.31906890251109

> <r_i_glide_ligand_efficiency_sa>
-0.920353974115173

> <r_i_glide_ligand_efficiency_ln>
-1.83282790773149

> <r_i_glide_gscore>
-7.65765366026616

> <r_i_glide_lipo>
-3.25143436567705

> <r_i_glide_hbond>
0

> <r_i_glide_metal>
0

> <r_i_glide_rewards>
-2.28089736341256

> <r_i_glide_evdw>
-31.000171661377

> <r_i_glide_ecoul>
-3.90557646751404

> <r_i_glide_erotb>
0.0993456926103225

> <r_i_glide_esite>
-0.0888225705909155

> <r_i_glide_emodel>
-46.4813672644016

> <r_i_glide_energy>
-34.905748128891

> <r_i_glide_einternal>
3.86309862136841

> <i_i_glide_confnum>
1

> <i_i_glide_posenum>
42

> <r_i_glide_eff_state_penalty>
0

> <s_user_duplicate_titles>
CHEMBL221_lig1000,CHEMBL221_lig1001

> <i_f3d_flags>
0

> <s_m_subgroup_title>
dock_pv

> <s_m_subgroupid>
dock_pv

> <b_m_subgroup_collapsed>
1

$$$$
CHEMBL221_lig476
                    3D
 Schrodinger Suite 2021-1.
 37 39  0  0  1  0            999 V2000
   19.2479   48.1849   13.2467 C   0  0  1  0  0  0
   24.0578   53.1683   12.9850 S   0  0  0  0  0  0
   20.2410   48.6481   14.3329 C   0  0  2  0  0  0
   17.8775   48.2730   13.9097 C   0  0  0  0  0  0
   19.4030   48.6648   15.5889 C   0  0  0  0  0  0
   22.9430   51.9122   13.4804 C   0  0  0  0  0  0
   19.3593   48.8267   11.8594 C   0  0  0  0  0  0
   21.1494   49.8730   14.0546 C   0  0  0  0  0  0
   24.1283   53.0730   11.5241 O   0  0  0  0  0  0
   25.2726   53.0933   13.8000 O   0  0  0  0  0  0
   19.3230   50.1894   11.7887 N   0  0  0  0  0  0
   18.1064   48.4341   15.3304 C   0  0  0  0  0  0
   16.7660   48.2333   13.4000 O   0  0  0  0  0  0
   22.8613   50.8412   12.6227 C   0  0  0  0  0  0
   22.1094   52.0137   14.6000 C   0  0  0  0  0  0
   21.9471   49.8729   12.9035 C   0  0  0  0  0  0
   21.2383   50.9736   14.9103 C   0  0  0  0  0  0
   23.0889   54.6730   13.4349 C   0  0  0  0  0  0
   19.7230   50.7806   10.6365 C   0  0  0  0  0  0
   19.7230   48.0445   10.7601 C   0  0  0  0  0  0
   20.1230   50.0649    9.5131 C   0  0  0  0  0  0
   20.1230   48.6730    9.5781 C   0  0  0  0  0  0
   19.8384   48.8323   16.5635 H   0  0  0  0  0  0
   20.9230   47.8163   14.4597 H   0  0  0  0  0  0
   17.2910   48.4237   16.0385 H   0  0  0  0  0  0
   19.3979   47.1165   13.0916 H   0  0  0  0  0  0
   23.4788   50.7517   11.7396 H   0  0  0  0  0  0
   22.1230   52.8813   15.2401 H   0  0  0  0  0  0
   21.9134   49.0349   12.2236 H   0  0  0  0  0  0
   20.6248   51.0438   15.7958 H   0  0  0  0  0  0
   23.6446   55.4926   13.0009 H   0  0  0  0  0  0
   23.0455   54.7942   14.5154 H   0  0  0  0  0  0
   22.0936   54.6121   13.0000 H   0  0  0  0  0  0
   19.6733   51.8569   10.6107 H   0  0  0  0  0  0
   19.7619   46.9711   10.8372 H   0  0  0  0  0  0
   20.3984   50.5803    8.6051 H   0  0  0  0  0  0
   20.4197   48.0860    8.7216 H   0  0  0  0  0  0
  1  3  1  0  0  0
  1  7  1  0  0  0
  1 26  1  0  0  0
  1  4  1  0  0  0
  2  6  1  0  0  0
  2  9  2  0  0  0
  2 10  2  0  0  0
  2 18  1  0  0  0
  3  5  1  0  0  0
  3  8  1  0  0  0
  3 24  1  0  0  0
  4 13  2  0  0  0
  4 12  1  0  0  0
  5 23  1  0  0  0
  5 12  2  0  0  0
  6 15  1  0  0  0
  6 14  2  0  0  0
  7 11  2  0  0  0
  7 20  1  0  0  0
  8 16  2  0  0  0
  8 17  1  0  0  0
 11 19  1  0  0  0
 12 25  1  0  0  0
 14 16  1  0  0  0
 14 27  1  0  0  0
 15 17  2  0  0  0
 15 28  1  0  0  0
 16 29  1  0  0  0
 17 30  1  0  0  0
 18 31  1  0  0  0
 18 32  1  0  0  0
 18 33  1  0  0  0
 19 21  2  0  0  0
 19 34  1  0  0  0
 20 22  2  0  0  0
 20 35  1  0  0  0
 21 22  1  0  0  0
 21 36  1  0  0  0
 22 37  1  0  0  0
M  END
> <s_m_entry_id>
5429

> <s_m_entry_name>
dock_pv.420

> <s_m_Source_Path>
/home/csk/Desktop/cluster/DUD-E-result/pgh1

> <s_m_Source_File>
dock_pv.maegz

> <i_m_Source_File_Index>
420

> <chembl_id>
CHEMBL23128

> <chembl_pref_name>
None

> <i_lp_mmshare_version>
53161

> <r_lp_tautomer_probability>
0.499977396165832

> <s_lp_Force_Field>
OPLS_2005

> <r_lp_Energy>
17.03634

> <b_lp_Chiralities_Consistent>
1

> <s_lp_Variant>
CHEMBL221_lig476-3

> <s_i_glide_gridfile>
glide-grid_2oyu

> <i_i_glide_lignum>
597

> <i_i_glide_rotatable_bonds>
3

> <r_i_docking_score>
-7.65653560570884

> <r_i_glide_ligand_efficiency>
-0.348024345714038

> <r_i_glide_ligand_efficiency_sa>
-0.975177903711571

> <r_i_glide_ligand_efficiency_ln>
-1.87153658095717

> <r_i_glide_gscore>
-7.65653560570884

> <r_i_glide_lipo>
-3.86144949869887

> <r_i_glide_hbond>
0

> <r_i_glide_metal>
0

> <r_i_glide_rewards>
-2.78482506126033

> <r_i_glide_evdw>
-19.5068035125732

> <r_i_glide_ecoul>
-2.75456619262695

> <r_i_glide_erotb>
0.378264058773064

> <r_i_glide_esite>
0

> <r_i_glide_emodel>
-14.4497740377238

> <r_i_glide_energy>
-22.2613697052002

> <r_i_glide_einternal>
16.3541564941406

> <i_i_glide_confnum>
3

> <i_i_glide_posenum>
14

> <r_i_glide_eff_state_penalty>
0

> <s_user_duplicate_titles>
CHEMBL221_lig476

> <i_f3d_flags>
0

> <s_m_subgroup_title>
dock_pv

> <s_m_subgroupid>
dock_pv

> <b_m_subgroup_collapsed>
1

$$$$
CHEMBL221_lig158
                    3D
 Schrodinger Suite 2021-1.
 28 29  0  0  1  0            999 V2000
   21.0177   50.5189   11.7078 C   0  0  0  0  0  0
   21.2034   49.1859   11.8000 N   0  0  0  0  0  0
   20.1210   48.3163   12.0729 N   0  0  0  0  0  0
   19.9311   51.0611   11.4811 O   0  0  0  0  0  0
   22.2421   51.3385   11.9846 C   0  0  0  0  0  0
   19.4790   48.3121   13.3232 C   0  0  0  0  0  0
   23.4069   51.1771   11.2223 C   0  0  0  0  0  0
   22.2097   52.2894   13.0111 C   0  0  0  0  0  0
   20.1236   48.7199   14.4941 C   0  0  0  0  0  0
   18.1599   47.8732   13.3994 C   0  0  0  0  0  0
   24.5220   51.9716   11.4805 C   0  0  0  0  0  0
   23.3293   53.0693   13.2761 C   0  0  0  0  0  0
   17.4899   47.8313   14.6199 C   0  0  0  0  0  0
   19.4662   48.6731   15.7172 C   0  0  0  0  0  0
   18.1490   48.2294   15.7789 C   0  0  0  0  0  0
   24.4816   52.9043   12.5144 C   0  0  0  0  0  0
   22.1098   48.7782   11.9851 H   0  0  0  0  0  0
   19.5399   48.2235   11.2498 H   0  0  0  0  0  0
   23.4432   50.4685   10.4083 H   0  0  0  0  0  0
   21.3140   52.4314   13.6030 H   0  0  0  0  0  0
   21.1426   49.0747   14.4680 H   0  0  0  0  0  0
   17.6462   47.5654   12.5029 H   0  0  0  0  0  0
   25.4158   51.8677   10.8808 H   0  0  0  0  0  0
   23.3011   53.8042   14.0666 H   0  0  0  0  0  0
   16.4659   47.4928   14.6656 H   0  0  0  0  0  0
   19.9869   49.0039   16.6000 H   0  0  0  0  0  0
   17.6331   48.1986   16.7288 H   0  0  0  0  0  0
   25.3508   53.5135   12.7202 H   0  0  0  0  0  0
  1  2  1  0  0  0
  1  4  2  0  0  0
  1  5  1  0  0  0
  2  3  1  0  0  0
  2 17  1  0  0  0
  3  6  1  0  0  0
  3 18  1  0  0  0
  5  7  1  0  0  0
  5  8  2  0  0  0
  6  9  1  0  0  0
  6 10  2  0  0  0
  7 11  2  0  0  0
  7 19  1  0  0  0
  8 12  1  0  0  0
  8 20  1  0  0  0
  9 14  2  0  0  0
  9 21  1  0  0  0
 10 13  1  0  0  0
 10 22  1  0  0  0
 11 16  1  0  0  0
 11 23  1  0  0  0
 12 16  2  0  0  0
 12 24  1  0  0  0
 13 15  2  0  0  0
 13 25  1  0  0  0
 14 15  1  0  0  0
 14 26  1  0  0  0
 15 27  1  0  0  0
 16 28  1  0  0  0
M  END
> <s_m_entry_id>
5431

> <s_m_entry_name>
dock_pv.422

> <s_m_Source_Path>
/home/csk/Desktop/cluster/DUD-E-result/pgh1

> <s_m_Source_File>
dock_pv.maegz

> <i_m_Source_File_Index>
422

> <chembl_id>
CHEMBL444539

> <chembl_pref_name>
None

> <i_lp_mmshare_version>
53161

> <r_lp_tautomer_probability>
1

> <s_lp_Force_Field>
OPLS_2005

> <r_lp_Energy>
16.899766

> <b_lp_Chiralities_Consistent>
1

> <s_lp_Variant>
CHEMBL221_lig158-1

> <s_i_glide_gridfile>
glide-grid_2oyu

> <i_i_glide_lignum>
180

> <i_i_glide_rotatable_bonds>
4

> <r_i_docking_score>
-7.6510217180871

> <r_i_glide_ligand_efficiency>
-0.478188857380444

> <r_i_glide_ligand_efficiency_sa>
-1.20496041336398

> <r_i_glide_ligand_efficiency_ln>
-2.02805613900704

> <r_i_glide_gscore>
-7.6510217180871

> <r_i_glide_lipo>
-3.5033142466504

> <r_i_glide_hbond>
0

> <r_i_glide_metal>
0

> <r_i_glide_rewards>
-3.0867067158495

> <r_i_glide_evdw>
-32.718189239502

> <r_i_glide_ecoul>
-1.09633827209473

> <r_i_glide_erotb>
0.739359447202107

> <r_i_glide_esite>
0

> <r_i_glide_emodel>
-46.788239087682

> <r_i_glide_energy>
-33.8145275115967

> <r_i_glide_einternal>
5.22511863708496

> <i_i_glide_confnum>
2

> <i_i_glide_posenum>
374

> <r_i_glide_eff_state_penalty>
0

> <s_user_duplicate_titles>
CHEMBL221_lig158

> <i_f3d_flags>
0

> <s_m_subgroup_title>
dock_pv

> <s_m_subgroupid>
dock_pv

> <b_m_subgroup_collapsed>
1

$$$$
CHEMBL221_lig249
                    3D
 Schrodinger Suite 2021-1.
 53 55  0  0  1  0            999 V2000
   19.4728   48.5973   13.7639 C   0  0  0  0  0  0
   19.4776   48.3809   12.3778 C   0  0  0  0  0  0
   20.2074   49.2039   11.5066 C   0  0  0  0  0  0
   20.9736   50.2514   12.0204 C   0  0  0  0  0  0
   20.3341   49.6045   14.2300 C   0  0  0  0  0  0
   21.0353   50.4505   13.3853 C   0  0  0  0  0  0
   21.7403   51.5214   14.1628 C   0  0  0  0  0  0
   21.3230   51.0888   15.5998 C   0  0  0  0  0  0
   20.5228   49.9274   15.5390 O   0  0  0  0  0  0
   21.2390   52.9458   13.8085 C   0  0  0  0  0  0
   23.2518   51.4730   13.8671 C   0  0  0  0  0  0
   18.4805   47.7815   14.6383 C   0  0  0  0  0  0
   18.9313   46.3146   14.6837 C   0  0  0  0  0  0
   17.0537   47.8724   14.0523 C   0  0  0  0  0  0
   18.3630   48.2688   16.1010 C   0  0  0  0  0  0
   20.1230   49.0721   10.0379 C   0  0  0  0  0  0
   19.5470   47.7566    9.4783 C   0  0  0  0  0  0
   20.5230   49.9604    9.3002 O   0  0  0  0  0  0
   19.5703   47.4921    7.9548 C   0  0  0  0  0  0
   19.1673   48.6308    6.9999 C   0  0  0  0  0  0
   19.7493   48.6116    5.5990 C   0  0  0  0  0  0
   20.4036   49.8889    5.1809 C   0  0  0  0  0  0
   21.2272   48.6730    5.3586 C   0  0  0  0  0  0
   18.8564   47.5938   11.9776 H   0  0  0  0  0  0
   21.5150   50.9235   11.3675 H   0  0  0  0  0  0
   22.1230   50.7512   16.2337 H   0  0  0  0  0  0
   20.7703   51.8722   16.1203 H   0  0  0  0  0  0
   21.3333   53.6276   14.6546 H   0  0  0  0  0  0
   20.2075   52.9653   13.4622 H   0  0  0  0  0  0
   21.8144   53.3943   13.0000 H   0  0  0  0  0  0
   23.8434   52.0113   14.6000 H   0  0  0  0  0  0
   23.6033   50.4561   13.7994 H   0  0  0  0  0  0
   23.4876   51.9092   12.8955 H   0  0  0  0  0  0
   19.9054   46.2730   15.1693 H   0  0  0  0  0  0
   18.2429   45.6919   15.2562 H   0  0  0  0  0  0
   19.0143   45.8762   13.6887 H   0  0  0  0  0  0
   16.7257   48.9061   13.9964 H   0  0  0  0  0  0
   16.9829   47.4733   13.0457 H   0  0  0  0  0  0
   16.3333   47.3237   14.6588 H   0  0  0  0  0  0
   18.0198   49.3007   16.1740 H   0  0  0  0  0  0
   17.6628   47.6627   16.6782 H   0  0  0  0  0  0
   19.3231   48.1986   16.6000 H   0  0  0  0  0  0
   20.0662   46.9380    9.9754 H   0  0  0  0  0  0
   18.5229   47.7008    9.8188 H   0  0  0  0  0  0
   20.5230   47.0856    7.6702 H   0  0  0  0  0  0
   18.8729   46.6730    7.7903 H   0  0  0  0  0  0
   18.1230   48.5443    6.8453 H   0  0  0  0  0  0
   19.2973   49.6270    7.4001 H   0  0  0  0  0  0
   19.0837   48.1891    4.8470 H   0  0  0  0  0  0
   20.1707   50.2730    4.2000 H   0  0  0  0  0  0
   20.5446   50.6729    5.9234 H   0  0  0  0  0  0
   21.9087   48.6730    6.1999 H   0  0  0  0  0  0
   21.5797   48.1108    4.5036 H   0  0  0  0  0  0
  1  2  2  0  0  0
  1 12  1  0  0  0
  1  5  1  0  0  0
  2  3  1  0  0  0
  2 24  1  0  0  0
  3  4  2  0  0  0
  3 16  1  0  0  0
  4  6  1  0  0  0
  4 25  1  0  0  0
  5  9  1  0  0  0
  5  6  2  0  0  0
  6  7  1  0  0  0
  7 11  1  0  0  0
  7  8  1  0  0  0
  7 10  1  0  0  0
  8  9  1  0  0  0
  8 26  1  0  0  0
  8 27  1  0  0  0
 10 28  1  0  0  0
 10 29  1  0  0  0
 10 30  1  0  0  0
 11 31  1  0  0  0
 11 32  1  0  0  0
 11 33  1  0  0  0
 12 13  1  0  0  0
 12 14  1  0  0  0
 12 15  1  0  0  0
 13 34  1  0  0  0
 13 35  1  0  0  0
 13 36  1  0  0  0
 14 37  1  0  0  0
 14 38  1  0  0  0
 14 39  1  0  0  0
 15 40  1  0  0  0
 15 41  1  0  0  0
 15 42  1  0  0  0
 16 17  1  0  0  0
 16 18  2  0  0  0
 17 19  1  0  0  0
 17 43  1  0  0  0
 17 44  1  0  0  0
 19 20  1  0  0  0
 19 45  1  0  0  0
 19 46  1  0  0  0
 20 21  1  0  0  0
 20 47  1  0  0  0
 20 48  1  0  0  0
 21 22  1  0  0  0
 21 23  1  0  0  0
 21 49  1  0  0  0
 22 23  1  0  0  0
 22 50  1  0  0  0
 22 51  1  0  0  0
 23 52  1  0  0  0
 23 53  1  0  0  0
M  END
> <s_m_entry_id>
5432

> <s_m_entry_name>
dock_pv.423

> <s_m_Source_Path>
/home/csk/Desktop/cluster/DUD-E-result/pgh1

> <s_m_Source_File>
dock_pv.maegz

> <i_m_Source_File_Index>
423

> <chembl_id>
CHEMBL13623

> <chembl_pref_name>
None

> <i_lp_mmshare_version>
53161

> <r_lp_tautomer_probability>
0.99990000499975

> <s_lp_Force_Field>
OPLS_2005

> <r_lp_Energy>
39.136149

> <b_lp_Chiralities_Consistent>
1

> <s_lp_Variant>
CHEMBL221_lig249-1

> <s_i_glide_gridfile>
glide-grid_2oyu

> <i_i_glide_lignum>
279

> <i_i_glide_rotatable_bonds>
6

> <r_i_docking_score>
-7.64485580103371

> <r_i_glide_ligand_efficiency>
-0.332385034827553

> <r_i_glide_ligand_efficiency_sa>
-0.945258824154939

> <r_i_glide_ligand_efficiency_ln>
-1.84859545240981

> <r_i_glide_gscore>
-7.64485580103371

> <r_i_glide_lipo>
-4.99230325367883

> <r_i_glide_hbond>
0

> <r_i_glide_metal>
0

> <r_i_glide_rewards>
-2.38663303191005

> <r_i_glide_evdw>
-21.9727554321289

> <r_i_glide_ecoul>
0.538628756999969

> <r_i_glide_erotb>
0.751923942611606

> <r_i_glide_esite>
0

> <r_i_glide_emodel>
-26.752691827494

> <r_i_glide_energy>
-21.4341266751289

> <r_i_glide_einternal>
7.4294810295105

> <i_i_glide_confnum>
11

> <i_i_glide_posenum>
284

> <r_i_glide_eff_state_penalty>
0

> <s_user_duplicate_titles>
CHEMBL221_lig249

> <i_f3d_flags>
0

> <s_m_subgroup_title>
dock_pv

> <s_m_subgroupid>
dock_pv

> <b_m_subgroup_collapsed>
1

$$$$
CHEMBL221_lig630
                    3D
 Schrodinger Suite 2021-1.
 26 27  0  0  1  0            999 V2000
   23.3325   51.6397   12.1289 C   0  0  0  0  0  0
   22.9595   51.7361   13.4704 C   0  0  0  0  0  0
   21.8507   51.0304   13.9427 C   0  0  0  0  0  0
   22.5570   50.8918   11.2421 C   0  0  0  0  0  0
   21.4220   50.2222   11.7035 C   0  0  0  0  0  0
   21.1133   50.2338   13.0676 C   0  0  0  0  0  0
   20.0521   49.5126   13.6000 O   0  0  0  0  0  0
   19.4374   48.4476   12.8243 C   0  0  2  0  0  0
   19.6040   48.6731   11.3073 C   0  0  0  0  0  0
   20.5545   49.4730   10.8112 C   0  0  0  0  0  0
   17.9437   48.4951   13.1823 C   0  0  0  0  0  0
   24.4621   52.2737   11.6863 O   0  0  0  0  0  0
   20.0783   47.0993   13.2596 C   0  0  0  0  0  0
   20.5230   46.2730   12.2000 O   0  0  0  0  0  0
   23.5495   52.3301   14.1535 H   0  0  0  0  0  0
   21.5822   51.0775   14.9874 H   0  0  0  0  0  0
   22.8317   50.8373   10.2000 H   0  0  0  0  0  0
   18.9659   48.1421   10.6162 H   0  0  0  0  0  0
   20.6480   49.5881    9.7405 H   0  0  0  0  0  0
   17.3588   47.7883   12.6000 H   0  0  0  0  0  0
   17.7787   48.2772   14.2380 H   0  0  0  0  0  0
   17.5218   49.4730   13.0000 H   0  0  0  0  0  0
   24.7240   52.0055   10.8022 H   0  0  0  0  0  0
   20.9230   47.2869   13.9159 H   0  0  0  0  0  0
   19.3806   46.5175   13.8640 H   0  0  0  0  0  0
   19.7523   45.9588   11.7038 H   0  0  0  0  0  0
  1  2  2  0  0  0
  1  4  1  0  0  0
  1 12  1  0  0  0
  2  3  1  0  0  0
  2 15  1  0  0  0
  3  6  2  0  0  0
  3 16  1  0  0  0
  4  5  2  0  0  0
  4 17  1  0  0  0
  5 10  1  0  0  0
  5  6  1  0  0  0
  6  7  1  0  0  0
  7  8  1  0  0  0
  8  9  1  0  0  0
  8 11  1  0  0  0
  8 13  1  0  0  0
  9 10  2  0  0  0
  9 18  1  0  0  0
 10 19  1  0  0  0
 11 20  1  0  0  0
 11 21  1  0  0  0
 11 22  1  0  0  0
 12 23  1  0  0  0
 13 14  1  0  0  0
 13 24  1  0  0  0
 13 25  1  0  0  0
 14 26  1  0  0  0
M  END
> <s_m_entry_id>
5433

> <s_m_entry_name>
dock_pv.424

> <s_m_Source_Path>
/home/csk/Desktop/cluster/DUD-E-result/pgh1

> <s_m_Source_File>
dock_pv.maegz

> <i_m_Source_File_Index>
424

> <chembl_id>
CHEMBL232615

> <chembl_pref_name>
None

> <i_lp_mmshare_version>
53161

> <r_lp_tautomer_probability>
1

> <s_lp_Force_Field>
OPLS_2005

> <r_lp_Energy>
13.454171

> <b_lp_Chiralities_Consistent>
1

> <s_lp_Variant>
CHEMBL221_lig630-1

> <s_i_glide_gridfile>
glide-grid_2oyu

> <i_i_glide_lignum>
769

> <i_i_glide_rotatable_bonds>
3

> <r_i_docking_score>
-7.64261744584412

> <r_i_glide_ligand_efficiency>
-0.545901246131723

> <r_i_glide_ligand_efficiency_sa>
-1.31569966421059

> <r_i_glide_ligand_efficiency_ln>
-2.10016406821822

> <r_i_glide_gscore>
-7.64261744584412

> <r_i_glide_lipo>
-2.99465441105873

> <r_i_glide_hbond>
-0.48

> <r_i_glide_metal>
0

> <r_i_glide_rewards>
-2.58397617038598

> <r_i_glide_evdw>
-20.2427158355713

> <r_i_glide_ecoul>
-6.72037363052368

> <r_i_glide_erotb>
0.436204971957706

> <r_i_glide_esite>
0

> <r_i_glide_emodel>
-36.6413041344683

> <r_i_glide_energy>
-26.963089466095

> <r_i_glide_einternal>
5.1887993812561

> <i_i_glide_confnum>
3

> <i_i_glide_posenum>
380

> <r_i_glide_eff_state_penalty>
0

> <s_user_duplicate_titles>
CHEMBL221_lig630

> <i_f3d_flags>
0

> <s_m_subgroup_title>
dock_pv

> <s_m_subgroupid>
dock_pv

> <b_m_subgroup_collapsed>
1

$$$$
CHEMBL221_lig900
                    3D
 Schrodinger Suite 2021-1.
 54 56  0  0  1  0            999 V2000
   20.7958   49.8546   15.5978 C   0  0  0  0  0  0
   20.1419   49.4622   14.2826 C   0  0  0  0  0  0
   19.0136   48.6687   14.1246 C   0  0  0  0  0  0
   18.1538   48.0371   15.1837 C   0  0  0  0  0  0
   18.6218   46.6008   15.3404 C   0  0  0  0  0  0
   19.7478   46.3575   15.7615 O   0  0  0  0  0  0
   17.7034   45.6696   14.9877 O   0  0  0  0  0  0
   18.1435   44.3520   14.6113 C   0  0  0  0  0  0
   17.0102   43.3899   14.1786 C   0  0  0  0  0  0
   17.4672   42.0268   14.1918 O   0  0  0  0  0  0
   16.4667   41.0292   14.4785 N   0  3  0  0  0  0
   16.9311   39.9288   14.5445 O   0  5  0  0  0  0
   15.3232   41.4087   14.6017 O   0  0  0  0  0  0
   18.8540   48.4928   12.7725 C   0  0  0  0  0  0
   19.8129   49.1917   12.0846 C   0  0  0  0  0  0
   19.9203   49.1964   10.5939 C   0  0  0  0  0  0
   20.1188   50.3456    9.8209 C   0  0  0  0  0  0
   20.1226   50.2562    8.4322 C   0  0  0  0  0  0
   19.9416   49.0247    7.8034 C   0  0  0  0  0  0
   19.7250   47.8772    8.5736 C   0  0  0  0  0  0
   19.7216   47.9717    9.9592 C   0  0  0  0  0  0
   19.9815   48.8931    6.0297 S   0  0  0  0  0  0
   20.9169   49.8509    5.4493 O   0  0  0  0  0  0
   20.1230   47.4743    5.7744 O   0  0  0  0  0  0
   18.3131   49.3638    5.4122 C   0  0  0  0  0  0
   20.6140   49.8367   13.0241 N   0  0  0  0  0  0
   21.7040   50.6999   12.7370 C   0  0  0  0  0  0
   21.8726   51.9107   13.4267 C   0  0  0  0  0  0
   22.8954   52.7948   13.0735 C   0  0  0  0  0  0
   23.7059   52.5082   11.9692 C   0  0  0  0  0  0
   23.4950   51.3330   11.2589 C   0  0  0  0  0  0
   24.1182   51.0956   10.0908 F   0  0  0  0  0  0
   22.5693   50.4029   11.6780 C   0  0  0  0  0  0
   21.0345   48.9700   16.1808 H   0  0  0  0  0  0
   21.7268   50.4047   15.5033 H   0  0  0  0  0  0
   20.1309   50.4595   16.2184 H   0  0  0  0  0  0
   17.0987   48.0702   14.9220 H   0  0  0  0  0  0
   18.2677   48.5476   16.1367 H   0  0  0  0  0  0
   18.7491   43.9007   15.3955 H   0  0  0  0  0  0
   18.8159   44.4768   13.7689 H   0  0  0  0  0  0
   16.7914   43.5037   13.1212 H   0  0  0  0  0  0
   16.0586   43.6284   14.6514 H   0  0  0  0  0  0
   18.0738   47.9021   12.3227 H   0  0  0  0  0  0
   20.2469   51.3073   10.2904 H   0  0  0  0  0  0
   20.2416   51.1548    7.8312 H   0  0  0  0  0  0
   19.5902   46.9126    8.1154 H   0  0  0  0  0  0
   19.5580   47.0798   10.5426 H   0  0  0  0  0  0
   18.4518   49.4763    4.3351 H   0  0  0  0  0  0
   17.6243   48.5672    5.6691 H   0  0  0  0  0  0
   17.9830   50.3056    5.8176 H   0  0  0  0  0  0
   21.2048   52.1840   14.2333 H   0  0  0  0  0  0
   23.0263   53.7191   13.6196 H   0  0  0  0  0  0
   24.4551   53.2120   11.6488 H   0  0  0  0  0  0
   22.4731   49.4965   11.0977 H   0  0  0  0  0  0
  1  2  1  0  0  0
  1 34  1  0  0  0
  1 35  1  0  0  0
  1 36  1  0  0  0
  2  3  2  0  0  0
  2 26  1  0  0  0
  3  4  1  0  0  0
  3 14  1  0  0  0
  4  5  1  0  0  0
  4 37  1  0  0  0
  4 38  1  0  0  0
  5  6  2  0  0  0
  5  7  1  0  0  0
  7  8  1  0  0  0
  8  9  1  0  0  0
  8 39  1  0  0  0
  8 40  1  0  0  0
  9 10  1  0  0  0
  9 41  1  0  0  0
  9 42  1  0  0  0
 10 11  1  0  0  0
 11 12  1  0  0  0
 11 13  2  0  0  0
 14 15  2  0  0  0
 14 43  1  0  0  0
 15 16  1  0  0  0
 15 26  1  0  0  0
 16 17  2  0  0  0
 16 21  1  0  0  0
 17 18  1  0  0  0
 17 44  1  0  0  0
 18 19  2  0  0  0
 18 45  1  0  0  0
 19 20  1  0  0  0
 19 22  1  0  0  0
 20 21  2  0  0  0
 20 46  1  0  0  0
 21 47  1  0  0  0
 22 23  2  0  0  0
 22 24  2  0  0  0
 22 25  1  0  0  0
 25 48  1  0  0  0
 25 49  1  0  0  0
 25 50  1  0  0  0
 26 27  1  0  0  0
 27 28  2  0  0  0
 27 33  1  0  0  0
 28 29  1  0  0  0
 28 51  1  0  0  0
 29 30  2  0  0  0
 29 52  1  0  0  0
 30 31  1  0  0  0
 30 53  1  0  0  0
 31 32  1  0  0  0
 31 33  2  0  0  0
 33 54  1  0  0  0
M  CHG  2  11   1  12  -1
M  END
> <s_m_entry_id>
5434

> <s_m_entry_name>
dock_pv.425

> <s_m_Source_Path>
/home/csk/Desktop/cluster/DUD-E-result/pgh1

> <s_m_Source_File>
dock_pv.maegz

> <i_m_Source_File_Index>
425

> <chembl_id>
CHEMBL1939670

> <chembl_pref_name>
None

> <i_lp_mmshare_version>
53161

> <r_lp_tautomer_probability>
1

> <s_lp_Force_Field>
OPLS_2005

> <r_lp_Energy>
14.294368

> <b_lp_Chiralities_Consistent>
1

> <s_lp_Variant>
CHEMBL221_lig900-1

> <s_i_glide_gridfile>
glide-grid_2oyu

> <i_i_glide_lignum>
1107

> <i_i_glide_rotatable_bonds>
10

> <r_i_docking_score>
-7.63899116623198

> <r_i_glide_ligand_efficiency>
-0.231484580794908

> <r_i_glide_ligand_efficiency_sa>
-0.742494738898982

> <r_i_glide_ligand_efficiency_ln>
-1.69887208279054

> <r_i_glide_gscore>
-7.63899116623198

> <r_i_glide_lipo>
-4.87189142443935

> <r_i_glide_hbond>
-0.0495419144521174

> <r_i_glide_metal>
0

> <r_i_glide_rewards>
-1.64165226087134

> <r_i_glide_evdw>
-16.4201278686523

> <r_i_glide_ecoul>
-6.30987644195557

> <r_i_glide_erotb>
0.713566146363093

> <r_i_glide_esite>
-0.0219838531063094

> <r_i_glide_emodel>
-27.7604098386274

> <r_i_glide_energy>
-22.7300043106079

> <r_i_glide_einternal>
10.4920654296875

> <i_i_glide_confnum>
33

> <i_i_glide_posenum>
15

> <r_i_glide_eff_state_penalty>
0

> <s_user_duplicate_titles>
CHEMBL221_lig900

> <i_f3d_flags>
0

> <s_m_subgroup_title>
dock_pv

> <s_m_subgroupid>
dock_pv

> <b_m_subgroup_collapsed>
1

$$$$
CHEMBL221_lig824
                    3D
 Schrodinger Suite 2021-1.
 31 32  0  0  1  0            999 V2000
   19.5516   47.9189   13.3509 C   0  0  0  0  0  0
   19.5422   47.8953   11.9528 C   0  0  0  0  0  0
   20.1171   48.9342   11.1999 C   0  0  0  0  0  0
   20.1535   48.9837   14.0209 C   0  0  0  0  0  0
   20.7218   50.0274   13.2925 C   0  0  0  0  0  0
   20.7091   49.9966   11.8914 C   0  0  0  0  0  0
   21.2223   51.0626   11.1627 O   0  0  0  0  0  0
   22.3503   51.7522   11.7557 C   0  0  1  0  0  0
   22.0818   52.0520   13.2452 C   0  0  0  0  0  0
   21.3230   51.1892   13.9462 C   0  0  0  0  0  0
   23.6537   50.9949   11.4901 C   0  0  0  0  0  0
   24.7054   51.7649   11.7535 F   0  0  0  0  0  0
   23.7397   49.8731   12.2000 F   0  0  0  0  0  0
   23.7230   50.6730   10.2023 F   0  0  0  0  0  0
   22.4373   53.3381   13.8000 C   0  0  0  0  0  0
   21.7230   53.9792   14.5652 O   0  0  0  0  0  0
   23.6553   53.7836   13.3999 O   0  0  0  0  0  0
   18.9099   46.7948   14.1419 C   0  0  0  0  0  0
   20.1230   48.9734    9.8160 O   0  0  0  0  0  0
   19.5948   47.8730    9.0792 C   0  0  0  0  0  0
   19.0569   47.0730   11.4569 H   0  0  0  0  0  0
   20.1588   49.0102   15.1015 H   0  0  0  0  0  0
   22.5002   52.6730   11.2086 H   0  0  0  0  0  0
   21.0493   51.4115   14.9700 H   0  0  0  0  0  0
   23.8349   54.6101   13.8558 H   0  0  0  0  0  0
   19.4476   46.6183   15.0741 H   0  0  0  0  0  0
   17.8764   47.0462   14.3829 H   0  0  0  0  0  0
   18.9230   45.8592   13.5821 H   0  0  0  0  0  0
   19.7075   48.0685    8.0128 H   0  0  0  0  0  0
   20.1230   46.9465    9.3008 H   0  0  0  0  0  0
   18.5324   47.7250    9.2753 H   0  0  0  0  0  0
  1  2  2  0  0  0
  1  4  1  0  0  0
  1 18  1  0  0  0
  2  3  1  0  0  0
  2 21  1  0  0  0
  3  6  2  0  0  0
  3 19  1  0  0  0
  4  5  2  0  0  0
  4 22  1  0  0  0
  5  6  1  0  0  0
  5 10  1  0  0  0
  6  7  1  0  0  0
  7  8  1  0  0  0
  8  9  1  0  0  0
  8 11  1  0  0  0
  8 23  1  0  0  0
  9 10  2  0  0  0
  9 15  1  0  0  0
 10 24  1  0  0  0
 11 12  1  0  0  0
 11 13  1  0  0  0
 11 14  1  0  0  0
 15 16  2  0  0  0
 15 17  1  0  0  0
 17 25  1  0  0  0
 18 26  1  0  0  0
 18 27  1  0  0  0
 18 28  1  0  0  0
 19 20  1  0  0  0
 20 29  1  0  0  0
 20 30  1  0  0  0
 20 31  1  0  0  0
M  END
> <s_m_entry_id>
5435

> <s_m_entry_name>
dock_pv.426

> <s_m_Source_Path>
/home/csk/Desktop/cluster/DUD-E-result/pgh1

> <s_m_Source_File>
dock_pv.maegz

> <i_m_Source_File_Index>
426

> <chembl_id>
CHEMBL1288602

> <chembl_pref_name>
None

> <i_lp_mmshare_version>
53161

> <r_lp_tautomer_probability>
1

> <s_lp_Force_Field>
OPLS_2005

> <r_lp_Energy>
15.911273

> <b_lp_Chiralities_Consistent>
1

> <s_lp_Variant>
CHEMBL221_lig824-2

> <s_i_glide_gridfile>
glide-grid_2oyu

> <i_i_glide_lignum>
1003

> <i_i_glide_rotatable_bonds>
4

> <r_i_docking_score>
-7.6334033462476

> <r_i_glide_ligand_efficiency>
-0.38167016731238

> <r_i_glide_ligand_efficiency_sa>
-1.03601222484691

> <r_i_glide_ligand_efficiency_ln>
-1.91038909107344

> <r_i_glide_gscore>
-7.6334033462476

> <r_i_glide_lipo>
-3.29291483895985

> <r_i_glide_hbond>
0

> <r_i_glide_metal>
0

> <r_i_glide_rewards>
-2.94060912389021

> <r_i_glide_evdw>
-28.3896179199219

> <r_i_glide_ecoul>
-1.32906079292297

> <r_i_glide_erotb>
0.218960631537001

> <r_i_glide_esite>
0

> <r_i_glide_emodel>
-40.3879059350613

> <r_i_glide_energy>
-29.7186787128448

> <r_i_glide_einternal>
2.46552348136902

> <i_i_glide_confnum>
2

> <i_i_glide_posenum>
320

> <r_i_glide_eff_state_penalty>
0

> <s_user_duplicate_titles>
CHEMBL221_lig824

> <i_f3d_flags>
0

> <s_m_subgroup_title>
dock_pv

> <s_m_subgroupid>
dock_pv

> <b_m_subgroup_collapsed>
1

$$$$
CHEMBL221_lig853
                    3D
 Schrodinger Suite 2021-1.
 34 36  0  0  1  0            999 V2000
   20.8609   51.4730   16.2842 C   0  0  0  0  0  0
   20.5230   50.1468   16.1718 C   0  0  0  0  0  0
   20.4376   49.5055   14.9487 C   0  0  0  0  0  0
   21.3230   52.1493   15.1646 C   0  0  0  0  0  0
   20.5230   52.2730   17.7743 Cl  0  0  0  0  0  0
   21.5530   51.4248   13.9975 C   0  0  0  0  0  0
   21.0726   50.1143   13.8625 C   0  0  0  0  0  0
   21.3230   49.3596   12.7302 O   0  0  0  0  0  0
   21.6949   50.0441   11.5151 C   0  0  2  0  0  0
   22.5538   51.3168   11.8000 C   0  0  0  0  0  0
   22.3710   51.9788   12.9548 C   0  0  0  0  0  0
   20.3683   50.2428   10.7264 C   0  0  0  0  0  0
   19.5327   51.0730   11.3447 F   0  0  0  0  0  0
   20.5230   50.6781    9.4829 F   0  0  0  0  0  0
   19.7314   49.0750   10.6160 F   0  0  0  0  0  0
   23.7340   51.5969   11.0000 C   0  0  0  0  0  0
   24.4626   52.6730   11.4000 O   0  0  0  0  0  0
   24.1229   50.9059   10.0789 O   0  0  0  0  0  0
   19.4943   48.3641   14.8949 C   0  0  0  0  0  0
   18.3074   48.4648   15.6451 C   0  0  0  0  0  0
   17.4049   47.4294   15.7077 C   0  0  0  0  0  0
   17.6727   46.2730   15.0000 C   0  0  0  0  0  0
   18.8137   46.1768   14.2048 C   0  0  0  0  0  0
   19.7230   47.2221   14.1385 C   0  0  0  0  0  0
   16.7779   45.2582   15.0000 F   0  0  0  0  0  0
   20.1230   49.6343   17.0000 H   0  0  0  0  0  0
   21.6233   53.1849   15.2506 H   0  0  0  0  0  0
   22.2951   49.3216   10.9621 H   0  0  0  0  0  0
   22.9947   52.8214   13.2263 H   0  0  0  0  0  0
   25.2413   52.7217   10.8420 H   0  0  0  0  0  0
   18.0648   49.3544   16.2074 H   0  0  0  0  0  0
   16.5210   47.5158   16.3139 H   0  0  0  0  0  0
   18.9446   45.2864   13.6089 H   0  0  0  0  0  0
   20.6041   47.1331   13.5212 H   0  0  0  0  0  0
  1  2  2  0  0  0
  1  4  1  0  0  0
  1  5  1  0  0  0
  2  3  1  0  0  0
  2 26  1  0  0  0
  3  7  2  0  0  0
  3 19  1  0  0  0
  4  6  2  0  0  0
  4 27  1  0  0  0
  6  7  1  0  0  0
  6 11  1  0  0  0
  7  8  1  0  0  0
  8  9  1  0  0  0
  9 12  1  0  0  0
  9 10  1  0  0  0
  9 28  1  0  0  0
 10 16  1  0  0  0
 10 11  2  0  0  0
 11 29  1  0  0  0
 12 13  1  0  0  0
 12 14  1  0  0  0
 12 15  1  0  0  0
 16 17  1  0  0  0
 16 18  2  0  0  0
 17 30  1  0  0  0
 19 20  2  0  0  0
 19 24  1  0  0  0
 20 21  1  0  0  0
 20 31  1  0  0  0
 21 22  2  0  0  0
 21 32  1  0  0  0
 22 23  1  0  0  0
 22 25  1  0  0  0
 23 24  2  0  0  0
 23 33  1  0  0  0
 24 34  1  0  0  0
M  END
> <s_m_entry_id>
5436

> <s_m_entry_name>
dock_pv.427

> <s_m_Source_Path>
/home/csk/Desktop/cluster/DUD-E-result/pgh1

> <s_m_Source_File>
dock_pv.maegz

> <i_m_Source_File_Index>
427

> <chembl_id>
CHEMBL1669032

> <chembl_pref_name>
None

> <i_lp_mmshare_version>
53161

> <r_lp_tautomer_probability>
1

> <s_lp_Force_Field>
OPLS_2005

> <r_lp_Energy>
19.193271

> <b_lp_Chiralities_Consistent>
1

> <s_lp_Variant>
CHEMBL221_lig853-1

> <s_i_glide_gridfile>
glide-grid_2oyu

> <i_i_glide_lignum>
1049

> <i_i_glide_rotatable_bonds>
4

> <r_i_docking_score>
-7.63270605221565

> <r_i_glide_ligand_efficiency>
-0.305308242088626

> <r_i_glide_ligand_efficiency_sa>
-0.892726714531872

> <r_i_glide_ligand_efficiency_ln>
-1.80918006811781

> <r_i_glide_gscore>
-7.63270605221565

> <r_i_glide_lipo>
-3.7852674425807

> <r_i_glide_hbond>
0

> <r_i_glide_metal>
0

> <r_i_glide_rewards>
-3.25520656689236

> <r_i_glide_evdw>
-17.6424980163574

> <r_i_glide_ecoul>
0.0783862471580505

> <r_i_glide_erotb>
0.278134921001569

> <r_i_glide_esite>
0

> <r_i_glide_emodel>
-28.8736828338892

> <r_i_glide_energy>
-17.5641117691994

> <r_i_glide_einternal>
4.95788097381592

> <i_i_glide_confnum>
1

> <i_i_glide_posenum>
81

> <r_i_glide_eff_state_penalty>
0

> <s_user_duplicate_titles>
CHEMBL221_lig853

> <i_f3d_flags>
0

> <s_m_subgroup_title>
dock_pv

> <s_m_subgroupid>
dock_pv

> <b_m_subgroup_collapsed>
1

$$$$
CHEMBL221_lig924
                    3D
 Schrodinger Suite 2021-1.
 34 35  0  0  1  0            999 V2000
   24.5764   53.5850   13.0002 C   0  0  0  0  0  0
   19.0009   47.0021   15.0920 C   0  0  0  0  0  0
   23.8144   52.6597   12.0144 C   0  0  2  0  0  0
   19.4819   47.9773   14.0093 C   0  0  2  0  0  0
   22.7923   51.6885   12.6808 C   0  0  0  0  0  0
   20.0999   49.0957   14.6388 O   0  0  0  0  0  0
   25.7229   53.3996   13.3998 O   0  0  0  0  0  0
   19.7229   46.2971   15.7990 O   0  0  0  0  0  0
   22.3536   51.8816   14.0025 C   0  0  0  0  0  0
   22.2098   50.6235   11.9652 C   0  0  0  0  0  0
   20.9257   49.9333   13.9162 C   0  0  0  0  0  0
   23.7972   54.6281   13.4001 O   0  0  0  0  0  0
   21.2941   49.7613   12.5741 C   0  0  0  0  0  0
   21.4416   51.0233   14.6061 C   0  0  0  0  0  0
   17.4721   47.0171   15.1319 C   0  0  0  0  0  0
   17.0629   48.1911   14.2496 C   0  0  0  0  0  0
   18.2105   48.4196   13.2801 C   0  0  0  0  0  0
   24.7940   52.0064   11.0098 C   0  0  0  0  0  0
   22.5106   50.4045   10.6666 F   0  0  0  0  0  0
   23.2143   53.3307   11.4128 H   0  0  0  0  0  0
   20.1995   47.4717   13.3633 H   0  0  0  0  0  0
   22.7160   52.7017   14.6006 H   0  0  0  0  0  0
   24.2492   55.2046   14.0218 H   0  0  0  0  0  0
   20.8928   48.9522   11.9852 H   0  0  0  0  0  0
   21.1509   51.1907   15.6329 H   0  0  0  0  0  0
   17.0858   46.0707   14.7569 H   0  0  0  0  0  0
   17.1125   47.1434   16.1532 H   0  0  0  0  0  0
   16.1236   48.0048   13.7248 H   0  0  0  0  0  0
   16.9232   49.0724   14.8761 H   0  0  0  0  0  0
   18.2572   49.4718   12.9976 H   0  0  0  0  0  0
   18.0773   47.8387   12.3661 H   0  0  0  0  0  0
   25.1943   51.0736   11.3997 H   0  0  0  0  0  0
   24.3104   51.7725   10.0628 H   0  0  0  0  0  0
   25.6282   52.6686   10.7572 H   0  0  0  0  0  0
  1  3  1  0  0  0
  1  7  2  0  0  0
  1 12  1  0  0  0
  2  4  1  0  0  0
  2  8  2  0  0  0
  2 15  1  0  0  0
  3  5  1  0  0  0
  3 18  1  0  0  0
  3 20  1  0  0  0
  4  6  1  0  0  0
  4 17  1  0  0  0
  4 21  1  0  0  0
  5  9  2  0  0  0
  5 10  1  0  0  0
  6 11  1  0  0  0
  9 14  1  0  0  0
  9 22  1  0  0  0
 10 13  2  0  0  0
 10 19  1  0  0  0
 11 13  1  0  0  0
 11 14  2  0  0  0
 12 23  1  0  0  0
 13 24  1  0  0  0
 14 25  1  0  0  0
 15 16  1  0  0  0
 15 26  1  0  0  0
 15 27  1  0  0  0
 16 17  1  0  0  0
 16 28  1  0  0  0
 16 29  1  0  0  0
 17 30  1  0  0  0
 17 31  1  0  0  0
 18 32  1  0  0  0
 18 33  1  0  0  0
 18 34  1  0  0  0
M  END
> <s_m_entry_id>
5437

> <s_m_entry_name>
dock_pv.428

> <s_m_Source_Path>
/home/csk/Desktop/cluster/DUD-E-result/pgh1

> <s_m_Source_File>
dock_pv.maegz

> <i_m_Source_File_Index>
428

> <chembl_id>
CHEMBL2063732

> <chembl_pref_name>
None

> <i_lp_mmshare_version>
53161

> <r_lp_tautomer_probability>
0.99999998

> <s_lp_Force_Field>
OPLS_2005

> <r_lp_Energy>
22.284523

> <b_lp_Chiralities_Consistent>
1

> <s_lp_Variant>
CHEMBL221_lig924-1

> <s_i_glide_gridfile>
glide-grid_2oyu

> <i_i_glide_lignum>
1140

> <i_i_glide_rotatable_bonds>
5

> <r_i_docking_score>
-7.63127698993786

> <r_i_glide_ligand_efficiency>
-0.401646157365151

> <r_i_glide_ligand_efficiency_sa>
-1.0717532674641

> <r_i_glide_ligand_efficiency_ln>
-1.93469262175037

> <r_i_glide_gscore>
-7.63127698993786

> <r_i_glide_lipo>
-3.40877397229161

> <r_i_glide_hbond>
-0.0572575156559995

> <r_i_glide_metal>
0

> <r_i_glide_rewards>
-3.04571517182802

> <r_i_glide_evdw>
-28.0401973724365

> <r_i_glide_ecoul>
-4.81604385375977

> <r_i_glide_erotb>
1.00488611652356

> <r_i_glide_esite>
0

> <r_i_glide_emodel>
-43.1759310939877

> <r_i_glide_energy>
-32.8562412261963

> <r_i_glide_einternal>
8.21980857849121

> <i_i_glide_confnum>
106

> <i_i_glide_posenum>
127

> <r_i_glide_eff_state_penalty>
0

> <s_user_duplicate_titles>
CHEMBL221_lig924

> <i_f3d_flags>
0

> <s_m_subgroup_title>
dock_pv

> <s_m_subgroupid>
dock_pv

> <b_m_subgroup_collapsed>
1

$$$$
CHEMBL221_lig401
                    3D
 Schrodinger Suite 2021-1.
 37 40  0  0  1  0            999 V2000
   22.1407   50.9554   12.5635 N   0  0  0  0  0  0
   22.4280   51.5241   13.7778 C   0  0  0  0  0  0
   20.5786   49.8555   13.8352 C   0  0  0  0  0  0
   21.0503   50.0888   12.5369 C   0  0  0  0  0  0
   21.3230   50.9697   15.0000 S   0  0  0  0  0  0
   19.3022   48.1355    7.0779 S   0  0  0  0  0  0
   23.4445   52.3466   13.7068 N   0  0  0  0  0  0
   23.8799   52.3148   12.3912 N   0  0  0  0  0  0
   23.1064   51.4941   11.7246 C   0  0  0  0  0  0
   20.5549   49.5838   11.2230 C   0  0  0  0  0  0
   19.7861   48.6949    8.6941 C   0  0  0  0  0  0
   19.5010   48.9414   14.3504 C   0  0  0  0  0  0
   18.3330   47.0730    7.3488 O   0  0  0  0  0  0
   20.5230   47.8730    6.3632 O   0  0  0  0  0  0
   20.1230   50.0301    8.8857 C   0  0  0  0  0  0
   19.7230   47.8328    9.7850 C   0  0  0  0  0  0
   20.5137   50.4670   10.1425 C   0  0  0  0  0  0
   20.1156   48.2730   11.0472 C   0  0  0  0  0  0
   18.6351   49.4730    5.9450 C   0  0  0  0  0  0
   18.3693   48.6730   13.5767 C   0  0  0  0  0  0
   19.5638   48.4150   15.6453 C   0  0  0  0  0  0
   18.4965   47.6854   16.1639 C   0  0  0  0  0  0
   17.3122   47.9276   14.0818 C   0  0  0  0  0  0
   17.3736   47.4452   15.3813 C   0  0  0  0  0  0
   23.1946   51.2429   10.6784 H   0  0  0  0  0  0
   20.1219   50.7273    8.0599 H   0  0  0  0  0  0
   19.4162   46.8086    9.6457 H   0  0  0  0  0  0
   20.7956   51.4994   10.2652 H   0  0  0  0  0  0
   20.1230   47.5729   11.8692 H   0  0  0  0  0  0
   18.5399   49.0350    4.9540 H   0  0  0  0  0  0
   19.3664   50.2730    5.8881 H   0  0  0  0  0  0
   17.6798   49.8730    6.2000 H   0  0  0  0  0  0
   18.2672   49.1051   12.6000 H   0  0  0  0  0  0
   20.4212   48.6101   16.2714 H   0  0  0  0  0  0
   18.5230   47.3192   17.1781 H   0  0  0  0  0  0
   16.4320   47.7637   13.4772 H   0  0  0  0  0  0
   16.5402   46.8894   15.7858 H   0  0  0  0  0  0
  1  2  1  0  0  0
  1  4  1  0  0  0
  1  9  1  0  0  0
  2  5  1  0  0  0
  2  7  2  0  0  0
  3  4  2  0  0  0
  3 12  1  0  0  0
  3  5  1  0  0  0
  4 10  1  0  0  0
  6 11  1  0  0  0
  6 13  2  0  0  0
  6 14  2  0  0  0
  6 19  1  0  0  0
  7  8  1  0  0  0
  8  9  2  0  0  0
  9 25  1  0  0  0
 10 17  1  0  0  0
 10 18  2  0  0  0
 11 16  2  0  0  0
 11 15  1  0  0  0
 12 20  2  0  0  0
 12 21  1  0  0  0
 15 17  2  0  0  0
 15 26  1  0  0  0
 16 18  1  0  0  0
 16 27  1  0  0  0
 17 28  1  0  0  0
 18 29  1  0  0  0
 19 30  1  0  0  0
 19 31  1  0  0  0
 19 32  1  0  0  0
 20 23  1  0  0  0
 20 33  1  0  0  0
 21 22  2  0  0  0
 21 34  1  0  0  0
 22 24  1  0  0  0
 22 35  1  0  0  0
 23 24  2  0  0  0
 23 36  1  0  0  0
 24 37  1  0  0  0
M  END
> <s_m_entry_id>
5438

> <s_m_entry_name>
dock_pv.429

> <s_m_Source_Path>
/home/csk/Desktop/cluster/DUD-E-result/pgh1

> <s_m_Source_File>
dock_pv.maegz

> <i_m_Source_File_Index>
429

> <chembl_id>
CHEMBL157623

> <chembl_pref_name>
None

> <i_lp_mmshare_version>
53161

> <r_lp_tautomer_probability>
1

> <s_lp_Force_Field>
OPLS_2005

> <r_lp_Energy>
25.972489

> <b_lp_Chiralities_Consistent>
1

> <s_lp_Variant>
CHEMBL221_lig401-1

> <s_i_glide_gridfile>
glide-grid_2oyu

> <i_i_glide_lignum>
469

> <i_i_glide_rotatable_bonds>
3

> <r_i_docking_score>
-7.61674433559822

> <r_i_glide_ligand_efficiency>
-0.317364347316592

> <r_i_glide_ligand_efficiency_sa>
-0.915437186126723

> <r_i_glide_ligand_efficiency_ln>
-1.82303642913186

> <r_i_glide_gscore>
-7.61674433559822

> <r_i_glide_lipo>
-3.81827738899935

> <r_i_glide_hbond>
0

> <r_i_glide_metal>
0

> <r_i_glide_rewards>
-3.32518718120237

> <r_i_glide_evdw>
-9.94461345672607

> <r_i_glide_ecoul>
-1.66729593276978

> <r_i_glide_erotb>
0.302696407901243

> <r_i_glide_esite>
-0.0286511105459588

> <r_i_glide_emodel>
-21.7577408709262

> <r_i_glide_energy>
-11.6119093894958

> <r_i_glide_einternal>
3.0557062625885

> <i_i_glide_confnum>
13

> <i_i_glide_posenum>
257

> <r_i_glide_eff_state_penalty>
0

> <s_user_duplicate_titles>
CHEMBL221_lig401

> <i_f3d_flags>
0

> <s_m_subgroup_title>
dock_pv

> <s_m_subgroupid>
dock_pv

> <b_m_subgroup_collapsed>
1

$$$$
CHEMBL221_lig655
                    3D
 Schrodinger Suite 2021-1.
 31 32  0  0  1  0            999 V2000
   21.2093   50.5168   13.9358 C   0  0  0  0  0  0
   19.7803   48.9255   12.7928 C   0  0  0  0  0  0
   17.7218   47.8789   13.9105 C   0  0  0  0  0  0
   21.6768   51.0003   12.7086 C   0  0  0  0  0  0
   20.2955   49.4723   13.9755 C   0  0  0  0  0  0
   18.8068   47.7446   12.8187 C   0  0  2  0  0  0
   21.1989   50.4293   11.5238 C   0  0  0  0  0  0
   20.2511   49.4072   11.5659 C   0  0  0  0  0  0
   16.5244   48.2730   13.4001 O   0  0  0  0  0  0
   17.9218   47.6432   15.1016 O   0  0  0  0  0  0
   22.6914   52.0723   12.6914 C   0  0  0  0  0  0
   21.6305   51.0615   15.1031 F   0  0  0  0  0  0
   19.5949   46.4424   13.0000 C   0  0  0  0  0  0
   23.9124   51.8797   12.0434 C   0  0  0  0  0  0
   22.4626   53.2531   13.4020 C   0  0  0  0  0  0
   23.4722   54.1924   13.5387 C   0  0  0  0  0  0
   24.9251   52.8170   12.2012 C   0  0  0  0  0  0
   24.7250   53.9389   12.9999 C   0  0  0  0  0  0
   19.9831   49.1070   14.9422 H   0  0  0  0  0  0
   18.3114   47.6872   11.8493 H   0  0  0  0  0  0
   21.5559   50.7851   10.5675 H   0  0  0  0  0  0
   19.8971   48.9811   10.6380 H   0  0  0  0  0  0
   16.4925   48.3887   12.4480 H   0  0  0  0  0  0
   20.1237   46.4818   13.9508 H   0  0  0  0  0  0
   18.9421   45.5683   13.0128 H   0  0  0  0  0  0
   20.3247   46.3022   12.2010 H   0  0  0  0  0  0
   24.1007   50.9823   11.4714 H   0  0  0  0  0  0
   21.5162   53.4228   13.8951 H   0  0  0  0  0  0
   23.3073   55.0725   14.1387 H   0  0  0  0  0  0
   25.8837   52.6727   11.7255 H   0  0  0  0  0  0
   25.5216   54.6554   13.1383 H   0  0  0  0  0  0
  1  4  1  0  0  0
  1  5  2  0  0  0
  1 12  1  0  0  0
  2  5  1  0  0  0
  2  6  1  0  0  0
  2  8  2  0  0  0
  3  6  1  0  0  0
  3  9  1  0  0  0
  3 10  2  0  0  0
  4  7  2  0  0  0
  4 11  1  0  0  0
  5 19  1  0  0  0
  6 13  1  0  0  0
  6 20  1  0  0  0
  7  8  1  0  0  0
  7 21  1  0  0  0
  8 22  1  0  0  0
  9 23  1  0  0  0
 11 14  2  0  0  0
 11 15  1  0  0  0
 13 24  1  0  0  0
 13 25  1  0  0  0
 13 26  1  0  0  0
 14 17  1  0  0  0
 14 27  1  0  0  0
 15 16  2  0  0  0
 15 28  1  0  0  0
 16 18  1  0  0  0
 16 29  1  0  0  0
 17 18  2  0  0  0
 17 30  1  0  0  0
 18 31  1  0  0  0
M  END
> <s_m_entry_id>
5439

> <s_m_entry_name>
dock_pv.430

> <s_m_Source_Path>
/home/csk/Desktop/cluster/DUD-E-result/pgh1

> <s_m_Source_File>
dock_pv.maegz

> <i_m_Source_File_Index>
430

> <chembl_id>
CHEMBL563

> <chembl_pref_name>
FLURBIPROFEN

> <i_lp_mmshare_version>
53161

> <r_lp_tautomer_probability>
1

> <s_lp_Force_Field>
OPLS_2005

> <r_lp_Energy>
16.535984

> <b_lp_Chiralities_Consistent>
1

> <s_lp_Variant>
CHEMBL221_lig655-2

> <s_i_glide_gridfile>
glide-grid_2oyu

> <i_i_glide_lignum>
796

> <i_i_glide_rotatable_bonds>
4

> <r_i_docking_score>
-7.61603280966053

> <r_i_glide_ligand_efficiency>
-0.423112933870029

> <r_i_glide_ligand_efficiency_sa>
-1.10886957915001

> <r_i_glide_ligand_efficiency_ln>
-1.9576619623054

> <r_i_glide_gscore>
-7.61603280966053

> <r_i_glide_lipo>
-3.5505180036919

> <r_i_glide_hbond>
0

> <r_i_glide_metal>
0

> <r_i_glide_rewards>
-3.23164258262366

> <r_i_glide_evdw>
-26.5517616271973

> <r_i_glide_ecoul>
-2.53568625450134

> <r_i_glide_erotb>
0.874068796190095

> <r_i_glide_esite>
0

> <r_i_glide_emodel>
-39.0440073361058

> <r_i_glide_energy>
-29.0874478816986

> <r_i_glide_einternal>
1.7261301279068

> <i_i_glide_confnum>
18

> <i_i_glide_posenum>
276

> <r_i_glide_eff_state_penalty>
0

> <s_user_duplicate_titles>
CHEMBL221_lig655

> <i_f3d_flags>
0

> <s_m_subgroup_title>
dock_pv

> <s_m_subgroupid>
dock_pv

> <b_m_subgroup_collapsed>
1

$$$$
CHEMBL221_lig814
                    3D
 Schrodinger Suite 2021-1.
 24 25  0  0  1  0            999 V2000
   20.0816   48.7750   11.2052 C   0  0  0  0  0  0
   19.7478   48.6015   12.5569 C   0  0  0  0  0  0
   20.4316   49.3260   13.5435 C   0  0  0  0  0  0
   21.0946   49.6543   10.8421 C   0  0  0  0  0  0
   21.8083   50.3340   11.8211 C   0  0  0  0  0  0
   21.4444   50.2095   13.1635 C   0  0  0  0  0  0
   22.1269   50.8808   14.1636 O   0  0  0  0  0  0
   22.9230   52.0446   13.8070 C   0  0  1  0  0  0
   23.5550   51.9291   12.3989 C   0  0  0  0  0  0
   22.9593   51.1484   11.4798 C   0  0  0  0  0  0
   24.7723   52.6730   12.1326 C   0  0  0  0  0  0
   25.4339   52.2730   11.0000 O   0  0  0  0  0  0
   25.2145   53.5389   12.8835 O   0  0  0  0  0  0
   22.0388   53.3032   13.9649 C   0  0  0  0  0  0
   21.7230   53.6035   15.2168 F   0  0  0  0  0  0
   22.5230   54.4079   13.4000 F   0  0  0  0  0  0
   20.8895   53.0338   13.4000 F   0  0  0  0  0  0
   19.3230   47.8730    9.9449 Cl  0  0  0  0  0  0
   18.5228   47.4730   13.0133 Cl  0  0  0  0  0  0
   20.0835   49.0885   15.2268 Cl  0  0  0  0  0  0
   21.3540   49.7563    9.8000 H   0  0  0  0  0  0
   23.7210   52.0933   14.5491 H   0  0  0  0  0  0
   23.3596   51.0591   10.4804 H   0  0  0  0  0  0
   25.1908   51.4077   10.6644 H   0  0  0  0  0  0
  1  2  2  0  0  0
  1  4  1  0  0  0
  1 18  1  0  0  0
  2  3  1  0  0  0
  2 19  1  0  0  0
  3  6  2  0  0  0
  3 20  1  0  0  0
  4  5  2  0  0  0
  4 21  1  0  0  0
  5  6  1  0  0  0
  5 10  1  0  0  0
  6  7  1  0  0  0
  7  8  1  0  0  0
  8  9  1  0  0  0
  8 14  1  0  0  0
  8 22  1  0  0  0
  9 10  2  0  0  0
  9 11  1  0  0  0
 10 23  1  0  0  0
 11 12  1  0  0  0
 11 13  2  0  0  0
 12 24  1  0  0  0
 14 15  1  0  0  0
 14 16  1  0  0  0
 14 17  1  0  0  0
M  END
> <s_m_entry_id>
5440

> <s_m_entry_name>
dock_pv.431

> <s_m_Source_Path>
/home/csk/Desktop/cluster/DUD-E-result/pgh1

> <s_m_Source_File>
dock_pv.maegz

> <i_m_Source_File_Index>
431

> <chembl_id>
CHEMBL1288617

> <chembl_pref_name>
None

> <i_lp_mmshare_version>
53161

> <r_lp_tautomer_probability>
1

> <s_lp_Force_Field>
OPLS_2005

> <r_lp_Energy>
14.714333

> <b_lp_Chiralities_Consistent>
1

> <s_lp_Variant>
CHEMBL221_lig814-2

> <s_i_glide_gridfile>
glide-grid_2oyu

> <i_i_glide_lignum>
983

> <i_i_glide_rotatable_bonds>
3

> <r_i_docking_score>
-7.61463587805337

> <r_i_glide_ligand_efficiency>
-0.380731793902669

> <r_i_glide_ligand_efficiency_sa>
-1.03346508753519

> <r_i_glide_ligand_efficiency_ln>
-1.90569221277695

> <r_i_glide_gscore>
-7.61463587805337

> <r_i_glide_lipo>
-3.61970600713385

> <r_i_glide_hbond>
0

> <r_i_glide_metal>
0

> <r_i_glide_rewards>
-2.34756761388925

> <r_i_glide_evdw>
-26.6795883178711

> <r_i_glide_ecoul>
-2.89732551574707

> <r_i_glide_erotb>
0.157549157227256

> <r_i_glide_esite>
-0.0363331710019117

> <r_i_glide_emodel>
-39.632183068543

> <r_i_glide_energy>
-29.5769138336182

> <r_i_glide_einternal>
2.17366623878479

> <i_i_glide_confnum>
1

> <i_i_glide_posenum>
334

> <r_i_glide_eff_state_penalty>
0

> <s_user_duplicate_titles>
CHEMBL221_lig814

> <i_f3d_flags>
0

> <s_m_subgroup_title>
dock_pv

> <s_m_subgroupid>
dock_pv

> <b_m_subgroup_collapsed>
1

$$$$
CHEMBL221_lig923
                    3D
 Schrodinger Suite 2021-1.
 37 38  0  0  1  0            999 V2000
   18.9232   46.8039   13.8132 C   0  0  0  0  0  0
   24.7149   53.1329   12.4721 C   0  0  0  0  0  0
   18.4643   48.0006   12.9834 C   0  0  2  0  0  0
   23.5716   52.3100   13.0818 C   0  0  2  0  0  0
   19.6712   48.9209   12.7532 C   0  0  0  0  0  0
   23.0992   51.2992   12.1304 N   0  0  0  0  0  0
   19.0147   46.7915   15.0398 O   0  0  0  0  0  0
   20.3463   49.4763   13.8459 C   0  0  0  0  0  0
   20.1727   49.1525   11.4632 C   0  0  0  0  0  0
   21.9592   50.5164   12.3674 C   0  0  0  0  0  0
   19.3230   45.7977   13.0000 O   0  0  0  0  0  0
   21.3074   49.9425   11.2762 C   0  0  0  0  0  0
   21.4697   50.2730   13.6527 C   0  0  0  0  0  0
   24.7233   54.4438   13.2433 C   0  0  0  0  0  0
   23.2629   54.7019   13.6168 C   0  0  0  0  0  0
   22.5140   53.3788   13.4586 C   0  0  2  0  0  0
   17.2412   48.6729   13.6280 C   0  0  0  0  0  0
   19.5882   48.5851   10.3839 F   0  0  0  0  0  0
   21.7230   53.1343   14.6000 O   0  0  0  0  0  0
   25.6956   52.6730   12.5485 H   0  0  0  0  0  0
   24.5229   53.3112   11.4145 H   0  0  0  0  0  0
   18.1231   47.6303   12.0160 H   0  0  0  0  0  0
   23.9388   51.8295   13.9901 H   0  0  0  0  0  0
   23.4049   51.3994   11.1736 H   0  0  0  0  0  0
   19.9991   49.2995   14.8538 H   0  0  0  0  0  0
   18.9712   45.7964   12.0922 H   0  0  0  0  0  0
   21.6757   50.1022   10.2740 H   0  0  0  0  0  0
   21.9705   50.6730   14.5190 H   0  0  0  0  0  0
   25.1607   55.2568   12.6624 H   0  0  0  0  0  0
   25.3232   54.3372   14.1480 H   0  0  0  0  0  0
   22.8040   55.4729   13.0002 H   0  0  0  0  0  0
   23.2322   55.0732   14.6377 H   0  0  0  0  0  0
   21.8497   53.5098   12.6105 H   0  0  0  0  0  0
   17.4676   49.0730   14.6175 H   0  0  0  0  0  0
   16.8548   49.4730   13.0000 H   0  0  0  0  0  0
   16.4228   47.9619   13.7511 H   0  0  0  0  0  0
   22.2199   53.4731   15.3543 H   0  0  0  0  0  0
  1  3  1  0  0  0
  1  7  2  0  0  0
  1 11  1  0  0  0
  2 14  1  0  0  0
  2  4  1  0  0  0
  2 20  1  0  0  0
  2 21  1  0  0  0
  3  5  1  0  0  0
  3 17  1  0  0  0
  3 22  1  0  0  0
  4  6  1  0  0  0
  4 16  1  0  0  0
  4 23  1  0  0  0
  5  8  2  0  0  0
  5  9  1  0  0  0
  6 10  1  0  0  0
  6 24  1  0  0  0
  8 13  1  0  0  0
  8 25  1  0  0  0
  9 12  2  0  0  0
  9 18  1  0  0  0
 10 12  1  0  0  0
 10 13  2  0  0  0
 11 26  1  0  0  0
 12 27  1  0  0  0
 13 28  1  0  0  0
 14 15  1  0  0  0
 14 29  1  0  0  0
 14 30  1  0  0  0
 15 16  1  0  0  0
 15 31  1  0  0  0
 15 32  1  0  0  0
 16 19  1  0  0  0
 16 33  1  0  0  0
 17 34  1  0  0  0
 17 35  1  0  0  0
 17 36  1  0  0  0
 19 37  1  0  0  0
M  END
> <s_m_entry_id>
5441

> <s_m_entry_name>
dock_pv.432

> <s_m_Source_Path>
/home/csk/Desktop/cluster/DUD-E-result/pgh1

> <s_m_Source_File>
dock_pv.maegz

> <i_m_Source_File_Index>
432

> <chembl_id>
CHEMBL2063728

> <chembl_pref_name>
None

> <i_lp_mmshare_version>
53161

> <r_lp_tautomer_probability>
1

> <s_lp_Force_Field>
OPLS_2005

> <r_lp_Energy>
30.80514

> <b_lp_Chiralities_Consistent>
1

> <s_lp_Variant>
CHEMBL221_lig923-1

> <s_i_glide_gridfile>
glide-grid_2oyu

> <i_i_glide_lignum>
1138

> <i_i_glide_rotatable_bonds>
6

> <r_i_docking_score>
-7.60946497939618

> <r_i_glide_ligand_efficiency>
-0.400498156810325

> <r_i_glide_ligand_efficiency_sa>
-1.06868994089387

> <r_i_glide_ligand_efficiency_ln>
-1.92916280859902

> <r_i_glide_gscore>
-7.60946497939618

> <r_i_glide_lipo>
-3.09066154743446

> <r_i_glide_hbond>
-0.267517148865698

> <r_i_glide_metal>
0

> <r_i_glide_rewards>
-2.63733339325968

> <r_i_glide_evdw>
-17.6722526550293

> <r_i_glide_ecoul>
-11.4962043762207

> <r_i_glide_erotb>
0.998199510755573

> <r_i_glide_esite>
-0.00410911140734828

> <r_i_glide_emodel>
-39.6256300535434

> <r_i_glide_energy>
-29.16845703125

> <r_i_glide_einternal>
4.83446979522705

> <i_i_glide_confnum>
60

> <i_i_glide_posenum>
34

> <r_i_glide_eff_state_penalty>
0

> <s_user_duplicate_titles>
CHEMBL221_lig923

> <i_f3d_flags>
0

> <s_m_subgroup_title>
dock_pv

> <s_m_subgroupid>
dock_pv

> <b_m_subgroup_collapsed>
1

$$$$
CHEMBL221_lig470
                    3D
 Schrodinger Suite 2021-1.
 53 55  0  0  1  0            999 V2000
   20.5355   49.4495   12.9134 N   0  0  0  0  0  0
   20.1232   49.0728   14.1459 N   0  0  0  0  0  0
   19.7987   48.8221   11.9201 C   0  0  0  0  0  0
   18.8924   48.0432   12.6178 C   0  0  0  0  0  0
   19.1088   48.2508   13.9783 C   0  0  0  0  0  0
   20.0579   49.1716    5.8578 S   0  0  0  0  0  0
   17.9835   42.5031   13.7999 N   0  3  0  0  0  0
   21.6164   50.3626   12.7890 C   0  0  0  0  0  0
   19.9899   49.0859    7.6434 C   0  0  0  0  0  0
   19.9174   48.9601   10.4371 C   0  0  0  0  0  0
   18.3331   47.6703   15.0752 C   0  0  0  0  0  0
   18.9232   42.9147   13.1616 O   0  5  0  0  0  0
   17.7048   41.3770   14.1328 O   0  0  0  0  0  0
   20.9229   50.2727    5.4415 O   0  0  0  0  0  0
   20.3125   47.8522    5.3229 O   0  0  0  0  0  0
   18.7972   47.5275   16.2000 O   0  0  0  0  0  0
   19.7239   47.8732    8.2723 C   0  0  0  0  0  0
   20.1230   50.2459    8.4123 C   0  0  0  0  0  0
   20.1231   50.1856    9.8039 C   0  0  0  0  0  0
   19.7218   47.8160    9.6605 C   0  0  0  0  0  0
   17.0133   43.4714   14.1999 O   0  0  0  0  0  0
   22.5855   50.1700   11.7998 C   0  0  0  0  0  0
   21.7239   51.4610   13.6516 C   0  0  0  0  0  0
   18.3115   49.4729    5.4000 C   0  0  0  0  0  0
   23.7447   52.1713   12.5133 C   0  0  0  0  0  0
   22.7810   52.3578   13.5145 C   0  0  0  0  0  0
   23.6345   51.0748   11.6601 C   0  0  0  0  0  0
   24.8252   53.0059   12.3005 O   0  0  0  0  0  0
   16.8790   47.2427   14.8186 C   0  0  0  0  0  0
   17.6118   44.6735   14.6989 C   0  0  0  0  0  0
   25.0781   54.0723   13.2096 C   0  0  0  0  0  0
   16.5085   45.7386   15.0000 C   0  0  0  0  0  0
   18.1268   47.4260   12.1739 H   0  0  0  0  0  0
   19.5704   46.9810    7.6902 H   0  0  0  0  0  0
   20.2477   51.2000    7.9194 H   0  0  0  0  0  0
   20.2360   51.0919   10.3801 H   0  0  0  0  0  0
   19.5663   46.8668   10.1410 H   0  0  0  0  0  0
   22.5232   49.3243   11.1313 H   0  0  0  0  0  0
   20.9888   51.6314   14.4261 H   0  0  0  0  0  0
   18.2850   49.4348    4.3168 H   0  0  0  0  0  0
   17.7208   48.6575    5.8000 H   0  0  0  0  0  0
   17.9928   50.4246    5.8001 H   0  0  0  0  0  0
   22.8363   53.1943   14.1940 H   0  0  0  0  0  0
   24.3769   50.9219   10.8899 H   0  0  0  0  0  0
   16.5797   47.5768   13.8254 H   0  0  0  0  0  0
   16.2655   47.8371   15.4945 H   0  0  0  0  0  0
   18.1231   44.4025   15.5999 H   0  0  0  0  0  0
   18.4072   45.0683   14.0619 H   0  0  0  0  0  0
   25.9373   54.6468   12.8628 H   0  0  0  0  0  0
   24.2352   54.7610   13.2857 H   0  0  0  0  0  0
   25.3225   53.6893   14.2000 H   0  0  0  0  0  0
   15.7230   45.5665   14.2629 H   0  0  0  0  0  0
   15.9193   45.5511   15.8863 H   0  0  0  0  0  0
  1  2  1  0  0  0
  1  3  1  0  0  0
  1  8  1  0  0  0
  2  5  2  0  0  0
  3  4  2  0  0  0
  3 10  1  0  0  0
  4  5  1  0  0  0
  4 33  1  0  0  0
  5 11  1  0  0  0
  6  9  1  0  0  0
  6 14  2  0  0  0
  6 15  2  0  0  0
  6 24  1  0  0  0
  7 21  1  0  0  0
  7 12  1  0  0  0
  7 13  2  0  0  0
  8 22  1  0  0  0
  8 23  2  0  0  0
  9 17  2  0  0  0
  9 18  1  0  0  0
 10 19  1  0  0  0
 10 20  2  0  0  0
 11 16  2  0  0  0
 11 29  1  0  0  0
 17 20  1  0  0  0
 17 34  1  0  0  0
 18 19  2  0  0  0
 18 35  1  0  0  0
 19 36  1  0  0  0
 20 37  1  0  0  0
 21 30  1  0  0  0
 22 27  2  0  0  0
 22 38  1  0  0  0
 23 26  1  0  0  0
 23 39  1  0  0  0
 24 40  1  0  0  0
 24 41  1  0  0  0
 24 42  1  0  0  0
 25 26  2  0  0  0
 25 28  1  0  0  0
 25 27  1  0  0  0
 26 43  1  0  0  0
 27 44  1  0  0  0
 28 31  1  0  0  0
 29 32  1  0  0  0
 29 45  1  0  0  0
 29 46  1  0  0  0
 30 32  1  0  0  0
 30 47  1  0  0  0
 30 48  1  0  0  0
 31 49  1  0  0  0
 31 50  1  0  0  0
 31 51  1  0  0  0
 32 52  1  0  0  0
 32 53  1  0  0  0
M  CHG  2   7   1  12  -1
M  END
> <s_m_entry_id>
5442

> <s_m_entry_name>
dock_pv.433

> <s_m_Source_Path>
/home/csk/Desktop/cluster/DUD-E-result/pgh1

> <s_m_Source_File>
dock_pv.maegz

> <i_m_Source_File_Index>
433

> <chembl_id>
CHEMBL67581

> <chembl_pref_name>
None

> <i_lp_mmshare_version>
53161

> <r_lp_tautomer_probability>
0.99990000499975

> <s_lp_Force_Field>
OPLS_2005

> <r_lp_Energy>
20.261822

> <b_lp_Chiralities_Consistent>
1

> <s_lp_Variant>
CHEMBL221_lig470-1

> <s_i_glide_gridfile>
glide-grid_2oyu

> <i_i_glide_lignum>
585

> <i_i_glide_rotatable_bonds>
10

> <r_i_docking_score>
-7.60644744426106

> <r_i_glide_ligand_efficiency>
-0.237701482633158

> <r_i_glide_ligand_efficiency_sa>
-0.75465516630074

> <r_i_glide_ligand_efficiency_ln>
-1.70329092669638

> <r_i_glide_gscore>
-7.60644744426106

> <r_i_glide_lipo>
-4.61650753249832

> <r_i_glide_hbond>
0

> <r_i_glide_metal>
0

> <r_i_glide_rewards>
-1.65652550262593

> <r_i_glide_evdw>
-23.6826877593994

> <r_i_glide_ecoul>
-5.24048137664795

> <r_i_glide_erotb>
0.667151413643198

> <r_i_glide_esite>
-0.0303592283128444

> <r_i_glide_emodel>
-20.8877001041384

> <r_i_glide_energy>
-28.9231691360474

> <r_i_glide_einternal>
18.2359790802002

> <i_i_glide_confnum>
14

> <i_i_glide_posenum>
158

> <r_i_glide_eff_state_penalty>
0

> <s_user_duplicate_titles>
CHEMBL221_lig470

> <i_f3d_flags>
0

> <s_m_subgroup_title>
dock_pv

> <s_m_subgroupid>
dock_pv

> <b_m_subgroup_collapsed>
1

$$$$
CHEMBL221_lig125
                    3D
 Schrodinger Suite 2021-1.
 39 42  0  0  1  0            999 V2000
   20.0204   48.9239   12.6410 N   0  0  0  0  0  0
   19.7414   48.4448   11.4335 N   0  0  0  0  0  0
   21.4488   49.8741   11.2582 C   0  0  0  0  0  0
   21.0155   49.8843   12.5833 C   0  0  0  0  0  0
   20.4737   49.0980   10.5805 C   0  0  0  0  0  0
   19.1984   48.4921   13.6992 C   0  0  0  0  0  0
   20.1231   48.8984    9.1403 C   0  0  0  0  0  0
   22.5984   50.7571   10.7995 C   0  0  0  0  0  0
   21.5839   50.7833   13.6955 C   0  0  0  0  0  0
   19.6718   48.5193   15.0023 C   0  0  0  0  0  0
   17.9022   48.0098   13.4494 C   0  0  0  0  0  0
   20.1230   49.9825    8.2649 C   0  0  0  0  0  0
   19.6135   47.6728    8.6891 C   0  0  0  0  0  0
   22.8788   51.9002   11.8000 C   0  0  0  0  0  0
   22.9230   51.4020   13.2459 C   0  0  0  0  0  0
   17.0871   47.6170   14.4983 C   0  0  0  0  0  0
   19.1054   47.5600    7.4001 C   0  0  0  0  0  0
   19.7235   49.8329    6.9381 C   0  0  0  0  0  0
   18.8210   48.1852   16.0303 C   0  0  0  0  0  0
   19.2062   48.6229    6.5100 C   0  0  0  0  0  0
   17.5298   47.7446   15.8009 C   0  0  0  0  0  0
   22.3591   51.0730    9.8001 H   0  0  0  0  0  0
   23.5526   50.2713   10.6645 H   0  0  0  0  0  0
   21.7448   50.3020   14.6499 H   0  0  0  0  0  0
   20.8937   51.6025   13.8863 H   0  0  0  0  0  0
   20.6818   48.7698   15.2583 H   0  0  0  0  0  0
   17.5100   47.9155   12.4479 H   0  0  0  0  0  0
   20.4341   50.9579    8.6055 H   0  0  0  0  0  0
   19.5265   46.8348    9.3635 H   0  0  0  0  0  0
   23.8189   52.3922   11.5450 H   0  0  0  0  0  0
   22.1230   52.6730   11.7471 H   0  0  0  0  0  0
   23.1924   52.2195   13.9162 H   0  0  0  0  0  0
   23.7229   50.6714   13.3402 H   0  0  0  0  0  0
   16.1230   47.2069   14.2862 H   0  0  0  0  0  0
   18.5752   46.6731    7.1096 H   0  0  0  0  0  0
   19.7454   50.6730    6.2634 H   0  0  0  0  0  0
   19.2146   48.2731   16.9998 H   0  0  0  0  0  0
   18.8165   48.5389    5.5055 H   0  0  0  0  0  0
   16.8886   47.4731   16.6265 H   0  0  0  0  0  0
  1  2  1  0  0  0
  1  4  1  0  0  0
  1  6  1  0  0  0
  2  5  2  0  0  0
  3  4  2  0  0  0
  3  8  1  0  0  0
  3  5  1  0  0  0
  4  9  1  0  0  0
  5  7  1  0  0  0
  6 10  2  0  0  0
  6 11  1  0  0  0
  7 12  1  0  0  0
  7 13  2  0  0  0
  8 14  1  0  0  0
  8 22  1  0  0  0
  8 23  1  0  0  0
  9 15  1  0  0  0
  9 24  1  0  0  0
  9 25  1  0  0  0
 10 19  1  0  0  0
 10 26  1  0  0  0
 11 16  2  0  0  0
 11 27  1  0  0  0
 12 18  2  0  0  0
 12 28  1  0  0  0
 13 17  1  0  0  0
 13 29  1  0  0  0
 14 15  1  0  0  0
 14 30  1  0  0  0
 14 31  1  0  0  0
 15 32  1  0  0  0
 15 33  1  0  0  0
 16 21  1  0  0  0
 16 34  1  0  0  0
 17 20  2  0  0  0
 17 35  1  0  0  0
 18 20  1  0  0  0
 18 36  1  0  0  0
 19 21  2  0  0  0
 19 37  1  0  0  0
 20 38  1  0  0  0
 21 39  1  0  0  0
M  END
> <s_m_entry_id>
5443

> <s_m_entry_name>
dock_pv.434

> <s_m_Source_Path>
/home/csk/Desktop/cluster/DUD-E-result/pgh1

> <s_m_Source_File>
dock_pv.maegz

> <i_m_Source_File_Index>
434

> <chembl_id>
CHEMBL433892

> <chembl_pref_name>
None

> <i_lp_mmshare_version>
53161

> <r_lp_tautomer_probability>
1

> <s_lp_Force_Field>
OPLS_2005

> <r_lp_Energy>
21.447827

> <b_lp_Chiralities_Consistent>
1

> <s_lp_Variant>
CHEMBL221_lig125-1

> <s_i_glide_gridfile>
glide-grid_2oyu

> <i_i_glide_lignum>
147

> <i_i_glide_rotatable_bonds>
2

> <r_i_docking_score>
-7.60515465916452

> <r_i_glide_ligand_efficiency>
-0.362150221864977

> <r_i_glide_ligand_efficiency_sa>
-0.9991450015711

> <r_i_glide_ligand_efficiency_ln>
-1.88035912181645

> <r_i_glide_gscore>
-7.60515465916452

> <r_i_glide_lipo>
-4.52658805239403

> <r_i_glide_hbond>
0

> <r_i_glide_metal>
0

> <r_i_glide_rewards>
-2.651605514034

> <r_i_glide_evdw>
-20.0406265258789

> <r_i_glide_ecoul>
0.653299868106842

> <r_i_glide_erotb>
0.477075253341435

> <r_i_glide_esite>
0

> <r_i_glide_emodel>
-22.8178769462066

> <r_i_glide_energy>
-19.3873266577721

> <r_i_glide_einternal>
2.38421988487244

> <i_i_glide_confnum>
12

> <i_i_glide_posenum>
80

> <r_i_glide_eff_state_penalty>
0

> <s_user_duplicate_titles>
CHEMBL221_lig125,259887

> <i_f3d_flags>
0

> <s_m_subgroup_title>
dock_pv

> <s_m_subgroupid>
dock_pv

> <b_m_subgroup_collapsed>
1

$$$$
CHEMBL221_lig812
                    3D
 Schrodinger Suite 2021-1.
 24 25  0  0  1  0            999 V2000
   19.5573   47.8024   14.3064 C   0  0  0  0  0  0
   19.4300   47.5607   12.9391 C   0  0  0  0  0  0
   19.9371   48.4688   12.0102 C   0  0  0  0  0  0
   20.1903   48.9585   14.7599 C   0  0  0  0  0  0
   20.7001   49.8730   13.8367 C   0  0  0  0  0  0
   20.5862   49.6200   12.4637 C   0  0  0  0  0  0
   21.0399   50.5283   11.5214 O   0  0  0  0  0  0
   22.0909   51.4473   11.9076 C   0  0  1  0  0  0
   21.9518   51.9186   13.3706 C   0  0  0  0  0  0
   21.3230   51.1239   14.2577 C   0  0  0  0  0  0
   22.4601   53.2277   13.7262 C   0  0  0  0  0  0
   21.7230   53.8502   14.6843 O   0  0  0  0  0  0
   23.4370   53.7585   13.2115 O   0  0  0  0  0  0
   23.4876   50.9081   11.5503 C   0  0  0  0  0  0
   24.4901   51.7422   11.8158 F   0  0  0  0  0  0
   23.7230   49.7757   12.2000 F   0  0  0  0  0  0
   23.5479   50.6730   10.2446 F   0  0  0  0  0  0
   18.9184   46.6730   15.4363 Cl  0  0  0  0  0  0
   19.7230   48.1697   10.3206 Cl  0  0  0  0  0  0
   18.9230   46.6730   12.6000 H   0  0  0  0  0  0
   20.2713   49.1445   15.8215 H   0  0  0  0  0  0
   21.9301   52.2730   11.2327 H   0  0  0  0  0  0
   21.2057   51.4425   15.2855 H   0  0  0  0  0  0
   22.1761   54.6617   14.9290 H   0  0  0  0  0  0
  1  2  2  0  0  0
  1  4  1  0  0  0
  1 18  1  0  0  0
  2  3  1  0  0  0
  2 20  1  0  0  0
  3  6  2  0  0  0
  3 19  1  0  0  0
  4  5  2  0  0  0
  4 21  1  0  0  0
  5  6  1  0  0  0
  5 10  1  0  0  0
  6  7  1  0  0  0
  7  8  1  0  0  0
  8  9  1  0  0  0
  8 14  1  0  0  0
  8 22  1  0  0  0
  9 10  2  0  0  0
  9 11  1  0  0  0
 10 23  1  0  0  0
 11 12  1  0  0  0
 11 13  2  0  0  0
 12 24  1  0  0  0
 14 15  1  0  0  0
 14 16  1  0  0  0
 14 17  1  0  0  0
M  END
> <s_m_entry_id>
5444

> <s_m_entry_name>
dock_pv.435

> <s_m_Source_Path>
/home/csk/Desktop/cluster/DUD-E-result/pgh1

> <s_m_Source_File>
dock_pv.maegz

> <i_m_Source_File_Index>
435

> <chembl_id>
CHEMBL1288555

> <chembl_pref_name>
None

> <i_lp_mmshare_version>
53161

> <r_lp_tautomer_probability>
1

> <s_lp_Force_Field>
OPLS_2005

> <r_lp_Energy>
11.433895

> <b_lp_Chiralities_Consistent>
1

> <s_lp_Variant>
CHEMBL221_lig812-2

> <s_i_glide_gridfile>
glide-grid_2oyu

> <i_i_glide_lignum>
979

> <i_i_glide_rotatable_bonds>
3

> <r_i_docking_score>
-7.60261231130907

> <r_i_glide_ligand_efficiency>
-0.400137490068898

> <r_i_glide_ligand_efficiency_sa>
-1.06772753716736

> <r_i_glide_ligand_efficiency_ln>
-1.92742551005712

> <r_i_glide_gscore>
-7.60261231130907

> <r_i_glide_lipo>
-3.07294664304931

> <r_i_glide_hbond>
0

> <r_i_glide_metal>
0

> <r_i_glide_rewards>
-2.98256279474112

> <r_i_glide_evdw>
-29.11155128479

> <r_i_glide_ecoul>
-1.87328505516052

> <r_i_glide_erotb>
0.189467448994937

> <r_i_glide_esite>
0

> <r_i_glide_emodel>
-43.3923825875314

> <r_i_glide_energy>
-30.9848363399506

> <r_i_glide_einternal>
2.36622095108032

> <i_i_glide_confnum>
1

> <i_i_glide_posenum>
89

> <r_i_glide_eff_state_penalty>
0

> <s_user_duplicate_titles>
CHEMBL221_lig812,CHEMBL221_lig837

> <i_f3d_flags>
0

> <s_m_subgroup_title>
dock_pv

> <s_m_subgroupid>
dock_pv

> <b_m_subgroup_collapsed>
1

$$$$
CHEMBL221_lig124
                    3D
 Schrodinger Suite 2021-1.
 39 41  0  0  1  0            999 V2000
   19.8058   48.6663   11.9165 N   0  0  0  0  0  0
   19.0260   47.9153   13.8991 N   0  0  0  0  0  0
   20.5275   49.2817   12.9276 C   0  0  0  0  0  0
   18.9164   47.8730   12.6004 C   0  0  0  0  0  0
   19.9515   49.0125    5.9132 S   0  0  0  0  0  0
   20.0094   48.7610   14.1196 C   0  0  0  0  0  0
   25.1679   53.8705   13.0871 C   0  0  0  0  0  0
   19.8938   48.7729   10.5023 C   0  0  0  0  0  0
   19.9289   48.8876    7.7006 C   0  0  0  0  0  0
   21.6260   50.2671   12.7337 C   0  0  0  0  0  0
   20.5927   50.2730    5.6139 O   0  0  0  0  0  0
   20.5083   47.8298    5.2924 O   0  0  0  0  0  0
   24.6225   53.0730   12.0438 O   0  0  0  0  0  0
   20.1230   50.0438    8.4703 C   0  0  0  0  0  0
   19.7230   47.6708    8.3373 C   0  0  0  0  0  0
   20.1230   49.9935    9.8628 C   0  0  0  0  0  0
   19.7230   47.6237    9.7258 C   0  0  0  0  0  0
   20.5227   49.0984   15.7285 Cl  0  0  0  0  0  0
   22.5778   50.0860   11.7325 C   0  0  0  0  0  0
   21.7007   51.3790   13.5685 C   0  0  0  0  0  0
   25.7230   53.0853   13.9982 F   0  0  0  0  0  0
   24.2640   54.6730   13.6321 F   0  0  0  0  0  0
   26.1230   54.6523   12.6000 F   0  0  0  0  0  0
   23.6355   52.1619   12.3456 C   0  0  0  0  0  0
   18.1743   49.0203    5.4001 C   0  0  0  0  0  0
   22.7009   52.3205   13.3812 C   0  0  0  0  0  0
   23.5681   51.0388   11.5272 C   0  0  0  0  0  0
   18.1902   47.2950   12.0539 H   0  0  0  0  0  0
   20.2387   51.0036    7.9850 H   0  0  0  0  0  0
   19.5892   46.7642    7.7744 H   0  0  0  0  0  0
   20.2401   50.9085   10.4261 H   0  0  0  0  0  0
   19.6312   46.6730   10.2098 H   0  0  0  0  0  0
   22.5230   49.2191   11.0921 H   0  0  0  0  0  0
   20.9720   51.5310   14.3514 H   0  0  0  0  0  0
   18.1232   49.0730    4.3178 H   0  0  0  0  0  0
   17.7230   48.0944    5.7360 H   0  0  0  0  0  0
   17.6896   49.8730    5.8488 H   0  0  0  0  0  0
   22.7008   53.1670   14.0469 H   0  0  0  0  0  0
   24.2868   50.9086   10.7304 H   0  0  0  0  0  0
  1  3  1  0  0  0
  1  4  1  0  0  0
  1  8  1  0  0  0
  2  4  2  0  0  0
  2  6  1  0  0  0
  3  6  2  0  0  0
  3 10  1  0  0  0
  4 28  1  0  0  0
  5  9  1  0  0  0
  5 11  2  0  0  0
  5 12  2  0  0  0
  5 25  1  0  0  0
  6 18  1  0  0  0
  7 13  1  0  0  0
  7 21  1  0  0  0
  7 22  1  0  0  0
  7 23  1  0  0  0
  8 16  2  0  0  0
  8 17  1  0  0  0
  9 15  1  0  0  0
  9 14  2  0  0  0
 10 19  1  0  0  0
 10 20  2  0  0  0
 13 24  1  0  0  0
 14 16  1  0  0  0
 14 29  1  0  0  0
 15 17  2  0  0  0
 15 30  1  0  0  0
 16 31  1  0  0  0
 17 32  1  0  0  0
 19 27  2  0  0  0
 19 33  1  0  0  0
 20 26  1  0  0  0
 20 34  1  0  0  0
 24 26  2  0  0  0
 24 27  1  0  0  0
 25 35  1  0  0  0
 25 36  1  0  0  0
 25 37  1  0  0  0
 26 38  1  0  0  0
 27 39  1  0  0  0
M  END
> <s_m_entry_id>
5445

> <s_m_entry_name>
dock_pv.436

> <s_m_Source_Path>
/home/csk/Desktop/cluster/DUD-E-result/pgh1

> <s_m_Source_File>
dock_pv.maegz

> <i_m_Source_File_Index>
436

> <chembl_id>
CHEMBL324472

> <chembl_pref_name>
None

> <i_lp_mmshare_version>
53161

> <r_lp_tautomer_probability>
1

> <s_lp_Force_Field>
OPLS_2005

> <r_lp_Energy>
12.847338

> <b_lp_Chiralities_Consistent>
1

> <s_lp_Variant>
CHEMBL221_lig124-1

> <s_i_glide_gridfile>
glide-grid_2oyu

> <i_i_glide_lignum>
146

> <i_i_glide_rotatable_bonds>
5

> <r_i_docking_score>
-7.59889004514656

> <r_i_glide_ligand_efficiency>
-0.281440372042465

> <r_i_glide_ligand_efficiency_sa>
-0.844321115199814

> <r_i_glide_ligand_efficiency_ln>
-1.76889632501676

> <r_i_glide_gscore>
-7.59889004514656

> <r_i_glide_lipo>
-4.44773246217017

> <r_i_glide_hbond>
0

> <r_i_glide_metal>
0

> <r_i_glide_rewards>
-2.14537749607804

> <r_i_glide_evdw>
-15.959342956543

> <r_i_glide_ecoul>
-3.46375703811646

> <r_i_glide_erotb>
0.341218101475701

> <r_i_glide_esite>
-0.0294674848294303

> <r_i_glide_emodel>
-19.2962068397921

> <r_i_glide_energy>
-19.4230999946594

> <r_i_glide_einternal>
6.09383916854858

> <i_i_glide_confnum>
13

> <i_i_glide_posenum>
53

> <r_i_glide_eff_state_penalty>
0

> <s_user_duplicate_titles>
CHEMBL221_lig124

> <i_f3d_flags>
0

> <s_m_subgroup_title>
dock_pv

> <s_m_subgroupid>
dock_pv

> <b_m_subgroup_collapsed>
1

$$$$
CHEMBL221_lig872
                    3D
 Schrodinger Suite 2021-1.
 28 29  0  0  1  0            999 V2000
   21.9127   50.3239   12.2509 C   0  0  0  0  0  0
   22.2047   51.0761   13.4259 C   0  0  0  0  0  0
   18.7955   47.2910   14.7359 C   0  0  0  0  0  0
   20.8739   49.3560   12.2927 C   0  0  0  0  0  0
   20.1849   49.0998   13.4831 C   0  0  0  0  0  0
   23.2394   52.0346   13.4003 C   0  0  0  0  0  0
   19.7219   46.8330   15.3997 O   0  0  0  0  0  0
   21.4723   50.8288   14.6042 C   0  0  0  0  0  0
   22.6750   50.5677   11.0852 C   0  0  0  0  0  0
   18.9896   48.1386   13.4677 C   0  0  0  0  0  0
   24.0230   52.2163   12.2573 C   0  0  0  0  0  0
   20.5229   49.8200   14.6346 C   0  0  0  0  0  0
   17.4764   47.0715   14.9998 O   0  0  0  0  0  0
   23.7268   51.4817   11.1108 C   0  0  0  0  0  0
   25.1025   53.0729   12.2001 O   0  0  0  0  0  0
   25.4067   53.8954   13.3228 C   0  0  0  0  0  0
   20.6234   48.8186   11.3899 H   0  0  0  0  0  0
   23.4364   52.5894   14.3024 H   0  0  0  0  0  0
   21.6870   51.3979   15.4964 H   0  0  0  0  0  0
   22.4676   50.0007   10.1890 H   0  0  0  0  0  0
   19.0729   47.4552   12.6212 H   0  0  0  0  0  0
   18.0965   48.7383   13.2837 H   0  0  0  0  0  0
   19.9939   49.6461   15.5604 H   0  0  0  0  0  0
   16.8958   47.5020   14.3703 H   0  0  0  0  0  0
   24.3280   51.6215   10.2241 H   0  0  0  0  0  0
   26.2263   54.5658   13.0671 H   0  0  0  0  0  0
   24.5583   54.5196   13.6136 H   0  0  0  0  0  0
   25.7222   53.2946   14.1770 H   0  0  0  0  0  0
  1  2  1  0  0  0
  1  4  2  0  0  0
  1  9  1  0  0  0
  2  6  1  0  0  0
  2  8  2  0  0  0
  3 10  1  0  0  0
  3  7  2  0  0  0
  3 13  1  0  0  0
  4  5  1  0  0  0
  4 17  1  0  0  0
  5 10  1  0  0  0
  5 12  2  0  0  0
  6 11  2  0  0  0
  6 18  1  0  0  0
  8 12  1  0  0  0
  8 19  1  0  0  0
  9 14  2  0  0  0
  9 20  1  0  0  0
 10 21  1  0  0  0
 10 22  1  0  0  0
 11 14  1  0  0  0
 11 15  1  0  0  0
 12 23  1  0  0  0
 13 24  1  0  0  0
 14 25  1  0  0  0
 15 16  1  0  0  0
 16 26  1  0  0  0
 16 27  1  0  0  0
 16 28  1  0  0  0
M  END
> <s_m_entry_id>
5447

> <s_m_entry_name>
dock_pv.438

> <s_m_Source_Path>
/home/csk/Desktop/cluster/DUD-E-result/pgh1

> <s_m_Source_File>
dock_pv.maegz

> <i_m_Source_File_Index>
438

> <chembl_id>
CHEMBL1105

> <chembl_pref_name>
6-METHOXY-2-NAPHTHYLACETIC ACID

> <i_lp_mmshare_version>
53161

> <r_lp_tautomer_probability>
1

> <s_lp_Force_Field>
OPLS_2005

> <r_lp_Energy>
15.003164

> <b_lp_Chiralities_Consistent>
1

> <s_lp_Variant>
CHEMBL221_lig872-1

> <s_i_glide_gridfile>
glide-grid_2oyu

> <i_i_glide_lignum>
1076

> <i_i_glide_rotatable_bonds>
4

> <r_i_docking_score>
-7.59278711118262

> <r_i_glide_ligand_efficiency>
-0.474549194448914

> <r_i_glide_ligand_efficiency_sa>
-1.19578903748854

> <r_i_glide_ligand_efficiency_ln>
-2.01261989318433

> <r_i_glide_gscore>
-7.59278711118262

> <r_i_glide_lipo>
-3.7487515243255

> <r_i_glide_hbond>
0

> <r_i_glide_metal>
0

> <r_i_glide_rewards>
-2.66798639279744

> <r_i_glide_evdw>
-31.3524017333984

> <r_i_glide_ecoul>
-2.16676759719849

> <r_i_glide_erotb>
0.716586032190014

> <r_i_glide_esite>
0

> <r_i_glide_emodel>
-48.1853948565738

> <r_i_glide_energy>
-33.5191693305969

> <r_i_glide_einternal>
2.09451222419739

> <i_i_glide_confnum>
2

> <i_i_glide_posenum>
400

> <r_i_glide_eff_state_penalty>
0

> <s_user_duplicate_titles>
CHEMBL221_lig872

> <i_f3d_flags>
0

> <s_m_subgroup_title>
dock_pv

> <s_m_subgroupid>
dock_pv

> <b_m_subgroup_collapsed>
1

$$$$
CHEMBL221_lig379
                    3D
 Schrodinger Suite 2021-1.
 39 40  0  0  1  0            999 V2000
   19.7687   49.0276    6.1205 S   0  0  0  0  0  0
   20.1328   48.6748   13.0094 C   0  0  0  0  0  0
   19.7234   48.5049    7.8082 C   0  0  0  0  0  0
   20.0695   48.5735   14.4984 C   0  0  0  0  0  0
   20.1811   49.3497    8.7632 C   0  0  0  0  0  0
   20.9802   49.6404   12.4706 C   0  0  0  0  0  0
   21.0415   49.8803   11.1000 C   0  0  0  0  0  0
   20.1230   47.8730    5.3065 O   0  0  0  0  0  0
   20.5230   50.2730    6.0134 O   0  0  0  0  0  0
   20.2321   49.1171   10.2238 C   0  0  0  0  0  0
   18.1230   49.3702    5.8000 N   0  0  0  0  0  0
   19.3795   47.8945   12.1248 C   0  0  0  0  0  0
   20.9230   49.1170   15.2048 O   0  0  0  0  0  0
   18.8128   48.1522   15.1440 C   0  0  0  0  0  0
   19.4442   48.1016   10.7633 C   0  0  0  0  0  0
   21.9649   50.9867   10.6000 C   0  0  0  0  0  0
   18.3563   48.9319   16.2000 C   0  0  0  0  0  0
   18.1226   46.9926   14.7974 C   0  0  0  0  0  0
   22.9511   51.6369   11.5925 C   0  0  0  0  0  0
   17.2329   48.5823   16.9187 C   0  0  0  0  0  0
   16.9123   46.7151   15.4000 C   0  0  0  0  0  0
   16.5235   47.4730   16.5185 C   0  0  0  0  0  0
   19.3307   47.5179    7.9884 H   0  0  0  0  0  0
   20.5229   50.3259    8.4548 H   0  0  0  0  0  0
   21.5747   50.2438   13.1401 H   0  0  0  0  0  0
   17.4462   48.8574    6.3807 H   0  0  0  0  0  0
   17.9192   50.3720    5.7207 H   0  0  0  0  0  0
   18.6887   47.1274   12.4016 H   0  0  0  0  0  0
   18.8244   47.4763   10.1387 H   0  0  0  0  0  0
   22.5661   50.5659    9.8000 H   0  0  0  0  0  0
   21.3143   51.7585   10.2000 H   0  0  0  0  0  0
   18.9144   49.7824   16.5745 H   0  0  0  0  0  0
   18.5195   46.2613   14.1147 H   0  0  0  0  0  0
   23.5860   52.3604   11.0798 H   0  0  0  0  0  0
   22.4326   52.1757   12.3864 H   0  0  0  0  0  0
   23.6094   50.8956   12.0481 H   0  0  0  0  0  0
   16.9265   49.1500   17.7854 H   0  0  0  0  0  0
   16.3655   45.8207   15.1378 H   0  0  0  0  0  0
   15.7233   47.1314   17.1607 H   0  0  0  0  0  0
  1  3  1  0  0  0
  1  8  2  0  0  0
  1  9  2  0  0  0
  1 11  1  0  0  0
  2 12  2  0  0  0
  2  4  1  0  0  0
  2  6  1  0  0  0
  3  5  2  0  0  0
  3 23  1  0  0  0
  4 13  2  0  0  0
  4 14  1  0  0  0
  5 10  1  0  0  0
  5 24  1  0  0  0
  6  7  2  0  0  0
  6 25  1  0  0  0
  7 10  1  0  0  0
  7 16  1  0  0  0
 10 15  2  0  0  0
 11 26  1  0  0  0
 11 27  1  0  0  0
 12 15  1  0  0  0
 12 28  1  0  0  0
 14 17  1  0  0  0
 14 18  2  0  0  0
 15 29  1  0  0  0
 16 19  1  0  0  0
 16 30  1  0  0  0
 16 31  1  0  0  0
 17 20  2  0  0  0
 17 32  1  0  0  0
 18 21  1  0  0  0
 18 33  1  0  0  0
 19 34  1  0  0  0
 19 35  1  0  0  0
 19 36  1  0  0  0
 20 22  1  0  0  0
 20 37  1  0  0  0
 21 22  2  0  0  0
 21 38  1  0  0  0
 22 39  1  0  0  0
M  END
> <s_m_entry_id>
5448

> <s_m_entry_name>
dock_pv.439

> <s_m_Source_Path>
/home/csk/Desktop/cluster/DUD-E-result/pgh1

> <s_m_Source_File>
dock_pv.maegz

> <i_m_Source_File_Index>
439

> <chembl_id>
CHEMBL358210

> <chembl_pref_name>
None

> <i_lp_mmshare_version>
53161

> <r_lp_tautomer_probability>
1

> <s_lp_Force_Field>
OPLS_2005

> <r_lp_Energy>
16.639157

> <b_lp_Chiralities_Consistent>
1

> <s_lp_Variant>
CHEMBL221_lig379-1

> <s_i_glide_gridfile>
glide-grid_2oyu

> <i_i_glide_lignum>
445

> <i_i_glide_rotatable_bonds>
5

> <r_i_docking_score>
-7.59109766008506

> <r_i_glide_ligand_efficiency>
-0.34504989364023

> <r_i_glide_ligand_efficiency_sa>
-0.966843372022198

> <r_i_glide_ligand_efficiency_ln>
-1.85554116013965

> <r_i_glide_gscore>
-7.59109766008506

> <r_i_glide_lipo>
-3.79523006169321

> <r_i_glide_hbond>
-0.522616063432763

> <r_i_glide_metal>
0

> <r_i_glide_rewards>
-2.73419430668974

> <r_i_glide_evdw>
-4.69856882095337

> <r_i_glide_ecoul>
-6.43674421310425

> <r_i_glide_erotb>
0.748044608873506

> <r_i_glide_esite>
-0.0866617641295528

> <r_i_glide_emodel>
-16.7166406014724

> <r_i_glide_energy>
-11.1353130340576

> <r_i_glide_einternal>
10.5345497131348

> <i_i_glide_confnum>
97

> <i_i_glide_posenum>
50

> <r_i_glide_eff_state_penalty>
0

> <s_user_duplicate_titles>
CHEMBL221_lig379

> <i_f3d_flags>
0

> <s_m_subgroup_title>
dock_pv

> <s_m_subgroupid>
dock_pv

> <b_m_subgroup_collapsed>
1

$$$$
CHEMBL221_lig1010 
                    3D
 Schrodinger Suite 2021-1.
 30 31  0  0  1  0            999 V2000
   18.6870   47.8955   13.1890 C   0  0  0  0  0  0
   19.8639   48.6728   13.7947 C   0  0  0  0  0  0
   20.0038   48.7322   15.0656 N   0  0  0  0  0  0
   19.0460   48.2328   15.8919 N   0  0  0  0  0  0
   17.7460   47.9794   15.6439 C   0  0  0  0  0  0
   17.4324   47.9019   14.1296 C   0  0  0  0  0  0
   20.8508   49.3239   12.9839 C   0  0  0  0  0  0
   21.5577   50.4126   13.3683 C   0  0  0  0  0  0
   22.6318   51.0869   12.6218 C   0  0  0  0  0  0
   16.9229   47.8731   16.5452 O   0  0  0  0  0  0
   23.0281   50.6730   11.3461 C   0  0  0  0  0  0
   24.1230   51.2653   10.7238 C   0  0  0  0  0  0
   24.8331   52.2730   11.3640 C   0  0  0  0  0  0
   24.4281   52.7282   12.6196 C   0  0  0  0  0  0
   23.3228   52.1382   13.2376 C   0  0  0  0  0  0
   25.1883   53.8376   13.3245 C   0  0  0  0  0  0
   19.0037   46.8653   13.0224 H   0  0  0  0  0  0
   18.4320   48.2731   12.1999 H   0  0  0  0  0  0
   19.2800   48.3034   16.8708 H   0  0  0  0  0  0
   16.7538   47.0730   13.9393 H   0  0  0  0  0  0
   16.8655   48.8076   13.9290 H   0  0  0  0  0  0
   20.9992   48.8633   12.0198 H   0  0  0  0  0  0
   21.3443   50.8458   14.3370 H   0  0  0  0  0  0
   22.5185   49.8731   10.8324 H   0  0  0  0  0  0
   24.4433   50.9234    9.7507 H   0  0  0  0  0  0
   25.7089   52.6730   10.8778 H   0  0  0  0  0  0
   23.0291   52.4783   14.2204 H   0  0  0  0  0  0
   25.8985   54.3359   12.6630 H   0  0  0  0  0  0
   24.4944   54.5985   13.6863 H   0  0  0  0  0  0
   25.7210   53.4393   14.1899 H   0  0  0  0  0  0
  1  2  1  0  0  0
  1  6  1  0  0  0
  1 17  1  0  0  0
  1 18  1  0  0  0
  2  3  2  0  0  0
  2  7  1  0  0  0
  3  4  1  0  0  0
  4  5  1  0  0  0
  4 19  1  0  0  0
  5  6  1  0  0  0
  5 10  2  0  0  0
  6 20  1  0  0  0
  6 21  1  0  0  0
  7  8  2  0  0  0
  7 22  1  0  0  0
  8  9  1  0  0  0
  8 23  1  0  0  0
  9 11  2  0  0  0
  9 15  1  0  0  0
 11 12  1  0  0  0
 11 24  1  0  0  0
 12 13  2  0  0  0
 12 25  1  0  0  0
 13 14  1  0  0  0
 13 26  1  0  0  0
 14 15  2  0  0  0
 14 16  1  0  0  0
 15 27  1  0  0  0
 16 28  1  0  0  0
 16 29  1  0  0  0
 16 30  1  0  0  0
M  END
> <s_m_entry_id>
5449

> <s_m_entry_name>
dock_pv.440

> <s_m_Source_Path>
/home/csk/Desktop/cluster/DUD-E-result/pgh1

> <s_m_Source_File>
dock_pv.maegz

> <i_m_Source_File_Index>
440

> <chembl_id>
CHEMBL4435643

> <chembl_pref_name>
None

> <i_lp_mmshare_version>
53161

> <r_lp_tautomer_probability>
1

> <s_lp_Force_Field>
OPLS_2005

> <r_lp_Energy>
21.697946

> <b_lp_Chiralities_Consistent>
1

> <s_lp_Variant>
CHEMBL221_lig1010 -1

> <s_i_glide_gridfile>
glide-grid_2oyu

> <i_i_glide_lignum>
1264

> <i_i_glide_rotatable_bonds>
2

> <r_i_docking_score>
-7.59094841249649

> <r_i_glide_ligand_efficiency>
-0.474434275781031

> <r_i_glide_ligand_efficiency_sa>
-1.19549946059142

> <r_i_glide_ligand_efficiency_ln>
-2.01213250936873

> <r_i_glide_gscore>
-7.59094841249649

> <r_i_glide_lipo>
-3.19785574817932

> <r_i_glide_hbond>
0

> <r_i_glide_metal>
0

> <r_i_glide_rewards>
-3.41946357602278

> <r_i_glide_evdw>
-32.5944747924805

> <r_i_glide_ecoul>
-0.477403253316879

> <r_i_glide_erotb>
0.727705139327161

> <r_i_glide_esite>
0

> <r_i_glide_emodel>
-44.3861908948856

> <r_i_glide_energy>
-33.0718780457973

> <r_i_glide_einternal>
2.37683820724487

> <i_i_glide_confnum>
14

> <i_i_glide_posenum>
66

> <r_i_glide_eff_state_penalty>
0

> <s_user_duplicate_titles>
CHEMBL221_lig1010 

> <i_f3d_flags>
0

> <s_m_subgroup_title>
dock_pv

> <s_m_subgroupid>
dock_pv

> <b_m_subgroup_collapsed>
1

$$$$
CHEMBL221_lig121
                    3D
 Schrodinger Suite 2021-1.
 31 32  0  0  1  0            999 V2000
   21.0683   50.5595   11.9013 C   0  0  0  0  0  0
   21.2943   49.2318   11.8758 N   0  0  0  0  0  0
   20.2342   48.3162   12.0992 N   0  0  0  0  0  0
   19.9529   51.0681   11.7909 O   0  0  0  0  0  0
   22.2756   51.4198   12.1529 C   0  0  0  0  0  0
   19.5335   48.2998   13.3157 C   0  0  0  0  0  0
   18.0738   48.2319   15.6995 C   0  0  0  0  0  0
   20.1229   48.7102   14.5153 C   0  0  0  0  0  0
   18.2064   47.8731   13.3199 C   0  0  0  0  0  0
   17.4777   47.8371   14.5042 C   0  0  0  0  0  0
   19.3977   48.6728   15.6988 C   0  0  0  0  0  0
   22.2253   52.4002   13.1507 C   0  0  0  0  0  0
   23.4356   51.2687   11.3828 C   0  0  0  0  0  0
   17.2852   48.1691   16.9961 C   0  0  0  0  0  0
   24.5230   52.1074   11.5979 C   0  0  0  0  0  0
   23.3219   53.2256   13.3757 C   0  0  0  0  0  0
   24.4690   53.0730   12.6007 C   0  0  0  0  0  0
   22.2126   48.8317   12.0026 H   0  0  0  0  0  0
   19.6869   48.2192   11.2545 H   0  0  0  0  0  0
   21.1413   49.0713   14.5369 H   0  0  0  0  0  0
   17.7268   47.5735   12.4017 H   0  0  0  0  0  0
   16.4528   47.5028   14.4882 H   0  0  0  0  0  0
   19.8795   49.0075   16.6000 H   0  0  0  0  0  0
   21.3325   52.5329   13.7494 H   0  0  0  0  0  0
   23.4903   50.5340   10.5927 H   0  0  0  0  0  0
   16.4187   47.5142   16.9101 H   0  0  0  0  0  0
   17.8958   47.7531   17.7973 H   0  0  0  0  0  0
   16.9509   49.1639   17.2980 H   0  0  0  0  0  0
   25.4117   51.9979   10.9920 H   0  0  0  0  0  0
   23.2808   53.9861   14.1434 H   0  0  0  0  0  0
   25.3174   53.7201   12.7701 H   0  0  0  0  0  0
  1  2  1  0  0  0
  1  4  2  0  0  0
  1  5  1  0  0  0
  2  3  1  0  0  0
  2 18  1  0  0  0
  3  6  1  0  0  0
  3 19  1  0  0  0
  5 12  1  0  0  0
  5 13  2  0  0  0
  6  8  1  0  0  0
  6  9  2  0  0  0
  7 10  2  0  0  0
  7 14  1  0  0  0
  7 11  1  0  0  0
  8 11  2  0  0  0
  8 20  1  0  0  0
  9 10  1  0  0  0
  9 21  1  0  0  0
 10 22  1  0  0  0
 11 23  1  0  0  0
 12 16  2  0  0  0
 12 24  1  0  0  0
 13 15  1  0  0  0
 13 25  1  0  0  0
 14 26  1  0  0  0
 14 27  1  0  0  0
 14 28  1  0  0  0
 15 17  2  0  0  0
 15 29  1  0  0  0
 16 17  1  0  0  0
 16 30  1  0  0  0
 17 31  1  0  0  0
M  END
> <s_m_entry_id>
5450

> <s_m_entry_name>
dock_pv.441

> <s_m_Source_Path>
/home/csk/Desktop/cluster/DUD-E-result/pgh1

> <s_m_Source_File>
dock_pv.maegz

> <i_m_Source_File_Index>
441

> <chembl_id>
CHEMBL157950

> <chembl_pref_name>
None

> <i_lp_mmshare_version>
53161

> <r_lp_tautomer_probability>
1

> <s_lp_Force_Field>
OPLS_2005

> <r_lp_Energy>
16.895261

> <b_lp_Chiralities_Consistent>
1

> <s_lp_Variant>
CHEMBL221_lig121-1

> <s_i_glide_gridfile>
glide-grid_2oyu

> <i_i_glide_lignum>
143

> <i_i_glide_rotatable_bonds>
4

> <r_i_docking_score>
-7.58488630651111

> <r_i_glide_ligand_efficiency>
-0.446169782735948

> <r_i_glide_ligand_efficiency_sa>
-1.14722814757348

> <r_i_glide_ligand_efficiency_ln>
-1.97872793025524

> <r_i_glide_gscore>
-7.58488630651111

> <r_i_glide_lipo>
-3.73064538984415

> <r_i_glide_hbond>
0

> <r_i_glide_metal>
0

> <r_i_glide_rewards>
-3.00269032118642

> <r_i_glide_evdw>
-33.426456451416

> <r_i_glide_ecoul>
-1.17197287082672

> <r_i_glide_erotb>
0.995568157714267

> <r_i_glide_esite>
0

> <r_i_glide_emodel>
-47.4587284370471

> <r_i_glide_energy>
-34.5984293222427

> <r_i_glide_einternal>
4.78947591781616

> <i_i_glide_confnum>
6

> <i_i_glide_posenum>
260

> <r_i_glide_eff_state_penalty>
0

> <s_user_duplicate_titles>
CHEMBL221_lig121

> <i_f3d_flags>
0

> <s_m_subgroup_title>
dock_pv

> <s_m_subgroupid>
dock_pv

> <b_m_subgroup_collapsed>
1

$$$$
CHEMBL221_lig766
                    3D
 Schrodinger Suite 2021-1.
 37 38  0  0  1  0            999 V2000
   19.3230   47.8730   11.3704 C   0  0  0  0  0  0
   19.5457   47.9043    9.9930 C   0  0  0  0  0  0
   20.1230   48.9592    9.3723 N   0  0  0  0  0  0
   20.4594   50.0152   10.1446 C   0  0  0  0  0  0
   20.4059   50.0033   11.5465 C   0  0  0  0  0  0
   19.7594   48.9276   12.1730 C   0  0  0  0  0  0
   19.6030   48.8905   13.5681 N   0  0  0  0  0  0
   18.4112   47.8705   14.3965 S   0  0  0  0  0  0
   21.0794   50.9845   12.2942 N   0  0  0  0  0  0
   22.3725   51.4630   12.0435 C   0  0  0  0  0  0
   22.9410   52.4255   12.8802 C   0  0  0  0  0  0
   24.2422   52.8777   12.6327 C   0  0  0  0  0  0
   24.9321   52.4021   11.5164 C   0  0  0  0  0  0
   24.3710   51.4730   10.6799 C   0  0  0  0  0  0
   23.1367   50.9540   10.9886 C   0  0  0  0  0  0
   17.1015   48.2056   13.8282 O   0  0  0  0  0  0
   18.5232   48.4769   16.1898 C   0  0  0  0  0  0
   18.2091   47.4730   17.0001 F   0  0  0  0  0  0
   19.7759   48.8851   16.3984 F   0  0  0  0  0  0
   17.6613   49.4730   16.3637 F   0  0  0  0  0  0
   18.9230   46.4973   14.3125 O   0  0  0  0  0  0
   24.9369   53.7909   13.6185 C   0  0  0  0  0  0
   25.9332   54.7726   13.0029 C   0  0  0  0  0  0
   18.8253   47.0275   11.8059 H   0  0  0  0  0  0
   19.2336   47.0857    9.3613 H   0  0  0  0  0  0
   20.8800   50.8557    9.6131 H   0  0  0  0  0  0
   20.0068   49.6426   14.1033 H   0  0  0  0  0  0
   20.6518   51.2895   13.1544 H   0  0  0  0  0  0
   22.3947   52.7939   13.7364 H   0  0  0  0  0  0
   25.9493   52.6730   11.2920 H   0  0  0  0  0  0
   24.9230   51.0911    9.8350 H   0  0  0  0  0  0
   22.8198   50.1445   10.3589 H   0  0  0  0  0  0
   25.4716   53.1299   14.2994 H   0  0  0  0  0  0
   24.2079   54.3574   14.1999 H   0  0  0  0  0  0
   26.6484   55.0730   13.7617 H   0  0  0  0  0  0
   25.4287   55.6462   12.6000 H   0  0  0  0  0  0
   26.5230   54.3720   12.2000 H   0  0  0  0  0  0
  1  6  1  0  0  0
  1  2  2  0  0  0
  1 24  1  0  0  0
  2  3  1  0  0  0
  2 25  1  0  0  0
  3  4  2  0  0  0
  4  5  1  0  0  0
  4 26  1  0  0  0
  5  6  2  0  0  0
  5  9  1  0  0  0
  6  7  1  0  0  0
  7  8  1  0  0  0
  7 27  1  0  0  0
  8 16  2  0  0  0
  8 17  1  0  0  0
  8 21  2  0  0  0
  9 10  1  0  0  0
  9 28  1  0  0  0
 10 15  1  0  0  0
 10 11  2  0  0  0
 11 12  1  0  0  0
 11 29  1  0  0  0
 12 13  2  0  0  0
 12 22  1  0  0  0
 13 14  1  0  0  0
 13 30  1  0  0  0
 14 15  2  0  0  0
 14 31  1  0  0  0
 15 32  1  0  0  0
 17 18  1  0  0  0
 17 19  1  0  0  0
 17 20  1  0  0  0
 22 23  1  0  0  0
 22 33  1  0  0  0
 22 34  1  0  0  0
 23 35  1  0  0  0
 23 36  1  0  0  0
 23 37  1  0  0  0
M  END
> <s_m_entry_id>
5451

> <s_m_entry_name>
dock_pv.442

> <s_m_Source_Path>
/home/csk/Desktop/cluster/DUD-E-result/pgh1

> <s_m_Source_File>
dock_pv.maegz

> <i_m_Source_File_Index>
442

> <chembl_id>
CHEMBL1080405

> <chembl_pref_name>
None

> <i_lp_mmshare_version>
53161

> <r_lp_tautomer_probability>
1

> <s_lp_Force_Field>
OPLS_2005

> <r_lp_Energy>
8.700101

> <b_lp_Chiralities_Consistent>
1

> <s_lp_Variant>
CHEMBL221_lig766-1

> <s_i_glide_gridfile>
glide-grid_2oyu

> <i_i_glide_lignum>
936

> <i_i_glide_rotatable_bonds>
6

> <r_i_docking_score>
-7.5762005333565

> <r_i_glide_ligand_efficiency>
-0.329400023189413

> <r_i_glide_ligand_efficiency_sa>
-0.936769848131633

> <r_i_glide_ligand_efficiency_ln>
-1.83199398615391

> <r_i_glide_gscore>
-7.5762005333565

> <r_i_glide_lipo>
-3.86709839944436

> <r_i_glide_hbond>
0

> <r_i_glide_metal>
0

> <r_i_glide_rewards>
-2.57721769953662

> <r_i_glide_evdw>
-31.5160274505615

> <r_i_glide_ecoul>
-1.28864502906799

> <r_i_glide_erotb>
0.637213692512758

> <r_i_glide_esite>
0

> <r_i_glide_emodel>
-38.5220673742104

> <r_i_glide_energy>
-32.8046724796295

> <r_i_glide_einternal>
12.2529954910278

> <i_i_glide_confnum>
15

> <i_i_glide_posenum>
106

> <r_i_glide_eff_state_penalty>
0

> <s_user_duplicate_titles>
CHEMBL221_lig766,616776

> <i_f3d_flags>
0

> <s_m_subgroup_title>
dock_pv

> <s_m_subgroupid>
dock_pv

> <b_m_subgroup_collapsed>
1

$$$$
CHEMBL221_lig223
                    3D
 Schrodinger Suite 2021-1.
 39 41  0  0  1  0            999 V2000
   22.9522   51.6276   12.3955 S   0  0  0  0  0  0
   19.7235   48.3608    9.5994 C   0  0  0  0  0  0
   21.2437   51.1374   12.3190 N   0  0  0  0  0  0
   20.3137   48.9444   11.8475 C   0  0  0  0  0  0
   20.7284   50.2141   11.3955 C   0  0  0  0  0  0
   19.7256   48.0583   10.9535 C   0  0  0  0  0  0
   20.1256   49.5902    9.1144 C   0  0  0  0  0  0
   19.4472   47.4700    8.4921 C   0  0  0  0  0  0
   20.5939   50.5352   10.0363 C   0  0  0  0  0  0
   19.6878   48.1673   14.2661 C   0  0  0  0  0  0
   20.7445   48.3822   13.1995 C   0  0  0  0  0  0
   18.7990   47.0881   14.2559 C   0  0  0  0  0  0
   17.7491   47.0263   15.1684 C   0  0  0  0  0  0
   23.1917   52.6727   11.4041 O   0  0  0  0  0  0
   23.2394   51.8528   13.8128 O   0  0  0  0  0  0
   20.0069   49.6104    7.5854 C   0  0  0  0  0  0
   19.4348   48.2584    7.2024 C   0  0  0  0  0  0
   19.3232   46.2728    8.6001 O   0  0  0  0  0  0
   19.6265   49.0729   15.3170 C   0  0  0  0  0  0
   17.6097   48.0194   16.1304 C   0  0  0  0  0  0
   18.9693   46.0701   13.3995 F   0  0  0  0  0  0
   23.9066   50.1548   11.7989 C   0  0  0  0  0  0
   18.5500   49.0410   16.1999 C   0  0  0  0  0  0
   16.5780   47.9881   16.9995 F   0  0  0  0  0  0
   20.9100   50.9562   13.2525 H   0  0  0  0  0  0
   19.4417   47.0749   11.2893 H   0  0  0  0  0  0
   20.9224   51.4934    9.6923 H   0  0  0  0  0  0
   21.4672   49.0748   13.6205 H   0  0  0  0  0  0
   21.2762   47.4469   13.0019 H   0  0  0  0  0  0
   17.0489   46.2054   15.1327 H   0  0  0  0  0  0
   19.3232   50.3457    7.2007 H   0  0  0  0  0  0
   20.9228   49.7160    7.0007 H   0  0  0  0  0  0
   18.4088   48.3406    6.8456 H   0  0  0  0  0  0
   20.0280   47.7573    6.4371 H   0  0  0  0  0  0
   20.3229   49.8966   15.3811 H   0  0  0  0  0  0
   24.9220   50.2122   12.1905 H   0  0  0  0  0  0
   23.4225   49.2378   12.1265 H   0  0  0  0  0  0
   23.9259   50.2737   10.7148 H   0  0  0  0  0  0
   18.4180   49.8502   16.9028 H   0  0  0  0  0  0
  1  3  1  0  0  0
  1 14  2  0  0  0
  1 15  2  0  0  0
  1 22  1  0  0  0
  2  7  2  0  0  0
  2  8  1  0  0  0
  2  6  1  0  0  0
  3  5  1  0  0  0
  3 25  1  0  0  0
  4  5  1  0  0  0
  4  6  2  0  0  0
  4 11  1  0  0  0
  5  9  2  0  0  0
  6 26  1  0  0  0
  7  9  1  0  0  0
  7 16  1  0  0  0
  8 18  2  0  0  0
  8 17  1  0  0  0
  9 27  1  0  0  0
 10 11  1  0  0  0
 10 12  2  0  0  0
 10 19  1  0  0  0
 11 28  1  0  0  0
 11 29  1  0  0  0
 12 13  1  0  0  0
 12 21  1  0  0  0
 13 20  2  0  0  0
 13 30  1  0  0  0
 16 17  1  0  0  0
 16 31  1  0  0  0
 16 32  1  0  0  0
 17 33  1  0  0  0
 17 34  1  0  0  0
 19 23  2  0  0  0
 19 35  1  0  0  0
 20 23  1  0  0  0
 20 24  1  0  0  0
 22 36  1  0  0  0
 22 37  1  0  0  0
 22 38  1  0  0  0
 23 39  1  0  0  0
M  END
> <s_m_entry_id>
5452

> <s_m_entry_name>
dock_pv.443

> <s_m_Source_Path>
/home/csk/Desktop/cluster/DUD-E-result/pgh1

> <s_m_Source_File>
dock_pv.maegz

> <i_m_Source_File_Index>
443

> <chembl_id>
CHEMBL343853

> <chembl_pref_name>
None

> <i_lp_mmshare_version>
53161

> <r_lp_tautomer_probability>
0.99995

> <s_lp_Force_Field>
OPLS_2005

> <r_lp_Energy>
24.471374

> <b_lp_Chiralities_Consistent>
1

> <s_lp_Variant>
CHEMBL221_lig223-1

> <s_i_glide_gridfile>
glide-grid_2oyu

> <i_i_glide_lignum>
251

> <i_i_glide_rotatable_bonds>
4

> <r_i_docking_score>
-7.57474116184494

> <r_i_glide_ligand_efficiency>
-0.315614215076873

> <r_i_glide_ligand_efficiency_sa>
-0.910388931190638

> <r_i_glide_ligand_efficiency_ln>
-1.81298314225265

> <r_i_glide_gscore>
-7.57474116184494

> <r_i_glide_lipo>
-3.77095968387262

> <r_i_glide_hbond>
-0.153224703273915

> <r_i_glide_metal>
0

> <r_i_glide_rewards>
-2.97038811955266

> <r_i_glide_evdw>
-8.865403175354

> <r_i_glide_ecoul>
-4.38132619857788

> <r_i_glide_erotb>
0.463439251718564

> <r_i_glide_esite>
-0.0431388183099367

> <r_i_glide_emodel>
-33.526254389268

> <r_i_glide_energy>
-13.2467293739319

> <r_i_glide_einternal>
12.976170539856

> <i_i_glide_confnum>
1

> <i_i_glide_posenum>
388

> <r_i_glide_eff_state_penalty>
0

> <s_user_duplicate_titles>
CHEMBL221_lig223

> <i_f3d_flags>
0

> <s_m_subgroup_title>
dock_pv

> <s_m_subgroupid>
dock_pv

> <b_m_subgroup_collapsed>
1

$$$$
CHEMBL221_lig981
                    3D
 Schrodinger Suite 2021-1.
 32 33  0  0  1  0            999 V2000
   22.4833   51.7019   12.6019 C   0  0  0  0  0  0
   21.6979   52.2737   13.6097 C   0  0  0  0  0  0
   22.0421   53.4931   14.1795 C   0  0  0  0  0  0
   23.2177   54.1221   13.7961 C   0  0  0  0  0  0
   24.0651   53.5136   12.8726 C   0  0  0  0  0  0
   23.6832   52.3420   12.2053 C   0  0  0  0  0  0
   22.0447   50.5460   11.9362 N   0  0  0  0  0  0
   20.9938   49.6459   12.1280 C   0  0  0  0  0  0
   20.5204   49.2685   13.3908 C   0  0  0  0  0  0
   19.4677   48.3440   13.5160 C   0  0  0  0  0  0
   18.9233   47.8043   12.3480 C   0  0  0  0  0  0
   19.4131   48.1498   11.0935 C   0  0  0  0  0  0
   20.4432   49.0732   10.9848 C   0  0  0  0  0  0
   18.8121   47.8427   15.1360 S   0  0  0  0  0  0
   20.1230   46.9499   15.4000 F   0  0  0  0  0  0
   17.4576   48.6729   14.8559 F   0  0  0  0  0  0
   18.2245   47.4730   16.5927 F   0  0  0  0  0  0
   19.5123   49.0794   15.8927 F   0  0  0  0  0  0
   18.1148   46.4885   14.6000 F   0  0  0  0  0  0
   24.5212   51.8522   11.0409 C   0  0  0  0  0  0
   25.8056   52.2730   11.0000 O   0  0  0  0  0  0
   24.0974   51.0730   10.2000 O   0  0  0  0  0  0
   20.7732   51.8229   13.9207 H   0  0  0  0  0  0
   21.4086   53.9471   14.9266 H   0  0  0  0  0  0
   23.4959   55.0663   14.2441 H   0  0  0  0  0  0
   24.9759   54.0339   12.6085 H   0  0  0  0  0  0
   22.4783   50.4850   11.0217 H   0  0  0  0  0  0
   21.0001   49.6759   14.2667 H   0  0  0  0  0  0
   18.1230   47.0873   12.3941 H   0  0  0  0  0  0
   18.9859   47.7053   10.2061 H   0  0  0  0  0  0
   20.8103   49.3424   10.0042 H   0  0  0  0  0  0
   26.2553   51.7314   10.3428 H   0  0  0  0  0  0
  1  2  2  0  0  0
  1  6  1  0  0  0
  1  7  1  0  0  0
  2  3  1  0  0  0
  2 23  1  0  0  0
  3  4  2  0  0  0
  3 24  1  0  0  0
  4  5  1  0  0  0
  4 25  1  0  0  0
  5  6  2  0  0  0
  5 26  1  0  0  0
  6 20  1  0  0  0
  7  8  1  0  0  0
  7 27  1  0  0  0
  8  9  2  0  0  0
  8 13  1  0  0  0
  9 10  1  0  0  0
  9 28  1  0  0  0
 10 11  2  0  0  0
 10 14  1  0  0  0
 11 12  1  0  0  0
 11 29  1  0  0  0
 12 13  2  0  0  0
 12 30  1  0  0  0
 13 31  1  0  0  0
 14 15  1  0  0  0
 14 16  1  0  0  0
 14 17  1  0  0  0
 14 18  1  0  0  0
 14 19  1  0  0  0
 20 21  1  0  0  0
 20 22  2  0  0  0
 21 32  1  0  0  0
M  END
> <s_m_entry_id>
5453

> <s_m_entry_name>
dock_pv.444

> <s_m_Source_Path>
/home/csk/Desktop/cluster/DUD-E-result/pgh1

> <s_m_Source_File>
dock_pv.maegz

> <i_m_Source_File_Index>
444

> <chembl_id>
CHEMBL3623735

> <chembl_pref_name>
None

> <i_lp_mmshare_version>
53161

> <r_lp_tautomer_probability>
1

> <s_lp_Force_Field>
OPLS_2005

> <r_lp_Energy>
23.20713

> <b_lp_Chiralities_Consistent>
1

> <s_lp_Variant>
CHEMBL221_lig981-1

> <s_i_glide_gridfile>
glide-grid_2oyu

> <i_i_glide_lignum>
1218

> <i_i_glide_rotatable_bonds>
5

> <r_i_docking_score>
-7.57347412595571

> <r_i_glide_ligand_efficiency>
-0.344248823907078

> <r_i_glide_ligand_efficiency_sa>
-0.96459874312562

> <r_i_glide_ligand_efficiency_ln>
-1.85123332556441

> <r_i_glide_gscore>
-7.57347412595571

> <r_i_glide_lipo>
-2.95474459442669

> <r_i_glide_hbond>
0

> <r_i_glide_metal>
0

> <r_i_glide_rewards>
-3.12458441794203

> <r_i_glide_evdw>
-25.96018409729

> <r_i_glide_ecoul>
-4.44245290756226

> <r_i_glide_erotb>
0.493154587586364

> <r_i_glide_esite>
-0.0229225601745071

> <r_i_glide_emodel>
-35.3084178753043

> <r_i_glide_energy>
-30.4026370048523

> <r_i_glide_einternal>
11.4731206893921

> <i_i_glide_confnum>
5

> <i_i_glide_posenum>
14

> <r_i_glide_eff_state_penalty>
0

> <s_user_duplicate_titles>
CHEMBL221_lig981

> <i_f3d_flags>
0

> <s_m_subgroup_title>
dock_pv

> <s_m_subgroupid>
dock_pv

> <b_m_subgroup_collapsed>
1

$$$$
CHEMBL221_lig731
                    3D
 Schrodinger Suite 2021-1.
 38 40  0  0  1  0            999 V2000
   19.8493   49.0142   11.6634 C   0  0  2  0  0  0
   21.1172   48.9308   12.5237 C   0  0  2  0  0  0
   20.5234   48.6352   13.8135 O   0  0  0  0  0  0
   19.4290   47.7320   13.7208 C   0  0  2  0  0  0
   19.0124   47.8717   12.2682 C   0  0  0  0  0  0
   18.3086   48.0614   14.7257 C   0  0  0  0  0  0
   18.7288   47.8728   16.0591 O   0  0  0  0  0  0
   19.9657   49.0033   10.1144 C   0  0  0  0  0  0
   20.1846   50.1973    9.4102 C   0  0  0  0  0  0
   20.1230   50.2293    8.0207 C   0  0  0  0  0  0
   19.9047   49.0690    7.2973 C   0  0  0  0  0  0
   19.7196   47.8731    7.9673 C   0  0  0  0  0  0
   19.7230   47.8424    9.3573 C   0  0  0  0  0  0
   19.3227   50.2706   11.9925 O   0  0  0  0  0  0
   22.0202   50.1831   12.5840 C   0  0  0  0  0  0
   21.9501   51.0482   13.6832 C   0  0  0  0  0  0
   22.8084   52.1369   13.7704 C   0  0  0  0  0  0
   23.7608   52.3524   12.7824 C   0  0  0  0  0  0
   23.7951   51.5427   11.6498 C   0  0  0  0  0  0
   22.9078   50.4739   11.5434 C   0  0  0  0  0  0
   19.8406   49.1172    5.5781 Cl  0  0  0  0  0  0
   24.9234   53.6082   13.0001 Cl  0  0  0  0  0  0
   21.7340   48.0905   12.2003 H   0  0  0  0  0  0
   19.7979   46.7208   13.9031 H   0  0  0  0  0  0
   19.2983   46.9390   11.7994 H   0  0  0  0  0  0
   17.9387   48.0252   12.1841 H   0  0  0  0  0  0
   17.9458   49.0730   14.5880 H   0  0  0  0  0  0
   17.4525   47.4078   14.5500 H   0  0  0  0  0  0
   18.0090   48.1156   16.6479 H   0  0  0  0  0  0
   20.3572   51.1224    9.9376 H   0  0  0  0  0  0
   20.2307   51.1695    7.4996 H   0  0  0  0  0  0
   19.5272   46.9838    7.4011 H   0  0  0  0  0  0
   19.5427   46.8842    9.8052 H   0  0  0  0  0  0
   19.2976   50.3197   12.9515 H   0  0  0  0  0  0
   21.2453   50.8727   14.4830 H   0  0  0  0  0  0
   22.7560   52.8066   14.6096 H   0  0  0  0  0  0
   24.5146   51.7290   10.8653 H   0  0  0  0  0  0
   22.9229   49.8729   10.6508 H   0  0  0  0  0  0
  1  2  1  0  0  0
  1 14  1  0  0  0
  1  8  1  0  0  0
  1  5  1  0  0  0
  2  3  1  0  0  0
  2 15  1  0  0  0
  2 23  1  0  0  0
  3  4  1  0  0  0
  4  6  1  0  0  0
  4  5  1  0  0  0
  4 24  1  0  0  0
  5 25  1  0  0  0
  5 26  1  0  0  0
  6  7  1  0  0  0
  6 27  1  0  0  0
  6 28  1  0  0  0
  7 29  1  0  0  0
  8 13  1  0  0  0
  8  9  2  0  0  0
  9 10  1  0  0  0
  9 30  1  0  0  0
 10 11  2  0  0  0
 10 31  1  0  0  0
 11 12  1  0  0  0
 11 21  1  0  0  0
 12 13  2  0  0  0
 12 32  1  0  0  0
 13 33  1  0  0  0
 14 34  1  0  0  0
 15 16  2  0  0  0
 15 20  1  0  0  0
 16 17  1  0  0  0
 16 35  1  0  0  0
 17 18  2  0  0  0
 17 36  1  0  0  0
 18 19  1  0  0  0
 18 22  1  0  0  0
 19 20  2  0  0  0
 19 37  1  0  0  0
 20 38  1  0  0  0
M  END
> <s_m_entry_id>
5454

> <s_m_entry_name>
dock_pv.445

> <s_m_Source_Path>
/home/csk/Desktop/cluster/DUD-E-result/pgh1

> <s_m_Source_File>
dock_pv.maegz

> <i_m_Source_File_Index>
445

> <chembl_id>
CHEMBL388531

> <chembl_pref_name>
None

> <i_lp_mmshare_version>
53161

> <r_lp_tautomer_probability>
1

> <s_lp_Force_Field>
OPLS_2005

> <r_lp_Energy>
34.334741

> <b_lp_Chiralities_Consistent>
1

> <s_lp_Variant>
CHEMBL221_lig731-1

> <s_i_glide_gridfile>
glide-grid_2oyu

> <i_i_glide_lignum>
900

> <i_i_glide_rotatable_bonds>
5

> <r_i_docking_score>
-7.57258363553065

> <r_i_glide_ligand_efficiency>
-0.344208347069575

> <r_i_glide_ligand_efficiency_sa>
-0.964485325435074

> <r_i_glide_ligand_efficiency_ln>
-1.8510156572231

> <r_i_glide_gscore>
-7.57258363553065

> <r_i_glide_lipo>
-4.95326669090284

> <r_i_glide_hbond>
0

> <r_i_glide_metal>
0

> <r_i_glide_rewards>
-1.65539025536904

> <r_i_glide_evdw>
-26.0844497680664

> <r_i_glide_ecoul>
-1.02025210857391

> <r_i_glide_erotb>
0.49333361543064

> <r_i_glide_esite>
0

> <r_i_glide_emodel>
-29.7729908078811

> <r_i_glide_energy>
-27.1047018766403

> <r_i_glide_einternal>
4.14667749404907

> <i_i_glide_confnum>
27

> <i_i_glide_posenum>
250

> <r_i_glide_eff_state_penalty>
0

> <s_user_duplicate_titles>
CHEMBL221_lig731

> <i_f3d_flags>
0

> <s_m_subgroup_title>
dock_pv

> <s_m_subgroupid>
dock_pv

> <b_m_subgroup_collapsed>
1

$$$$
CHEMBL221_lig727
                    3D
 Schrodinger Suite 2021-1.
 34 35  0  0  1  0            999 V2000
   20.5797   49.7672   14.5907 C   0  0  0  0  0  0
   20.9397   50.1834   13.3484 C   0  0  0  0  0  0
   19.6484   48.6334   14.7440 C   0  0  0  0  0  0
   21.9018   51.2434   13.0239 C   0  0  0  0  0  0
   19.7757   47.5151   13.9110 C   0  0  0  0  0  0
   18.9230   46.4298   14.0543 C   0  0  0  0  0  0
   17.9000   46.4642   15.0000 C   0  0  0  0  0  0
   17.7472   47.5783   15.8163 C   0  0  0  0  0  0
   18.6272   48.6425   15.7011 C   0  0  0  0  0  0
   21.7592   52.4986   13.6104 C   0  0  0  0  0  0
   23.9085   52.0273   11.9154 C   0  0  0  0  0  0
   22.9669   51.0180   12.1413 C   0  0  0  0  0  0
   21.2209   50.2897   15.8813 C   0  0  0  0  0  0
   20.5230   51.3390   16.7611 C   0  0  0  0  0  0
   23.8112   53.2354   12.6000 C   0  0  0  0  0  0
   22.7062   53.4865   13.4015 C   0  0  0  0  0  0
   22.5230   54.7008   13.9893 O   0  0  0  0  0  0
   24.9230   51.8730   11.0109 O   0  0  0  0  0  0
   16.7567   47.6344   16.7324 F   0  0  0  0  0  0
   20.4778   49.7227   12.4868 H   0  0  0  0  0  0
   20.5483   47.4731   13.1568 H   0  0  0  0  0  0
   19.0097   45.5760   13.3989 H   0  0  0  0  0  0
   17.2123   45.6357   15.0828 H   0  0  0  0  0  0
   18.4652   49.4730   16.3595 H   0  0  0  0  0  0
   20.9105   52.7158   14.2347 H   0  0  0  0  0  0
   23.0660   50.0657   11.6420 H   0  0  0  0  0  0
   21.5268   49.4247   16.4640 H   0  0  0  0  0  0
   22.1230   50.7843   15.5910 H   0  0  0  0  0  0
   21.0722   51.4728   17.6933 H   0  0  0  0  0  0
   20.5230   52.3127   16.2814 H   0  0  0  0  0  0
   19.5060   51.0936   17.0419 H   0  0  0  0  0  0
   24.5527   54.0033   12.4408 H   0  0  0  0  0  0
   23.2770   55.2940   13.9162 H   0  0  0  0  0  0
   25.0751   50.9777   10.6893 H   0  0  0  0  0  0
  1  3  1  0  0  0
  1  2  2  0  0  0
  1 13  1  0  0  0
  2  4  1  0  0  0
  2 20  1  0  0  0
  3  5  2  0  0  0
  3  9  1  0  0  0
  4 10  2  0  0  0
  4 12  1  0  0  0
  5  6  1  0  0  0
  5 21  1  0  0  0
  6  7  2  0  0  0
  6 22  1  0  0  0
  7  8  1  0  0  0
  7 23  1  0  0  0
  8  9  2  0  0  0
  8 19  1  0  0  0
  9 24  1  0  0  0
 10 16  1  0  0  0
 10 25  1  0  0  0
 11 15  1  0  0  0
 11 12  2  0  0  0
 11 18  1  0  0  0
 12 26  1  0  0  0
 13 14  1  0  0  0
 13 27  1  0  0  0
 13 28  1  0  0  0
 14 29  1  0  0  0
 14 30  1  0  0  0
 14 31  1  0  0  0
 15 16  2  0  0  0
 15 32  1  0  0  0
 16 17  1  0  0  0
 17 33  1  0  0  0
 18 34  1  0  0  0
M  END
> <s_m_entry_id>
5455

> <s_m_entry_name>
dock_pv.446

> <s_m_Source_Path>
/home/csk/Desktop/cluster/DUD-E-result/pgh1

> <s_m_Source_File>
dock_pv.maegz

> <i_m_Source_File_Index>
446

> <chembl_id>
CHEMBL471103

> <chembl_pref_name>
None

> <i_lp_mmshare_version>
53161

> <r_lp_tautomer_probability>
1

> <s_lp_Force_Field>
OPLS_2005

> <r_lp_Energy>
19.019337

> <b_lp_Chiralities_Consistent>
1

> <s_lp_Variant>
CHEMBL221_lig727-1

> <s_i_glide_gridfile>
glide-grid_2oyu

> <i_i_glide_lignum>
896

> <i_i_glide_rotatable_bonds>
5

> <r_i_docking_score>
-7.57129220582103

> <r_i_glide_ligand_efficiency>
-0.398489063464265

> <r_i_glide_ligand_efficiency_sa>
-1.06332887290207

> <r_i_glide_ligand_efficiency_ln>
-1.91948519062172

> <r_i_glide_gscore>
-7.57129220582103

> <r_i_glide_lipo>
-3.59665323131325

> <r_i_glide_hbond>
-0.390519005855266

> <r_i_glide_metal>
0

> <r_i_glide_rewards>
-2.50389574570002

> <r_i_glide_evdw>
-26.4791069030762

> <r_i_glide_ecoul>
-3.6700656414032

> <r_i_glide_erotb>
0.794240968411792

> <r_i_glide_esite>
0

> <r_i_glide_emodel>
-33.7483353724015

> <r_i_glide_energy>
-30.1491725444794

> <r_i_glide_einternal>
10.419620513916

> <i_i_glide_confnum>
28

> <i_i_glide_posenum>
259

> <r_i_glide_eff_state_penalty>
0

> <s_user_duplicate_titles>
CHEMBL221_lig727

> <i_f3d_flags>
0

> <s_m_subgroup_title>
dock_pv

> <s_m_subgroupid>
dock_pv

> <b_m_subgroup_collapsed>
1

$$$$
CHEMBL221_lig1057 
                    3D
 Schrodinger Suite 2021-1.
 46 48  0  0  1  0            999 V2000
   20.9230   50.2729    5.3998 O   0  0  0  0  0  0
   20.0767   49.1352    5.7324 S   0  0  0  0  0  0
   20.3226   47.8517    5.1040 O   0  0  0  0  0  0
   20.1227   49.9504    9.6879 C   0  0  0  0  0  0
   20.1230   50.0909    8.3064 C   0  0  0  0  0  0
   20.0124   48.9726    7.4856 C   0  0  0  0  0  0
   19.7230   47.7381    8.0325 C   0  0  0  0  0  0
   19.5964   47.6189    9.4001 C   0  0  0  0  0  0
   19.7821   48.7090   10.2514 C   0  0  0  0  0  0
   19.5962   48.5284   11.6530 N   0  0  0  0  0  0
   20.0358   49.2827   12.7086 C   0  0  0  0  0  0
   19.7224   48.6040   13.8636 C   0  0  0  0  0  0
   18.9929   47.5094   13.4401 C   0  0  0  0  0  0
   18.9230   47.4730   12.1349 N   0  0  0  0  0  0
   20.1230   49.0242   15.1767 C   0  0  0  0  0  0
   20.4707   49.3940   16.2000 N   0  0  0  0  0  0
   20.6710   50.4543   12.5838 N   0  0  0  0  0  0
   21.9254   50.3688   12.5994 C   0  0  0  0  0  0
   22.7100   51.5471   12.7326 C   0  0  0  0  0  0
   18.4404   49.4730    5.4000 N   0  0  0  0  0  0
   23.9814   51.5360   12.1876 C   0  0  0  0  0  0
   24.7651   52.6598   12.2974 C   0  0  0  0  0  0
   24.2942   53.8022   12.9581 C   0  0  0  0  0  0
   23.0028   53.8315   13.4827 C   0  0  0  0  0  0
   22.2199   52.6849   13.3891 C   0  0  0  0  0  0
   25.0108   54.9631   13.0243 O   0  0  0  0  0  0
   26.3763   54.9102   12.7208 C   0  0  0  0  0  0
   22.5913   55.0030   14.0846 O   0  0  0  0  0  0
   21.4002   55.0421   14.8461 C   0  0  0  0  0  0
   20.2305   50.8535   10.2646 H   0  0  0  0  0  0
   20.2560   51.0720    7.8704 H   0  0  0  0  0  0
   19.5634   46.8886    7.3997 H   0  0  0  0  0  0
   19.3247   46.6730    9.8000 H   0  0  0  0  0  0
   18.5413   46.7499   14.0626 H   0  0  0  0  0  0
   22.4776   49.4343   12.5375 H   0  0  0  0  0  0
   18.2242   50.3355    4.8688 H   0  0  0  0  0  0
   17.8781   48.6736    5.1062 H   0  0  0  0  0  0
   24.3747   50.6719   11.6665 H   0  0  0  0  0  0
   25.7294   52.5868   11.8292 H   0  0  0  0  0  0
   21.2215   52.6808   13.8018 H   0  0  0  0  0  0
   26.8017   55.8730   12.5389 H   0  0  0  0  0  0
   26.9227   54.4307   13.5223 H   0  0  0  0  0  0
   26.5231   54.3843   11.8001 H   0  0  0  0  0  0
   21.3854   55.9541   15.4420 H   0  0  0  0  0  0
   20.5471   55.0730   14.1681 H   0  0  0  0  0  0
   21.3230   54.1998   15.5356 H   0  0  0  0  0  0
  1  2  2  0  0  0
  2  3  2  0  0  0
  2  6  1  0  0  0
  2 20  1  0  0  0
  4  5  2  0  0  0
  4  9  1  0  0  0
  4 30  1  0  0  0
  5  6  1  0  0  0
  5 31  1  0  0  0
  6  7  2  0  0  0
  7  8  1  0  0  0
  7 32  1  0  0  0
  8  9  2  0  0  0
  8 33  1  0  0  0
  9 10  1  0  0  0
 10 11  1  0  0  0
 10 14  1  0  0  0
 11 12  2  0  0  0
 11 17  1  0  0  0
 12 13  1  0  0  0
 12 15  1  0  0  0
 13 14  2  0  0  0
 13 34  1  0  0  0
 15 16  3  0  0  0
 17 18  2  0  0  0
 18 19  1  0  0  0
 18 35  1  0  0  0
 19 21  2  0  0  0
 19 25  1  0  0  0
 20 36  1  0  0  0
 20 37  1  0  0  0
 21 22  1  0  0  0
 21 38  1  0  0  0
 22 23  2  0  0  0
 22 39  1  0  0  0
 23 24  1  0  0  0
 23 26  1  0  0  0
 24 25  2  0  0  0
 24 28  1  0  0  0
 25 40  1  0  0  0
 26 27  1  0  0  0
 27 41  1  0  0  0
 27 42  1  0  0  0
 27 43  1  0  0  0
 28 29  1  0  0  0
 29 44  1  0  0  0
 29 45  1  0  0  0
 29 46  1  0  0  0
M  END
> <s_m_entry_id>
5456

> <s_m_entry_name>
dock_pv.447

> <s_m_Source_Path>
/home/csk/Desktop/cluster/DUD-E-result/pgh1

> <s_m_Source_File>
dock_pv.maegz

> <i_m_Source_File_Index>
447

> <chembl_id>
CHEMBL4572657

> <chembl_pref_name>
None

> <i_lp_mmshare_version>
53161

> <r_lp_tautomer_probability>
1

> <s_lp_Force_Field>
OPLS_2005

> <r_lp_Energy>
34.334236

> <b_lp_Chiralities_Consistent>
1

> <s_lp_Variant>
CHEMBL221_lig1057 -1

> <s_i_glide_gridfile>
glide-grid_2oyu

> <i_i_glide_lignum>
1315

> <i_i_glide_rotatable_bonds>
6

> <r_i_docking_score>
-7.57075476061549

> <r_i_glide_ligand_efficiency>
-0.261060508986741

> <r_i_glide_ligand_efficiency_sa>
-0.802060593381817

> <r_i_glide_ligand_efficiency_ln>
-1.73351086240451

> <r_i_glide_gscore>
-7.57075476061549

> <r_i_glide_lipo>
-3.69543388757309

> <r_i_glide_hbond>
-0.241317707509575

> <r_i_glide_metal>
0

> <r_i_glide_rewards>
-2.96289978097675

> <r_i_glide_evdw>
-5.82995653152466

> <r_i_glide_ecoul>
-4.31962585449219

> <r_i_glide_erotb>
0.34929706474713

> <r_i_glide_esite>
-0.080958744553145

> <r_i_glide_emodel>
-24.7835822195623

> <r_i_glide_energy>
-10.1495823860168

> <r_i_glide_einternal>
10.3917407989502

> <i_i_glide_confnum>
1

> <i_i_glide_posenum>
146

> <r_i_glide_eff_state_penalty>
0

> <s_user_duplicate_titles>
CHEMBL221_lig1057 

> <i_f3d_flags>
0

> <s_m_subgroup_title>
dock_pv

> <s_m_subgroupid>
dock_pv

> <b_m_subgroup_collapsed>
1

$$$$
CHEMBL221_lig340
                    3D
 Schrodinger Suite 2021-1.
 28 29  0  0  1  0            999 V2000
   20.9826   49.5488   11.8008 C   0  0  0  0  0  0
   21.2589   50.3642   13.3377 S   0  0  0  0  0  0
   19.6207   47.5412   12.4862 N   0  0  0  0  0  0
   19.7292   48.6982   11.5718 C   0  0  2  0  0  0
   21.9966   49.8730   10.9131 C   0  0  0  0  0  0
   19.0261   47.4726   13.7093 C   0  0  0  0  0  0
   22.6509   51.2221   12.7167 C   0  0  0  0  0  0
   22.9532   50.7975   11.4000 C   0  0  0  0  0  0
   19.3230   46.6730   14.5951 O   0  0  0  0  0  0
   17.9796   48.2730   13.8892 N   0  0  0  0  0  0
   20.5230   46.5037   12.2000 O   0  0  0  0  0  0
   19.5241   48.2730   10.0948 C   0  0  0  0  0  0
   23.4175   52.1981   13.3684 C   0  0  0  0  0  0
   24.0857   51.3287   10.7666 C   0  0  0  0  0  0
   24.8632   52.2730   11.4230 C   0  0  0  0  0  0
   24.5230   52.7161   12.6970 C   0  0  0  0  0  0
   18.9230   49.3900   11.7941 H   0  0  0  0  0  0
   22.0499   49.4730    9.9131 H   0  0  0  0  0  0
   17.4863   48.2312   14.7670 H   0  0  0  0  0  0
   17.6524   48.8790   13.1547 H   0  0  0  0  0  0
   20.0185   45.9722   11.5707 H   0  0  0  0  0  0
   19.7230   49.0902    9.4000 H   0  0  0  0  0  0
   20.1230   47.4260    9.7915 H   0  0  0  0  0  0
   18.5230   47.9076    9.9179 H   0  0  0  0  0  0
   23.1681   52.5328   14.3649 H   0  0  0  0  0  0
   24.3589   51.0123    9.7718 H   0  0  0  0  0  0
   25.7408   52.6725   10.9346 H   0  0  0  0  0  0
   25.1363   53.4635   13.1798 H   0  0  0  0  0  0
  1  2  1  0  0  0
  1  4  1  0  0  0
  1  5  2  0  0  0
  2  7  1  0  0  0
  3  4  1  0  0  0
  3  6  1  0  0  0
  3 11  1  0  0  0
  4 12  1  0  0  0
  4 17  1  0  0  0
  5  8  1  0  0  0
  5 18  1  0  0  0
  6  9  2  0  0  0
  6 10  1  0  0  0
  7 13  2  0  0  0
  7  8  1  0  0  0
  8 14  2  0  0  0
 10 19  1  0  0  0
 10 20  1  0  0  0
 11 21  1  0  0  0
 12 22  1  0  0  0
 12 23  1  0  0  0
 12 24  1  0  0  0
 13 16  1  0  0  0
 13 25  1  0  0  0
 14 15  1  0  0  0
 14 26  1  0  0  0
 15 16  2  0  0  0
 15 27  1  0  0  0
 16 28  1  0  0  0
M  END
> <s_m_entry_id>
5457

> <s_m_entry_name>
dock_pv.448

> <s_m_Source_Path>
/home/csk/Desktop/cluster/DUD-E-result/pgh1

> <s_m_Source_File>
dock_pv.maegz

> <i_m_Source_File_Index>
448

> <chembl_id>
CHEMBL93

> <chembl_pref_name>
ZILEUTON

> <i_lp_mmshare_version>
53161

> <r_lp_tautomer_probability>
1

> <s_lp_Force_Field>
OPLS_2005

> <r_lp_Energy>
5.081862

> <b_lp_Chiralities_Consistent>
1

> <s_lp_Variant>
CHEMBL221_lig340-2

> <s_i_glide_gridfile>
glide-grid_2oyu

> <i_i_glide_lignum>
406

> <i_i_glide_rotatable_bonds>
4

> <r_i_docking_score>
-7.57013624838358

> <r_i_glide_ligand_efficiency>
-0.473133515523974

> <r_i_glide_ligand_efficiency_sa>
-1.19222175013699

> <r_i_glide_ligand_efficiency_ln>
-2.00661582953818

> <r_i_glide_gscore>
-7.57013624838358

> <r_i_glide_lipo>
-3.28116038170427

> <r_i_glide_hbond>
0

> <r_i_glide_metal>
0

> <r_i_glide_rewards>
-2.54110554650286

> <r_i_glide_evdw>
-29.1990432739258

> <r_i_glide_ecoul>
-3.9749276638031

> <r_i_glide_erotb>
0.308320993090307

> <r_i_glide_esite>
0

> <r_i_glide_emodel>
-47.8735204977911

> <r_i_glide_energy>
-33.1739709377289

> <r_i_glide_einternal>
2.45155954360962

> <i_i_glide_confnum>
1

> <i_i_glide_posenum>
143

> <r_i_glide_eff_state_penalty>
0

> <s_user_duplicate_titles>
CHEMBL221_lig340

> <i_f3d_flags>
0

> <s_m_subgroup_title>
dock_pv

> <s_m_subgroupid>
dock_pv

> <b_m_subgroup_collapsed>
1

$$$$
CHEMBL221_lig708
                    3D
 Schrodinger Suite 2021-1.
 34 36  0  0  1  0            999 V2000
   20.5234   49.5370   14.8898 C   0  0  0  0  0  0
   20.9232   49.9209   13.6108 C   0  0  0  0  0  0
   20.0469   49.2299   12.7875 N   0  0  0  0  0  0
   19.2132   48.4758   13.5277 N   0  0  0  0  0  0
   19.5334   48.6725   14.8532 N   0  0  0  0  0  0
   19.9646   49.1899   11.3732 C   0  0  0  0  0  0
   19.7230   47.9666   10.7472 C   0  0  0  0  0  0
   19.7593   47.8732    9.3635 C   0  0  0  0  0  0
   20.0861   48.9894    8.5814 C   0  0  0  0  0  0
   20.1485   50.2411    9.1977 C   0  0  0  0  0  0
   20.1237   50.3422   10.5915 C   0  0  0  0  0  0
   20.0365   48.7603    6.7906 S   0  0  0  0  0  0
   18.9230   49.8724    5.9264 C   0  0  0  0  0  0
   19.4212   47.4730    6.6000 O   0  0  0  0  0  0
   21.3230   49.0730    6.1998 O   0  0  0  0  0  0
   22.0078   50.8486   13.1788 C   0  0  0  0  0  0
   22.1253   52.0943   13.8004 C   0  0  0  0  0  0
   23.1216   52.9807   13.4000 C   0  0  0  0  0  0
   24.0060   52.6150   12.3879 C   0  0  0  0  0  0
   23.9025   51.3702   11.7705 C   0  0  0  0  0  0
   22.9075   50.4836   12.1724 C   0  0  0  0  0  0
   20.9574   49.8667   15.8224 H   0  0  0  0  0  0
   19.5429   47.0730   11.3274 H   0  0  0  0  0  0
   19.5921   46.9065    8.9133 H   0  0  0  0  0  0
   20.2725   51.1202    8.5870 H   0  0  0  0  0  0
   20.2483   51.3103   11.0551 H   0  0  0  0  0  0
   19.0639   49.6656    4.8719 H   0  0  0  0  0  0
   19.3240   50.8095    6.2000 H   0  0  0  0  0  0
   17.8869   49.7360    6.2000 H   0  0  0  0  0  0
   21.4404   52.3836   14.5844 H   0  0  0  0  0  0
   23.2114   53.9469   13.8758 H   0  0  0  0  0  0
   24.7818   53.3017   12.0841 H   0  0  0  0  0  0
   24.5940   51.0900   10.9883 H   0  0  0  0  0  0
   22.8341   49.5152   11.6991 H   0  0  0  0  0  0
  1  5  1  0  0  0
  1  2  2  0  0  0
  1 22  1  0  0  0
  2  3  1  0  0  0
  2 16  1  0  0  0
  3  6  1  0  0  0
  3  4  1  0  0  0
  4  5  2  0  0  0
  6 11  1  0  0  0
  6  7  2  0  0  0
  7  8  1  0  0  0
  7 23  1  0  0  0
  8  9  2  0  0  0
  8 24  1  0  0  0
  9 12  1  0  0  0
  9 10  1  0  0  0
 10 11  2  0  0  0
 10 25  1  0  0  0
 11 26  1  0  0  0
 12 13  1  0  0  0
 12 14  2  0  0  0
 12 15  2  0  0  0
 13 27  1  0  0  0
 13 28  1  0  0  0
 13 29  1  0  0  0
 16 17  2  0  0  0
 16 21  1  0  0  0
 17 18  1  0  0  0
 17 30  1  0  0  0
 18 19  2  0  0  0
 18 31  1  0  0  0
 19 20  1  0  0  0
 19 32  1  0  0  0
 20 21  2  0  0  0
 20 33  1  0  0  0
 21 34  1  0  0  0
M  END
> <s_m_entry_id>
5458

> <s_m_entry_name>
dock_pv.449

> <s_m_Source_Path>
/home/csk/Desktop/cluster/DUD-E-result/pgh1

> <s_m_Source_File>
dock_pv.maegz

> <i_m_Source_File_Index>
449

> <chembl_id>
CHEMBL458647

> <chembl_pref_name>
None

> <i_lp_mmshare_version>
53161

> <r_lp_tautomer_probability>
1

> <s_lp_Force_Field>
OPLS_2005

> <r_lp_Energy>
13.165785

> <b_lp_Chiralities_Consistent>
1

> <s_lp_Variant>
CHEMBL221_lig708-1

> <s_i_glide_gridfile>
glide-grid_2oyu

> <i_i_glide_lignum>
877

> <i_i_glide_rotatable_bonds>
3

> <r_i_docking_score>
-7.56699183104398

> <r_i_glide_ligand_efficiency>
-0.360332944335428

> <r_i_glide_ligand_efficiency_sa>
-0.994131270664719

> <r_i_glide_ligand_efficiency_ln>
-1.8709234396789

> <r_i_glide_gscore>
-7.56699183104398

> <r_i_glide_lipo>
-3.94591270233839

> <r_i_glide_hbond>
0

> <r_i_glide_metal>
0

> <r_i_glide_rewards>
-2.57909789164951

> <r_i_glide_evdw>
-13.8999395370483

> <r_i_glide_ecoul>
-5.04582405090332

> <r_i_glide_erotb>
0.409889347431831

> <r_i_glide_esite>
0

> <r_i_glide_emodel>
-22.0841780137518

> <r_i_glide_energy>
-18.9457635879517

> <r_i_glide_einternal>
0.766266047954559

> <i_i_glide_confnum>
4

> <i_i_glide_posenum>
282

> <r_i_glide_eff_state_penalty>
0

> <s_user_duplicate_titles>
CHEMBL221_lig708,496809

> <i_f3d_flags>
0

> <s_m_subgroup_title>
dock_pv

> <s_m_subgroupid>
dock_pv

> <b_m_subgroup_collapsed>
1

$$$$
CHEMBL221_lig662
                    3D
 Schrodinger Suite 2021-1.
 42 44  0  0  1  0            999 V2000
   23.1959   52.1939   13.2843 C   0  0  0  0  0  0
   23.2800   51.1871   12.3113 C   0  0  0  0  0  0
   22.3344   50.1658   12.2920 C   0  0  0  0  0  0
   21.2993   50.1332   13.2357 C   0  0  0  0  0  0
   21.2759   51.1059   14.2340 C   0  0  0  0  0  0
   22.1876   52.1441   14.2329 C   0  0  0  0  0  0
   20.2424   49.0679   13.1605 C   0  0  0  0  0  0
   19.7237   48.4540   11.9903 C   0  0  0  0  0  0
   18.9230   47.4730   12.2941 N   0  0  0  0  0  0
   18.8125   47.4231   13.6620 O   0  0  0  0  0  0
   19.4926   48.4613   14.1876 C   0  0  0  0  0  0
   19.8914   48.7327   10.5232 C   0  0  0  0  0  0
   20.1082   50.0325   10.0715 C   0  0  0  0  0  0
   20.1230   50.2850    8.7064 C   0  0  0  0  0  0
   20.0133   49.2621    7.7657 C   0  0  0  0  0  0
   19.7587   47.9614    8.2102 C   0  0  0  0  0  0
   19.7229   47.7072    9.5750 C   0  0  0  0  0  0
   20.1123   49.6367    6.4456 O   0  0  0  0  0  0
   19.5884   48.7719    5.4515 C   0  0  0  0  0  0
   19.2866   48.6057   15.6947 C   0  0  0  0  0  0
   17.8125   48.5144   16.1664 C   0  0  0  0  0  0
   17.1349   47.4731   15.6094 O   0  0  0  0  0  0
   17.3230   49.2734   16.9996 O   0  0  0  0  0  0
   24.0542   53.2606   13.3997 O   0  0  0  0  0  0
   25.0235   53.4580   12.3994 C   0  0  0  0  0  0
   24.0630   51.1825   11.5680 H   0  0  0  0  0  0
   22.4100   49.4012   11.5330 H   0  0  0  0  0  0
   20.5223   51.1176   14.9970 H   0  0  0  0  0  0
   22.1229   52.9116   14.9921 H   0  0  0  0  0  0
   20.1921   50.8591   10.7621 H   0  0  0  0  0  0
   20.2606   51.2929    8.3471 H   0  0  0  0  0  0
   19.6423   47.1441    7.5162 H   0  0  0  0  0  0
   19.5676   46.6887    9.8885 H   0  0  0  0  0  0
   19.3250   49.3900    4.5996 H   0  0  0  0  0  0
   20.3294   48.0322    5.1420 H   0  0  0  0  0  0
   18.6668   48.2735    5.7572 H   0  0  0  0  0  0
   19.8200   47.8063   16.1999 H   0  0  0  0  0  0
   19.7181   49.5183   16.0940 H   0  0  0  0  0  0
   17.6424   47.0855   14.8903 H   0  0  0  0  0  0
   25.5205   54.4100   12.5930 H   0  0  0  0  0  0
   24.5276   53.4729   11.4263 H   0  0  0  0  0  0
   25.7782   52.6757   12.4069 H   0  0  0  0  0  0
  1  6  1  0  0  0
  1  2  2  0  0  0
  1 24  1  0  0  0
  2  3  1  0  0  0
  2 26  1  0  0  0
  3  4  2  0  0  0
  3 27  1  0  0  0
  4  7  1  0  0  0
  4  5  1  0  0  0
  5  6  2  0  0  0
  5 28  1  0  0  0
  6 29  1  0  0  0
  7  8  1  0  0  0
  7 11  2  0  0  0
  8 12  1  0  0  0
  8  9  2  0  0  0
  9 10  1  0  0  0
 10 11  1  0  0  0
 11 20  1  0  0  0
 12 13  2  0  0  0
 12 17  1  0  0  0
 13 14  1  0  0  0
 13 30  1  0  0  0
 14 15  2  0  0  0
 14 31  1  0  0  0
 15 16  1  0  0  0
 15 18  1  0  0  0
 16 17  2  0  0  0
 16 32  1  0  0  0
 17 33  1  0  0  0
 18 19  1  0  0  0
 19 34  1  0  0  0
 19 35  1  0  0  0
 19 36  1  0  0  0
 20 21  1  0  0  0
 20 37  1  0  0  0
 20 38  1  0  0  0
 21 22  1  0  0  0
 21 23  2  0  0  0
 22 39  1  0  0  0
 24 25  1  0  0  0
 25 40  1  0  0  0
 25 41  1  0  0  0
 25 42  1  0  0  0
M  END
> <s_m_entry_id>
5459

> <s_m_entry_name>
dock_pv.450

> <s_m_Source_Path>
/home/csk/Desktop/cluster/DUD-E-result/pgh1

> <s_m_Source_File>
dock_pv.maegz

> <i_m_Source_File_Index>
450

> <chembl_id>
CHEMBL259972

> <chembl_pref_name>
MOFEZOLAC

> <i_lp_mmshare_version>
53161

> <r_lp_tautomer_probability>
1

> <s_lp_Force_Field>
OPLS_2005

> <r_lp_Energy>
23.370663

> <b_lp_Chiralities_Consistent>
1

> <s_lp_Variant>
CHEMBL221_lig662-1

> <s_i_glide_gridfile>
glide-grid_2oyu

> <i_i_glide_lignum>
804

> <i_i_glide_rotatable_bonds>
7

> <r_i_docking_score>
-7.5636517763368

> <r_i_glide_ligand_efficiency>
-0.302546071053472

> <r_i_glide_ligand_efficiency_sa>
-0.884650077437769

> <r_i_glide_ligand_efficiency_ln>
-1.79281213534487

> <r_i_glide_gscore>
-7.5636517763368

> <r_i_glide_lipo>
-4.74146986379463

> <r_i_glide_hbond>
0

> <r_i_glide_metal>
0

> <r_i_glide_rewards>
-2.11623763968218

> <r_i_glide_evdw>
-30.9608135223389

> <r_i_glide_ecoul>
1.23175251483917

> <r_i_glide_erotb>
0.657333526031077

> <r_i_glide_esite>
0

> <r_i_glide_emodel>
-29.8411019680223

> <r_i_glide_energy>
-29.7290610074997

> <r_i_glide_einternal>
3.3790488243103

> <i_i_glide_confnum>
116

> <i_i_glide_posenum>
259

> <r_i_glide_eff_state_penalty>
0

> <s_user_duplicate_titles>
CHEMBL221_lig662,429475

> <i_f3d_flags>
0

> <s_m_subgroup_title>
dock_pv

> <s_m_subgroupid>
dock_pv

> <b_m_subgroup_collapsed>
1

$$$$
CHEMBL221_lig557
                    3D
 Schrodinger Suite 2021-1.
 45 48  0  0  1  0            999 V2000
   20.1230   49.3352    7.9909 C   0  0  0  0  0  0
   20.5135   49.7940    9.1600 N   0  0  0  0  0  0
   20.1230   48.8950   10.0386 C   0  0  0  0  0  0
   19.5207   48.1146    8.0965 N   0  0  0  0  0  0
   20.3348   49.5889   14.2059 C   0  0  0  0  0  0
   21.0461   50.4191   13.3510 C   0  0  0  0  0  0
   19.4687   48.5813   13.7553 C   0  0  0  0  0  0
   19.6002   47.7733    9.4163 C   0  0  0  0  0  0
   20.2245   49.1365   11.4930 C   0  0  0  0  0  0
   20.5190   49.9201   15.5119 O   0  0  0  0  0  0
   20.9966   50.1895   11.9857 C   0  0  0  0  0  0
   19.4800   48.3439   12.3748 C   0  0  0  0  0  0
   20.1230   49.8730    6.3165 S   0  0  0  0  0  0
   21.7617   51.4883   14.1275 C   0  0  0  0  0  0
   18.4750   47.7782   14.6390 C   0  0  0  0  0  0
   18.9230   47.6759    6.9565 C   0  0  0  0  0  0
   19.1378   48.5121    5.8798 C   0  0  0  0  0  0
   21.3423   51.0600   15.5694 C   0  0  0  0  0  0
   21.2594   52.9189   13.8000 C   0  0  0  0  0  0
   23.2737   51.4376   13.8133 C   0  0  0  0  0  0
   18.3636   48.2728   16.1000 C   0  0  0  0  0  0
   18.9230   46.3108   14.6930 C   0  0  0  0  0  0
   17.0484   47.8728   14.0538 C   0  0  0  0  0  0
   19.1662   46.8715    9.8001 H   0  0  0  0  0  0
   21.5478   50.8288   11.3113 H   0  0  0  0  0  0
   18.8588   47.5596   11.9706 H   0  0  0  0  0  0
   18.2924   46.8008    7.0000 H   0  0  0  0  0  0
   18.7591   48.4490    4.8663 H   0  0  0  0  0  0
   22.1230   50.6798   16.2037 H   0  0  0  0  0  0
   20.8146   51.8522   16.1024 H   0  0  0  0  0  0
   21.3555   53.5865   14.6573 H   0  0  0  0  0  0
   20.2262   52.9414   13.4601 H   0  0  0  0  0  0
   21.8299   53.3866   13.0000 H   0  0  0  0  0  0
   23.8806   51.8730   14.6000 H   0  0  0  0  0  0
   23.6058   50.4249   13.6143 H   0  0  0  0  0  0
   23.5187   51.9775   12.8978 H   0  0  0  0  0  0
   18.0278   49.3072   16.1690 H   0  0  0  0  0  0
   17.6589   47.6747   16.6799 H   0  0  0  0  0  0
   19.3230   48.1959   16.6000 H   0  0  0  0  0  0
   18.9981   45.8650   13.7007 H   0  0  0  0  0  0
   19.9006   46.2730   15.1720 H   0  0  0  0  0  0
   18.2371   45.6943   15.2752 H   0  0  0  0  0  0
   16.9775   47.4732   13.0473 H   0  0  0  0  0  0
   16.3266   47.3266   14.6611 H   0  0  0  0  0  0
   16.7237   48.9074   13.9969 H   0  0  0  0  0  0
  1  2  2  0  0  0
  1  4  1  0  0  0
  1 13  1  0  0  0
  2  3  1  0  0  0
  3  9  1  0  0  0
  3  8  2  0  0  0
  4  8  1  0  0  0
  4 16  1  0  0  0
  5  7  1  0  0  0
  5 10  1  0  0  0
  5  6  2  0  0  0
  6 11  1  0  0  0
  6 14  1  0  0  0
  7 12  2  0  0  0
  7 15  1  0  0  0
  8 24  1  0  0  0
  9 11  2  0  0  0
  9 12  1  0  0  0
 10 18  1  0  0  0
 11 25  1  0  0  0
 12 26  1  0  0  0
 13 17  1  0  0  0
 14 18  1  0  0  0
 14 19  1  0  0  0
 14 20  1  0  0  0
 15 21  1  0  0  0
 15 22  1  0  0  0
 15 23  1  0  0  0
 16 17  2  0  0  0
 16 27  1  0  0  0
 17 28  1  0  0  0
 18 29  1  0  0  0
 18 30  1  0  0  0
 19 31  1  0  0  0
 19 32  1  0  0  0
 19 33  1  0  0  0
 20 34  1  0  0  0
 20 35  1  0  0  0
 20 36  1  0  0  0
 21 37  1  0  0  0
 21 38  1  0  0  0
 21 39  1  0  0  0
 22 40  1  0  0  0
 22 41  1  0  0  0
 22 42  1  0  0  0
 23 43  1  0  0  0
 23 44  1  0  0  0
 23 45  1  0  0  0
M  END
> <s_m_entry_id>
5460

> <s_m_entry_name>
dock_pv.451

> <s_m_Source_Path>
/home/csk/Desktop/cluster/DUD-E-result/pgh1

> <s_m_Source_File>
dock_pv.maegz

> <i_m_Source_File_Index>
451

> <chembl_id>
CHEMBL332028

> <chembl_pref_name>
None

> <i_lp_mmshare_version>
53161

> <r_lp_tautomer_probability>
1

> <s_lp_Force_Field>
OPLS_2005

> <r_lp_Energy>
27.140506

> <b_lp_Chiralities_Consistent>
1

> <s_lp_Variant>
CHEMBL221_lig557-1

> <s_i_glide_gridfile>
glide-grid_2oyu

> <i_i_glide_lignum>
695

> <i_i_glide_rotatable_bonds>
2

> <r_i_docking_score>
-7.56325498773261

> <r_i_glide_ligand_efficiency>
-0.328837173379679

> <r_i_glide_ligand_efficiency_sa>
-0.935169178144787

> <r_i_glide_ligand_efficiency_ln>
-1.82886363583834

> <r_i_glide_gscore>
-7.56325498773261

> <r_i_glide_lipo>
-4.39928727583265

> <r_i_glide_hbond>
0

> <r_i_glide_metal>
0

> <r_i_glide_rewards>
-2.38986530669408

> <r_i_glide_evdw>
-17.1793994903564

> <r_i_glide_ecoul>
-0.60742175579071

> <r_i_glide_erotb>
0.175980832680545

> <r_i_glide_esite>
0

> <r_i_glide_emodel>
-29.1709067327832

> <r_i_glide_energy>
-17.7868212461472

> <r_i_glide_einternal>
2.43735837936401

> <i_i_glide_confnum>
1

> <i_i_glide_posenum>
85

> <r_i_glide_eff_state_penalty>
0

> <s_user_duplicate_titles>
CHEMBL221_lig557,194420

> <i_f3d_flags>
0

> <s_m_subgroup_title>
dock_pv

> <s_m_subgroupid>
dock_pv

> <b_m_subgroup_collapsed>
1

$$$$
CHEMBL221_lig465
                    3D
 Schrodinger Suite 2021-1.
 40 42  0  0  1  0            999 V2000
   22.5193   50.9782   11.6928 C   0  0  0  0  0  0
   21.9983   50.2098   10.6000 C   0  0  0  0  0  0
   17.7017   47.3029   15.0141 S   0  0  0  0  0  0
   22.0416   50.9921   12.9616 C   0  0  0  0  0  0
   21.2537   49.6624    9.8000 C   0  0  0  0  0  0
   23.6762   51.8729   11.5823 C   0  0  0  0  0  0
   22.7894   51.9780   13.8236 C   0  0  0  0  0  0
   18.9826   48.3916   14.4696 C   0  0  0  0  0  0
   20.9197   50.1668   13.5056 C   0  0  0  0  0  0
   16.5230   47.5994   14.2000 O   0  0  0  0  0  0
   18.2954   45.9621   15.0000 O   0  0  0  0  0  0
   23.8027   52.6168   12.8963 C   0  0  0  0  0  0
   24.3995   52.0075   10.6000 O   0  0  0  0  0  0
   18.9362   48.8026   13.1499 C   0  0  0  0  0  0
   19.9712   48.8669   15.3303 C   0  0  0  0  0  0
   19.8675   49.7142   12.6930 C   0  0  0  0  0  0
   20.9230   49.7607   14.8472 C   0  0  0  0  0  0
   20.3188   49.1856    8.7850 C   0  0  0  0  0  0
   17.3277   47.8730   16.7700 C   0  0  0  0  0  0
   20.1230   49.9748    7.6446 C   0  0  0  0  0  0
   19.7230   47.9291    8.8669 C   0  0  0  0  0  0
   19.0048   47.4730    7.7692 C   0  0  0  0  0  0
   19.4678   49.4848    6.5312 C   0  0  0  0  0  0
   18.9230   48.2260    6.6001 C   0  0  0  0  0  0
   23.3269   51.4730   14.6177 H   0  0  0  0  0  0
   22.1337   52.7229   14.2775 H   0  0  0  0  0  0
   24.8178   52.5286   13.2838 H   0  0  0  0  0  0
   23.5990   53.6762   12.7405 H   0  0  0  0  0  0
   18.1499   48.4527   12.4985 H   0  0  0  0  0  0
   20.0050   48.5647   16.3644 H   0  0  0  0  0  0
   19.6975   50.1013   11.7073 H   0  0  0  0  0  0
   21.6894   50.1064   15.5241 H   0  0  0  0  0  0
   16.3814   47.4371   17.0826 H   0  0  0  0  0  0
   18.1230   47.5333   17.4287 H   0  0  0  0  0  0
   17.2485   48.9590   16.7776 H   0  0  0  0  0  0
   20.5230   50.9772    7.5867 H   0  0  0  0  0  0
   19.8331   47.3083    9.7445 H   0  0  0  0  0  0
   18.5230   46.5154    7.8002 H   0  0  0  0  0  0
   19.3404   50.0960    5.6491 H   0  0  0  0  0  0
   18.3387   47.8730    5.7667 H   0  0  0  0  0  0
  1  2  1  0  0  0
  1  4  2  0  0  0
  1  6  1  0  0  0
  2  5  3  0  0  0
  3  8  1  0  0  0
  3 10  2  0  0  0
  3 11  2  0  0  0
  3 19  1  0  0  0
  4  7  1  0  0  0
  4  9  1  0  0  0
  5 18  1  0  0  0
  6 12  1  0  0  0
  6 13  2  0  0  0
  7 12  1  0  0  0
  7 25  1  0  0  0
  7 26  1  0  0  0
  8 15  2  0  0  0
  8 14  1  0  0  0
  9 16  1  0  0  0
  9 17  2  0  0  0
 12 27  1  0  0  0
 12 28  1  0  0  0
 14 16  2  0  0  0
 14 29  1  0  0  0
 15 17  1  0  0  0
 15 30  1  0  0  0
 16 31  1  0  0  0
 17 32  1  0  0  0
 18 20  1  0  0  0
 18 21  2  0  0  0
 19 33  1  0  0  0
 19 34  1  0  0  0
 19 35  1  0  0  0
 20 23  2  0  0  0
 20 36  1  0  0  0
 21 22  1  0  0  0
 21 37  1  0  0  0
 22 24  2  0  0  0
 22 38  1  0  0  0
 23 24  1  0  0  0
 23 39  1  0  0  0
 24 40  1  0  0  0
M  END
> <s_m_entry_id>
5461

> <s_m_entry_name>
dock_pv.452

> <s_m_Source_Path>
/home/csk/Desktop/cluster/DUD-E-result/pgh1

> <s_m_Source_File>
dock_pv.maegz

> <i_m_Source_File_Index>
452

> <chembl_id>
CHEMBL278336

> <chembl_pref_name>
None

> <i_lp_mmshare_version>
53161

> <r_lp_tautomer_probability>
1

> <s_lp_Force_Field>
OPLS_2005

> <r_lp_Energy>
17.948464

> <b_lp_Chiralities_Consistent>
1

> <s_lp_Variant>
CHEMBL221_lig465-1

> <s_i_glide_gridfile>
glide-grid_2oyu

> <i_i_glide_lignum>
576

> <i_i_glide_rotatable_bonds>
4

> <r_i_docking_score>
-7.56247284592645

> <r_i_glide_ligand_efficiency>
-0.315103035246936

> <r_i_glide_ligand_efficiency_sa>
-0.908914433412046

> <r_i_glide_ligand_efficiency_ln>
-1.81004677129702

> <r_i_glide_gscore>
-7.56247284592645

> <r_i_glide_lipo>
-4.44180266129355

> <r_i_glide_hbond>
0

> <r_i_glide_metal>
0

> <r_i_glide_rewards>
-2.55633896541254

> <r_i_glide_evdw>
-27.9596347808838

> <r_i_glide_ecoul>
2.30910611152649

> <r_i_glide_erotb>
0.500650472682819

> <r_i_glide_esite>
-0.0133658695879591

> <r_i_glide_emodel>
-22.6191615281188

> <r_i_glide_energy>
-25.6505286693573

> <r_i_glide_einternal>
7.17348766326904

> <i_i_glide_confnum>
1

> <i_i_glide_posenum>
147

> <r_i_glide_eff_state_penalty>
0

> <s_user_duplicate_titles>
CHEMBL221_lig465,30611

> <i_f3d_flags>
0

> <s_m_subgroup_title>
dock_pv

> <s_m_subgroupid>
dock_pv

> <b_m_subgroup_collapsed>
1

$$$$
CHEMBL221_lig389
                    3D
 Schrodinger Suite 2021-1.
 46 47  0  0  1  0            999 V2000
   20.1230   49.4111    8.8020 O   0  0  0  0  0  0
   19.8097   48.5781    9.8315 C   0  0  0  0  0  0
   19.3230   47.4472    9.4001 N   0  0  0  0  0  0
   19.3230   47.4918    8.0135 N   0  0  0  0  0  0
   19.7924   48.6727    7.7067 C   0  0  0  0  0  0
   21.1861   50.4863   12.8335 C   0  0  0  0  0  0
   19.7034   48.6755   13.6546 C   0  0  0  0  0  0
   20.5942   49.7583   13.8940 C   0  0  0  0  0  0
   20.0519   48.9884   11.2526 C   0  0  0  0  0  0
   19.4454   48.3275   12.3171 C   0  0  0  0  0  0
   20.9171   50.0349   11.5262 C   0  0  0  0  0  0
   19.0680   47.8307   14.8096 C   0  0  0  0  0  0
   22.0941   51.7529   13.0691 C   0  0  0  0  0  0
   20.0333   49.3799    6.1162 S   0  0  0  0  0  0
   20.9228   50.1115   15.1776 O   0  0  0  0  0  0
   23.3170   51.4730   13.9430 C   0  0  0  0  0  0
   21.3215   52.9018   13.7794 C   0  0  0  0  0  0
   18.1231   46.7084   14.3255 C   0  0  0  0  0  0
   18.2199   48.6670   15.7908 C   0  0  0  0  0  0
   22.7283   52.2530   11.7477 C   0  0  0  0  0  0
   20.1870   47.1185   15.5686 C   0  0  0  0  0  0
   18.3672   49.0730    5.4628 C   0  0  0  0  0  0
   18.7808   47.5148   12.0682 H   0  0  0  0  0  0
   21.3766   50.4593   10.6530 H   0  0  0  0  0  0
   21.4660   50.9018   15.1818 H   0  0  0  0  0  0
   23.7230   50.5189   13.6384 H   0  0  0  0  0  0
   24.1037   52.2233   13.8356 H   0  0  0  0  0  0
   23.0745   51.4730   14.9999 H   0  0  0  0  0  0
   20.3190   53.0702   13.4000 H   0  0  0  0  0  0
   21.1841   52.7106   14.8437 H   0  0  0  0  0  0
   21.8575   53.8500   13.7136 H   0  0  0  0  0  0
   17.7177   46.1254   15.1538 H   0  0  0  0  0  0
   18.6434   46.0018   13.6798 H   0  0  0  0  0  0
   17.2630   47.1217   13.8000 H   0  0  0  0  0  0
   18.7818   49.4730   16.2491 H   0  0  0  0  0  0
   17.3414   49.0755   15.2949 H   0  0  0  0  0  0
   17.8493   48.0555   16.6152 H   0  0  0  0  0  0
   21.9981   52.2730   10.9562 H   0  0  0  0  0  0
   23.1763   53.2424   11.8403 H   0  0  0  0  0  0
   23.5141   51.5821   11.3935 H   0  0  0  0  0  0
   20.7459   47.8114   16.1999 H   0  0  0  0  0  0
   19.8142   46.3130   16.1999 H   0  0  0  0  0  0
   20.8851   46.6730   14.8650 H   0  0  0  0  0  0
   18.3823   49.0730    4.3736 H   0  0  0  0  0  0
   17.9577   48.1201    5.7931 H   0  0  0  0  0  0
   17.6959   49.8637    5.8000 H   0  0  0  0  0  0
  1  2  1  0  0  0
  1  5  1  0  0  0
  2  3  2  0  0  0
  2  9  1  0  0  0
  3  4  1  0  0  0
  4  5  2  0  0  0
  5 14  1  0  0  0
  6 11  2  0  0  0
  6  8  1  0  0  0
  6 13  1  0  0  0
  7 10  1  0  0  0
  7 12  1  0  0  0
  7  8  2  0  0  0
  8 15  1  0  0  0
  9 10  2  0  0  0
  9 11  1  0  0  0
 10 23  1  0  0  0
 11 24  1  0  0  0
 12 18  1  0  0  0
 12 19  1  0  0  0
 12 21  1  0  0  0
 13 16  1  0  0  0
 13 17  1  0  0  0
 13 20  1  0  0  0
 14 22  1  0  0  0
 15 25  1  0  0  0
 16 26  1  0  0  0
 16 27  1  0  0  0
 16 28  1  0  0  0
 17 29  1  0  0  0
 17 30  1  0  0  0
 17 31  1  0  0  0
 18 32  1  0  0  0
 18 33  1  0  0  0
 18 34  1  0  0  0
 19 35  1  0  0  0
 19 36  1  0  0  0
 19 37  1  0  0  0
 20 38  1  0  0  0
 20 39  1  0  0  0
 20 40  1  0  0  0
 21 41  1  0  0  0
 21 42  1  0  0  0
 21 43  1  0  0  0
 22 44  1  0  0  0
 22 45  1  0  0  0
 22 46  1  0  0  0
M  END
> <s_m_entry_id>
5462

> <s_m_entry_name>
dock_pv.453

> <s_m_Source_Path>
/home/csk/Desktop/cluster/DUD-E-result/pgh1

> <s_m_Source_File>
dock_pv.maegz

> <i_m_Source_File_Index>
453

> <chembl_id>
CHEMBL274457

> <chembl_pref_name>
None

> <i_lp_mmshare_version>
53161

> <r_lp_tautomer_probability>
0.999999999997365

> <s_lp_Force_Field>
OPLS_2005

> <r_lp_Energy>
22.068925

> <b_lp_Chiralities_Consistent>
1

> <s_lp_Variant>
CHEMBL221_lig389-1

> <s_i_glide_gridfile>
glide-grid_2oyu

> <i_i_glide_lignum>
456

> <i_i_glide_rotatable_bonds>
5

> <r_i_docking_score>
-7.54960737819731

> <r_i_glide_ligand_efficiency>
-0.343163971736241

> <r_i_glide_ligand_efficiency_sa>
-0.961558944678122

> <r_i_glide_ligand_efficiency_ln>
-1.84539942185148

> <r_i_glide_gscore>
-7.54960737819731

> <r_i_glide_lipo>
-4.00852755077692

> <r_i_glide_hbond>
0

> <r_i_glide_metal>
0

> <r_i_glide_rewards>
-1.87139996739751

> <r_i_glide_evdw>
-31.1004753112793

> <r_i_glide_ecoul>
-1.97664189338684

> <r_i_glide_erotb>
0.181840189549114

> <r_i_glide_esite>
0

> <r_i_glide_emodel>
-33.695664759657

> <r_i_glide_energy>
-33.0771172046661

> <r_i_glide_einternal>
3.39623594284058

> <i_i_glide_confnum>
1

> <i_i_glide_posenum>
222

> <r_i_glide_eff_state_penalty>
0

> <s_user_duplicate_titles>
CHEMBL221_lig389

> <i_f3d_flags>
0

> <s_m_subgroup_title>
dock_pv

> <s_m_subgroupid>
dock_pv

> <b_m_subgroup_collapsed>
1

$$$$
CHEMBL221_lig822
                    3D
 Schrodinger Suite 2021-1.
 27 28  0  0  1  0            999 V2000
   22.5394   53.3480   13.7009 C   0  0  0  0  0  0
   23.4252   52.9745   12.6885 C   0  0  0  0  0  0
   23.4046   51.6743   12.1811 C   0  0  0  0  0  0
   21.7231   52.3954   14.3055 C   0  0  0  0  0  0
   21.7488   51.0819   13.8506 C   0  0  0  0  0  0
   22.5221   50.7463   12.7375 C   0  0  0  0  0  0
   22.4533   49.4739   12.2000 O   0  0  0  0  0  0
   21.1622   48.8175   12.2881 C   0  0  1  0  0  0
   20.5224   48.9904   13.6866 C   0  0  0  0  0  0
   20.8792   50.0654   14.4156 C   0  0  0  0  0  0
   19.6184   47.9596   14.1704 C   0  0  0  0  0  0
   18.9911   48.2732   15.3398 O   0  0  0  0  0  0
   19.4180   46.8958   13.5915 O   0  0  0  0  0  0
   20.2335   49.2655   11.1284 C   0  0  0  0  0  0
   20.9144   49.4709   10.0005 F   0  0  0  0  0  0
   19.3229   48.3297   10.8632 F   0  0  0  0  0  0
   19.5985   50.4075   11.3986 F   0  0  0  0  0  0
   24.3393   51.2745   11.0596 C   0  0  0  0  0  0
   22.4527   54.9878   14.2118 Cl  0  0  0  0  0  0
   24.1233   53.6931   12.2911 H   0  0  0  0  0  0
   21.0735   52.6733   15.1212 H   0  0  0  0  0  0
   21.3984   47.7591   12.1823 H   0  0  0  0  0  0
   20.5224   50.2043   15.4261 H   0  0  0  0  0  0
   18.3819   47.5720   15.5787 H   0  0  0  0  0  0
   25.0281   52.0704   10.7734 H   0  0  0  0  0  0
   24.9229   50.4207   11.4000 H   0  0  0  0  0  0
   23.7745   50.9585   10.1824 H   0  0  0  0  0  0
  1  2  2  0  0  0
  1  4  1  0  0  0
  1 19  1  0  0  0
  2  3  1  0  0  0
  2 20  1  0  0  0
  3  6  2  0  0  0
  3 18  1  0  0  0
  4  5  2  0  0  0
  4 21  1  0  0  0
  5  6  1  0  0  0
  5 10  1  0  0  0
  6  7  1  0  0  0
  7  8  1  0  0  0
  8  9  1  0  0  0
  8 14  1  0  0  0
  8 22  1  0  0  0
  9 10  2  0  0  0
  9 11  1  0  0  0
 10 23  1  0  0  0
 11 12  1  0  0  0
 11 13  2  0  0  0
 12 24  1  0  0  0
 14 15  1  0  0  0
 14 16  1  0  0  0
 14 17  1  0  0  0
 18 25  1  0  0  0
 18 26  1  0  0  0
 18 27  1  0  0  0
M  END
> <s_m_entry_id>
5463

> <s_m_entry_name>
dock_pv.454

> <s_m_Source_Path>
/home/csk/Desktop/cluster/DUD-E-result/pgh1

> <s_m_Source_File>
dock_pv.maegz

> <i_m_Source_File_Index>
454

> <chembl_id>
CHEMBL1288565

> <chembl_pref_name>
None

> <i_lp_mmshare_version>
53161

> <r_lp_tautomer_probability>
1

> <s_lp_Force_Field>
OPLS_2005

> <r_lp_Energy>
11.402512

> <b_lp_Chiralities_Consistent>
1

> <s_lp_Variant>
CHEMBL221_lig822-2

> <s_i_glide_gridfile>
glide-grid_2oyu

> <i_i_glide_lignum>
999

> <i_i_glide_rotatable_bonds>
3

> <r_i_docking_score>
-7.54658245666805

> <r_i_glide_ligand_efficiency>
-0.39718855035095

> <r_i_glide_ligand_efficiency_sa>
-1.05985858156972

> <r_i_glide_ligand_efficiency_ln>
-1.91322073849469

> <r_i_glide_gscore>
-7.54658245666805

> <r_i_glide_lipo>
-2.80296394638335

> <r_i_glide_hbond>
0

> <r_i_glide_metal>
0

> <r_i_glide_rewards>
-3.57913013074941

> <r_i_glide_evdw>
-29.4230079650879

> <r_i_glide_ecoul>
0.622897624969482

> <r_i_glide_erotb>
0.213227374973688

> <r_i_glide_esite>
0

> <r_i_glide_emodel>
-40.0678839416822

> <r_i_glide_energy>
-28.8001103401184

> <r_i_glide_einternal>
0.382360637187958

> <i_i_glide_confnum>
1

> <i_i_glide_posenum>
124

> <r_i_glide_eff_state_penalty>
0

> <s_user_duplicate_titles>
CHEMBL221_lig822

> <i_f3d_flags>
0

> <s_m_subgroup_title>
dock_pv

> <s_m_subgroupid>
dock_pv

> <b_m_subgroup_collapsed>
1

$$$$
CHEMBL221_lig340
                    3D
 Schrodinger Suite 2021-1.
 28 29  0  0  1  0            999 V2000
   21.5493   50.6821   12.4613 C   0  0  0  0  0  0
   20.2928   49.8495   11.5521 S   0  0  0  0  0  0
   23.1917   52.5673   12.6593 N   0  0  0  0  0  0
   22.5497   51.5872   11.7418 C   0  0  1  0  0  0
   21.4608   50.3608   13.8066 C   0  0  0  0  0  0
   24.4606   53.0730   12.5942 C   0  0  0  0  0  0
   19.7212   49.0188   12.9858 C   0  0  0  0  0  0
   20.4574   49.4173   14.1312 C   0  0  0  0  0  0
   25.3230   52.6730   11.8226 O   0  0  0  0  0  0
   24.7701   54.0896   13.4000 N   0  0  0  0  0  0
   22.2592   53.3159   13.4198 O   0  0  0  0  0  0
   23.4928   50.7039   10.8945 C   0  0  0  0  0  0
   18.6775   48.0869   13.0734 C   0  0  0  0  0  0
   20.1230   48.8598   15.3763 C   0  0  0  0  0  0
   19.0737   47.9460   15.4592 C   0  0  0  0  0  0
   18.3657   47.5658   14.3264 C   0  0  0  0  0  0
   21.9961   52.1946   11.0280 H   0  0  0  0  0  0
   22.1230   50.7617   14.5551 H   0  0  0  0  0  0
   25.6731   54.5294   13.3244 H   0  0  0  0  0  0
   24.0719   54.4463   14.0378 H   0  0  0  0  0  0
   21.9872   52.7009   14.1047 H   0  0  0  0  0  0
   22.9230   50.0094   10.2771 H   0  0  0  0  0  0
   24.0967   51.2884   10.2000 H   0  0  0  0  0  0
   24.1692   50.1305   11.5298 H   0  0  0  0  0  0
   18.1200   47.7866   12.1981 H   0  0  0  0  0  0
   20.6618   49.1466   16.2653 H   0  0  0  0  0  0
   18.7998   47.5281   16.4174 H   0  0  0  0  0  0
   17.5531   46.8610   14.4254 H   0  0  0  0  0  0
  1  2  1  0  0  0
  1  4  1  0  0  0
  1  5  2  0  0  0
  2  7  1  0  0  0
  3  4  1  0  0  0
  3  6  1  0  0  0
  3 11  1  0  0  0
  4 12  1  0  0  0
  4 17  1  0  0  0
  5  8  1  0  0  0
  5 18  1  0  0  0
  6  9  2  0  0  0
  6 10  1  0  0  0
  7 13  2  0  0  0
  7  8  1  0  0  0
  8 14  2  0  0  0
 10 19  1  0  0  0
 10 20  1  0  0  0
 11 21  1  0  0  0
 12 22  1  0  0  0
 12 23  1  0  0  0
 12 24  1  0  0  0
 13 16  1  0  0  0
 13 25  1  0  0  0
 14 15  1  0  0  0
 14 26  1  0  0  0
 15 16  2  0  0  0
 15 27  1  0  0  0
 16 28  1  0  0  0
M  END
> <s_m_entry_id>
5464

> <s_m_entry_name>
dock_pv.455

> <s_m_Source_Path>
/home/csk/Desktop/cluster/DUD-E-result/pgh1

> <s_m_Source_File>
dock_pv.maegz

> <i_m_Source_File_Index>
455

> <chembl_id>
CHEMBL93

> <chembl_pref_name>
ZILEUTON

> <i_lp_mmshare_version>
53161

> <r_lp_tautomer_probability>
1

> <s_lp_Force_Field>
OPLS_2005

> <r_lp_Energy>
5.458219

> <b_lp_Chiralities_Consistent>
1

> <s_lp_Variant>
CHEMBL221_lig340-1

> <s_i_glide_gridfile>
glide-grid_2oyu

> <i_i_glide_lignum>
405

> <i_i_glide_rotatable_bonds>
4

> <r_i_docking_score>
-7.5457055597023

> <r_i_glide_ligand_efficiency>
-0.471606597481394

> <r_i_glide_ligand_efficiency_sa>
-1.18837415777392

> <r_i_glide_ligand_efficiency_ln>
-2.00013998748913

> <r_i_glide_gscore>
-7.5457055597023

> <r_i_glide_lipo>
-3.1694289897183

> <r_i_glide_hbond>
-0.0353897674402081

> <r_i_glide_metal>
0

> <r_i_glide_rewards>
-2.78216130234225

> <r_i_glide_evdw>
-33.2163543701172

> <r_i_glide_ecoul>
-1.3748584985733

> <r_i_glide_erotb>
0.308320993090307

> <r_i_glide_esite>
0

> <r_i_glide_emodel>
-47.4982856400756

> <r_i_glide_energy>
-34.5912128686905

> <r_i_glide_einternal>
6.60691976547241

> <i_i_glide_confnum>
1

> <i_i_glide_posenum>
159

> <r_i_glide_eff_state_penalty>
0

> <s_user_duplicate_titles>
CHEMBL221_lig340

> <i_f3d_flags>
0

> <s_m_subgroup_title>
dock_pv

> <s_m_subgroupid>
dock_pv

> <b_m_subgroup_collapsed>
1

$$$$
CHEMBL221_lig833
                    3D
 Schrodinger Suite 2021-1.
 30 31  0  0  1  0            999 V2000
   20.1234   48.8158   14.1625 C   0  0  0  0  0  0
   19.8550   48.5907   12.8004 C   0  0  0  0  0  0
   20.4452   49.4236   11.8241 C   0  0  0  0  0  0
   20.9183   49.8897   14.5540 C   0  0  0  0  0  0
   21.4400   50.7534   13.5962 C   0  0  0  0  0  0
   21.2534   50.4931   12.2371 C   0  0  0  0  0  0
   21.7714   51.3521   11.2744 O   0  0  0  0  0  0
   22.9644   52.1137   11.6028 C   0  0  1  0  0  0
   22.9729   52.5663   13.0700 C   0  0  0  0  0  0
   22.2203   51.9179   13.9746 C   0  0  0  0  0  0
   24.2540   51.4320   11.1197 C   0  0  0  0  0  0
   23.6369   53.7978   13.4000 C   0  0  0  0  0  0
   24.8437   53.9942   13.2936 O   0  0  0  0  0  0
   22.7492   54.7461   13.8000 O   0  0  0  0  0  0
   18.8912   47.4729   12.4237 C   0  0  0  0  0  0
   20.2200   49.1999   10.3314 C   0  0  0  0  0  0
   25.3005   52.2611   11.1714 F   0  0  0  0  0  0
   24.5230   50.3261   11.8004 F   0  0  0  0  0  0
   24.1230   51.0730    9.8530 F   0  0  0  0  0  0
   19.4856   47.7851   15.4000 Cl  0  0  0  0  0  0
   21.0942   50.0668   15.6057 H   0  0  0  0  0  0
   22.9230   53.0116   10.9988 H   0  0  0  0  0  0
   22.1231   52.2960   14.9836 H   0  0  0  0  0  0
   23.2013   55.5729   14.0131 H   0  0  0  0  0  0
   18.0012   47.5297   13.0513 H   0  0  0  0  0  0
   18.5230   47.5191   11.4011 H   0  0  0  0  0  0
   19.3495   46.5002   12.6000 H   0  0  0  0  0  0
   20.1230   48.1454   10.0766 H   0  0  0  0  0  0
   19.3230   49.7290   10.0166 H   0  0  0  0  0  0
   21.0620   49.5610    9.7409 H   0  0  0  0  0  0
  1  2  2  0  0  0
  1  4  1  0  0  0
  1 20  1  0  0  0
  2  3  1  0  0  0
  2 15  1  0  0  0
  3  6  2  0  0  0
  3 16  1  0  0  0
  4  5  2  0  0  0
  4 21  1  0  0  0
  5  6  1  0  0  0
  5 10  1  0  0  0
  6  7  1  0  0  0
  7  8  1  0  0  0
  8  9  1  0  0  0
  8 11  1  0  0  0
  8 22  1  0  0  0
  9 10  2  0  0  0
  9 12  1  0  0  0
 10 23  1  0  0  0
 11 17  1  0  0  0
 11 18  1  0  0  0
 11 19  1  0  0  0
 12 13  2  0  0  0
 12 14  1  0  0  0
 14 24  1  0  0  0
 15 25  1  0  0  0
 15 26  1  0  0  0
 15 27  1  0  0  0
 16 28  1  0  0  0
 16 29  1  0  0  0
 16 30  1  0  0  0
M  END
> <s_m_entry_id>
5465

> <s_m_entry_name>
dock_pv.456

> <s_m_Source_Path>
/home/csk/Desktop/cluster/DUD-E-result/pgh1

> <s_m_Source_File>
dock_pv.maegz

> <i_m_Source_File_Index>
456

> <chembl_id>
CHEMBL1288695

> <chembl_pref_name>
None

> <i_lp_mmshare_version>
53161

> <r_lp_tautomer_probability>
1

> <s_lp_Force_Field>
OPLS_2005

> <r_lp_Energy>
14.416141

> <b_lp_Chiralities_Consistent>
1

> <s_lp_Variant>
CHEMBL221_lig833-1

> <s_i_glide_gridfile>
glide-grid_2oyu

> <i_i_glide_lignum>
1019

> <i_i_glide_rotatable_bonds>
3

> <r_i_docking_score>
-7.54510747052951

> <r_i_glide_ligand_efficiency>
-0.377255373526475

> <r_i_glide_ligand_efficiency_sa>
-1.02402863083278

> <r_i_glide_ligand_efficiency_ln>
-1.88829154557408

> <r_i_glide_gscore>
-7.54510747052951

> <r_i_glide_lipo>
-3.55626849517771

> <r_i_glide_hbond>
0

> <r_i_glide_metal>
0

> <r_i_glide_rewards>
-2.2393093577091

> <r_i_glide_evdw>
-27.3620128631592

> <r_i_glide_ecoul>
-3.74918937683105

> <r_i_glide_erotb>
0.196456339294348

> <r_i_glide_esite>
-0.0155069072544374

> <r_i_glide_emodel>
-40.7127645616914

> <r_i_glide_energy>
-31.1112022399902

> <r_i_glide_einternal>
3.62407612800598

> <i_i_glide_confnum>
1

> <i_i_glide_posenum>
325

> <r_i_glide_eff_state_penalty>
0

> <s_user_duplicate_titles>
CHEMBL221_lig833

> <i_f3d_flags>
0

> <s_m_subgroup_title>
dock_pv

> <s_m_subgroupid>
dock_pv

> <b_m_subgroup_collapsed>
1

$$$$
CHEMBL221_lig109
                    3D
 Schrodinger Suite 2021-1.
 36 39  0  0  1  0            999 V2000
   19.8896   48.8541   13.6277 N   0  0  0  0  0  0
   19.8210   48.3871   12.3780 N   0  0  0  0  0  0
   21.1919   50.1161   12.3745 C   0  0  0  0  0  0
   20.7739   49.9055   13.6674 C   0  0  0  0  0  0
   20.4495   49.2123   11.5956 C   0  0  0  0  0  0
   20.1962   49.0728   10.1376 C   0  0  0  0  0  0
   18.9756   48.3326   14.5776 C   0  0  0  0  0  0
   19.7231   47.8704    9.5938 C   0  0  0  0  0  0
   20.3521   50.1710    9.3120 C   0  0  0  0  0  0
   22.1548   51.2727   12.3074 C   0  0  0  0  0  0
   21.3234   50.9018   14.6465 C   0  0  0  0  0  0
   19.7231   48.8182    7.3995 C   0  0  0  0  0  0
   20.1230   50.0354    7.9398 C   0  0  0  0  0  0
   19.5047   47.7297    8.2300 C   0  0  0  0  0  0
   19.4534   48.6800    5.7051 Cl  0  0  0  0  0  0
   22.4452   51.5421   13.8013 C   0  0  0  0  0  0
   18.0560   47.3658   14.1607 C   0  0  0  0  0  0
   18.8318   48.8797   15.8510 C   0  0  0  0  0  0
   17.7038   48.5458   16.6005 C   0  0  0  0  0  0
   17.0750   46.8781   14.9999 C   0  0  0  0  0  0
   16.9229   47.4817   16.2244 C   0  0  0  0  0  0
   19.5494   47.0276   10.2385 H   0  0  0  0  0  0
   20.6661   51.1201    9.7157 H   0  0  0  0  0  0
   23.0680   51.0342   11.7640 H   0  0  0  0  0  0
   21.7233   52.1562   11.8445 H   0  0  0  0  0  0
   20.5741   51.6337   14.9513 H   0  0  0  0  0  0
   21.7202   50.4461   15.5524 H   0  0  0  0  0  0
   20.2317   50.8925    7.2902 H   0  0  0  0  0  0
   19.1459   46.7966    7.8292 H   0  0  0  0  0  0
   22.5622   52.6055   14.0148 H   0  0  0  0  0  0
   23.3982   51.0744   14.0589 H   0  0  0  0  0  0
   18.0439   47.0687   13.1305 H   0  0  0  0  0  0
   19.4795   49.6697   16.1979 H   0  0  0  0  0  0
   17.3425   49.0628   17.4858 H   0  0  0  0  0  0
   16.3782   46.1209   14.6722 H   0  0  0  0  0  0
   16.1236   47.1740   16.8794 H   0  0  0  0  0  0
  1  2  1  0  0  0
  1  4  1  0  0  0
  1  7  1  0  0  0
  2  5  2  0  0  0
  3  4  2  0  0  0
  3 10  1  0  0  0
  3  5  1  0  0  0
  4 11  1  0  0  0
  5  6  1  0  0  0
  6  8  1  0  0  0
  6  9  2  0  0  0
  7 17  2  0  0  0
  7 18  1  0  0  0
  8 14  2  0  0  0
  8 22  1  0  0  0
  9 13  1  0  0  0
  9 23  1  0  0  0
 10 16  1  0  0  0
 10 24  1  0  0  0
 10 25  1  0  0  0
 11 16  1  0  0  0
 11 26  1  0  0  0
 11 27  1  0  0  0
 12 13  2  0  0  0
 12 15  1  0  0  0
 12 14  1  0  0  0
 13 28  1  0  0  0
 14 29  1  0  0  0
 16 30  1  0  0  0
 16 31  1  0  0  0
 17 20  1  0  0  0
 17 32  1  0  0  0
 18 19  2  0  0  0
 18 33  1  0  0  0
 19 21  1  0  0  0
 19 34  1  0  0  0
 20 21  2  0  0  0
 20 35  1  0  0  0
 21 36  1  0  0  0
M  END
> <s_m_entry_id>
5466

> <s_m_entry_name>
dock_pv.457

> <s_m_Source_Path>
/home/csk/Desktop/cluster/DUD-E-result/pgh1

> <s_m_Source_File>
dock_pv.maegz

> <i_m_Source_File_Index>
457

> <chembl_id>
CHEMBL157616

> <chembl_pref_name>
None

> <i_lp_mmshare_version>
53161

> <r_lp_tautomer_probability>
1

> <s_lp_Force_Field>
OPLS_2005

> <r_lp_Energy>
39.834504

> <b_lp_Chiralities_Consistent>
1

> <s_lp_Variant>
CHEMBL221_lig109-1

> <s_i_glide_gridfile>
glide-grid_2oyu

> <i_i_glide_lignum>
131

> <i_i_glide_rotatable_bonds>
2

> <r_i_docking_score>
-7.53548870968224

> <r_i_glide_ligand_efficiency>
-0.358832795699154

> <r_i_glide_ligand_efficiency_sa>
-0.98999247432814

> <r_i_glide_ligand_efficiency_ln>
-1.86313435658026

> <r_i_glide_gscore>
-7.53548870968224

> <r_i_glide_lipo>
-4.56833941212748

> <r_i_glide_hbond>
0

> <r_i_glide_metal>
0

> <r_i_glide_rewards>
-2.5369601596321

> <r_i_glide_evdw>
-17.7199974060059

> <r_i_glide_ecoul>
0.231641829013824

> <r_i_glide_erotb>
0.421064458025552

> <r_i_glide_esite>
0

> <r_i_glide_emodel>
-32.7431566383682

> <r_i_glide_energy>
-17.488355576992

> <r_i_glide_einternal>
2.30920124053955

> <i_i_glide_confnum>
1

> <i_i_glide_posenum>
289

> <r_i_glide_eff_state_penalty>
0

> <s_user_duplicate_titles>
CHEMBL221_lig109

> <i_f3d_flags>
0

> <s_m_subgroup_title>
dock_pv

> <s_m_subgroupid>
dock_pv

> <b_m_subgroup_collapsed>
1

$$$$
CHEMBL221_lig887
                    3D
 Schrodinger Suite 2021-1.
 30 31  0  0  1  0            999 V2000
   20.8899   49.7625   16.1190 Cl  0  0  0  0  0  0
   20.7065   49.4901   10.6471 Cl  0  0  0  0  0  0
   24.9333   52.2118   10.9801 O   0  0  0  0  0  0
   24.1230   50.2730   11.8000 O   0  0  0  0  0  0
   21.8495   50.3583   13.2790 N   0  0  0  0  0  0
   20.6742   49.5994   13.3964 C   0  0  0  0  0  0
   20.1405   49.2278   14.6472 C   0  0  0  0  0  0
   22.1505   51.7250   13.4226 C   0  0  0  0  0  0
   20.0852   49.1052   12.2203 C   0  0  0  0  0  0
   23.2682   52.2842   12.7548 C   0  0  0  0  0  0
   18.9889   48.4226   14.7049 C   0  0  0  0  0  0
   18.9784   48.2662   12.2969 C   0  0  0  0  0  0
   18.4187   47.9490   13.5266 C   0  0  0  0  0  0
   21.3766   52.5448   14.2488 C   0  0  0  0  0  0
   24.1230   51.4922   11.8020 C   0  0  0  0  0  0
   23.6123   53.6172   13.0000 C   0  0  0  0  0  0
   21.7230   53.8824   14.4439 C   0  0  0  0  0  0
   22.8210   54.4210   13.8000 C   0  0  0  0  0  0
   18.3083   48.0827   16.0201 C   0  0  0  0  0  0
   25.4677   51.5922   10.4742 H   0  0  0  0  0  0
   22.5640   49.9011   12.7212 H   0  0  0  0  0  0
   18.5305   47.8730   11.3963 H   0  0  0  0  0  0
   17.5273   47.3427   13.5604 H   0  0  0  0  0  0
   20.5230   52.1463   14.7728 H   0  0  0  0  0  0
   24.4898   54.0661   12.5550 H   0  0  0  0  0  0
   21.1668   54.5123   15.1206 H   0  0  0  0  0  0
   23.0901   55.4502   13.9706 H   0  0  0  0  0  0
   17.3257   47.6311   15.8753 H   0  0  0  0  0  0
   18.9230   47.3989   16.6000 H   0  0  0  0  0  0
   18.1542   48.9917   16.6000 H   0  0  0  0  0  0
  1  7  1  0  0  0
  2  9  1  0  0  0
  3 15  1  0  0  0
  3 20  1  0  0  0
  4 15  2  0  0  0
  5  6  1  0  0  0
  5  8  1  0  0  0
  5 21  1  0  0  0
  6  7  1  0  0  0
  6  9  2  0  0  0
  7 11  2  0  0  0
  8 10  2  0  0  0
  8 14  1  0  0  0
  9 12  1  0  0  0
 10 15  1  0  0  0
 10 16  1  0  0  0
 11 13  1  0  0  0
 11 19  1  0  0  0
 12 13  2  0  0  0
 12 22  1  0  0  0
 13 23  1  0  0  0
 14 17  2  0  0  0
 14 24  1  0  0  0
 16 18  2  0  0  0
 16 25  1  0  0  0
 17 18  1  0  0  0
 17 26  1  0  0  0
 18 27  1  0  0  0
 19 28  1  0  0  0
 19 29  1  0  0  0
 19 30  1  0  0  0
M  END
> <s_m_entry_id>
5467

> <s_m_entry_name>
dock_pv.458

> <s_m_Source_Path>
/home/csk/Desktop/cluster/DUD-E-result/pgh1

> <s_m_Source_File>
dock_pv.maegz

> <i_m_Source_File_Index>
458

> <chembl_id>
CHEMBL509

> <chembl_pref_name>
MECLOFENAMIC ACID

> <i_lp_mmshare_version>
53161

> <r_lp_tautomer_probability>
1

> <s_lp_Force_Field>
OPLS_2005

> <r_lp_Energy>
25.108957

> <b_lp_Chiralities_Consistent>
1

> <s_lp_Variant>
CHEMBL221_lig887-1

> <s_i_glide_gridfile>
glide-grid_2oyu

> <i_i_glide_lignum>
1093

> <i_i_glide_rotatable_bonds>
4

> <r_i_docking_score>
-7.53533487262049

> <r_i_glide_ligand_efficiency>
-0.396596572243184

> <r_i_glide_ligand_efficiency_sa>
-1.0582789462125

> <r_i_glide_ligand_efficiency_ln>
-1.91036923436268

> <r_i_glide_gscore>
-7.53533487262049

> <r_i_glide_lipo>
-3.76457045834068

> <r_i_glide_hbond>
0

> <r_i_glide_metal>
0

> <r_i_glide_rewards>
-2.45680284582851

> <r_i_glide_evdw>
-29.7652606964111

> <r_i_glide_ecoul>
-3.01465582847595

> <r_i_glide_erotb>
0.626499840640647

> <r_i_glide_esite>
0

> <r_i_glide_emodel>
-42.4388675805947

> <r_i_glide_energy>
-32.7799165248871

> <r_i_glide_einternal>
3.61733245849609

> <i_i_glide_confnum>
5

> <i_i_glide_posenum>
228

> <r_i_glide_eff_state_penalty>
0

> <s_user_duplicate_titles>
CHEMBL221_lig887,10531

> <i_f3d_flags>
0

> <s_m_subgroup_title>
dock_pv

> <s_m_subgroupid>
dock_pv

> <b_m_subgroup_collapsed>
1

$$$$
CHEMBL221_lig27
                    3D
 Schrodinger Suite 2021-1.
 34 36  0  0  1  0            999 V2000
   19.9804   48.9178   13.4425 C   0  0  0  0  0  0
   20.4906   49.4262   12.2437 C   0  0  0  0  0  0
   19.7942   48.6858   11.2553 C   0  0  0  0  0  0
   18.9230   47.8730   11.8000 N   0  0  0  0  0  0
   19.0400   47.9922   13.1649 O   0  0  0  0  0  0
   21.5879   50.4308   12.1064 C   0  0  0  0  0  0
   20.2893   49.0730   14.9281 C   0  0  0  0  0  0
   21.7230   51.4730   13.0318 C   0  0  0  0  0  0
   22.7998   52.3525   12.9532 C   0  0  0  0  0  0
   23.7391   52.1985   11.9377 C   0  0  0  0  0  0
   23.6043   51.1784   11.0000 C   0  0  0  0  0  0
   22.5230   50.3028   11.0789 C   0  0  0  0  0  0
   19.8931   48.5750    9.7958 C   0  0  0  0  0  0
   20.1230   49.6477    8.9857 O   0  0  0  0  0  0
   20.0263   49.1902    7.6957 C   0  0  0  0  0  0
   19.7230   47.8551    7.6755 C   0  0  0  0  0  0
   19.6786   47.4607    8.9971 C   0  0  0  0  0  0
   20.1230   50.2730    6.3877 Cl  0  0  0  0  0  0
   19.1063   49.0416   15.7275 O   0  0  0  0  0  0
   18.4980   47.8730   16.0336 C   0  0  0  0  0  0
   17.1766   48.0682   16.7575 C   0  0  0  0  0  0
   18.9230   46.7498   15.7615 O   0  0  0  0  0  0
   20.9230   48.2578   15.2576 H   0  0  0  0  0  0
   20.8397   49.9834   15.1542 H   0  0  0  0  0  0
   20.9943   51.6151   13.8148 H   0  0  0  0  0  0
   22.9049   53.1509   13.6743 H   0  0  0  0  0  0
   24.5763   52.8782   11.8737 H   0  0  0  0  0  0
   24.3365   51.0691   10.2123 H   0  0  0  0  0  0
   22.4378   49.5073   10.3547 H   0  0  0  0  0  0
   19.5614   47.2481    6.7997 H   0  0  0  0  0  0
   19.4669   46.4680    9.3492 H   0  0  0  0  0  0
   17.3230   48.5657   17.7149 H   0  0  0  0  0  0
   16.5230   48.6730   16.1382 H   0  0  0  0  0  0
   16.6743   47.1172   16.9253 H   0  0  0  0  0  0
  1  2  2  0  0  0
  1  5  1  0  0  0
  1  7  1  0  0  0
  2  3  1  0  0  0
  2  6  1  0  0  0
  3  4  2  0  0  0
  3 13  1  0  0  0
  4  5  1  0  0  0
  6  8  2  0  0  0
  6 12  1  0  0  0
  7 19  1  0  0  0
  7 23  1  0  0  0
  7 24  1  0  0  0
  8  9  1  0  0  0
  8 25  1  0  0  0
  9 10  2  0  0  0
  9 26  1  0  0  0
 10 11  1  0  0  0
 10 27  1  0  0  0
 11 12  2  0  0  0
 11 28  1  0  0  0
 12 29  1  0  0  0
 13 14  1  0  0  0
 13 17  2  0  0  0
 14 15  1  0  0  0
 15 16  2  0  0  0
 15 18  1  0  0  0
 16 17  1  0  0  0
 16 30  1  0  0  0
 17 31  1  0  0  0
 19 20  1  0  0  0
 20 21  1  0  0  0
 20 22  2  0  0  0
 21 32  1  0  0  0
 21 33  1  0  0  0
 21 34  1  0  0  0
M  END
> <s_m_entry_id>
5468

> <s_m_entry_name>
dock_pv.459

> <s_m_Source_Path>
/home/csk/Desktop/cluster/DUD-E-result/pgh1

> <s_m_Source_File>
dock_pv.maegz

> <i_m_Source_File_Index>
459

> <chembl_id>
CHEMBL2380871

> <chembl_pref_name>
None

> <i_lp_mmshare_version>
53161

> <r_lp_tautomer_probability>
1

> <s_lp_Force_Field>
OPLS_2005

> <r_lp_Energy>
9.834266

> <b_lp_Chiralities_Consistent>
1

> <s_lp_Variant>
CHEMBL221_lig27-1

> <s_i_glide_gridfile>
glide-grid_2oyu

> <i_i_glide_lignum>
32

> <i_i_glide_rotatable_bonds>
5

> <r_i_docking_score>
-7.53190003401792

> <r_i_glide_ligand_efficiency>
-0.34235909245536

> <r_i_glide_ligand_efficiency_sa>
-0.959303641278987

> <r_i_glide_ligand_efficiency_ln>
-1.84107110104297

> <r_i_glide_gscore>
-7.53190003401792

> <r_i_glide_lipo>
-4.56851315753287

> <r_i_glide_hbond>
0

> <r_i_glide_metal>
0

> <r_i_glide_rewards>
-2.33221692565738

> <r_i_glide_evdw>
-30.8119621276855

> <r_i_glide_ecoul>
1.14023089408875

> <r_i_glide_erotb>
0.738393521443286

> <r_i_glide_esite>
0

> <r_i_glide_emodel>
-42.1396112348321

> <r_i_glide_energy>
-29.6717312335968

> <r_i_glide_einternal>
2.81947207450867

> <i_i_glide_confnum>
37

> <i_i_glide_posenum>
264

> <r_i_glide_eff_state_penalty>
0

> <s_user_duplicate_titles>
CHEMBL221_lig27

> <i_f3d_flags>
0

> <s_m_subgroup_title>
dock_pv

> <s_m_subgroupid>
dock_pv

> <b_m_subgroup_collapsed>
1

$$$$
CHEMBL221_lig506
                    3D
 Schrodinger Suite 2021-1.
 38 41  0  0  1  0            999 V2000
   20.3439   49.2892   13.6489 C   0  0  0  0  0  0
   20.5339   49.9317   15.8000 C   0  0  0  0  0  0
   20.9231   50.1756   14.4439 C   0  0  0  0  0  0
   19.7790   48.8229   15.8256 O   0  0  0  0  0  0
   19.7256   48.2512   14.5389 C   0  0  1  0  0  0
   20.1935   49.1768   12.1888 C   0  0  0  0  0  0
   21.7593   51.2895   14.0501 C   0  0  0  0  0  0
   20.7782   50.6730   16.7474 O   0  0  0  0  0  0
   19.3392   48.2088   11.6561 C   0  0  0  0  0  0
   18.3103   48.0218   14.0312 C   0  0  0  0  0  0
   18.4023   47.4675   12.5992 C   0  0  0  0  0  0
   22.9235   51.0653   13.3244 C   0  0  0  0  0  0
   21.3794   52.5698   14.4061 C   0  0  0  0  0  0
   23.3597   53.3995   13.4000 C   0  0  0  0  0  0
   24.5230   54.6730   13.4000 S   0  0  0  0  0  0
   23.7230   52.1289   12.9726 C   0  0  0  0  0  0
   22.1539   53.6507   14.0448 C   0  0  0  0  0  0
   20.7922   50.0864   11.3214 C   0  0  0  0  0  0
   19.3569   47.9808   10.2701 C   0  0  0  0  0  0
   26.1230   53.9772   13.0512 C   0  0  0  0  0  0
   20.7701   49.8889    9.9641 C   0  0  0  0  0  0
   20.1229   48.7878    9.4235 C   0  0  0  0  0  0
   20.2923   47.3193   14.5224 H   0  0  0  0  0  0
   17.7364   48.9489   14.0416 H   0  0  0  0  0  0
   17.7775   47.3227   14.6770 H   0  0  0  0  0  0
   18.7608   46.4401   12.6477 H   0  0  0  0  0  0
   17.3980   47.4731   12.1989 H   0  0  0  0  0  0
   23.2165   50.0650   13.0376 H   0  0  0  0  0  0
   20.5229   52.6730   15.0385 H   0  0  0  0  0  0
   24.6461   51.9303   12.4537 H   0  0  0  0  0  0
   21.9061   54.6410   14.3989 H   0  0  0  0  0  0
   21.2703   50.9896   11.6379 H   0  0  0  0  0  0
   18.7535   47.1983    9.8375 H   0  0  0  0  0  0
   26.8566   54.7830   13.0741 H   0  0  0  0  0  0
   26.3868   53.2296   13.7999 H   0  0  0  0  0  0
   26.1227   53.5084   12.0683 H   0  0  0  0  0  0
   21.2745   50.6418    9.4000 H   0  0  0  0  0  0
   20.1176   48.6236    8.3557 H   0  0  0  0  0  0
  1  3  2  0  0  0
  1  5  1  0  0  0
  1  6  1  0  0  0
  2  3  1  0  0  0
  2  8  2  0  0  0
  2  4  1  0  0  0
  3  7  1  0  0  0
  4  5  1  0  0  0
  5 10  1  0  0  0
  5 23  1  0  0  0
  6  9  2  0  0  0
  6 18  1  0  0  0
  7 12  1  0  0  0
  7 13  2  0  0  0
  9 11  1  0  0  0
  9 19  1  0  0  0
 10 11  1  0  0  0
 10 24  1  0  0  0
 10 25  1  0  0  0
 11 26  1  0  0  0
 11 27  1  0  0  0
 12 16  2  0  0  0
 12 28  1  0  0  0
 13 17  1  0  0  0
 13 29  1  0  0  0
 14 17  2  0  0  0
 14 15  1  0  0  0
 14 16  1  0  0  0
 15 20  1  0  0  0
 16 30  1  0  0  0
 17 31  1  0  0  0
 18 21  2  0  0  0
 18 32  1  0  0  0
 19 22  2  0  0  0
 19 33  1  0  0  0
 20 34  1  0  0  0
 20 35  1  0  0  0
 20 36  1  0  0  0
 21 22  1  0  0  0
 21 37  1  0  0  0
 22 38  1  0  0  0
M  END
> <s_m_entry_id>
5469

> <s_m_entry_name>
dock_pv.460

> <s_m_Source_Path>
/home/csk/Desktop/cluster/DUD-E-result/pgh1

> <s_m_Source_File>
dock_pv.maegz

> <i_m_Source_File_Index>
460

> <chembl_id>
CHEMBL42011

> <chembl_pref_name>
None

> <i_lp_mmshare_version>
53161

> <r_lp_tautomer_probability>
0.999841193423406

> <s_lp_Force_Field>
OPLS_2005

> <r_lp_Energy>
24.000604

> <b_lp_Chiralities_Consistent>
1

> <s_lp_Variant>
CHEMBL221_lig506-1

> <s_i_glide_gridfile>
glide-grid_2oyu

> <i_i_glide_lignum>
642

> <i_i_glide_rotatable_bonds>
2

> <r_i_docking_score>
-7.52858407551949

> <r_i_glide_ligand_efficiency>
-0.342208367069068

> <r_i_glide_ligand_efficiency_sa>
-0.958881302818903

> <r_i_glide_ligand_efficiency_ln>
-1.84026055983343

> <r_i_glide_gscore>
-7.52858407551949

> <r_i_glide_lipo>
-4.43478453008954

> <r_i_glide_hbond>
0

> <r_i_glide_metal>
0

> <r_i_glide_rewards>
-2.65639677272727

> <r_i_glide_evdw>
-13.9383478164673

> <r_i_glide_ecoul>
0.433256447315216

> <r_i_glide_erotb>
0.194526151023404

> <r_i_glide_esite>
0

> <r_i_glide_emodel>
-40.5482219751978

> <r_i_glide_energy>
-13.5050913691521

> <r_i_glide_einternal>
4.02055597305298

> <i_i_glide_confnum>
4

> <i_i_glide_posenum>
21

> <r_i_glide_eff_state_penalty>
0

> <s_user_duplicate_titles>
CHEMBL221_lig506

> <i_f3d_flags>
0

> <s_m_subgroup_title>
dock_pv

> <s_m_subgroupid>
dock_pv

> <b_m_subgroup_collapsed>
1

$$$$
CHEMBL221_lig835
                    3D
 Schrodinger Suite 2021-1.
 27 28  0  0  1  0            999 V2000
   19.8712   48.2898   13.9999 C   0  0  0  0  0  0
   19.7297   48.0980   12.6239 C   0  0  0  0  0  0
   20.2450   49.0266   11.7249 C   0  0  0  0  0  0
   20.5230   49.4396   14.4931 C   0  0  0  0  0  0
   21.0266   50.3860   13.5826 C   0  0  0  0  0  0
   20.9088   50.1485   12.2065 C   0  0  0  0  0  0
   21.3830   51.0505   11.2727 O   0  0  0  0  0  0
   22.5449   51.8226   11.6558 C   0  0  1  0  0  0
   22.4411   52.3290   13.0948 C   0  0  0  0  0  0
   21.7187   51.6243   13.9848 C   0  0  0  0  0  0
   23.8656   51.1102   11.3440 C   0  0  0  0  0  0
   24.9230   51.9149   11.4000 F   0  0  0  0  0  0
   24.0726   50.0776   12.1551 F   0  0  0  0  0  0
   23.8121   50.6730   10.0993 F   0  0  0  0  0  0
   23.0628   53.5931   13.4000 C   0  0  0  0  0  0
   22.2154   54.4676   14.0103 O   0  0  0  0  0  0
   24.2239   53.8730   13.1210 O   0  0  0  0  0  0
   19.2241   47.0730   15.0488 Cl  0  0  0  0  0  0
   20.6789   49.6734   15.9909 C   0  0  0  0  0  0
   19.2188   47.2235   12.2486 H   0  0  0  0  0  0
   20.1309   48.8784   10.6611 H   0  0  0  0  0  0
   22.5335   52.6730   11.0000 H   0  0  0  0  0  0
   21.6047   52.0001   14.9926 H   0  0  0  0  0  0
   22.6964   55.2748   14.2171 H   0  0  0  0  0  0
   20.3693   48.8285   16.6000 H   0  0  0  0  0  0
   21.7230   49.8638   16.2172 H   0  0  0  0  0  0
   20.1230   50.5531   16.3109 H   0  0  0  0  0  0
  1  2  2  0  0  0
  1  4  1  0  0  0
  1 18  1  0  0  0
  2  3  1  0  0  0
  2 20  1  0  0  0
  3  6  2  0  0  0
  3 21  1  0  0  0
  4  5  2  0  0  0
  4 19  1  0  0  0
  5  6  1  0  0  0
  5 10  1  0  0  0
  6  7  1  0  0  0
  7  8  1  0  0  0
  8  9  1  0  0  0
  8 11  1  0  0  0
  8 22  1  0  0  0
  9 10  2  0  0  0
  9 15  1  0  0  0
 10 23  1  0  0  0
 11 12  1  0  0  0
 11 13  1  0  0  0
 11 14  1  0  0  0
 15 16  1  0  0  0
 15 17  2  0  0  0
 16 24  1  0  0  0
 19 25  1  0  0  0
 19 26  1  0  0  0
 19 27  1  0  0  0
M  END
> <s_m_entry_id>
5470

> <s_m_entry_name>
dock_pv.461

> <s_m_Source_Path>
/home/csk/Desktop/cluster/DUD-E-result/pgh1

> <s_m_Source_File>
dock_pv.maegz

> <i_m_Source_File_Index>
461

> <chembl_id>
CHEMBL1630232

> <chembl_pref_name>
None

> <i_lp_mmshare_version>
53161

> <r_lp_tautomer_probability>
1

> <s_lp_Force_Field>
OPLS_2005

> <r_lp_Energy>
14.000201

> <b_lp_Chiralities_Consistent>
1

> <s_lp_Variant>
CHEMBL221_lig835-2

> <s_i_glide_gridfile>
glide-grid_2oyu

> <i_i_glide_lignum>
1022

> <i_i_glide_rotatable_bonds>
3

> <r_i_docking_score>
-7.51965296842619

> <r_i_glide_ligand_efficiency>
-0.395771208864536

> <r_i_glide_ligand_efficiency_sa>
-1.05607654521429

> <r_i_glide_ligand_efficiency_ln>
-1.906393534833

> <r_i_glide_gscore>
-7.51965296842619

> <r_i_glide_lipo>
-3.25029524432426

> <r_i_glide_hbond>
0

> <r_i_glide_metal>
0

> <r_i_glide_rewards>
-2.80894898447829

> <r_i_glide_evdw>
-27.4496974945068

> <r_i_glide_ecoul>
-2.00767493247986

> <r_i_glide_erotb>
0.213227374973688

> <r_i_glide_esite>
0

> <r_i_glide_emodel>
-40.3665979957863

> <r_i_glide_energy>
-29.4573724269867

> <r_i_glide_einternal>
2.62809085845947

> <i_i_glide_confnum>
2

> <i_i_glide_posenum>
235

> <r_i_glide_eff_state_penalty>
0

> <s_user_duplicate_titles>
CHEMBL221_lig835

> <i_f3d_flags>
0

> <s_m_subgroup_title>
dock_pv

> <s_m_subgroupid>
dock_pv

> <b_m_subgroup_collapsed>
1

$$$$
CHEMBL221_lig751
                    3D
 Schrodinger Suite 2021-1.
 42 43  0  0  1  0            999 V2000
   20.8990   50.3784   12.0744 C   0  0  0  0  0  0
   20.2966   49.2343   11.5175 C   0  0  0  0  0  0
   19.9415   48.1846   12.2999 N   0  0  0  0  0  0
   20.1412   48.2983   13.6277 C   0  0  0  0  0  0
   20.6760   49.3832   14.2524 N   0  0  0  0  0  0
   21.0719   50.4134   13.4602 C   0  0  0  0  0  0
   20.0501   49.0639   10.0566 C   0  0  0  0  0  0
   19.7181   47.8236    9.4812 C   0  0  0  0  0  0
   19.6612   47.6553    8.0983 C   0  0  0  0  0  0
   19.8944   48.7505    7.2698 C   0  0  0  0  0  0
   20.1224   49.9973    7.8354 C   0  0  0  0  0  0
   20.1438   50.1630    9.2100 C   0  0  0  0  0  0
   21.6896   51.6255   14.1562 C   0  0  0  0  0  0
   21.3204   51.7023   15.4352 F   0  0  0  0  0  0
   23.0160   51.5462   14.0924 F   0  0  0  0  0  0
   21.3230   52.7572   13.5604 F   0  0  0  0  0  0
   19.7237   47.1810   14.3523 N   0  0  0  0  0  0
   19.8977   48.6748    5.4881 S   0  0  0  0  0  0
   18.2337   48.6421    5.0009 N   0  0  0  0  0  0
   20.5217   49.8732    5.0003 O   0  0  0  0  0  0
   20.5206   47.4728    4.9985 O   0  0  0  0  0  0
   19.4882   47.2850   15.7789 C   0  0  0  0  0  0
   18.1829   48.0213   16.1151 C   0  0  0  0  0  0
   16.9237   47.6715   15.2993 C   0  0  0  0  0  0
   16.9130   48.1393   13.8244 C   0  0  0  0  0  0
   21.2283   51.2130   11.4764 H   0  0  0  0  0  0
   19.5911   46.9577   10.1064 H   0  0  0  0  0  0
   19.4627   46.6745    7.7025 H   0  0  0  0  0  0
   20.2356   50.8726    7.2107 H   0  0  0  0  0  0
   20.3201   51.1517    9.5939 H   0  0  0  0  0  0
   19.1182   46.5600   13.8371 H   0  0  0  0  0  0
   17.8241   49.5875    5.0294 H   0  0  0  0  0  0
   18.1636   48.3194    4.0272 H   0  0  0  0  0  0
   20.3307   47.8326   16.1996 H   0  0  0  0  0  0
   19.4961   46.2724   16.1701 H   0  0  0  0  0  0
   18.3704   49.0780   15.9905 H   0  0  0  0  0  0
   17.9688   47.9063   17.1783 H   0  0  0  0  0  0
   16.1244   48.1989   15.8113 H   0  0  0  0  0  0
   16.6881   46.6105   15.3759 H   0  0  0  0  0  0
   15.9191   48.2749   13.4029 H   0  0  0  0  0  0
   17.4254   47.4718   13.1518 H   0  0  0  0  0  0
   17.4448   49.0699   13.7173 H   0  0  0  0  0  0
  1  6  1  0  0  0
  1  2  2  0  0  0
  1 26  1  0  0  0
  2  7  1  0  0  0
  2  3  1  0  0  0
  3  4  2  0  0  0
  4 17  1  0  0  0
  4  5  1  0  0  0
  5  6  2  0  0  0
  6 13  1  0  0  0
  7 12  1  0  0  0
  7  8  2  0  0  0
  8  9  1  0  0  0
  8 27  1  0  0  0
  9 10  2  0  0  0
  9 28  1  0  0  0
 10 18  1  0  0  0
 10 11  1  0  0  0
 11 12  2  0  0  0
 11 29  1  0  0  0
 12 30  1  0  0  0
 13 14  1  0  0  0
 13 15  1  0  0  0
 13 16  1  0  0  0
 17 22  1  0  0  0
 17 31  1  0  0  0
 18 19  1  0  0  0
 18 20  2  0  0  0
 18 21  2  0  0  0
 19 32  1  0  0  0
 19 33  1  0  0  0
 22 23  1  0  0  0
 22 34  1  0  0  0
 22 35  1  0  0  0
 23 24  1  0  0  0
 23 36  1  0  0  0
 23 37  1  0  0  0
 24 25  1  0  0  0
 24 38  1  0  0  0
 24 39  1  0  0  0
 25 40  1  0  0  0
 25 41  1  0  0  0
 25 42  1  0  0  0
M  END
> <s_m_entry_id>
5471

> <s_m_entry_name>
dock_pv.462

> <s_m_Source_Path>
/home/csk/Desktop/cluster/DUD-E-result/pgh1

> <s_m_Source_File>
dock_pv.maegz

> <i_m_Source_File_Index>
462

> <chembl_id>
CHEMBL538418

> <chembl_pref_name>
None

> <i_lp_mmshare_version>
53161

> <r_lp_tautomer_probability>
0.999999987636

> <s_lp_Force_Field>
OPLS_2005

> <r_lp_Energy>
5.337015

> <b_lp_Chiralities_Consistent>
1

> <s_lp_Variant>
CHEMBL221_lig751-1

> <s_i_glide_gridfile>
glide-grid_2oyu

> <i_i_glide_lignum>
920

> <i_i_glide_rotatable_bonds>
7

> <r_i_docking_score>
-7.51614957372213

> <r_i_glide_ligand_efficiency>
-0.300645982948885

> <r_i_glide_ligand_efficiency_sa>
-0.879094186121751

> <r_i_glide_ligand_efficiency_ln>
-1.78155268979905

> <r_i_glide_gscore>
-7.51614957372213

> <r_i_glide_lipo>
-3.10022318032095

> <r_i_glide_hbond>
-0.576721793205288

> <r_i_glide_metal>
0

> <r_i_glide_rewards>
-2.64474275077969

> <r_i_glide_evdw>
-13.647515296936

> <r_i_glide_ecoul>
-6.35264778137207

> <r_i_glide_erotb>
0.551800785143406

> <r_i_glide_esite>
-0.110989702506987

> <r_i_glide_emodel>
-18.2668560576651

> <r_i_glide_energy>
-20.0001630783081

> <r_i_glide_einternal>
5.09543991088867

> <i_i_glide_confnum>
18

> <i_i_glide_posenum>
99

> <r_i_glide_eff_state_penalty>
0

> <s_user_duplicate_titles>
CHEMBL221_lig751,561190

> <i_f3d_flags>
0

> <s_m_subgroup_title>
dock_pv

> <s_m_subgroupid>
dock_pv

> <b_m_subgroup_collapsed>
1

$$$$
CHEMBL221_lig246
                    3D
 Schrodinger Suite 2021-1.
 46 47  0  0  1  0            999 V2000
   20.5230   49.6627   13.6302 C   0  0  0  0  0  0
   19.5723   48.6560   13.3963 C   0  0  0  0  0  0
   21.1564   50.3239   12.5572 C   0  0  0  0  0  0
   20.8285   49.8871   15.3586 S   0  0  0  0  0  0
   19.9734   48.8020   11.0194 C   0  0  0  0  0  0
   19.3230   48.2231   12.0999 C   0  0  0  0  0  0
   20.8741   49.8429   11.2634 C   0  0  0  0  0  0
   18.9256   48.0560   14.6260 C   0  0  0  0  0  0
   22.1440   51.5239   12.7469 C   0  0  0  0  0  0
   19.3954   48.8925   15.8064 C   0  0  0  0  0  0
   19.7230   48.2730    9.6449 C   0  0  0  0  0  0
   19.1049   47.2469    9.4000 O   0  0  0  0  0  0
   19.4392   46.6279   14.7994 C   0  0  0  0  0  0
   17.3805   48.0661   14.5302 C   0  0  0  0  0  0
   22.5888   52.1251   11.3977 C   0  0  0  0  0  0
   23.4505   51.0731   13.3952 C   0  0  0  0  0  0
   21.5316   52.6634   13.6133 C   0  0  0  0  0  0
   20.2536   49.0879    8.4754 C   0  0  0  0  0  0
   19.9017   48.5177    7.0823 C   0  0  0  0  0  0
   20.6463   49.2078    5.9454 C   0  0  0  0  0  0
   18.6170   47.4212   11.9326 H   0  0  0  0  0  0
   21.3824   50.2603   10.4136 H   0  0  0  0  0  0
   18.5933   49.4730   16.2427 H   0  0  0  0  0  0
   19.7535   48.2730   16.6000 H   0  0  0  0  0  0
   19.0332   46.1652   15.6980 H   0  0  0  0  0  0
   20.5230   46.6730   14.9020 H   0  0  0  0  0  0
   19.1852   45.9922   13.9500 H   0  0  0  0  0  0
   16.9225   47.6590   15.4326 H   0  0  0  0  0  0
   16.9895   49.0730   14.3986 H   0  0  0  0  0  0
   17.0176   47.4730   13.6918 H   0  0  0  0  0  0
   21.7230   52.2730   10.7619 H   0  0  0  0  0  0
   23.1206   53.0715   11.5087 H   0  0  0  0  0  0
   23.2606   51.4586   10.8524 H   0  0  0  0  0  0
   23.3696   51.0730   14.4765 H   0  0  0  0  0  0
   23.7230   50.0891   13.0121 H   0  0  0  0  0  0
   24.2785   51.7532   13.1856 H   0  0  0  0  0  0
   21.5789   52.4520   14.6803 H   0  0  0  0  0  0
   22.0611   53.6085   13.4850 H   0  0  0  0  0  0
   20.4843   52.8448   13.4000 H   0  0  0  0  0  0
   19.9240   50.1247    8.5550 H   0  0  0  0  0  0
   21.3217   49.0730    8.6681 H   0  0  0  0  0  0
   20.1231   47.4506    7.0342 H   0  0  0  0  0  0
   18.8270   48.6098    6.9119 H   0  0  0  0  0  0
   20.3408   48.7766    4.9978 H   0  0  0  0  0  0
   20.4302   50.2730    5.9163 H   0  0  0  0  0  0
   21.7230   49.0730    6.0352 H   0  0  0  0  0  0
  1  2  2  0  0  0
  1  3  1  0  0  0
  1  4  1  0  0  0
  2  6  1  0  0  0
  2  8  1  0  0  0
  3  7  2  0  0  0
  3  9  1  0  0  0
  4 10  1  0  0  0
  5  7  1  0  0  0
  5 11  1  0  0  0
  5  6  2  0  0  0
  6 21  1  0  0  0
  7 22  1  0  0  0
  8 13  1  0  0  0
  8 14  1  0  0  0
  8 10  1  0  0  0
  9 15  1  0  0  0
  9 16  1  0  0  0
  9 17  1  0  0  0
 10 23  1  0  0  0
 10 24  1  0  0  0
 11 12  2  0  0  0
 11 18  1  0  0  0
 13 25  1  0  0  0
 13 26  1  0  0  0
 13 27  1  0  0  0
 14 28  1  0  0  0
 14 29  1  0  0  0
 14 30  1  0  0  0
 15 31  1  0  0  0
 15 32  1  0  0  0
 15 33  1  0  0  0
 16 34  1  0  0  0
 16 35  1  0  0  0
 16 36  1  0  0  0
 17 37  1  0  0  0
 17 38  1  0  0  0
 17 39  1  0  0  0
 18 19  1  0  0  0
 18 40  1  0  0  0
 18 41  1  0  0  0
 19 20  1  0  0  0
 19 42  1  0  0  0
 19 43  1  0  0  0
 20 44  1  0  0  0
 20 45  1  0  0  0
 20 46  1  0  0  0
M  END
> <s_m_entry_id>
5472

> <s_m_entry_name>
dock_pv.463

> <s_m_Source_Path>
/home/csk/Desktop/cluster/DUD-E-result/pgh1

> <s_m_Source_File>
dock_pv.maegz

> <i_m_Source_File_Index>
463

> <chembl_id>
CHEMBL14767

> <chembl_pref_name>
None

> <i_lp_mmshare_version>
53161

> <r_lp_tautomer_probability>
0.99990000499975

> <s_lp_Force_Field>
OPLS_2005

> <r_lp_Energy>
33.141812

> <b_lp_Chiralities_Consistent>
1

> <s_lp_Variant>
CHEMBL221_lig246-1

> <s_i_glide_gridfile>
glide-grid_2oyu

> <i_i_glide_lignum>
276

> <i_i_glide_rotatable_bonds>
4

> <r_i_docking_score>
-7.50628003637302

> <r_i_glide_ligand_efficiency>
-0.375314001818651

> <r_i_glide_ligand_efficiency_sa>
-1.01875893727397

> <r_i_glide_ligand_efficiency_ln>
-1.8785743194192

> <r_i_glide_gscore>
-7.50628003637302

> <r_i_glide_lipo>
-4.39073120841548

> <r_i_glide_hbond>
0

> <r_i_glide_metal>
0

> <r_i_glide_rewards>
-2.52757826579698

> <r_i_glide_evdw>
-20.0281829833984

> <r_i_glide_ecoul>
-0.123993918299675

> <r_i_glide_erotb>
0.432037674754312

> <r_i_glide_esite>
0

> <r_i_glide_emodel>
-28.4107045406131

> <r_i_glide_energy>
-20.1521769016981

> <r_i_glide_einternal>
1.08010601997375

> <i_i_glide_confnum>
1

> <i_i_glide_posenum>
175

> <r_i_glide_eff_state_penalty>
0

> <s_user_duplicate_titles>
CHEMBL221_lig246

> <i_f3d_flags>
0

> <s_m_subgroup_title>
dock_pv

> <s_m_subgroupid>
dock_pv

> <b_m_subgroup_collapsed>
1

$$$$
CHEMBL221_lig455
                    3D
 Schrodinger Suite 2021-1.
 38 40  0  0  1  0            999 V2000
   19.2198   48.0693   13.0455 C   0  0  2  0  0  0
   24.0250   53.1173   12.8660 S   0  0  0  0  0  0
   20.2967   48.4561   14.0594 C   0  0  2  0  0  0
   19.3879   48.6730   11.6454 C   0  0  0  0  0  0
   17.9017   48.2730   13.7992 C   0  0  0  0  0  0
   19.7189   47.8441   10.5731 C   0  0  0  0  0  0
   19.5548   48.4780   15.3761 C   0  0  0  0  0  0
   22.9633   51.7681   13.2627 C   0  0  0  0  0  0
   20.0174   48.3666    9.3177 C   0  0  0  0  0  0
   21.2043   49.6789   13.7501 C   0  0  0  0  0  0
   24.1230   53.0730   11.4048 O   0  0  0  0  0  0
   25.2291   53.0730   13.6996 O   0  0  0  0  0  0
   20.1230   49.7465    9.1532 C   0  0  0  0  0  0
   19.4320   50.0562   11.4367 C   0  0  0  0  0  0
   18.2310   48.3753   15.2028 C   0  0  0  0  0  0
   16.7525   48.2730   13.3847 O   0  0  0  0  0  0
   22.1230   51.8203   14.3706 C   0  0  0  0  0  0
   22.9189   50.7018   12.3725 C   0  0  0  0  0  0
   21.2621   50.7672   14.6255 C   0  0  0  0  0  0
   22.0273   49.6755   12.6000 C   0  0  0  0  0  0
   19.8728   50.5828   10.2395 C   0  0  0  0  0  0
   20.1230   47.5338    8.2578 F   0  0  0  0  0  0
   23.0192   54.6049   13.4000 C   0  0  0  0  0  0
   20.1230   50.2651    7.9067 F   0  0  0  0  0  0
   19.7231   46.7750   10.7005 H   0  0  0  0  0  0
   20.0684   48.5848   16.3201 H   0  0  0  0  0  0
   20.9230   47.5775   14.1086 H   0  0  0  0  0  0
   19.1803   50.7553   12.2000 H   0  0  0  0  0  0
   17.4648   48.4054   15.9637 H   0  0  0  0  0  0
   19.2645   46.9882   12.9056 H   0  0  0  0  0  0
   22.1304   52.6618   15.0438 H   0  0  0  0  0  0
   23.5599   50.6670   11.5022 H   0  0  0  0  0  0
   20.6385   50.8172   15.5050 H   0  0  0  0  0  0
   22.0221   48.8383   11.9184 H   0  0  0  0  0  0
   19.9043   51.6496   10.2000 H   0  0  0  0  0  0
   23.5848   55.4730   13.0881 H   0  0  0  0  0  0
   22.9230   54.6315   14.4836 H   0  0  0  0  0  0
   22.0402   54.5801   12.9308 H   0  0  0  0  0  0
  1  3  1  0  0  0
  1  4  1  0  0  0
  1 30  1  0  0  0
  1  5  1  0  0  0
  2  8  1  0  0  0
  2 11  2  0  0  0
  2 12  2  0  0  0
  2 23  1  0  0  0
  3  7  1  0  0  0
  3 10  1  0  0  0
  3 27  1  0  0  0
  4  6  1  0  0  0
  4 14  2  0  0  0
  5 16  2  0  0  0
  5 15  1  0  0  0
  6  9  2  0  0  0
  6 25  1  0  0  0
  7 26  1  0  0  0
  7 15  2  0  0  0
  8 18  2  0  0  0
  8 17  1  0  0  0
  9 22  1  0  0  0
  9 13  1  0  0  0
 10 19  1  0  0  0
 10 20  2  0  0  0
 13 21  2  0  0  0
 13 24  1  0  0  0
 14 21  1  0  0  0
 14 28  1  0  0  0
 15 29  1  0  0  0
 17 19  2  0  0  0
 17 31  1  0  0  0
 18 20  1  0  0  0
 18 32  1  0  0  0
 19 33  1  0  0  0
 20 34  1  0  0  0
 21 35  1  0  0  0
 23 36  1  0  0  0
 23 37  1  0  0  0
 23 38  1  0  0  0
M  END
> <s_m_entry_id>
5473

> <s_m_entry_name>
dock_pv.464

> <s_m_Source_Path>
/home/csk/Desktop/cluster/DUD-E-result/pgh1

> <s_m_Source_File>
dock_pv.maegz

> <i_m_Source_File_Index>
464

> <chembl_id>
CHEMBL279249

> <chembl_pref_name>
None

> <i_lp_mmshare_version>
53161

> <r_lp_tautomer_probability>
0.499977396165832

> <s_lp_Force_Field>
OPLS_2005

> <r_lp_Energy>
18.224162

> <b_lp_Chiralities_Consistent>
1

> <s_lp_Variant>
CHEMBL221_lig455-3

> <s_i_glide_gridfile>
glide-grid_2oyu

> <i_i_glide_lignum>
552

> <i_i_glide_rotatable_bonds>
3

> <r_i_docking_score>
-7.50616175990526

> <r_i_glide_ligand_efficiency>
-0.312756739996052

> <r_i_glide_ligand_efficiency_sa>
-0.902146546784415

> <r_i_glide_ligand_efficiency_ln>
-1.79656894446478

> <r_i_glide_gscore>
-7.50616175990526

> <r_i_glide_lipo>
-4.19878539010497

> <r_i_glide_hbond>
0

> <r_i_glide_metal>
0

> <r_i_glide_rewards>
-2.80670589986689

> <r_i_glide_evdw>
-10.8550062179565

> <r_i_glide_ecoul>
-1.77783274650574

> <r_i_glide_erotb>
0.313711456831416

> <r_i_glide_esite>
-0.0049567038911191

> <r_i_glide_emodel>
-10.2608770361008

> <r_i_glide_energy>
-12.6328389644623

> <r_i_glide_einternal>
22.9798183441162

> <i_i_glide_confnum>
3

> <i_i_glide_posenum>
4

> <r_i_glide_eff_state_penalty>
0

> <s_user_duplicate_titles>
CHEMBL221_lig455

> <i_f3d_flags>
0

> <s_m_subgroup_title>
dock_pv

> <s_m_subgroupid>
dock_pv

> <b_m_subgroup_collapsed>
1

$$$$
CHEMBL221_lig928
                    3D
 Schrodinger Suite 2021-1.
 45 48  0  0  1  0            999 V2000
   19.2000   49.3076    5.4114 C   0  0  0  0  0  0
   20.1190   49.8215    6.3613 O   0  0  0  0  0  0
   19.9787   49.3833    7.6551 C   0  0  0  0  0  0
   19.7226   48.0557    7.9919 C   0  0  0  0  0  0
   19.6208   47.6580    9.3228 C   0  0  0  0  0  0
   19.9878   48.5749   10.3155 C   0  0  0  0  0  0
   20.3375   49.8958    9.9880 C   0  0  0  0  0  0
   20.1230   50.3283    8.6708 C   0  0  0  0  0  0
   20.9980   50.4118   11.1495 C   0  0  0  0  0  0
   21.9879   51.5368   11.3063 C   0  0  0  0  0  0
   21.9896   52.0321   12.7778 C   0  0  1  0  0  0
   22.2403   50.8485   13.7235 C   0  0  0  0  0  0
   21.0487   49.8740   13.6748 C   0  0  0  0  0  0
   20.6392   49.6123   12.2122 C   0  0  0  0  0  0
   20.1231   48.4402   11.6901 N   0  0  0  0  0  0
   19.9661   47.2963   12.4811 C   0  0  0  0  0  0
   20.5230   46.2442   12.1999 O   0  0  0  0  0  0
   19.0639   47.4306   13.6504 C   0  0  0  0  0  0
   19.5138   47.1368   14.9346 C   0  0  0  0  0  0
   18.6610   47.3794   15.9966 C   0  0  0  0  0  0
   17.3906   47.8590   15.8012 C   0  0  0  0  0  0
   16.4431   48.2329   17.1844 Cl  0  0  0  0  0  0
   16.9230   48.0340   14.5143 C   0  0  0  0  0  0
   17.7645   47.8730   13.4362 C   0  0  0  0  0  0
   23.1044   53.0740   12.9998 C   0  0  0  0  0  0
   24.2951   52.8604   12.7794 O   0  0  0  0  0  0
   22.6139   54.2475   13.4894 O   0  0  0  0  0  0
   19.3117   49.8742    4.4920 H   0  0  0  0  0  0
   19.4045   48.2649    5.1702 H   0  0  0  0  0  0
   18.1678   49.4073    5.7570 H   0  0  0  0  0  0
   19.5634   47.3246    7.2155 H   0  0  0  0  0  0
   19.3534   46.6588    9.5728 H   0  0  0  0  0  0
   20.3607   51.3391    8.3793 H   0  0  0  0  0  0
   22.9786   51.1967   10.9972 H   0  0  0  0  0  0
   21.6907   52.2730   10.6000 H   0  0  0  0  0  0
   21.0529   52.5192   13.0494 H   0  0  0  0  0  0
   22.3209   51.1690   14.7639 H   0  0  0  0  0  0
   23.1182   50.2817   13.4007 H   0  0  0  0  0  0
   20.1973   50.2775   14.2192 H   0  0  0  0  0  0
   21.3218   48.9823   14.2246 H   0  0  0  0  0  0
   20.5148   46.7747   15.1175 H   0  0  0  0  0  0
   18.9227   47.1691   17.0005 H   0  0  0  0  0  0
   15.9004   48.2730   14.3343 H   0  0  0  0  0  0
   17.3818   48.0343   12.4419 H   0  0  0  0  0  0
   23.3258   54.8595   13.6931 H   0  0  0  0  0  0
  1  2  1  0  0  0
  1 28  1  0  0  0
  1 29  1  0  0  0
  1 30  1  0  0  0
  2  3  1  0  0  0
  3  4  2  0  0  0
  3  8  1  0  0  0
  4  5  1  0  0  0
  4 31  1  0  0  0
  5  6  2  0  0  0
  5 32  1  0  0  0
  6  7  1  0  0  0
  6 15  1  0  0  0
  7  8  2  0  0  0
  7  9  1  0  0  0
  8 33  1  0  0  0
  9 10  1  0  0  0
  9 14  2  0  0  0
 10 11  1  0  0  0
 10 34  1  0  0  0
 10 35  1  0  0  0
 11 12  1  0  0  0
 11 25  1  0  0  0
 11 36  1  0  0  0
 12 13  1  0  0  0
 12 37  1  0  0  0
 12 38  1  0  0  0
 13 14  1  0  0  0
 13 39  1  0  0  0
 13 40  1  0  0  0
 14 15  1  0  0  0
 15 16  1  0  0  0
 16 17  2  0  0  0
 16 18  1  0  0  0
 18 19  2  0  0  0
 18 24  1  0  0  0
 19 20  1  0  0  0
 19 41  1  0  0  0
 20 21  2  0  0  0
 20 42  1  0  0  0
 21 22  1  0  0  0
 21 23  1  0  0  0
 23 24  2  0  0  0
 23 43  1  0  0  0
 24 44  1  0  0  0
 25 26  2  0  0  0
 25 27  1  0  0  0
 27 45  1  0  0  0
M  END
> <s_m_entry_id>
5474

> <s_m_entry_name>
dock_pv.465

> <s_m_Source_Path>
/home/csk/Desktop/cluster/DUD-E-result/pgh1

> <s_m_Source_File>
dock_pv.maegz

> <i_m_Source_File_Index>
465

> <chembl_id>
CHEMBL2323522

> <chembl_pref_name>
None

> <i_lp_mmshare_version>
53161

> <r_lp_tautomer_probability>
1

> <s_lp_Force_Field>
OPLS_2005

> <r_lp_Energy>
34.815847

> <b_lp_Chiralities_Consistent>
1

> <s_lp_Variant>
CHEMBL221_lig928-2

> <s_i_glide_gridfile>
glide-grid_2oyu

> <i_i_glide_lignum>
1150

> <i_i_glide_rotatable_bonds>
5

> <r_i_docking_score>
-7.50310554844118

> <r_i_glide_ligand_efficiency>
-0.277892798090414

> <r_i_glide_ligand_efficiency_sa>
-0.833678393355353

> <r_i_glide_ligand_efficiency_ln>
-1.74659927331459

> <r_i_glide_gscore>
-7.50310554844118

> <r_i_glide_lipo>
-4.43649883089242

> <r_i_glide_hbond>
-0.16

> <r_i_glide_metal>
0

> <r_i_glide_rewards>
-1.87315545593349

> <r_i_glide_evdw>
-21.241382598877

> <r_i_glide_ecoul>
-2.44782471656799

> <r_i_glide_erotb>
0.395791575813775

> <r_i_glide_esite>
0

> <r_i_glide_emodel>
-35.9030011124921

> <r_i_glide_energy>
-23.6892073154449

> <r_i_glide_einternal>
15.0683927536011

> <i_i_glide_confnum>
19

> <i_i_glide_posenum>
236

> <r_i_glide_eff_state_penalty>
0

> <s_user_duplicate_titles>
CHEMBL221_lig928

> <i_f3d_flags>
0

> <s_m_subgroup_title>
dock_pv

> <s_m_subgroupid>
dock_pv

> <b_m_subgroup_collapsed>
1

$$$$
CHEMBL221_lig1007 
                    3D
 Schrodinger Suite 2021-1.
 31 32  0  0  1  0            999 V2000
   18.5892   47.8900   13.4821 C   0  0  0  0  0  0
   19.7704   48.6604   14.0865 C   0  0  0  0  0  0
   19.9029   48.7559   15.3542 N   0  0  0  0  0  0
   18.9388   48.2725   16.1876 N   0  0  0  0  0  0
   17.6455   47.9884   15.9347 C   0  0  0  0  0  0
   17.3351   47.8973   14.4194 C   0  0  0  0  0  0
   20.7655   49.2654   13.2597 C   0  0  0  0  0  0
   21.4036   50.4263   13.5351 C   0  0  0  0  0  0
   22.4468   51.0943   12.7257 C   0  0  0  0  0  0
   16.8250   47.8715   16.8366 O   0  0  0  0  0  0
   23.2155   52.0861   13.3527 C   0  0  0  0  0  0
   24.2957   52.6767   12.6984 C   0  0  0  0  0  0
   24.6336   52.2728   11.4106 C   0  0  0  0  0  0
   23.8644   51.3128   10.7681 C   0  0  0  0  0  0
   22.7532   50.7527   11.3934 C   0  0  0  0  0  0
   22.0066   49.8710   10.6533 O   0  0  0  0  0  0
   20.7606   50.3824   10.1929 C   0  0  0  0  0  0
   18.9030   46.8597   13.3107 H   0  0  0  0  0  0
   18.3294   48.2743   12.4965 H   0  0  0  0  0  0
   19.1687   48.3584   17.1656 H   0  0  0  0  0  0
   16.6601   47.0693   14.2148 H   0  0  0  0  0  0
   16.7556   48.7918   14.2112 H   0  0  0  0  0  0
   20.9749   48.6942   12.3705 H   0  0  0  0  0  0
   21.1377   50.9443   14.4482 H   0  0  0  0  0  0
   23.0009   52.3853   14.3696 H   0  0  0  0  0  0
   24.8905   53.4228   13.2055 H   0  0  0  0  0  0
   25.5017   52.6747   10.9093 H   0  0  0  0  0  0
   24.1234   51.0101    9.7647 H   0  0  0  0  0  0
   20.1530   49.5603    9.8144 H   0  0  0  0  0  0
   20.1854   50.8939   10.9678 H   0  0  0  0  0  0
   20.9219   51.0770    9.3735 H   0  0  0  0  0  0
  1  2  1  0  0  0
  1  6  1  0  0  0
  1 18  1  0  0  0
  1 19  1  0  0  0
  2  3  2  0  0  0
  2  7  1  0  0  0
  3  4  1  0  0  0
  4  5  1  0  0  0
  4 20  1  0  0  0
  5  6  1  0  0  0
  5 10  2  0  0  0
  6 21  1  0  0  0
  6 22  1  0  0  0
  7  8  2  0  0  0
  7 23  1  0  0  0
  8  9  1  0  0  0
  8 24  1  0  0  0
  9 11  2  0  0  0
  9 15  1  0  0  0
 11 12  1  0  0  0
 11 25  1  0  0  0
 12 13  2  0  0  0
 12 26  1  0  0  0
 13 14  1  0  0  0
 13 27  1  0  0  0
 14 15  2  0  0  0
 14 28  1  0  0  0
 15 16  1  0  0  0
 16 17  1  0  0  0
 17 29  1  0  0  0
 17 30  1  0  0  0
 17 31  1  0  0  0
M  END
> <s_m_entry_id>
5475

> <s_m_entry_name>
dock_pv.466

> <s_m_Source_Path>
/home/csk/Desktop/cluster/DUD-E-result/pgh1

> <s_m_Source_File>
dock_pv.maegz

> <i_m_Source_File_Index>
466

> <chembl_id>
CHEMBL4529760

> <chembl_pref_name>
None

> <i_lp_mmshare_version>
53161

> <r_lp_tautomer_probability>
1

> <s_lp_Force_Field>
OPLS_2005

> <r_lp_Energy>
26.611491

> <b_lp_Chiralities_Consistent>
1

> <s_lp_Variant>
CHEMBL221_lig1007 -1

> <s_i_glide_gridfile>
glide-grid_2oyu

> <i_i_glide_lignum>
1261

> <i_i_glide_rotatable_bonds>
3

> <r_i_docking_score>
-7.5001257384953

> <r_i_glide_ligand_efficiency>
-0.441183866970312

> <r_i_glide_ligand_efficiency_sa>
-1.13440795416483

> <r_i_glide_ligand_efficiency_ln>
-1.95661578558496

> <r_i_glide_gscore>
-7.5001257384953

> <r_i_glide_lipo>
-3.32332181395888

> <r_i_glide_hbond>
0

> <r_i_glide_metal>
0

> <r_i_glide_rewards>
-3.11348567480226

> <r_i_glide_evdw>
-32.5362930297852

> <r_i_glide_ecoul>
-0.538943827152252

> <r_i_glide_erotb>
0.644337975827937

> <r_i_glide_esite>
0

> <r_i_glide_emodel>
-41.3834671163676

> <r_i_glide_energy>
-33.0752368569374

> <r_i_glide_einternal>
9.67054176330566

> <i_i_glide_confnum>
16

> <i_i_glide_posenum>
248

> <r_i_glide_eff_state_penalty>
0

> <s_user_duplicate_titles>
CHEMBL221_lig1007 

> <i_f3d_flags>
0

> <s_m_subgroup_title>
dock_pv

> <s_m_subgroupid>
dock_pv

> <b_m_subgroup_collapsed>
1

$$$$
CHEMBL221_lig704
                    3D
 Schrodinger Suite 2021-1.
 34 36  0  0  1  0            999 V2000
   20.0612   48.9357   14.0978 C   0  0  0  0  0  0
   20.5868   49.4271   12.9052 C   0  0  0  0  0  0
   19.8795   48.7251   11.9341 N   0  0  0  0  0  0
   19.0083   47.8857   12.5245 N   0  0  0  0  0  0
   19.1372   48.0257   13.8881 N   0  0  0  0  0  0
   19.9191   48.7890   10.5148 C   0  0  0  0  0  0
   19.7230   47.6305    9.7479 C   0  0  0  0  0  0
   19.7230   47.6696    8.3568 C   0  0  0  0  0  0
   19.9295   48.8824    7.7093 C   0  0  0  0  0  0
   20.1230   50.0435    8.4701 C   0  0  0  0  0  0
   20.1230   50.0048    9.8614 C   0  0  0  0  0  0
   19.9528   49.0084    5.9198 S   0  0  0  0  0  0
   18.1776   49.0176    5.4001 C   0  0  0  0  0  0
   20.5183   47.8314    5.2960 O   0  0  0  0  0  0
   20.5876   50.2730    5.6244 O   0  0  0  0  0  0
   21.6679   50.4441   12.7305 C   0  0  0  0  0  0
   21.7070   51.5399   13.5979 C   0  0  0  0  0  0
   22.7515   52.4553   13.5243 C   0  0  0  0  0  0
   23.7733   52.2662   12.6002 C   0  0  0  0  0  0
   23.7298   51.1937   11.7104 C   0  0  0  0  0  0
   22.6761   50.2843   11.7779 C   0  0  0  0  0  0
   25.1195   53.3466   12.5999 Cl  0  0  0  0  0  0
   20.3527   49.2281   15.0960 H   0  0  0  0  0  0
   19.6375   46.6741   10.2335 H   0  0  0  0  0  0
   19.5856   46.7593    7.7999 H   0  0  0  0  0  0
   20.2347   51.0008    7.9789 H   0  0  0  0  0  0
   20.2455   50.9249   10.4151 H   0  0  0  0  0  0
   18.1277   49.0729    4.3179 H   0  0  0  0  0  0
   17.6975   49.8730    5.8495 H   0  0  0  0  0  0
   17.7230   48.0932    5.7355 H   0  0  0  0  0  0
   20.9352   51.6804   14.3407 H   0  0  0  0  0  0
   22.7865   53.2968   14.2001 H   0  0  0  0  0  0
   24.5232   51.0513   10.9898 H   0  0  0  0  0  0
   22.6509   49.4430   11.1049 H   0  0  0  0  0  0
  1  2  2  0  0  0
  1  5  1  0  0  0
  1 23  1  0  0  0
  2  3  1  0  0  0
  2 16  1  0  0  0
  3  6  1  0  0  0
  3  4  1  0  0  0
  4  5  2  0  0  0
  6 11  1  0  0  0
  6  7  2  0  0  0
  7  8  1  0  0  0
  7 24  1  0  0  0
  8  9  2  0  0  0
  8 25  1  0  0  0
  9 12  1  0  0  0
  9 10  1  0  0  0
 10 11  2  0  0  0
 10 26  1  0  0  0
 11 27  1  0  0  0
 12 13  1  0  0  0
 12 14  2  0  0  0
 12 15  2  0  0  0
 13 28  1  0  0  0
 13 29  1  0  0  0
 13 30  1  0  0  0
 16 17  2  0  0  0
 16 21  1  0  0  0
 17 18  1  0  0  0
 17 31  1  0  0  0
 18 19  2  0  0  0
 18 32  1  0  0  0
 19 20  1  0  0  0
 19 22  1  0  0  0
 20 21  2  0  0  0
 20 33  1  0  0  0
 21 34  1  0  0  0
M  END
> <s_m_entry_id>
5476

> <s_m_entry_name>
dock_pv.467

> <s_m_Source_Path>
/home/csk/Desktop/cluster/DUD-E-result/pgh1

> <s_m_Source_File>
dock_pv.maegz

> <i_m_Source_File_Index>
467

> <chembl_id>
CHEMBL455837

> <chembl_pref_name>
None

> <i_lp_mmshare_version>
53161

> <r_lp_tautomer_probability>
1

> <s_lp_Force_Field>
OPLS_2005

> <r_lp_Energy>
12.911875

> <b_lp_Chiralities_Consistent>
1

> <s_lp_Variant>
CHEMBL221_lig704-1

> <s_i_glide_gridfile>
glide-grid_2oyu

> <i_i_glide_lignum>
873

> <i_i_glide_rotatable_bonds>
3

> <r_i_docking_score>
-7.49869171671215

> <r_i_glide_ligand_efficiency>
-0.340849623486916

> <r_i_glide_ligand_efficiency_sa>
-0.95507404986536

> <r_i_glide_ligand_efficiency_ln>
-1.83295377699063

> <r_i_glide_gscore>
-7.49869171671215

> <r_i_glide_lipo>
-4.06238694664383

> <r_i_glide_hbond>
0

> <r_i_glide_metal>
0

> <r_i_glide_rewards>
-2.51505174545698

> <r_i_glide_evdw>
-16.2770195007324

> <r_i_glide_ecoul>
-2.85930037498474

> <r_i_glide_erotb>
0.338403963282455

> <r_i_glide_esite>
-0.0169109566094676

> <r_i_glide_emodel>
-20.6712606701962

> <r_i_glide_energy>
-19.1363198757172

> <r_i_glide_einternal>
0.74055290222168

> <i_i_glide_confnum>
4

> <i_i_glide_posenum>
22

> <r_i_glide_eff_state_penalty>
0

> <s_user_duplicate_titles>
CHEMBL221_lig704,496813

> <i_f3d_flags>
0

> <s_m_subgroup_title>
dock_pv

> <s_m_subgroupid>
dock_pv

> <b_m_subgroup_collapsed>
1

$$$$
CHEMBL221_lig446
                    3D
 Schrodinger Suite 2021-1.
 38 40  0  0  1  0            999 V2000
   19.3066   48.1180   13.2769 C   0  0  2  0  0  0
   24.0840   53.1771   12.9908 S   0  0  0  0  0  0
   20.2733   48.6409   14.3586 C   0  0  2  0  0  0
   19.4754   48.6426   11.8424 C   0  0  0  0  0  0
   17.9248   48.2730   13.9143 C   0  0  0  0  0  0
   19.7230   47.7720   10.7853 C   0  0  0  0  0  0
   19.4267   48.6730   15.6064 C   0  0  0  0  0  0
   22.9759   51.9208   13.4975 C   0  0  0  0  0  0
   19.9867   48.2518    9.4998 C   0  0  0  0  0  0
   21.1815   49.8730   14.0717 C   0  0  0  0  0  0
   24.1480   53.0730   11.5303 O   0  0  0  0  0  0
   25.3032   53.1141   13.8000 O   0  0  0  0  0  0
   20.1230   49.6186    9.2776 C   0  0  0  0  0  0
   19.5296   50.0072   11.5774 C   0  0  0  0  0  0
   18.1326   48.4556   15.3346 C   0  0  0  0  0  0
   16.8168   48.2584   13.4000 O   0  0  0  0  0  0
   22.1210   52.0310   14.6000 C   0  0  0  0  0  0
   22.9149   50.8401   12.6542 C   0  0  0  0  0  0
   21.2509   50.9883   14.9112 C   0  0  0  0  0  0
   22.0023   49.8730   12.9360 C   0  0  0  0  0  0
   19.9111   50.4946   10.3364 C   0  0  0  0  0  0
   20.1135   47.1267    8.2000 Cl  0  0  0  0  0  0
   23.1054   54.6730   13.4360 C   0  0  0  0  0  0
   20.1230   50.0926    8.0123 F   0  0  0  0  0  0
   19.7230   46.7085   10.9568 H   0  0  0  0  0  0
   19.8536   48.8521   16.5827 H   0  0  0  0  0  0
   20.9230   47.7991   14.5280 H   0  0  0  0  0  0
   19.3325   50.6730   12.3801 H   0  0  0  0  0  0
   17.3069   48.4696   16.0307 H   0  0  0  0  0  0
   19.4407   47.0380   13.2072 H   0  0  0  0  0  0
   22.1230   52.9056   15.2307 H   0  0  0  0  0  0
   23.5472   50.7414   11.7824 H   0  0  0  0  0  0
   20.6252   51.0669   15.7875 H   0  0  0  0  0  0
   21.9908   49.0275   12.2646 H   0  0  0  0  0  0
   19.9461   51.5530   10.2000 H   0  0  0  0  0  0
   23.6560   55.4948   13.0001 H   0  0  0  0  0  0
   23.0625   54.7996   14.5159 H   0  0  0  0  0  0
   22.1110   54.6054   13.0000 H   0  0  0  0  0  0
  1  3  1  0  0  0
  1  4  1  0  0  0
  1 30  1  0  0  0
  1  5  1  0  0  0
  2  8  1  0  0  0
  2 11  2  0  0  0
  2 12  2  0  0  0
  2 23  1  0  0  0
  3  7  1  0  0  0
  3 10  1  0  0  0
  3 27  1  0  0  0
  4  6  1  0  0  0
  4 14  2  0  0  0
  5 16  2  0  0  0
  5 15  1  0  0  0
  6  9  2  0  0  0
  6 25  1  0  0  0
  7 26  1  0  0  0
  7 15  2  0  0  0
  8 18  2  0  0  0
  8 17  1  0  0  0
  9 22  1  0  0  0
  9 13  1  0  0  0
 10 19  1  0  0  0
 10 20  2  0  0  0
 13 21  2  0  0  0
 13 24  1  0  0  0
 14 21  1  0  0  0
 14 28  1  0  0  0
 15 29  1  0  0  0
 17 19  2  0  0  0
 17 31  1  0  0  0
 18 20  1  0  0  0
 18 32  1  0  0  0
 19 33  1  0  0  0
 20 34  1  0  0  0
 21 35  1  0  0  0
 23 36  1  0  0  0
 23 37  1  0  0  0
 23 38  1  0  0  0
M  END
> <s_m_entry_id>
5477

> <s_m_entry_name>
dock_pv.468

> <s_m_Source_Path>
/home/csk/Desktop/cluster/DUD-E-result/pgh1

> <s_m_Source_File>
dock_pv.maegz

> <i_m_Source_File_Index>
468

> <chembl_id>
CHEMBL23808

> <chembl_pref_name>
None

> <i_lp_mmshare_version>
53161

> <r_lp_tautomer_probability>
0.499977396165832

> <s_lp_Force_Field>
OPLS_2005

> <r_lp_Energy>
18.133748

> <b_lp_Chiralities_Consistent>
1

> <s_lp_Variant>
CHEMBL221_lig446-3

> <s_i_glide_gridfile>
glide-grid_2oyu

> <i_i_glide_lignum>
527

> <i_i_glide_rotatable_bonds>
3

> <r_i_docking_score>
-7.49704870803914

> <r_i_glide_ligand_efficiency>
-0.312377029501631

> <r_i_glide_ligand_efficiency_sa>
-0.901051272190734

> <r_i_glide_ligand_efficiency_ln>
-1.79438777298252

> <r_i_glide_gscore>
-7.49704870803914

> <r_i_glide_lipo>
-4.27134591327565

> <r_i_glide_hbond>
0

> <r_i_glide_metal>
0

> <r_i_glide_rewards>
-2.40495830146355

> <r_i_glide_evdw>
-14.4836692810059

> <r_i_glide_ecoul>
-2.5429847240448

> <r_i_glide_erotb>
0.288957935372269

> <r_i_glide_esite>
-0.00407125601519186

> <r_i_glide_emodel>
-12.9408898647351

> <r_i_glide_energy>
-17.0266540050507

> <r_i_glide_einternal>
24.9668884277344

> <i_i_glide_confnum>
3

> <i_i_glide_posenum>
367

> <r_i_glide_eff_state_penalty>
0

> <s_user_duplicate_titles>
CHEMBL221_lig446

> <i_f3d_flags>
0

> <s_m_subgroup_title>
dock_pv

> <s_m_subgroupid>
dock_pv

> <b_m_subgroup_collapsed>
1

$$$$
CHEMBL221_lig503
                    3D
 Schrodinger Suite 2021-1.
 52 55  0  0  1  0            999 V2000
   20.5534   49.6118   13.3169 C   0  0  0  0  0  0
   19.9978   48.9878    6.2057 S   0  0  0  0  0  0
   19.8254   49.0152   12.2738 C   0  0  0  0  0  0
   20.1825   49.2472   14.5410 N   0  0  0  0  0  0
   19.1540   48.4412   14.5414 C   0  0  0  0  0  0
   18.5540   48.0706   12.9805 S   0  0  0  0  0  0
   21.6648   50.5917   13.1485 C   0  0  0  0  0  0
   20.0245   49.0446    7.9894 C   0  0  0  0  0  0
   22.6245   50.4006   12.1518 C   0  0  0  0  0  0
   19.9077   49.0732   10.7832 C   0  0  0  0  0  0
   23.6344   51.3370   11.9561 C   0  0  0  0  0  0
   20.9221   49.9694    5.6520 O   0  0  0  0  0  0
   20.1230   47.5885    5.8325 O   0  0  0  0  0  0
   18.5350   47.9289   15.6538 N   0  0  0  0  0  0
   18.3949   49.4730    5.7989 N   0  0  0  0  0  0
   23.7319   52.4657   12.7703 C   0  0  0  0  0  0
   21.7403   51.7326   13.9539 C   0  0  0  0  0  0
   19.7705   47.8648    8.6874 C   0  0  0  0  0  0
   20.1229   50.2520    8.6896 C   0  0  0  0  0  0
   19.7230   47.8872   10.0713 C   0  0  0  0  0  0
   20.1227   50.2632   10.0851 C   0  0  0  0  0  0
   22.7603   52.6638   13.7640 C   0  0  0  0  0  0
   24.5228   51.1501   10.9597 F   0  0  0  0  0  0
   17.2710   47.1845   15.6668 C   0  0  0  0  0  0
   24.7994   53.3074   12.5304 O   0  0  0  0  0  0
   17.2805   45.7936   15.0000 C   0  0  0  0  0  0
   24.9917   54.4564   13.3390 C   0  0  0  0  0  0
   18.4643   45.1568   14.6000 C   0  0  0  0  0  0
   16.0804   45.0724   14.9997 C   0  0  0  0  0  0
   16.0346   43.8611   14.2623 C   0  0  0  0  0  0
   18.4318   43.8734   14.0400 C   0  0  0  0  0  0
   17.2113   43.2489   13.8306 C   0  0  0  0  0  0
   22.5831   49.5312   11.5119 H   0  0  0  0  0  0
   18.7625   48.3259   16.5541 H   0  0  0  0  0  0
   18.2129   50.4692    5.9651 H   0  0  0  0  0  0
   17.6564   48.8703    6.1778 H   0  0  0  0  0  0
   21.0007   51.9084   14.7218 H   0  0  0  0  0  0
   19.6300   46.9280    8.1698 H   0  0  0  0  0  0
   20.2309   51.1776    8.1433 H   0  0  0  0  0  0
   19.5758   46.9702   10.6075 H   0  0  0  0  0  0
   20.2333   51.1978   10.6151 H   0  0  0  0  0  0
   22.7812   53.5352   14.3991 H   0  0  0  0  0  0
   16.5072   47.8027   15.1947 H   0  0  0  0  0  0
   16.9537   47.0819   16.7027 H   0  0  0  0  0  0
   25.7800   55.0656   12.8981 H   0  0  0  0  0  0
   24.0950   55.0721   13.4060 H   0  0  0  0  0  0
   25.3227   54.1779   14.3358 H   0  0  0  0  0  0
   19.3817   45.6937   14.7190 H   0  0  0  0  0  0
   15.1673   45.4889   15.3975 H   0  0  0  0  0  0
   15.1187   43.3182   14.1071 H   0  0  0  0  0  0
   19.3226   43.3680   13.7136 H   0  0  0  0  0  0
   17.1824   42.2647   13.4001 H   0  0  0  0  0  0
  1  3  2  0  0  0
  1  4  1  0  0  0
  1  7  1  0  0  0
  2  8  1  0  0  0
  2 12  2  0  0  0
  2 13  2  0  0  0
  2 15  1  0  0  0
  3  6  1  0  0  0
  3 10  1  0  0  0
  4  5  2  0  0  0
  5 14  1  0  0  0
  5  6  1  0  0  0
  7  9  1  0  0  0
  7 17  2  0  0  0
  8 19  2  0  0  0
  8 18  1  0  0  0
  9 11  2  0  0  0
  9 33  1  0  0  0
 10 20  1  0  0  0
 10 21  2  0  0  0
 11 23  1  0  0  0
 11 16  1  0  0  0
 14 24  1  0  0  0
 14 34  1  0  0  0
 15 35  1  0  0  0
 15 36  1  0  0  0
 16 22  2  0  0  0
 16 25  1  0  0  0
 17 22  1  0  0  0
 17 37  1  0  0  0
 18 20  2  0  0  0
 18 38  1  0  0  0
 19 21  1  0  0  0
 19 39  1  0  0  0
 20 40  1  0  0  0
 21 41  1  0  0  0
 22 42  1  0  0  0
 24 26  1  0  0  0
 24 43  1  0  0  0
 24 44  1  0  0  0
 25 27  1  0  0  0
 26 28  2  0  0  0
 26 29  1  0  0  0
 27 45  1  0  0  0
 27 46  1  0  0  0
 27 47  1  0  0  0
 28 31  1  0  0  0
 28 48  1  0  0  0
 29 30  2  0  0  0
 29 49  1  0  0  0
 30 32  1  0  0  0
 30 50  1  0  0  0
 31 32  2  0  0  0
 31 51  1  0  0  0
 32 52  1  0  0  0
M  END
> <s_m_entry_id>
5478

> <s_m_entry_name>
dock_pv.469

> <s_m_Source_Path>
/home/csk/Desktop/cluster/DUD-E-result/pgh1

> <s_m_Source_File>
dock_pv.maegz

> <i_m_Source_File_Index>
469

> <chembl_id>
CHEMBL16996

> <chembl_pref_name>
None

> <i_lp_mmshare_version>
53161

> <r_lp_tautomer_probability>
1

> <s_lp_Force_Field>
OPLS_2005

> <r_lp_Energy>
27.856817

> <b_lp_Chiralities_Consistent>
1

> <s_lp_Variant>
CHEMBL221_lig503-1

> <s_i_glide_gridfile>
glide-grid_2oyu

> <i_i_glide_lignum>
639

> <i_i_glide_rotatable_bonds>
7

> <r_i_docking_score>
-7.49039282987779

> <r_i_glide_ligand_efficiency>
-0.234074775933681

> <r_i_glide_ligand_efficiency_sa>
-0.743141090254181

> <r_i_glide_ligand_efficiency_ln>
-1.67730313500666

> <r_i_glide_gscore>
-7.49039282987779

> <r_i_glide_lipo>
-4.71007486034395

> <r_i_glide_hbond>
-0.598823103658484

> <r_i_glide_metal>
0

> <r_i_glide_rewards>
-1.5102978912388

> <r_i_glide_evdw>
0.0758492425084114

> <r_i_glide_ecoul>
-7.05124855041504

> <r_i_glide_erotb>
0.458053607428038

> <r_i_glide_esite>
-0.0753557616277504

> <r_i_glide_emodel>
-13.4193593892876

> <r_i_glide_energy>
-6.97539930790663

> <r_i_glide_einternal>
8.17779064178467

> <i_i_glide_confnum>
1

> <i_i_glide_posenum>
395

> <r_i_glide_eff_state_penalty>
0

> <s_user_duplicate_titles>
CHEMBL221_lig503,18980

> <i_f3d_flags>
0

> <s_m_subgroup_title>
dock_pv

> <s_m_subgroupid>
dock_pv

> <b_m_subgroup_collapsed>
1

$$$$
CHEMBL221_lig904
                    3D
 Schrodinger Suite 2021-1.
 36 38  0  0  1  0            999 V2000
   17.8962   47.6327   14.5999 C   0  0  0  0  0  0
   18.5423   48.1165   15.7303 C   0  0  0  0  0  0
   19.7231   48.8552   15.6378 C   0  0  0  0  0  0
   18.4010   47.8733   13.3242 C   0  0  0  0  0  0
   19.5703   48.6333   13.1751 C   0  0  0  0  0  0
   20.2072   49.1251   14.3517 C   0  0  0  0  0  0
   21.2817   49.8730   13.9251 N   0  0  0  0  0  0
   21.3716   49.8469   12.5514 C   0  0  0  0  0  0
   20.3274   49.0728   12.0317 C   0  0  0  0  0  0
   19.9652   48.7455   10.5816 C   0  0  0  0  0  0
   20.1230   49.9019    9.6073 C   0  0  0  0  0  0
   20.1199   51.0730    9.9582 O   0  0  0  0  0  0
   20.1230   49.4764    8.3143 O   0  0  0  0  0  0
   22.4699   50.5894   11.8982 C   0  0  0  0  0  0
   23.0887   51.7772   12.5358 C   0  0  0  0  0  0
   22.8398   50.2730   10.7712 O   0  0  0  0  0  0
   24.3829   52.0345   12.2001 N   0  0  0  0  0  0
   24.9511   53.1783   12.6433 C   0  0  0  0  0  0
   24.2548   54.1137   13.4000 C   0  0  0  0  0  0
   22.9257   53.8416   13.7361 C   0  0  0  0  0  0
   22.3334   52.6568   13.3160 C   0  0  0  0  0  0
   22.1235   54.8417   14.5164 C   0  0  0  0  0  0
   17.9997   47.8730   16.9425 F   0  0  0  0  0  0
   16.9821   47.0683   14.7173 H   0  0  0  0  0  0
   20.2058   49.2345   16.5256 H   0  0  0  0  0  0
   17.8855   47.4882   12.4577 H   0  0  0  0  0  0
   21.9375   50.3862   14.4964 H   0  0  0  0  0  0
   20.5003   47.9012   10.1745 H   0  0  0  0  0  0
   18.9230   48.4469   10.5159 H   0  0  0  0  0  0
   20.1091   50.2338    7.7238 H   0  0  0  0  0  0
   25.9765   53.3516   12.3538 H   0  0  0  0  0  0
   24.7266   55.0341   13.7108 H   0  0  0  0  0  0
   21.2892   52.4774   13.5295 H   0  0  0  0  0  0
   22.7374   55.4410   15.1913 H   0  0  0  0  0  0
   21.3231   54.3823   15.0970 H   0  0  0  0  0  0
   21.7230   55.4730   13.7439 H   0  0  0  0  0  0
  1  2  2  0  0  0
  1  4  1  0  0  0
  1 24  1  0  0  0
  2  3  1  0  0  0
  2 23  1  0  0  0
  3  6  2  0  0  0
  3 25  1  0  0  0
  4  5  2  0  0  0
  4 26  1  0  0  0
  5  9  1  0  0  0
  5  6  1  0  0  0
  6  7  1  0  0  0
  7  8  1  0  0  0
  7 27  1  0  0  0
  8 14  1  0  0  0
  8  9  2  0  0  0
  9 10  1  0  0  0
 10 11  1  0  0  0
 10 28  1  0  0  0
 10 29  1  0  0  0
 11 12  2  0  0  0
 11 13  1  0  0  0
 13 30  1  0  0  0
 14 15  1  0  0  0
 14 16  2  0  0  0
 15 17  2  0  0  0
 15 21  1  0  0  0
 17 18  1  0  0  0
 18 19  2  0  0  0
 18 31  1  0  0  0
 19 20  1  0  0  0
 19 32  1  0  0  0
 20 21  2  0  0  0
 20 22  1  0  0  0
 21 33  1  0  0  0
 22 34  1  0  0  0
 22 35  1  0  0  0
 22 36  1  0  0  0
M  END
> <s_m_entry_id>
5479

> <s_m_entry_name>
dock_pv.470

> <s_m_Source_Path>
/home/csk/Desktop/cluster/DUD-E-result/pgh1

> <s_m_Source_File>
dock_pv.maegz

> <i_m_Source_File_Index>
470

> <chembl_id>
CHEMBL1950009

> <chembl_pref_name>
None

> <i_lp_mmshare_version>
53161

> <r_lp_tautomer_probability>
1

> <s_lp_Force_Field>
OPLS_2005

> <r_lp_Energy>
16.872457

> <b_lp_Chiralities_Consistent>
1

> <s_lp_Variant>
CHEMBL221_lig904-1

> <s_i_glide_gridfile>
glide-grid_2oyu

> <i_i_glide_lignum>
1112

> <i_i_glide_rotatable_bonds>
5

> <r_i_docking_score>
-7.48968060291248

> <r_i_glide_ligand_efficiency>
-0.325638287083152

> <r_i_glide_ligand_efficiency_sa>
-0.926071971043301

> <r_i_glide_ligand_efficiency_ln>
-1.8110726824532

> <r_i_glide_gscore>
-7.48968060291248

> <r_i_glide_lipo>
-3.70414746486796

> <r_i_glide_hbond>
0

> <r_i_glide_metal>
0

> <r_i_glide_rewards>
-3.02199953234814

> <r_i_glide_evdw>
-27.2841835021973

> <r_i_glide_ecoul>
-1.06962418556213

> <r_i_glide_erotb>
0.761119197247798

> <r_i_glide_esite>
0

> <r_i_glide_emodel>
-34.2008112433781

> <r_i_glide_energy>
-28.3538076877594

> <r_i_glide_einternal>
5.94316387176514

> <i_i_glide_confnum>
63

> <i_i_glide_posenum>
127

> <r_i_glide_eff_state_penalty>
0

> <s_user_duplicate_titles>
CHEMBL221_lig904

> <i_f3d_flags>
0

> <s_m_subgroup_title>
dock_pv

> <s_m_subgroupid>
dock_pv

> <b_m_subgroup_collapsed>
1

$$$$
CHEMBL221_lig855
                    3D
 Schrodinger Suite 2021-1.
 37 39  0  0  1  0            999 V2000
   20.8435   51.5306   16.2961 C   0  0  0  0  0  0
   20.5230   50.2023   16.1419 C   0  0  0  0  0  0
   20.5393   49.6105   14.8814 C   0  0  0  0  0  0
   21.3267   52.2727   15.2287 C   0  0  0  0  0  0
   20.5200   52.2726   17.8005 Cl  0  0  0  0  0  0
   21.6710   51.5980   14.0676 C   0  0  0  0  0  0
   21.2651   50.2734   13.8867 C   0  0  0  0  0  0
   21.6825   49.5575   12.7853 O   0  0  0  0  0  0
   21.9375   50.2708   11.5855 C   0  0  2  0  0  0
   22.7374   51.5671   11.9046 C   0  0  0  0  0  0
   22.5132   52.2071   13.0635 C   0  0  0  0  0  0
   20.6004   50.4286   10.8239 C   0  0  0  0  0  0
   19.6668   51.0731   11.5148 F   0  0  0  0  0  0
   20.7548   51.0682    9.6825 F   0  0  0  0  0  0
   20.0992   49.2296   10.5200 F   0  0  0  0  0  0
   23.9564   51.8677   11.1957 C   0  0  0  0  0  0
   24.1228   51.0730   10.1240 O   0  0  0  0  0  0
   24.8098   52.6730   11.5517 O   0  0  0  0  0  0
   19.7348   48.3860   14.6589 C   0  0  0  0  0  0
   18.5967   48.1820   15.4538 C   0  0  0  0  0  0
   17.9162   46.9838   15.4048 C   0  0  0  0  0  0
   18.4055   45.9710   14.6000 C   0  0  0  0  0  0
   19.3223   46.2735   13.6030 C   0  0  0  0  0  0
   20.0199   47.4603   13.6535 C   0  0  0  0  0  0
   17.8880   44.5540   14.6848 C   0  0  0  0  0  0
   20.1118   49.6871   16.9885 H   0  0  0  0  0  0
   21.5893   53.3116   15.3696 H   0  0  0  0  0  0
   22.5292   49.5653   11.0057 H   0  0  0  0  0  0
   23.1306   53.0453   13.3636 H   0  0  0  0  0  0
   25.0189   51.1833    9.7953 H   0  0  0  0  0  0
   18.2471   48.9312   16.1500 H   0  0  0  0  0  0
   17.0694   46.8349   16.0559 H   0  0  0  0  0  0
   19.5773   45.5450   12.8505 H   0  0  0  0  0  0
   20.8165   47.5571   12.9398 H   0  0  0  0  0  0
   16.8449   44.5238   14.9998 H   0  0  0  0  0  0
   17.9708   44.0030   13.7472 H   0  0  0  0  0  0
   18.5234   44.0371   15.3941 H   0  0  0  0  0  0
  1  2  2  0  0  0
  1  4  1  0  0  0
  1  5  1  0  0  0
  2  3  1  0  0  0
  2 26  1  0  0  0
  3  7  2  0  0  0
  3 19  1  0  0  0
  4  6  2  0  0  0
  4 27  1  0  0  0
  6  7  1  0  0  0
  6 11  1  0  0  0
  7  8  1  0  0  0
  8  9  1  0  0  0
  9 12  1  0  0  0
  9 10  1  0  0  0
  9 28  1  0  0  0
 10 16  1  0  0  0
 10 11  2  0  0  0
 11 29  1  0  0  0
 12 13  1  0  0  0
 12 14  1  0  0  0
 12 15  1  0  0  0
 16 17  1  0  0  0
 16 18  2  0  0  0
 17 30  1  0  0  0
 19 20  2  0  0  0
 19 24  1  0  0  0
 20 21  1  0  0  0
 20 31  1  0  0  0
 21 22  2  0  0  0
 21 32  1  0  0  0
 22 23  1  0  0  0
 22 25  1  0  0  0
 23 24  2  0  0  0
 23 33  1  0  0  0
 24 34  1  0  0  0
 25 35  1  0  0  0
 25 36  1  0  0  0
 25 37  1  0  0  0
M  END
> <s_m_entry_id>
5480

> <s_m_entry_name>
dock_pv.471

> <s_m_Source_Path>
/home/csk/Desktop/cluster/DUD-E-result/pgh1

> <s_m_Source_File>
dock_pv.maegz

> <i_m_Source_File_Index>
471

> <chembl_id>
CHEMBL1669034

> <chembl_pref_name>
None

> <i_lp_mmshare_version>
53161

> <r_lp_tautomer_probability>
1

> <s_lp_Force_Field>
OPLS_2005

> <r_lp_Energy>
19.549972

> <b_lp_Chiralities_Consistent>
1

> <s_lp_Variant>
CHEMBL221_lig855-1

> <s_i_glide_gridfile>
glide-grid_2oyu

> <i_i_glide_lignum>
1053

> <i_i_glide_rotatable_bonds>
4

> <r_i_docking_score>
-7.48626601432575

> <r_i_glide_ligand_efficiency>
-0.29945064057303

> <r_i_glide_ligand_efficiency_sa>
-0.875598983815264

> <r_i_glide_ligand_efficiency_ln>
-1.7744693906841

> <r_i_glide_gscore>
-7.48626601432575

> <r_i_glide_lipo>
-3.61689610382441

> <r_i_glide_hbond>
0

> <r_i_glide_metal>
0

> <r_i_glide_rewards>
-3.15811932870377

> <r_i_glide_evdw>
-10.9913272857666

> <r_i_glide_ecoul>
-2.96790957450867

> <r_i_glide_erotb>
0.283502218667059

> <r_i_glide_esite>
0

> <r_i_glide_emodel>
-45.9146175612762

> <r_i_glide_energy>
-13.9592368602753

> <r_i_glide_einternal>
6.90935850143433

> <i_i_glide_confnum>
7

> <i_i_glide_posenum>
140

> <r_i_glide_eff_state_penalty>
0

> <s_user_duplicate_titles>
CHEMBL221_lig855

> <i_f3d_flags>
0

> <s_m_subgroup_title>
dock_pv

> <s_m_subgroupid>
dock_pv

> <b_m_subgroup_collapsed>
1

$$$$
CHEMBL221_lig888
                    3D
 Schrodinger Suite 2021-1.
 32 34  0  0  1  0            999 V2000
   20.4303   49.4641   13.3997 N   0  0  0  0  0  0
   19.3412   48.6512   13.5912 C   0  0  0  0  0  0
   20.6769   49.5459   12.0384 C   0  0  0  0  0  0
   19.0532   48.5083   15.0647 C   0  0  1  0  0  0
   18.9238   48.1706   12.3642 C   0  0  0  0  0  0
   19.7557   48.7241   11.3962 C   0  0  0  0  0  0
   21.7829   50.3077   11.4427 C   0  0  0  0  0  0
   18.8486   47.0193   15.3584 C   0  0  0  0  0  0
   20.9231   50.0204   14.6464 C   0  0  0  0  0  0
   20.3142   49.1095   15.7146 C   0  0  0  0  0  0
   22.1441   49.9486   10.3242 O   0  0  0  0  0  0
   22.5196   51.4017   12.1590 C   0  0  0  0  0  0
   19.7227   46.2747   15.7999 O   0  0  0  0  0  0
   17.5939   46.6236   15.0004 O   0  0  0  0  0  0
   21.8503   52.2953   13.0002 C   0  0  0  0  0  0
   23.8780   51.6205   11.8902 C   0  0  0  0  0  0
   22.5237   53.3401   13.6215 C   0  0  0  0  0  0
   24.5546   52.6733   12.5046 C   0  0  0  0  0  0
   23.8814   53.5169   13.3837 C   0  0  0  0  0  0
   18.1581   49.0420   15.3887 H   0  0  0  0  0  0
   18.1185   47.4741   12.1867 H   0  0  0  0  0  0
   19.7034   48.5397   10.3316 H   0  0  0  0  0  0
   22.0025   50.1108   14.6118 H   0  0  0  0  0  0
   20.5221   51.0142   14.8234 H   0  0  0  0  0  0
   21.0256   48.3663   16.0586 H   0  0  0  0  0  0
   20.0549   49.6938   16.5985 H   0  0  0  0  0  0
   17.0822   47.3503   14.6396 H   0  0  0  0  0  0
   20.7816   52.2330   13.1305 H   0  0  0  0  0  0
   24.4191   50.9788   11.2068 H   0  0  0  0  0  0
   21.9961   54.0270   14.2675 H   0  0  0  0  0  0
   25.6010   52.8395   12.2948 H   0  0  0  0  0  0
   24.4049   54.3418   13.8464 H   0  0  0  0  0  0
  1  2  1  0  0  0
  1  3  1  0  0  0
  1  9  1  0  0  0
  2  4  1  0  0  0
  2  5  2  0  0  0
  3  6  2  0  0  0
  3  7  1  0  0  0
  4  8  1  0  0  0
  4 10  1  0  0  0
  4 20  1  0  0  0
  5  6  1  0  0  0
  5 21  1  0  0  0
  6 22  1  0  0  0
  7 11  2  0  0  0
  7 12  1  0  0  0
  8 13  2  0  0  0
  8 14  1  0  0  0
  9 10  1  0  0  0
  9 23  1  0  0  0
  9 24  1  0  0  0
 10 25  1  0  0  0
 10 26  1  0  0  0
 12 15  1  0  0  0
 12 16  2  0  0  0
 14 27  1  0  0  0
 15 17  2  0  0  0
 15 28  1  0  0  0
 16 18  1  0  0  0
 16 29  1  0  0  0
 17 19  1  0  0  0
 17 30  1  0  0  0
 18 19  2  0  0  0
 18 31  1  0  0  0
 19 32  1  0  0  0
M  END
> <s_m_entry_id>
5481

> <s_m_entry_name>
dock_pv.472

> <s_m_Source_Path>
/home/csk/Desktop/cluster/DUD-E-result/pgh1

> <s_m_Source_File>
dock_pv.maegz

> <i_m_Source_File_Index>
472

> <chembl_id>
CHEMBL469

> <chembl_pref_name>
KETOROLAC

> <i_lp_mmshare_version>
53161

> <r_lp_tautomer_probability>
1

> <s_lp_Force_Field>
OPLS_2005

> <r_lp_Energy>
32.764021

> <b_lp_Chiralities_Consistent>
1

> <s_lp_Variant>
CHEMBL221_lig888-2

> <s_i_glide_gridfile>
glide-grid_2oyu

> <i_i_glide_lignum>
1095

> <i_i_glide_rotatable_bonds>
4

> <r_i_docking_score>
-7.48613930022665

> <r_i_glide_ligand_efficiency>
-0.394007331590876

> <r_i_glide_ligand_efficiency_sa>
-1.05136981219373

> <r_i_glide_ligand_efficiency_ln>
-1.89789710013683

> <r_i_glide_gscore>
-7.48613930022665

> <r_i_glide_lipo>
-3.43866881487063

> <r_i_glide_hbond>
-0.0611338983154873

> <r_i_glide_metal>
0

> <r_i_glide_rewards>
-3.01626541651885

> <r_i_glide_evdw>
-27.8299999237061

> <r_i_glide_ecoul>
-2.5935595035553

> <r_i_glide_erotb>
0.810462751196914

> <r_i_glide_esite>
0

> <r_i_glide_emodel>
-37.5206788706267

> <r_i_glide_energy>
-30.4235594272614

> <r_i_glide_einternal>
6.16872596740723

> <i_i_glide_confnum>
5

> <i_i_glide_posenum>
116

> <r_i_glide_eff_state_penalty>
0

> <s_user_duplicate_titles>
CHEMBL221_lig888

> <i_f3d_flags>
0

> <s_m_subgroup_title>
dock_pv

> <s_m_subgroupid>
dock_pv

> <b_m_subgroup_collapsed>
1

$$$$
CHEMBL221_lig986
                    3D
 Schrodinger Suite 2021-1.
 26 27  0  0  1  0            999 V2000
   23.4706   53.1010   12.9999 C   0  0  0  0  0  0
   24.2184   52.5232   11.9784 C   0  0  0  0  0  0
   23.9463   51.2247   11.5697 C   0  0  0  0  0  0
   22.9453   50.4959   12.2004 C   0  0  0  0  0  0
   22.1609   51.0590   13.2249 C   0  0  0  0  0  0
   22.4404   52.3878   13.6156 C   0  0  0  0  0  0
   21.7232   53.0444   14.5853 O   0  0  0  0  0  0
   21.1051   50.2189   13.9378 C   0  0  0  0  0  0
   20.4010   49.2659   13.2419 N   0  0  0  0  0  0
   20.9231   50.4193   15.1451 O   0  0  0  0  0  0
   19.7234   48.2188   13.7756 C   0  0  0  0  0  0
   19.1826   47.4661   12.5827 C   0  0  0  0  0  0
   19.7228   48.2767   11.4518 C   0  0  0  0  0  0
   20.3061   49.3095   11.8817 N   0  0  0  0  0  0
   19.5708   47.8832    9.9974 C   0  0  0  0  0  0
   19.5683   47.8766   14.9498 O   0  0  0  0  0  0
   23.6888   54.1142   13.3063 H   0  0  0  0  0  0
   25.0160   53.0728   11.5048 H   0  0  0  0  0  0
   24.5228   50.7704   10.7784 H   0  0  0  0  0  0
   22.8146   49.4694   11.8891 H   0  0  0  0  0  0
   22.2291   53.7662   14.9711 H   0  0  0  0  0  0
   18.0934   47.4731   12.5926 H   0  0  0  0  0  0
   19.5478   46.4406   12.5763 H   0  0  0  0  0  0
   18.5260   47.8664    9.6960 H   0  0  0  0  0  0
   19.9785   46.8900    9.8175 H   0  0  0  0  0  0
   20.0931   48.5796    9.3401 H   0  0  0  0  0  0
  1  2  2  0  0  0
  1  6  1  0  0  0
  1 17  1  0  0  0
  2  3  1  0  0  0
  2 18  1  0  0  0
  3  4  2  0  0  0
  3 19  1  0  0  0
  4  5  1  0  0  0
  4 20  1  0  0  0
  5  6  2  0  0  0
  5  8  1  0  0  0
  6  7  1  0  0  0
  7 21  1  0  0  0
  8  9  1  0  0  0
  8 10  2  0  0  0
  9 11  1  0  0  0
  9 14  1  0  0  0
 11 12  1  0  0  0
 11 16  2  0  0  0
 12 13  1  0  0  0
 12 22  1  0  0  0
 12 23  1  0  0  0
 13 14  2  0  0  0
 13 15  1  0  0  0
 15 24  1  0  0  0
 15 25  1  0  0  0
 15 26  1  0  0  0
M  END
> <s_m_entry_id>
5482

> <s_m_entry_name>
dock_pv.473

> <s_m_Source_Path>
/home/csk/Desktop/cluster/DUD-E-result/pgh1

> <s_m_Source_File>
dock_pv.maegz

> <i_m_Source_File_Index>
473

> <chembl_id>
CHEMBL4059594

> <chembl_pref_name>
None

> <i_lp_mmshare_version>
53161

> <r_lp_tautomer_probability>
0.999999999997365

> <s_lp_Force_Field>
OPLS_2005

> <r_lp_Energy>
27.668976

> <b_lp_Chiralities_Consistent>
1

> <s_lp_Variant>
CHEMBL221_lig986-1

> <s_i_glide_gridfile>
glide-grid_2oyu

> <i_i_glide_lignum>
1226

> <i_i_glide_rotatable_bonds>
3

> <r_i_docking_score>
-7.48556740611076

> <r_i_glide_ligand_efficiency>
-0.467847962881922

> <r_i_glide_ligand_efficiency_sa>
-1.1789029920812

> <r_i_glide_ligand_efficiency_ln>
-1.9841991685928

> <r_i_glide_gscore>
-7.48556740611076

> <r_i_glide_lipo>
-2.31036566295312

> <r_i_glide_hbond>
0

> <r_i_glide_metal>
0

> <r_i_glide_rewards>
-3.68424585303216

> <r_i_glide_evdw>
-33.535587310791

> <r_i_glide_ecoul>
-3.46575522422791

> <r_i_glide_erotb>
0.705686759048259

> <r_i_glide_esite>
0

> <r_i_glide_emodel>
-51.5716024134298

> <r_i_glide_energy>
-37.0013425350189

> <r_i_glide_einternal>
2.67873167991638

> <i_i_glide_confnum>
3

> <i_i_glide_posenum>
331

> <r_i_glide_eff_state_penalty>
0

> <s_user_duplicate_titles>
CHEMBL221_lig986

> <i_f3d_flags>
0

> <s_m_subgroup_title>
dock_pv

> <s_m_subgroupid>
dock_pv

> <b_m_subgroup_collapsed>
1

$$$$
CHEMBL221_lig173
                    3D
 Schrodinger Suite 2021-1.
 37 38  0  0  1  0            999 V2000
   19.5538   48.5307   12.5336 C   0  0  0  0  0  0
   20.1683   49.5407   13.2758 C   0  0  0  0  0  0
   20.9212   50.5384   12.6630 C   0  0  0  0  0  0
   21.6702   51.5060   13.5075 C   0  0  0  0  0  0
   18.6390   47.5181   13.2616 C   0  0  1  0  0  0
   19.1912   46.9267   14.5813 C   0  0  0  0  0  0
   19.7223   48.5320   11.1278 C   0  0  0  0  0  0
   20.9097   50.6297   11.2669 C   0  0  0  0  0  0
   21.3200   51.7582   14.6637 O   0  0  0  0  0  0
   20.1227   47.3831   15.2365 O   0  0  0  0  0  0
   22.9020   52.1089   12.9545 C   0  0  0  0  0  0
   20.3551   49.6153   10.5094 C   0  0  0  0  0  0
   18.5225   45.7957   14.9380 O   0  0  0  0  0  0
   19.2311   47.4783   10.3895 O   0  0  0  0  0  0
   17.2346   48.1148   13.5234 C   0  0  0  0  0  0
   23.3529   53.3248   13.4691 C   0  0  0  0  0  0
   23.6659   51.4215   12.0016 C   0  0  0  0  0  0
   19.4588   47.4032    8.9806 C   0  0  0  0  0  0
   24.8423   51.9664   11.5480 C   0  0  0  0  0  0
   24.6068   53.7950   13.1251 C   0  0  0  0  0  0
   25.3428   53.0772   12.1998 C   0  0  0  0  0  0
   20.0599   49.5682   14.3493 H   0  0  0  0  0  0
   18.5236   46.6730   12.5903 H   0  0  0  0  0  0
   21.3840   51.4489   10.7443 H   0  0  0  0  0  0
   20.4389   49.6926    9.4366 H   0  0  0  0  0  0
   17.7804   45.6155   14.3604 H   0  0  0  0  0  0
   17.2965   49.0709   14.0378 H   0  0  0  0  0  0
   16.6870   48.2731   12.6001 H   0  0  0  0  0  0
   16.5985   47.4699   14.1300 H   0  0  0  0  0  0
   22.7778   53.8759   14.2002 H   0  0  0  0  0  0
   23.3823   50.4574   11.6042 H   0  0  0  0  0  0
   19.0245   46.4806    8.5990 H   0  0  0  0  0  0
   18.9918   48.2182    8.4324 H   0  0  0  0  0  0
   20.5226   47.3886    8.7401 H   0  0  0  0  0  0
   25.4045   51.4730   10.7735 H   0  0  0  0  0  0
   24.9931   54.7064   13.5576 H   0  0  0  0  0  0
   26.2842   53.4720   11.8612 H   0  0  0  0  0  0
  1  2  2  0  0  0
  1  5  1  0  0  0
  1  7  1  0  0  0
  2  3  1  0  0  0
  2 22  1  0  0  0
  3  4  1  0  0  0
  3  8  2  0  0  0
  4  9  2  0  0  0
  4 11  1  0  0  0
  5  6  1  0  0  0
  5 15  1  0  0  0
  5 23  1  0  0  0
  6 10  2  0  0  0
  6 13  1  0  0  0
  7 12  2  0  0  0
  7 14  1  0  0  0
  8 12  1  0  0  0
  8 24  1  0  0  0
 11 16  1  0  0  0
 11 17  2  0  0  0
 12 25  1  0  0  0
 13 26  1  0  0  0
 14 18  1  0  0  0
 15 27  1  0  0  0
 15 28  1  0  0  0
 15 29  1  0  0  0
 16 20  2  0  0  0
 16 30  1  0  0  0
 17 19  1  0  0  0
 17 31  1  0  0  0
 18 32  1  0  0  0
 18 33  1  0  0  0
 18 34  1  0  0  0
 19 21  2  0  0  0
 19 35  1  0  0  0
 20 21  1  0  0  0
 20 36  1  0  0  0
 21 37  1  0  0  0
M  END
> <s_m_entry_id>
5483

> <s_m_entry_name>
dock_pv.474

> <s_m_Source_Path>
/home/csk/Desktop/cluster/DUD-E-result/pgh1

> <s_m_Source_File>
dock_pv.maegz

> <i_m_Source_File_Index>
474

> <chembl_id>
CHEMBL74276

> <chembl_pref_name>
None

> <i_lp_mmshare_version>
53161

> <r_lp_tautomer_probability>
1

> <s_lp_Force_Field>
OPLS_2005

> <r_lp_Energy>
24.725534

> <b_lp_Chiralities_Consistent>
1

> <s_lp_Variant>
CHEMBL221_lig173-2

> <s_i_glide_gridfile>
glide-grid_2oyu

> <i_i_glide_lignum>
199

> <i_i_glide_rotatable_bonds>
6

> <r_i_docking_score>
-7.48240940193438

> <r_i_glide_ligand_efficiency>
-0.356305209615923

> <r_i_glide_ligand_efficiency_sa>
-0.983019055982304

> <r_i_glide_ligand_efficiency_ln>
-1.85001060499644

> <r_i_glide_gscore>
-7.48240940193438

> <r_i_glide_lipo>
-4.21228613635804

> <r_i_glide_hbond>
0

> <r_i_glide_metal>
0

> <r_i_glide_rewards>
-2.54447272259612

> <r_i_glide_evdw>
-27.8235626220703

> <r_i_glide_ecoul>
-1.50762474536896

> <r_i_glide_erotb>
0.896935989613644

> <r_i_glide_esite>
-0.00526468968500187

> <r_i_glide_emodel>
-37.6402424456774

> <r_i_glide_energy>
-29.3311873674393

> <r_i_glide_einternal>
1.68448650836945

> <i_i_glide_confnum>
6

> <i_i_glide_posenum>
311

> <r_i_glide_eff_state_penalty>
0

> <s_user_duplicate_titles>
CHEMBL221_lig173

> <i_f3d_flags>
0

> <s_m_subgroup_title>
dock_pv

> <s_m_subgroupid>
dock_pv

> <b_m_subgroup_collapsed>
1

$$$$
CHEMBL221_lig926
                    3D
 Schrodinger Suite 2021-1.
 31 32  0  0  1  0            999 V2000
   17.5366   48.0701   14.5282 C   0  0  0  0  0  0
   22.7395   53.2854   12.9005 C   0  0  0  0  0  0
   18.9337   47.5231   14.2116 C   0  0  1  0  0  0
   23.1832   52.2694   12.0363 C   0  0  0  0  0  0
   19.8010   48.5521   13.4788 C   0  0  0  0  0  0
   22.2963   51.3134   11.2522 C   0  0  0  0  0  0
   17.1175   48.2727   15.6643 O   0  0  0  0  0  0
   19.8631   48.5067   12.0804 C   0  0  0  0  0  0
   20.5416   49.5375   14.1551 C   0  0  0  0  0  0
   21.4236   50.3591   12.0560 C   0  0  0  0  0  0
   16.8193   48.2760   13.3982 O   0  0  0  0  0  0
   21.3521   50.4121   13.4490 C   0  0  0  0  0  0
   20.6572   49.4102   11.3762 C   0  0  0  0  0  0
   23.7538   54.0783   13.4001 C   0  0  0  0  0  0
   25.3105   53.4730   12.9986 S   0  0  0  0  0  0
   24.5684   52.2754   11.9793 C   0  0  0  0  0  0
   19.5921   46.9736   15.4779 C   0  0  0  0  0  0
   20.5220   49.6744   15.4991 F   0  0  0  0  0  0
   21.6976   53.4707   13.1088 H   0  0  0  0  0  0
   18.7836   46.6756   13.5404 H   0  0  0  0  0  0
   22.8928   50.7136   10.5624 H   0  0  0  0  0  0
   21.6142   51.8573   10.6037 H   0  0  0  0  0  0
   19.2912   47.7707   11.5325 H   0  0  0  0  0  0
   15.9679   48.6724   13.5964 H   0  0  0  0  0  0
   21.9253   51.1238   14.0202 H   0  0  0  0  0  0
   20.6874   49.3593   10.2970 H   0  0  0  0  0  0
   23.6608   54.9309   14.0590 H   0  0  0  0  0  0
   25.1915   51.6140   11.3938 H   0  0  0  0  0  0
   19.7287   47.7616   16.2027 H   0  0  0  0  0  0
   18.9286   46.2711   15.9547 H   0  0  0  0  0  0
   20.5570   46.5154   15.3070 H   0  0  0  0  0  0
  1  3  1  0  0  0
  1  7  2  0  0  0
  1 11  1  0  0  0
  2  4  1  0  0  0
  2 14  2  0  0  0
  2 19  1  0  0  0
  3  5  1  0  0  0
  3 17  1  0  0  0
  3 20  1  0  0  0
  4  6  1  0  0  0
  4 16  2  0  0  0
  5  8  2  0  0  0
  5  9  1  0  0  0
  6 10  1  0  0  0
  6 21  1  0  0  0
  6 22  1  0  0  0
  8 13  1  0  0  0
  8 23  1  0  0  0
  9 12  2  0  0  0
  9 18  1  0  0  0
 10 12  1  0  0  0
 10 13  2  0  0  0
 11 24  1  0  0  0
 12 25  1  0  0  0
 13 26  1  0  0  0
 14 15  1  0  0  0
 14 27  1  0  0  0
 15 16  1  0  0  0
 16 28  1  0  0  0
 17 29  1  0  0  0
 17 30  1  0  0  0
 17 31  1  0  0  0
M  END
> <s_m_entry_id>
5484

> <s_m_entry_name>
dock_pv.475

> <s_m_Source_Path>
/home/csk/Desktop/cluster/DUD-E-result/pgh1

> <s_m_Source_File>
dock_pv.maegz

> <i_m_Source_File_Index>
475

> <chembl_id>
CHEMBL2063855

> <chembl_pref_name>
None

> <i_lp_mmshare_version>
53161

> <r_lp_tautomer_probability>
1

> <s_lp_Force_Field>
OPLS_2005

> <r_lp_Energy>
9.982744

> <b_lp_Chiralities_Consistent>
1

> <s_lp_Variant>
CHEMBL221_lig926-2

> <s_i_glide_gridfile>
glide-grid_2oyu

> <i_i_glide_lignum>
1147

> <i_i_glide_rotatable_bonds>
5

> <r_i_docking_score>
-7.48063943322419

> <r_i_glide_ligand_efficiency>
-0.415591079623566

> <r_i_glide_ligand_efficiency_sa>
-1.08915674438409

> <r_i_glide_ligand_efficiency_ln>
-1.92285979303674

> <r_i_glide_gscore>
-7.48063943322419

> <r_i_glide_lipo>
-3.61365548958233

> <r_i_glide_hbond>
0

> <r_i_glide_metal>
0

> <r_i_glide_rewards>
-3.09344515317655

> <r_i_glide_evdw>
-28.8964862823486

> <r_i_glide_ecoul>
-2.30949187278748

> <r_i_glide_erotb>
1.01770930457024

> <r_i_glide_esite>
0

> <r_i_glide_emodel>
-43.096607397779

> <r_i_glide_energy>
-31.2059781551361

> <r_i_glide_einternal>
5.01539087295532

> <i_i_glide_confnum>
25

> <i_i_glide_posenum>
376

> <r_i_glide_eff_state_penalty>
0

> <s_user_duplicate_titles>
CHEMBL221_lig926

> <i_f3d_flags>
0

> <s_m_subgroup_title>
dock_pv

> <s_m_subgroupid>
dock_pv

> <b_m_subgroup_collapsed>
1

$$$$
CHEMBL221_lig574
                    3D
 Schrodinger Suite 2021-1.
 41 43  0  0  1  0            999 V2000
   20.4406   49.0634   13.0221 C   0  0  0  0  0  0
   20.0759   49.1576   14.3617 C   0  0  0  0  0  0
   20.8296   50.1543   14.9353 N   0  0  0  0  0  0
   24.7799   53.1424   13.1073 S   0  0  0  0  0  0
   21.7230   50.6730   14.0304 C   0  0  0  0  0  0
   21.6015   49.8846   12.8551 C   0  0  0  0  0  0
   19.8454   48.2113   11.9992 C   0  0  0  0  0  0
   23.5726   51.8377   13.1012 C   0  0  0  0  0  0
   22.6535   51.7074   14.1414 C   0  0  0  0  0  0
   22.5487   50.0462   11.8363 C   0  0  0  0  0  0
   19.8479   48.6425   10.5477 C   0  0  0  0  0  0
   25.7230   53.0730   14.2000 O   0  0  0  0  0  0
   25.3863   53.0730   11.8000 O   0  0  0  0  0  0
   19.4117   47.1184   12.3583 O   0  0  0  0  0  0
   23.5312   51.0071   11.9792 C   0  0  0  0  0  0
   19.6458   47.6828    9.5484 C   0  0  0  0  0  0
   20.0462   49.9676   10.1429 C   0  0  0  0  0  0
   23.7568   54.6730   13.4000 C   0  0  0  0  0  0
   19.0299   48.4376   15.1859 C   0  0  0  0  0  0
   20.0096   49.2938    7.8000 C   0  0  0  0  0  0
   20.1230   50.2733    8.7877 C   0  0  0  0  0  0
   19.7230   47.9848    8.1938 C   0  0  0  0  0  0
   20.0874   49.7177    6.4909 O   0  0  0  0  0  0
   19.4839   48.9180    5.4822 C   0  0  0  0  0  0
   20.6919   50.4426   15.8928 H   0  0  0  0  0  0
   22.6889   52.3535   15.0000 H   0  0  0  0  0  0
   22.5227   49.4372   10.9465 H   0  0  0  0  0  0
   24.2499   51.1110   11.1772 H   0  0  0  0  0  0
   19.4497   46.6730    9.8188 H   0  0  0  0  0  0
   20.1333   50.7755   10.8542 H   0  0  0  0  0  0
   24.3369   55.4777   12.9999 H   0  0  0  0  0  0
   22.7547   54.5746   13.0000 H   0  0  0  0  0  0
   23.6593   54.8495   14.4668 H   0  0  0  0  0  0
   19.4529   47.5718   15.6945 H   0  0  0  0  0  0
   18.5849   49.0730   15.9511 H   0  0  0  0  0  0
   18.2064   48.0758   14.5699 H   0  0  0  0  0  0
   20.2838   51.2916    8.4733 H   0  0  0  0  0  0
   19.5831   47.2006    7.4669 H   0  0  0  0  0  0
   19.3251   49.5344    4.6000 H   0  0  0  0  0  0
   18.5013   48.5468    5.7798 H   0  0  0  0  0  0
   20.1230   48.0772    5.2084 H   0  0  0  0  0  0
  1  2  2  0  0  0
  1  6  1  0  0  0
  1  7  1  0  0  0
  2  3  1  0  0  0
  2 19  1  0  0  0
  3  5  1  0  0  0
  3 25  1  0  0  0
  4  8  1  0  0  0
  4 12  2  0  0  0
  4 13  2  0  0  0
  4 18  1  0  0  0
  5  6  1  0  0  0
  5  9  2  0  0  0
  6 10  2  0  0  0
  7 11  1  0  0  0
  7 14  2  0  0  0
  8 15  2  0  0  0
  8  9  1  0  0  0
  9 26  1  0  0  0
 10 15  1  0  0  0
 10 27  1  0  0  0
 11 16  1  0  0  0
 11 17  2  0  0  0
 15 28  1  0  0  0
 16 22  2  0  0  0
 16 29  1  0  0  0
 17 21  1  0  0  0
 17 30  1  0  0  0
 18 31  1  0  0  0
 18 32  1  0  0  0
 18 33  1  0  0  0
 19 34  1  0  0  0
 19 35  1  0  0  0
 19 36  1  0  0  0
 20 21  2  0  0  0
 20 23  1  0  0  0
 20 22  1  0  0  0
 21 37  1  0  0  0
 22 38  1  0  0  0
 23 24  1  0  0  0
 24 39  1  0  0  0
 24 40  1  0  0  0
 24 41  1  0  0  0
M  END
> <s_m_entry_id>
5485

> <s_m_entry_name>
dock_pv.476

> <s_m_Source_Path>
/home/csk/Desktop/cluster/DUD-E-result/pgh1

> <s_m_Source_File>
dock_pv.maegz

> <i_m_Source_File_Index>
476

> <chembl_id>
CHEMBL183977

> <chembl_pref_name>
None

> <i_lp_mmshare_version>
53161

> <r_lp_tautomer_probability>
1

> <s_lp_Force_Field>
OPLS_2005

> <r_lp_Energy>
17.404081

> <b_lp_Chiralities_Consistent>
1

> <s_lp_Variant>
CHEMBL221_lig574-1

> <s_i_glide_gridfile>
glide-grid_2oyu

> <i_i_glide_lignum>
712

> <i_i_glide_rotatable_bonds>
4

> <r_i_docking_score>
-7.47988908174533

> <r_i_glide_ligand_efficiency>
-0.311662045072722

> <r_i_glide_ligand_efficiency_sa>
-0.898988900222178

> <r_i_glide_ligand_efficiency_ln>
-1.79028068700647

> <r_i_glide_gscore>
-7.47988908174533

> <r_i_glide_lipo>
-4.20291367429998

> <r_i_glide_hbond>
0

> <r_i_glide_metal>
0

> <r_i_glide_rewards>
-2.3400975997618

> <r_i_glide_evdw>
-16.8136234283447

> <r_i_glide_ecoul>
-2.74637770652771

> <r_i_glide_erotb>
0.32181394412006

> <r_i_glide_esite>
-0.006053924407218

> <r_i_glide_emodel>
-30.9815260502418

> <r_i_glide_energy>
-19.5600011348724

> <r_i_glide_einternal>
11.7260446548462

> <i_i_glide_confnum>
12

> <i_i_glide_posenum>
74

> <r_i_glide_eff_state_penalty>
0

> <s_user_duplicate_titles>
CHEMBL221_lig574

> <i_f3d_flags>
0

> <s_m_subgroup_title>
dock_pv

> <s_m_subgroupid>
dock_pv

> <b_m_subgroup_collapsed>
1

$$$$
CHEMBL221_lig13
                    3D
 Schrodinger Suite 2021-1.
 35 37  0  0  1  0            999 V2000
   19.0039   48.2675   15.3437 C   0  0  0  0  0  0
   18.3073   47.6862   14.2888 C   0  0  0  0  0  0
   18.7232   47.8971   12.9754 C   0  0  0  0  0  0
   20.1230   49.0665   15.1060 C   0  0  0  0  0  0
   20.5346   49.2844   13.7785 C   0  0  0  0  0  0
   19.8221   48.6866   12.7258 N   0  0  0  0  0  0
   20.4602   49.1217   11.5759 C   0  0  0  0  0  0
   21.5485   49.8877   12.0019 C   0  0  0  0  0  0
   21.5892   49.9939   13.3138 N   0  0  0  0  0  0
   20.0594   48.8018   10.2464 N   0  3  0  0  0  0
   20.5230   49.4730    9.3384 O   0  0  0  0  0  0
   19.2923   47.8730   10.0705 O   0  5  0  0  0  0
   22.5017   50.4567   11.1867 N   0  0  0  0  0  0
   23.8001   51.0744   11.4925 C   0  0  2  0  0  0
   23.7367   52.3231   12.3753 C   0  0  0  0  0  0
   22.5230   52.8444   12.8241 C   0  0  0  0  0  0
   22.4728   54.0210   13.5382 C   0  0  0  0  0  0
   23.6591   54.6730   13.8000 C   0  0  0  0  0  0
   24.8906   54.1821   13.4000 C   0  0  0  0  0  0
   24.9230   53.0110   12.6714 C   0  0  0  0  0  0
   24.5230   51.4730   10.1997 C   0  0  0  0  0  0
   18.6685   48.0995   16.3580 H   0  0  0  0  0  0
   17.4358   47.0782   14.4908 H   0  0  0  0  0  0
   18.2026   47.4730   12.1304 H   0  0  0  0  0  0
   20.6643   49.5158   15.9253 H   0  0  0  0  0  0
   22.3954   50.2971   10.1955 H   0  0  0  0  0  0
   24.4001   50.3173   12.0008 H   0  0  0  0  0  0
   21.5820   52.3766   12.6003 H   0  0  0  0  0  0
   21.5350   54.4061   13.9099 H   0  0  0  0  0  0
   23.6344   55.4730   14.5024 H   0  0  0  0  0  0
   25.8066   54.6875   13.6636 H   0  0  0  0  0  0
   25.8857   52.6730   12.3300 H   0  0  0  0  0  0
   25.5609   51.7316   10.3923 H   0  0  0  0  0  0
   24.5049   50.6977    9.4326 H   0  0  0  0  0  0
   24.1230   52.3969    9.8000 H   0  0  0  0  0  0
  1  2  1  0  0  0
  1  4  2  0  0  0
  1 22  1  0  0  0
  2  3  2  0  0  0
  2 23  1  0  0  0
  3  6  1  0  0  0
  3 24  1  0  0  0
  4  5  1  0  0  0
  4 25  1  0  0  0
  5  6  1  0  0  0
  5  9  2  0  0  0
  6  7  1  0  0  0
  7  8  2  0  0  0
  7 10  1  0  0  0
  8  9  1  0  0  0
  8 13  1  0  0  0
 10 11  2  0  0  0
 10 12  1  0  0  0
 13 14  1  0  0  0
 13 26  1  0  0  0
 14 15  1  0  0  0
 14 21  1  0  0  0
 14 27  1  0  0  0
 15 16  2  0  0  0
 15 20  1  0  0  0
 16 17  1  0  0  0
 16 28  1  0  0  0
 17 18  2  0  0  0
 17 29  1  0  0  0
 18 19  1  0  0  0
 18 30  1  0  0  0
 19 20  2  0  0  0
 19 31  1  0  0  0
 20 32  1  0  0  0
 21 33  1  0  0  0
 21 34  1  0  0  0
 21 35  1  0  0  0
M  CHG  2  10   1  12  -1
M  END
> <s_m_entry_id>
5486

> <s_m_entry_name>
dock_pv.477

> <s_m_Source_Path>
/home/csk/Desktop/cluster/DUD-E-result/pgh1

> <s_m_Source_File>
dock_pv.maegz

> <i_m_Source_File_Index>
477

> <chembl_id>
CHEMBL2234039

> <chembl_pref_name>
None

> <i_lp_mmshare_version>
53161

> <r_lp_tautomer_probability>
1

> <s_lp_Force_Field>
OPLS_2005

> <r_lp_Energy>
12.053556

> <b_lp_Chiralities_Consistent>
1

> <s_lp_Variant>
CHEMBL221_lig13-1

> <s_i_glide_gridfile>
glide-grid_2oyu

> <i_i_glide_lignum>
17

> <i_i_glide_rotatable_bonds>
4

> <r_i_docking_score>
-7.47672448537713

> <r_i_glide_ligand_efficiency>
-0.356034499303673

> <r_i_glide_ligand_efficiency_sa>
-0.9822721867578

> <r_i_glide_ligand_efficiency_ln>
-1.84860502086511

> <r_i_glide_gscore>
-7.47672448537713

> <r_i_glide_lipo>
-3.34822180587947

> <r_i_glide_hbond>
0

> <r_i_glide_metal>
0

> <r_i_glide_rewards>
-3.19590745887096

> <r_i_glide_evdw>
-29.2391490936279

> <r_i_glide_ecoul>
-1.01125693321228

> <r_i_glide_erotb>
0.681050774036546

> <r_i_glide_esite>
0

> <r_i_glide_emodel>
-39.30876175561

> <r_i_glide_energy>
-30.2504060268402

> <r_i_glide_einternal>
5.14112567901611

> <i_i_glide_confnum>
8

> <i_i_glide_posenum>
314

> <r_i_glide_eff_state_penalty>
0

> <s_user_duplicate_titles>
CHEMBL221_lig13

> <i_f3d_flags>
0

> <s_m_subgroup_title>
dock_pv

> <s_m_subgroupid>
dock_pv

> <b_m_subgroup_collapsed>
1

$$$$
CHEMBL221_lig658
                    3D
 Schrodinger Suite 2021-1.
 31 32  0  0  1  0            999 V2000
   25.5468   53.0730   12.2000 C   0  0  0  0  0  0
   25.2419   54.1271   13.0406 C   0  0  0  0  0  0
   23.9371   54.2620   13.4915 C   0  0  0  0  0  0
   22.9629   53.3140   13.1816 C   0  0  0  0  0  0
   23.2744   52.2690   12.2800 C   0  0  0  0  0  0
   24.5679   52.1958   11.7709 C   0  0  0  0  0  0
   22.3313   51.1841   11.8456 C   0  0  0  0  0  0
   22.4532   50.6730   10.7306 O   0  0  0  0  0  0
   21.4662   50.7788   12.7868 N   0  0  0  0  0  0
   20.5954   49.6924   12.7334 C   0  0  0  0  0  0
   20.1854   49.0730   11.5415 C   0  0  0  0  0  0
   19.3604   47.9613   11.5904 C   0  0  0  0  0  0
   18.9117   47.5029   12.8196 C   0  0  0  0  0  0
   19.2531   48.1349   14.0085 C   0  0  0  0  0  0
   20.1230   49.2240   13.9610 C   0  0  0  0  0  0
   21.7230   53.4823   13.8000 N   0  0  0  0  0  0
   18.6531   47.6468   15.3182 C   0  0  0  0  0  0
   19.4252   46.6755   15.8000 F   0  0  0  0  0  0
   17.4208   47.1647   15.1451 F   0  0  0  0  0  0
   18.5860   48.6392   16.2000 F   0  0  0  0  0  0
   26.5230   52.9594   11.7648 H   0  0  0  0  0  0
   26.0001   54.8433   13.3210 H   0  0  0  0  0  0
   23.7070   55.0731   14.1656 H   0  0  0  0  0  0
   24.8561   51.4195   11.0729 H   0  0  0  0  0  0
   21.5421   51.2538   13.6747 H   0  0  0  0  0  0
   20.4877   49.4240   10.5679 H   0  0  0  0  0  0
   19.0488   47.4730   10.6788 H   0  0  0  0  0  0
   18.2473   46.6730   12.8518 H   0  0  0  0  0  0
   20.4179   49.7137   14.8788 H   0  0  0  0  0  0
   21.6230   54.2827   14.4082 H   0  0  0  0  0  0
   20.9092   53.0770   13.3621 H   0  0  0  0  0  0
  1  6  1  0  0  0
  1  2  2  0  0  0
  1 21  1  0  0  0
  2  3  1  0  0  0
  2 22  1  0  0  0
  3  4  2  0  0  0
  3 23  1  0  0  0
  4 16  1  0  0  0
  4  5  1  0  0  0
  5  6  2  0  0  0
  5  7  1  0  0  0
  6 24  1  0  0  0
  7  8  2  0  0  0
  7  9  1  0  0  0
  9 10  1  0  0  0
  9 25  1  0  0  0
 10 11  2  0  0  0
 10 15  1  0  0  0
 11 12  1  0  0  0
 11 26  1  0  0  0
 12 13  2  0  0  0
 12 27  1  0  0  0
 13 14  1  0  0  0
 13 28  1  0  0  0
 14 15  2  0  0  0
 14 17  1  0  0  0
 15 29  1  0  0  0
 16 30  1  0  0  0
 16 31  1  0  0  0
 17 18  1  0  0  0
 17 19  1  0  0  0
 17 20  1  0  0  0
M  END
> <s_m_entry_id>
5487

> <s_m_entry_name>
dock_pv.478

> <s_m_Source_Path>
/home/csk/Desktop/cluster/DUD-E-result/pgh1

> <s_m_Source_File>
dock_pv.maegz

> <i_m_Source_File_Index>
478

> <chembl_id>
CHEMBL279404

> <chembl_pref_name>
None

> <i_lp_mmshare_version>
53161

> <r_lp_tautomer_probability>
1

> <s_lp_Force_Field>
OPLS_2005

> <r_lp_Energy>
26.357615

> <b_lp_Chiralities_Consistent>
1

> <s_lp_Variant>
CHEMBL221_lig658-1

> <s_i_glide_gridfile>
glide-grid_2oyu

> <i_i_glide_lignum>
800

> <i_i_glide_rotatable_bonds>
4

> <r_i_docking_score>
-7.46698881521972

> <r_i_glide_ligand_efficiency>
-0.373349440760986

> <r_i_glide_ligand_efficiency_sa>
-1.01342629813549

> <r_i_glide_ligand_efficiency_ln>
-1.86874102267573

> <r_i_glide_gscore>
-7.46698881521972

> <r_i_glide_lipo>
-3.42663484555433

> <r_i_glide_hbond>
0

> <r_i_glide_metal>
0

> <r_i_glide_rewards>
-3.26947335614321

> <r_i_glide_evdw>
-23.9065322875977

> <r_i_glide_ecoul>
-1.6749187707901

> <r_i_glide_erotb>
0.689740222978014

> <r_i_glide_esite>
-0.0140564065017949

> <r_i_glide_emodel>
-29.6521468343281

> <r_i_glide_energy>
-25.5814510583878

> <r_i_glide_einternal>
7.73299264907837

> <i_i_glide_confnum>
10

> <i_i_glide_posenum>
105

> <r_i_glide_eff_state_penalty>
0

> <s_user_duplicate_titles>
CHEMBL221_lig658

> <i_f3d_flags>
0

> <s_m_subgroup_title>
dock_pv

> <s_m_subgroupid>
dock_pv

> <b_m_subgroup_collapsed>
1

$$$$
CHEMBL221_lig874
                    3D
 Schrodinger Suite 2021-1.
 28 29  0  0  1  0            999 V2000
   18.3672   47.1983   14.8146 C   0  0  0  0  0  0
   21.7409   50.6290   12.7290 C   0  0  0  0  0  0
   17.0976   47.2413   15.3116 O   0  0  0  0  0  0
   19.3225   46.6731   15.3809 O   0  0  0  0  0  0
   22.8883   51.5514   12.4953 C   0  0  0  0  0  0
   21.0873   49.9870   11.6695 C   0  0  0  0  0  0
   21.3229   50.3549   14.0361 C   0  0  0  0  0  0
   18.4656   47.8723   13.4354 C   0  0  0  0  0  0
   19.6604   48.8047   13.2240 C   0  0  0  0  0  0
   20.0555   49.0859   11.9155 C   0  0  0  0  0  0
   20.2964   49.4578   14.2844 C   0  0  0  0  0  0
   23.1628   52.5877   13.3995 C   0  0  0  0  0  0
   23.7497   51.3655   11.4066 C   0  0  0  0  0  0
   24.9033   52.1294   11.2819 C   0  0  0  0  0  0
   24.3183   53.3475   13.2796 C   0  0  0  0  0  0
   25.2057   53.0731   12.2531 C   0  0  0  0  0  0
   16.4867   47.7018   14.7333 H   0  0  0  0  0  0
   21.3681   50.1861   10.6454 H   0  0  0  0  0  0
   21.8002   50.8207   14.8844 H   0  0  0  0  0  0
   18.5210   47.0748   12.6950 H   0  0  0  0  0  0
   17.5571   48.4346   13.2161 H   0  0  0  0  0  0
   19.5580   48.6133   11.0816 H   0  0  0  0  0  0
   19.9986   49.2889   15.3083 H   0  0  0  0  0  0
   22.5022   52.7973   14.2273 H   0  0  0  0  0  0
   23.5687   50.5943   10.6761 H   0  0  0  0  0  0
   25.5876   51.9518   10.4672 H   0  0  0  0  0  0
   24.5381   54.1306   13.9916 H   0  0  0  0  0  0
   26.1200   53.6454   12.1987 H   0  0  0  0  0  0
  1  3  1  0  0  0
  1  4  2  0  0  0
  1  8  1  0  0  0
  2  7  1  0  0  0
  2  5  1  0  0  0
  2  6  2  0  0  0
  3 17  1  0  0  0
  5 12  2  0  0  0
  5 13  1  0  0  0
  6 10  1  0  0  0
  6 18  1  0  0  0
  7 11  2  0  0  0
  7 19  1  0  0  0
  8  9  1  0  0  0
  8 20  1  0  0  0
  8 21  1  0  0  0
  9 10  2  0  0  0
  9 11  1  0  0  0
 10 22  1  0  0  0
 11 23  1  0  0  0
 12 15  1  0  0  0
 12 24  1  0  0  0
 13 14  2  0  0  0
 13 25  1  0  0  0
 14 16  1  0  0  0
 14 26  1  0  0  0
 15 16  2  0  0  0
 15 27  1  0  0  0
 16 28  1  0  0  0
M  END
> <s_m_entry_id>
5488

> <s_m_entry_name>
dock_pv.479

> <s_m_Source_Path>
/home/csk/Desktop/cluster/DUD-E-result/pgh1

> <s_m_Source_File>
dock_pv.maegz

> <i_m_Source_File_Index>
479

> <chembl_id>
CHEMBL413965

> <chembl_pref_name>
FELBINAC

> <i_lp_mmshare_version>
53161

> <r_lp_tautomer_probability>
1

> <s_lp_Force_Field>
OPLS_2005

> <r_lp_Energy>
13.866965

> <b_lp_Chiralities_Consistent>
1

> <s_lp_Variant>
CHEMBL221_lig874-1

> <s_i_glide_gridfile>
glide-grid_2oyu

> <i_i_glide_lignum>
1079

> <i_i_glide_rotatable_bonds>
4

> <r_i_docking_score>
-7.46389577854008

> <r_i_glide_ligand_efficiency>
-0.466493486158755

> <r_i_glide_ligand_efficiency_sa>
-1.17548992461413

> <r_i_glide_ligand_efficiency_ln>
-1.97845467080461

> <r_i_glide_gscore>
-7.46389577854008

> <r_i_glide_lipo>
-3.87173864170472

> <r_i_glide_hbond>
0

> <r_i_glide_metal>
0

> <r_i_glide_rewards>
-2.88240682241578

> <r_i_glide_evdw>
-29.5922012329102

> <r_i_glide_ecoul>
-2.26138925552368

> <r_i_glide_erotb>
1.10906813555448

> <r_i_glide_esite>
0

> <r_i_glide_emodel>
-44.7585338977678

> <r_i_glide_energy>
-31.8535904884338

> <r_i_glide_einternal>
2.4100079536438

> <i_i_glide_confnum>
16

> <i_i_glide_posenum>
158

> <r_i_glide_eff_state_penalty>
0

> <s_user_duplicate_titles>
CHEMBL221_lig874

> <i_f3d_flags>
0

> <s_m_subgroup_title>
dock_pv

> <s_m_subgroupid>
dock_pv

> <b_m_subgroup_collapsed>
1

$$$$
CHEMBL221_lig739
                    3D
 Schrodinger Suite 2021-1.
 37 39  0  0  1  0            999 V2000
   21.0294   49.8105   12.6209 C   0  0  2  0  0  0
   19.7232   49.8333   11.8009 C   0  0  2  0  0  0
   18.7854   49.0980   12.6037 O   0  0  0  0  0  0
   19.2375   48.7392   13.9022 C   0  0  2  0  0  0
   20.5232   49.5501   14.0508 C   0  0  0  0  0  0
   19.4559   47.2248   14.0104 C   0  0  0  0  0  0
   22.0212   51.0005   12.4709 C   0  0  0  0  0  0
   22.0165   52.0622   13.3919 C   0  0  0  0  0  0
   23.0427   52.9999   13.4031 C   0  0  0  0  0  0
   24.0890   52.8961   12.4980 C   0  0  0  0  0  0
   24.0593   51.9243   11.5026 C   0  0  0  0  0  0
   23.0191   50.9974   11.4777 C   0  0  0  0  0  0
   21.7228   48.6732   12.2000 O   0  0  0  0  0  0
   19.7486   49.2766   10.3627 C   0  0  0  0  0  0
   20.1247   50.1010    9.3060 C   0  0  0  0  0  0
   20.1229   49.6133    7.9969 C   0  0  0  0  0  0
   19.7227   48.3094    7.7359 C   0  0  0  0  0  0
   19.3450   47.4729    8.7802 C   0  0  0  0  0  0
   19.3671   47.9530   10.0891 C   0  0  0  0  0  0
   19.3213   46.7779   15.2945 O   0  0  0  0  0  0
   19.7218   46.5079   13.0507 O   0  0  0  0  0  0
   25.1399   53.7404   12.6002 F   0  0  0  0  0  0
   19.7068   47.8729    6.4594 F   0  0  0  0  0  0
   19.3580   50.8615   11.7675 H   0  0  0  0  0  0
   18.4893   49.0266   14.6423 H   0  0  0  0  0  0
   20.2584   50.4549   14.5861 H   0  0  0  0  0  0
   21.2713   49.0725   14.6838 H   0  0  0  0  0  0
   21.2566   52.1708   14.1470 H   0  0  0  0  0  0
   23.0569   53.7741   14.1591 H   0  0  0  0  0  0
   24.8572   51.8665   10.7762 H   0  0  0  0  0  0
   23.0346   50.2352   10.7145 H   0  0  0  0  0  0
   22.5933   48.6719   12.6030 H   0  0  0  0  0  0
   20.4303   51.1150    9.4965 H   0  0  0  0  0  0
   20.3941   50.2578    7.1731 H   0  0  0  0  0  0
   19.0300   46.4632    8.5771 H   0  0  0  0  0  0
   19.0525   47.3038   10.8867 H   0  0  0  0  0  0
   19.0688   47.4721   15.9059 H   0  0  0  0  0  0
  1  2  1  0  0  0
  1 13  1  0  0  0
  1  7  1  0  0  0
  1  5  1  0  0  0
  2  3  1  0  0  0
  2 14  1  0  0  0
  2 24  1  0  0  0
  3  4  1  0  0  0
  4  6  1  0  0  0
  4  5  1  0  0  0
  4 25  1  0  0  0
  5 26  1  0  0  0
  5 27  1  0  0  0
  6 20  1  0  0  0
  6 21  2  0  0  0
  7 12  1  0  0  0
  7  8  2  0  0  0
  8  9  1  0  0  0
  8 28  1  0  0  0
  9 10  2  0  0  0
  9 29  1  0  0  0
 10 22  1  0  0  0
 10 11  1  0  0  0
 11 12  2  0  0  0
 11 30  1  0  0  0
 12 31  1  0  0  0
 13 32  1  0  0  0
 14 15  2  0  0  0
 14 19  1  0  0  0
 15 16  1  0  0  0
 15 33  1  0  0  0
 16 17  2  0  0  0
 16 34  1  0  0  0
 17 18  1  0  0  0
 17 23  1  0  0  0
 18 19  2  0  0  0
 18 35  1  0  0  0
 19 36  1  0  0  0
 20 37  1  0  0  0
M  END
> <s_m_entry_id>
5489

> <s_m_entry_name>
dock_pv.480

> <s_m_Source_Path>
/home/csk/Desktop/cluster/DUD-E-result/pgh1

> <s_m_Source_File>
dock_pv.maegz

> <i_m_Source_File_Index>
480

> <chembl_id>
CHEMBL456486

> <chembl_pref_name>
None

> <i_lp_mmshare_version>
53161

> <r_lp_tautomer_probability>
1

> <s_lp_Force_Field>
OPLS_2005

> <r_lp_Energy>
32.214152

> <b_lp_Chiralities_Consistent>
1

> <s_lp_Variant>
CHEMBL221_lig739-1

> <s_i_glide_gridfile>
glide-grid_2oyu

> <i_i_glide_lignum>
908

> <i_i_glide_rotatable_bonds>
5

> <r_i_docking_score>
-7.46339909524584

> <r_i_glide_ligand_efficiency>
-0.324495612836776

> <r_i_glide_ligand_efficiency_sa>
-0.922822357488703

> <r_i_glide_ligand_efficiency_ln>
-1.80471757559187

> <r_i_glide_gscore>
-7.46339909524584

> <r_i_glide_lipo>
-4.3264649266564

> <r_i_glide_hbond>
-0.131021597811422

> <r_i_glide_metal>
0

> <r_i_glide_rewards>
-2.24763944675368

> <r_i_glide_evdw>
-20.576379776001

> <r_i_glide_ecoul>
-1.80847036838531

> <r_i_glide_erotb>
0.546010453074618

> <r_i_glide_esite>
-0.00419403304111201

> <r_i_glide_emodel>
-27.6137083485126

> <r_i_glide_energy>
-22.3848501443863

> <r_i_glide_einternal>
4.68933439254761

> <i_i_glide_confnum>
24

> <i_i_glide_posenum>
234

> <r_i_glide_eff_state_penalty>
0

> <s_user_duplicate_titles>
CHEMBL221_lig739

> <i_f3d_flags>
0

> <s_m_subgroup_title>
dock_pv

> <s_m_subgroupid>
dock_pv

> <b_m_subgroup_collapsed>
1

$$$$
CHEMBL221_lig779
                    3D
 Schrodinger Suite 2021-1.
 37 38  0  0  1  0            999 V2000
   19.5064   48.0217   11.2561 C   0  0  0  0  0  0
   19.7230   48.2168    9.8929 C   0  0  0  0  0  0
   20.4009   49.2763    9.4001 N   0  0  0  0  0  0
   20.9228   50.1507   10.2881 C   0  0  0  0  0  0
   20.8137   50.0037   11.6746 C   0  0  0  0  0  0
   20.0422   48.9366   12.1742 C   0  0  0  0  0  0
   19.8365   48.8175   13.5628 N   0  0  0  0  0  0
   18.9424   47.5327   14.3669 S   0  0  0  0  0  0
   21.4349   50.9104   12.5477 N   0  0  0  0  0  0
   22.6183   51.6554   12.4353 C   0  0  0  0  0  0
   22.8657   52.6997   13.3473 C   0  0  0  0  0  0
   24.0789   53.3960   13.2650 C   0  0  0  0  0  0
   25.0206   53.0730   12.2991 C   0  0  0  0  0  0
   24.7528   52.0827   11.3677 C   0  0  0  0  0  0
   23.5734   51.3538   11.4543 C   0  0  0  0  0  0
   19.3211   46.2730   13.7266 O   0  0  0  0  0  0
   17.1569   47.9396   13.9689 C   0  0  0  0  0  0
   19.1517   47.7378   15.8000 O   0  0  0  0  0  0
   21.8287   53.1088   14.4036 C   0  0  0  0  0  0
   21.7230   54.6261   14.6129 C   0  0  0  0  0  0
   18.9227   47.1709   11.5639 H   0  0  0  0  0  0
   19.3145   47.5289    9.1661 H   0  0  0  0  0  0
   21.4281   50.9995    9.8567 H   0  0  0  0  0  0
   20.2182   49.5307   14.1619 H   0  0  0  0  0  0
   20.9763   51.0236   13.4365 H   0  0  0  0  0  0
   24.3107   54.2014   13.9444 H   0  0  0  0  0  0
   25.9472   53.6256   12.2482 H   0  0  0  0  0  0
   25.4801   51.8693   10.5993 H   0  0  0  0  0  0
   23.4291   50.5440   10.7584 H   0  0  0  0  0  0
   16.5230   47.1657   14.3982 H   0  0  0  0  0  0
   16.9231   48.9006   14.4177 H   0  0  0  0  0  0
   17.0254   47.9821   12.8900 H   0  0  0  0  0  0
   20.8382   52.7858   14.0911 H   0  0  0  0  0  0
   22.0353   52.5886   15.3363 H   0  0  0  0  0  0
   20.9240   54.8954   15.3057 H   0  0  0  0  0  0
   22.6357   55.0758   15.0000 H   0  0  0  0  0  0
   21.5024   55.0730   13.6469 H   0  0  0  0  0  0
  1  6  1  0  0  0
  1  2  2  0  0  0
  1 21  1  0  0  0
  2  3  1  0  0  0
  2 22  1  0  0  0
  3  4  2  0  0  0
  4  5  1  0  0  0
  4 23  1  0  0  0
  5  6  2  0  0  0
  5  9  1  0  0  0
  6  7  1  0  0  0
  7  8  1  0  0  0
  7 24  1  0  0  0
  8 16  2  0  0  0
  8 17  1  0  0  0
  8 18  2  0  0  0
  9 10  1  0  0  0
  9 25  1  0  0  0
 10 11  2  0  0  0
 10 15  1  0  0  0
 11 12  1  0  0  0
 11 19  1  0  0  0
 12 13  2  0  0  0
 12 26  1  0  0  0
 13 14  1  0  0  0
 13 27  1  0  0  0
 14 15  2  0  0  0
 14 28  1  0  0  0
 15 29  1  0  0  0
 17 30  1  0  0  0
 17 31  1  0  0  0
 17 32  1  0  0  0
 19 20  1  0  0  0
 19 33  1  0  0  0
 19 34  1  0  0  0
 20 35  1  0  0  0
 20 36  1  0  0  0
 20 37  1  0  0  0
M  END
> <s_m_entry_id>
5490

> <s_m_entry_name>
dock_pv.481

> <s_m_Source_Path>
/home/csk/Desktop/cluster/DUD-E-result/pgh1

> <s_m_Source_File>
dock_pv.maegz

> <i_m_Source_File_Index>
481

> <chembl_id>
CHEMBL1078377

> <chembl_pref_name>
None

> <i_lp_mmshare_version>
53161

> <r_lp_tautomer_probability>
1

> <s_lp_Force_Field>
OPLS_2005

> <r_lp_Energy>
8.074532

> <b_lp_Chiralities_Consistent>
1

> <s_lp_Variant>
CHEMBL221_lig779-1

> <s_i_glide_gridfile>
glide-grid_2oyu

> <i_i_glide_lignum>
949

> <i_i_glide_rotatable_bonds>
5

> <r_i_docking_score>
-7.45308484754671

> <r_i_glide_ligand_efficiency>
-0.372654242377335

> <r_i_glide_ligand_efficiency_sa>
-1.01153923939777

> <r_i_glide_ligand_efficiency_ln>
-1.86526131815072

> <r_i_glide_gscore>
-7.45308484754671

> <r_i_glide_lipo>
-3.92452787100543

> <r_i_glide_hbond>
0

> <r_i_glide_metal>
0

> <r_i_glide_rewards>
-1.98276091630775

> <r_i_glide_evdw>
-34.8693199157715

> <r_i_glide_ecoul>
-2.67772650718689

> <r_i_glide_erotb>
0.644548801080128

> <r_i_glide_esite>
-0.0452198894470495

> <r_i_glide_emodel>
-52.9363514175918

> <r_i_glide_energy>
-37.5470464229584

> <r_i_glide_einternal>
3.54338479042053

> <i_i_glide_confnum>
7

> <i_i_glide_posenum>
46

> <r_i_glide_eff_state_penalty>
0

> <s_user_duplicate_titles>
CHEMBL221_lig779

> <i_f3d_flags>
0

> <s_m_subgroup_title>
dock_pv

> <s_m_subgroupid>
dock_pv

> <b_m_subgroup_collapsed>
1

$$$$
CHEMBL221_lig479
                    3D
 Schrodinger Suite 2021-1.
 31 32  0  0  1  0            999 V2000
   20.4607   49.1683   13.5615 C   0  0  0  0  0  0
   19.0826   47.5247   15.0298 C   0  0  0  0  0  0
   21.1308   49.4277   12.3598 C   0  0  0  0  0  0
   19.4680   47.9924   13.6128 C   0  0  1  0  0  0
   22.0999   50.4579   12.2738 C   0  0  0  0  0  0
   22.3233   51.2872   13.4098 C   0  0  0  0  0  0
   18.0112   48.1837   15.5536 O   0  0  0  0  0  0
   20.6923   50.0036   14.6608 C   0  0  0  0  0  0
   19.7222   46.6731   15.6325 O   0  0  0  0  0  0
   23.3219   52.2791   13.3514 C   0  0  0  0  0  0
   21.5733   51.0736   14.5842 C   0  0  0  0  0  0
   22.8749   50.6727   11.1103 C   0  0  0  0  0  0
   24.1568   52.3922   12.2409 C   0  0  0  0  0  0
   23.9122   51.6025   11.1211 C   0  0  0  0  0  0
   25.2541   53.2250   12.2004 O   0  0  0  0  0  0
   18.2371   48.2539   12.7366 C   0  0  0  0  0  0
   25.4966   54.1220   13.2787 C   0  0  0  0  0  0
   20.9571   48.8031   11.4964 H   0  0  0  0  0  0
   19.9874   47.1386   13.1739 H   0  0  0  0  0  0
   17.8208   47.8682   16.4381 H   0  0  0  0  0  0
   20.1697   49.8602   15.5940 H   0  0  0  0  0  0
   23.4686   52.9079   14.2069 H   0  0  0  0  0  0
   21.7229   51.7123   15.4425 H   0  0  0  0  0  0
   22.7011   50.0639   10.2347 H   0  0  0  0  0  0
   24.5448   51.7020   10.2521 H   0  0  0  0  0  0
   17.7637   49.1981   13.0000 H   0  0  0  0  0  0
   18.5230   48.2729   11.6854 H   0  0  0  0  0  0
   17.4835   47.4778   12.8512 H   0  0  0  0  0  0
   26.3635   54.7401   13.0480 H   0  0  0  0  0  0
   24.6512   54.7908   13.4442 H   0  0  0  0  0  0
   25.7089   53.5770   14.1993 H   0  0  0  0  0  0
  1  3  1  0  0  0
  1  4  1  0  0  0
  1  8  2  0  0  0
  2  4  1  0  0  0
  2  7  1  0  0  0
  2  9  2  0  0  0
  3  5  2  0  0  0
  3 18  1  0  0  0
  4 16  1  0  0  0
  4 19  1  0  0  0
  5 12  1  0  0  0
  5  6  1  0  0  0
  6 11  2  0  0  0
  6 10  1  0  0  0
  7 20  1  0  0  0
  8 11  1  0  0  0
  8 21  1  0  0  0
 10 13  2  0  0  0
 10 22  1  0  0  0
 11 23  1  0  0  0
 12 14  2  0  0  0
 12 24  1  0  0  0
 13 15  1  0  0  0
 13 14  1  0  0  0
 14 25  1  0  0  0
 15 17  1  0  0  0
 16 26  1  0  0  0
 16 27  1  0  0  0
 16 28  1  0  0  0
 17 29  1  0  0  0
 17 30  1  0  0  0
 17 31  1  0  0  0
M  END
> <s_m_entry_id>
5491

> <s_m_entry_name>
dock_pv.482

> <s_m_Source_Path>
/home/csk/Desktop/cluster/DUD-E-result/pgh1

> <s_m_Source_File>
dock_pv.maegz

> <i_m_Source_File_Index>
482

> <chembl_id>
CHEMBL154

> <chembl_pref_name>
NAPROXEN

> <i_lp_mmshare_version>
53161

> <r_lp_tautomer_probability>
1

> <s_lp_Force_Field>
OPLS_2005

> <r_lp_Energy>
16.615099

> <b_lp_Chiralities_Consistent>
1

> <s_lp_Variant>
CHEMBL221_lig479-1

> <s_i_glide_gridfile>
glide-grid_2oyu

> <i_i_glide_lignum>
606

> <i_i_glide_rotatable_bonds>
4

> <r_i_docking_score>
-7.45041313353748

> <r_i_glide_ligand_efficiency>
-0.43825959609044

> <r_i_glide_ligand_efficiency_sa>
-1.12688883029242

> <r_i_glide_ligand_efficiency_ln>
-1.94364687399675

> <r_i_glide_gscore>
-7.45041313353748

> <r_i_glide_lipo>
-3.83293871359909

> <r_i_glide_hbond>
-0.00336463854199566

> <r_i_glide_metal>
0

> <r_i_glide_rewards>
-2.54707666007414

> <r_i_glide_evdw>
-29.1741313934326

> <r_i_glide_ecoul>
-1.68453466892242

> <r_i_glide_erotb>
0.644353648687744

> <r_i_glide_esite>
0

> <r_i_glide_emodel>
-44.8158313232846

> <r_i_glide_energy>
-30.858666062355

> <r_i_glide_einternal>
4.78160429000854

> <i_i_glide_confnum>
2

> <i_i_glide_posenum>
160

> <r_i_glide_eff_state_penalty>
0

> <s_user_duplicate_titles>
CHEMBL221_lig479,51056

> <i_f3d_flags>
0

> <s_m_subgroup_title>
dock_pv

> <s_m_subgroupid>
dock_pv

> <b_m_subgroup_collapsed>
1

$$$$
CHEMBL221_lig233
                    3D
 Schrodinger Suite 2021-1.
 33 35  0  0  1  0            999 V2000
   19.4755   48.2669   15.3502 S   0  0  0  0  0  0
   20.4968   49.6869   13.1827 C   0  0  0  0  0  0
   19.8878   48.6624    9.2503 C   0  0  0  0  0  0
   22.6583   50.9470   11.9300 C   0  0  0  0  0  0
   20.7837   49.4117   11.8350 C   0  0  0  0  0  0
   19.3835   49.0730   13.7873 N   0  0  0  0  0  0
   21.8978   50.0109   11.2264 C   0  0  0  0  0  0
   22.3321   51.2706   13.2391 C   0  0  0  0  0  0
   20.1230   49.8386    8.7227 N   0  0  0  0  0  0
   19.7230   48.2730   10.9561 S   0  0  0  0  0  0
   21.2717   50.6302   13.8702 C   0  0  0  0  0  0
   23.8451   51.7209   11.5011 C   0  0  0  0  0  0
   19.4390   47.4730    8.0890 S   0  0  0  0  0  0
   19.7230   46.8500   15.0771 O   0  0  0  0  0  0
   20.3730   49.0507   16.2000 O   0  0  0  0  0  0
   20.0558   49.8140    7.4000 C   0  0  0  0  0  0
   19.7230   48.6079    6.8163 C   0  0  0  0  0  0
   23.2762   52.2927   13.7966 C   0  0  0  0  0  0
   24.1936   52.6730   12.6376 C   0  0  0  0  0  0
   24.4470   51.6418   10.4367 O   0  0  0  0  0  0
   17.7231   48.4229   16.0056 C   0  0  0  0  0  0
   18.9205   48.4806   13.1138 H   0  0  0  0  0  0
   22.1645   49.7661   10.2109 H   0  0  0  0  0  0
   21.0280   50.9022   14.8848 H   0  0  0  0  0  0
   20.1827   50.7321    6.8489 H   0  0  0  0  0  0
   19.5846   48.3663    5.7727 H   0  0  0  0  0  0
   23.8761   51.8730   14.6000 H   0  0  0  0  0  0
   22.7635   53.1764   14.1801 H   0  0  0  0  0  0
   25.2487   52.6042   12.9009 H   0  0  0  0  0  0
   24.0060   53.6926   12.3049 H   0  0  0  0  0  0
   17.6558   47.8711   16.9416 H   0  0  0  0  0  0
   17.5017   49.4730   16.1803 H   0  0  0  0  0  0
   17.0337   48.0063   15.2726 H   0  0  0  0  0  0
  1  6  1  0  0  0
  1 14  2  0  0  0
  1 15  2  0  0  0
  1 21  1  0  0  0
  2  6  1  0  0  0
  2  5  2  0  0  0
  2 11  1  0  0  0
  3 10  1  0  0  0
  3  9  2  0  0  0
  3 13  1  0  0  0
  4  8  1  0  0  0
  4 12  1  0  0  0
  4  7  2  0  0  0
  5  7  1  0  0  0
  5 10  1  0  0  0
  6 22  1  0  0  0
  7 23  1  0  0  0
  8 11  2  0  0  0
  8 18  1  0  0  0
  9 16  1  0  0  0
 11 24  1  0  0  0
 12 20  2  0  0  0
 12 19  1  0  0  0
 13 17  1  0  0  0
 16 17  2  0  0  0
 16 25  1  0  0  0
 17 26  1  0  0  0
 18 19  1  0  0  0
 18 27  1  0  0  0
 18 28  1  0  0  0
 19 29  1  0  0  0
 19 30  1  0  0  0
 21 31  1  0  0  0
 21 32  1  0  0  0
 21 33  1  0  0  0
M  END
> <s_m_entry_id>
5492

> <s_m_entry_name>
dock_pv.483

> <s_m_Source_Path>
/home/csk/Desktop/cluster/DUD-E-result/pgh1

> <s_m_Source_File>
dock_pv.maegz

> <i_m_Source_File_Index>
483

> <chembl_id>
CHEMBL289262

> <chembl_pref_name>
None

> <i_lp_mmshare_version>
53161

> <r_lp_tautomer_probability>
0.99995

> <s_lp_Force_Field>
OPLS_2005

> <r_lp_Energy>
15.350841

> <b_lp_Chiralities_Consistent>
1

> <s_lp_Variant>
CHEMBL221_lig233-1

> <s_i_glide_gridfile>
glide-grid_2oyu

> <i_i_glide_lignum>
261

> <i_i_glide_rotatable_bonds>
4

> <r_i_docking_score>
-7.44668833812304

> <r_i_glide_ligand_efficiency>
-0.354604206577287

> <r_i_glide_ligand_efficiency_sa>
-0.978326117579678

> <r_i_glide_ligand_efficiency_ln>
-1.84117864415029

> <r_i_glide_gscore>
-7.44668833812304

> <r_i_glide_lipo>
-3.79365730542811

> <r_i_glide_hbond>
0

> <r_i_glide_metal>
0

> <r_i_glide_rewards>
-2.44854432308087

> <r_i_glide_evdw>
-32.5816955566406

> <r_i_glide_ecoul>
-0.175045058131218

> <r_i_glide_erotb>
0.490174824059226

> <r_i_glide_esite>
-0.0393199971215705

> <r_i_glide_emodel>
-40.7287989177273

> <r_i_glide_energy>
-32.7567406147718

> <r_i_glide_einternal>
10.32887840271

> <i_i_glide_confnum>
3

> <i_i_glide_posenum>
289

> <r_i_glide_eff_state_penalty>
0

> <s_user_duplicate_titles>
CHEMBL221_lig233

> <i_f3d_flags>
0

> <s_m_subgroup_title>
dock_pv

> <s_m_subgroupid>
dock_pv

> <b_m_subgroup_collapsed>
1

$$$$
CHEMBL221_lig694
                    3D
 Schrodinger Suite 2021-1.
 33 35  0  0  1  0            999 V2000
   22.2205   50.7743   12.4326 C   0  0  2  0  0  0
   21.3853   50.9920   11.1728 C   0  0  0  0  0  0
   20.5229   49.7784   10.9984 C   0  0  0  0  0  0
   20.2609   49.3213    9.8854 O   0  0  0  0  0  0
   20.0602   49.1605   12.2902 C   0  0  0  0  0  0
   19.2507   48.0415   12.3194 C   0  0  0  0  0  0
   18.8018   47.4977   13.5179 C   0  0  0  0  0  0
   19.2231   48.0260   14.7273 C   0  0  0  0  0  0
   20.1230   49.0804   14.7381 C   0  0  0  0  0  0
   20.5252   49.6348   13.5247 C   0  0  0  0  0  0
   21.3992   50.6806   13.5956 O   0  0  0  0  0  0
   23.1775   51.8961   12.5384 C   0  0  0  0  0  0
   22.9184   53.0468   13.2958 C   0  0  0  0  0  0
   23.9015   54.0108   13.4000 C   0  0  0  0  0  0
   25.1235   53.7944   12.7910 C   0  0  0  0  0  0
   25.3230   52.7126   11.9400 C   0  0  0  0  0  0
   24.3455   51.7621   11.8000 C   0  0  0  0  0  0
   26.1230   54.6730   13.0000 O   0  0  0  0  0  0
   21.7313   53.2416   13.9496 O   0  0  0  0  0  0
   18.7514   47.4998   15.8925 O   0  0  0  0  0  0
   18.9230   47.4730   11.1432 O   0  0  0  0  0  0
   22.8205   49.8586   12.3652 H   0  0  0  0  0  0
   20.7620   51.8727   11.2833 H   0  0  0  0  0  0
   22.0434   51.0730   10.3079 H   0  0  0  0  0  0
   18.1230   46.6730   13.5075 H   0  0  0  0  0  0
   20.4798   49.4846   15.6735 H   0  0  0  0  0  0
   23.7311   54.8841   14.0141 H   0  0  0  0  0  0
   26.2539   52.6097   11.4000 H   0  0  0  0  0  0
   24.5230   50.9055   11.1636 H   0  0  0  0  0  0
   25.8336   55.4822   13.4313 H   0  0  0  0  0  0
   21.2365   52.4153   13.9713 H   0  0  0  0  0  0
   18.0615   46.8517   15.7375 H   0  0  0  0  0  0
   19.3212   47.9555   10.4084 H   0  0  0  0  0  0
  1  2  1  0  0  0
  1 11  1  0  0  0
  1 12  1  0  0  0
  1 22  1  0  0  0
  2  3  1  0  0  0
  2 23  1  0  0  0
  2 24  1  0  0  0
  3  4  2  0  0  0
  3  5  1  0  0  0
  5  6  1  0  0  0
  5 10  2  0  0  0
  6  7  2  0  0  0
  6 21  1  0  0  0
  7  8  1  0  0  0
  7 25  1  0  0  0
  8  9  2  0  0  0
  8 20  1  0  0  0
  9 10  1  0  0  0
  9 26  1  0  0  0
 10 11  1  0  0  0
 12 13  1  0  0  0
 12 17  2  0  0  0
 13 14  2  0  0  0
 13 19  1  0  0  0
 14 15  1  0  0  0
 14 27  1  0  0  0
 15 16  2  0  0  0
 15 18  1  0  0  0
 16 17  1  0  0  0
 16 28  1  0  0  0
 17 29  1  0  0  0
 18 30  1  0  0  0
 19 31  1  0  0  0
 20 32  1  0  0  0
 21 33  1  0  0  0
M  END
> <s_m_entry_id>
5493

> <s_m_entry_name>
dock_pv.484

> <s_m_Source_Path>
/home/csk/Desktop/cluster/DUD-E-result/pgh1

> <s_m_Source_File>
dock_pv.maegz

> <i_m_Source_File_Index>
484

> <chembl_id>
CHEMBL465194

> <chembl_pref_name>
STEPPOGENIN

> <i_lp_mmshare_version>
53161

> <r_lp_tautomer_probability>
0.99994999989801

> <s_lp_Force_Field>
OPLS_2005

> <r_lp_Energy>
25.369278

> <b_lp_Chiralities_Consistent>
1

> <s_lp_Variant>
CHEMBL221_lig694-1

> <s_i_glide_gridfile>
glide-grid_2oyu

> <i_i_glide_lignum>
856

> <i_i_glide_rotatable_bonds>
5

> <r_i_docking_score>
-7.43863113827271

> <r_i_glide_ligand_efficiency>
-0.354220530393939

> <r_i_glide_ligand_efficiency_sa>
-0.97726758408261

> <r_i_glide_ligand_efficiency_ln>
-1.8391865177684

> <r_i_glide_gscore>
-7.43863113827271

> <r_i_glide_lipo>
-3.92802132991681

> <r_i_glide_hbond>
0

> <r_i_glide_metal>
0

> <r_i_glide_rewards>
-2.41107495591784

> <r_i_glide_evdw>
-23.0074272155762

> <r_i_glide_ecoul>
-1.12053692340851

> <r_i_glide_erotb>
0.218917046852028

> <r_i_glide_esite>
0

> <r_i_glide_emodel>
-23.8732844430234

> <r_i_glide_energy>
-24.1279641389847

> <r_i_glide_einternal>
2.75827193260193

> <i_i_glide_confnum>
2

> <i_i_glide_posenum>
145

> <r_i_glide_eff_state_penalty>
0

> <s_user_duplicate_titles>
CHEMBL221_lig694

> <i_f3d_flags>
0

> <s_m_subgroup_title>
dock_pv

> <s_m_subgroupid>
dock_pv

> <b_m_subgroup_collapsed>
1

$$$$
CHEMBL221_lig561
                    3D
 Schrodinger Suite 2021-1.
 48 49  0  0  1  0            999 V2000
   21.3173   50.0306   12.3429 C   0  0  0  0  0  0
   21.1477   49.5608   11.0398 C   0  0  0  0  0  0
   20.1231   48.6773   10.6807 C   0  0  0  0  0  0
   19.3454   48.1094   11.7011 C   0  0  0  0  0  0
   20.4987   49.4391   13.3298 C   0  0  0  0  0  0
   19.5533   48.4662   13.0297 C   0  0  0  0  0  0
   18.8743   47.9967   14.2963 C   0  0  0  0  0  0
   19.6000   48.8805   15.3483 C   0  0  0  0  0  0
   20.5248   49.7302   14.6703 O   0  0  0  0  0  0
   19.1149   46.5021   14.5910 C   0  0  0  0  0  0
   17.3484   48.2414   14.2379 C   0  0  0  0  0  0
   22.4170   51.0997   12.5735 C   0  0  0  0  0  0
   22.4926   52.1356   11.4338 C   0  0  0  0  0  0
   23.7842   50.4317   12.5382 C   0  0  0  0  0  0
   22.2242   51.8786   13.9000 C   0  0  0  0  0  0
   19.9131   48.2725    9.2356 C   0  0  0  0  0  0
   20.1212   49.1725    8.2292 N   0  0  0  0  0  0
   19.5392   47.1158    9.0029 O   0  0  0  0  0  0
   20.1224   50.6368    8.4327 C   0  0  0  0  0  0
   19.7355   48.7868    6.8551 C   0  0  0  0  0  0
   20.7402   49.2015    5.7806 C   0  0  0  0  0  0
   21.8482   49.8899   10.2886 H   0  0  0  0  0  0
   18.5720   47.3938   11.4576 H   0  0  0  0  0  0
   18.9100   49.4705   15.9462 H   0  0  0  0  0  0
   20.1752   48.2753   16.0477 H   0  0  0  0  0  0
   18.4746   46.1607   15.4097 H   0  0  0  0  0  0
   20.1388   46.3227   14.9139 H   0  0  0  0  0  0
   18.9244   45.8716   13.7169 H   0  0  0  0  0  0
   16.9178   48.3854   15.2283 H   0  0  0  0  0  0
   17.0794   49.0729   13.5996 H   0  0  0  0  0  0
   16.8276   47.3944   13.7956 H   0  0  0  0  0  0
   21.5146   52.2591   11.0003 H   0  0  0  0  0  0
   22.8948   53.0864   11.7824 H   0  0  0  0  0  0
   23.1318   51.8386   10.5988 H   0  0  0  0  0  0
   23.7178   49.4710   12.9997 H   0  0  0  0  0  0
   24.1550   50.2088   11.5378 H   0  0  0  0  0  0
   24.5220   51.0730   13.0017 H   0  0  0  0  0  0
   22.3699   51.2504   14.7779 H   0  0  0  0  0  0
   22.9400   52.6955   14.0080 H   0  0  0  0  0  0
   21.2268   52.3163   13.9593 H   0  0  0  0  0  0
   20.9489   51.0364    9.0002 H   0  0  0  0  0  0
   20.1245   51.1869    7.4920 H   0  0  0  0  0  0
   19.2906   50.9638    9.0312 H   0  0  0  0  0  0
   19.6294   47.7073    6.7531 H   0  0  0  0  0  0
   18.7517   49.2043    6.6281 H   0  0  0  0  0  0
   20.4782   48.7187    4.8460 H   0  0  0  0  0  0
   20.7543   50.2740    5.6010 H   0  0  0  0  0  0
   21.7407   48.8809    6.0436 H   0  0  0  0  0  0
  1  2  2  0  0  0
  1 12  1  0  0  0
  1  5  1  0  0  0
  2  3  1  0  0  0
  2 22  1  0  0  0
  3  4  2  0  0  0
  3 16  1  0  0  0
  4  6  1  0  0  0
  4 23  1  0  0  0
  5  6  2  0  0  0
  5  9  1  0  0  0
  6  7  1  0  0  0
  7 10  1  0  0  0
  7 11  1  0  0  0
  7  8  1  0  0  0
  8  9  1  0  0  0
  8 24  1  0  0  0
  8 25  1  0  0  0
 10 26  1  0  0  0
 10 27  1  0  0  0
 10 28  1  0  0  0
 11 29  1  0  0  0
 11 30  1  0  0  0
 11 31  1  0  0  0
 12 13  1  0  0  0
 12 14  1  0  0  0
 12 15  1  0  0  0
 13 32  1  0  0  0
 13 33  1  0  0  0
 13 34  1  0  0  0
 14 35  1  0  0  0
 14 36  1  0  0  0
 14 37  1  0  0  0
 15 38  1  0  0  0
 15 39  1  0  0  0
 15 40  1  0  0  0
 16 17  1  0  0  0
 16 18  2  0  0  0
 17 19  1  0  0  0
 17 20  1  0  0  0
 19 41  1  0  0  0
 19 42  1  0  0  0
 19 43  1  0  0  0
 20 21  1  0  0  0
 20 44  1  0  0  0
 20 45  1  0  0  0
 21 46  1  0  0  0
 21 47  1  0  0  0
 21 48  1  0  0  0
M  END
> <s_m_entry_id>
5494

> <s_m_entry_name>
dock_pv.485

> <s_m_Source_Path>
/home/csk/Desktop/cluster/DUD-E-result/pgh1

> <s_m_Source_File>
dock_pv.maegz

> <i_m_Source_File_Index>
485

> <chembl_id>
CHEMBL117615

> <chembl_pref_name>
None

> <i_lp_mmshare_version>
53161

> <r_lp_tautomer_probability>
1

> <s_lp_Force_Field>
OPLS_2005

> <r_lp_Energy>
36.740278

> <b_lp_Chiralities_Consistent>
1

> <s_lp_Variant>
CHEMBL221_lig561-1

> <s_i_glide_gridfile>
glide-grid_2oyu

> <i_i_glide_lignum>
699

> <i_i_glide_rotatable_bonds>
4

> <r_i_docking_score>
-7.43432556835225

> <r_i_glide_ligand_efficiency>
-0.354015503254869

> <r_i_glide_ligand_efficiency_sa>
-0.976701929752391

> <r_i_glide_ligand_efficiency_ln>
-1.83812197430579

> <r_i_glide_gscore>
-7.43432556835225

> <r_i_glide_lipo>
-4.28356370892117

> <r_i_glide_hbond>
0

> <r_i_glide_metal>
0

> <r_i_glide_rewards>
-2.29654378868642

> <r_i_glide_evdw>
-20.5623798370361

> <r_i_glide_ecoul>
-1.73918986320496

> <r_i_glide_erotb>
0.434779400587884

> <r_i_glide_esite>
0

> <r_i_glide_emodel>
-29.0628164994288

> <r_i_glide_energy>
-22.3015697002411

> <r_i_glide_einternal>
5.54831743240356

> <i_i_glide_confnum>
5

> <i_i_glide_posenum>
60

> <r_i_glide_eff_state_penalty>
0

> <s_user_duplicate_titles>
CHEMBL221_lig561

> <i_f3d_flags>
0

> <s_m_subgroup_title>
dock_pv

> <s_m_subgroupid>
dock_pv

> <b_m_subgroup_collapsed>
1

$$$$
CHEMBL221_lig901
                    3D
 Schrodinger Suite 2021-1.
 39 41  0  0  1  0            999 V2000
   17.7296   47.7433   14.9450 C   0  0  0  0  0  0
   18.5213   48.2498   15.9724 C   0  0  0  0  0  0
   19.7226   48.8986   15.6778 C   0  0  0  0  0  0
   18.1463   47.8731   13.6218 C   0  0  0  0  0  0
   19.3472   48.5158   13.3106 C   0  0  0  0  0  0
   20.1203   49.0525   14.3496 C   0  0  0  0  0  0
   21.3230   49.6997   14.1415 O   0  0  0  0  0  0
   21.5202   50.3188   12.8861 C   0  0  1  0  0  0
   19.8500   48.6628   11.9284 C   0  0  0  0  0  0
   20.7962   49.6623   11.7111 C   0  0  0  0  0  0
   21.0832   49.9978   10.3932 C   0  0  0  0  0  0
   20.5230   49.3368    9.3527 N   0  0  0  0  0  0
   19.7229   48.2831    9.6520 C   0  0  0  0  0  0
   19.3252   47.9355   10.9016 N   0  0  0  0  0  0
   19.2743   47.4728    8.6033 N   0  0  0  0  0  0
   19.3691   47.8730    7.2061 N   0  0  0  0  0  0
   21.2556   51.7010   12.8930 O   0  0  0  0  0  0
   21.9467   52.5345   13.8389 C   0  0  0  0  0  0
   21.3186   52.2725   15.2150 C   0  0  0  0  0  0
   21.7228   54.0199   13.5177 C   0  0  0  0  0  0
   23.4630   52.2732   13.7524 C   0  0  0  0  0  0
   16.7961   47.2485   15.1717 H   0  0  0  0  0  0
   18.1950   48.1392   16.9963 H   0  0  0  0  0  0
   20.3336   49.2960   16.4741 H   0  0  0  0  0  0
   17.5280   47.4754   12.8329 H   0  0  0  0  0  0
   22.5840   50.1394   12.7261 H   0  0  0  0  0  0
   21.7837   50.7863   10.1616 H   0  0  0  0  0  0
   18.5632   46.7731    8.7647 H   0  0  0  0  0  0
   19.0277   48.8221    7.1070 H   0  0  0  0  0  0
   20.3317   47.7888    6.9045 H   0  0  0  0  0  0
   21.7661   51.4579   15.7765 H   0  0  0  0  0  0
   21.3237   53.1735   15.8171 H   0  0  0  0  0  0
   20.2680   52.0251   15.1126 H   0  0  0  0  0  0
   22.2259   54.2903   12.6000 H   0  0  0  0  0  0
   20.6670   54.2580   13.4000 H   0  0  0  0  0  0
   22.1257   54.6739   14.2933 H   0  0  0  0  0  0
   23.7885   52.2055   12.7137 H   0  0  0  0  0  0
   24.0561   53.0658   14.1999 H   0  0  0  0  0  0
   23.7248   51.3412   14.2405 H   0  0  0  0  0  0
  1  2  2  0  0  0
  1  4  1  0  0  0
  1 22  1  0  0  0
  2  3  1  0  0  0
  2 23  1  0  0  0
  3  6  2  0  0  0
  3 24  1  0  0  0
  4  5  2  0  0  0
  4 25  1  0  0  0
  5  6  1  0  0  0
  5  9  1  0  0  0
  6  7  1  0  0  0
  7  8  1  0  0  0
  8 17  1  0  0  0
  8 10  1  0  0  0
  8 26  1  0  0  0
  9 10  2  0  0  0
  9 14  1  0  0  0
 10 11  1  0  0  0
 11 12  2  0  0  0
 11 27  1  0  0  0
 12 13  1  0  0  0
 13 14  2  0  0  0
 13 15  1  0  0  0
 15 16  1  0  0  0
 15 28  1  0  0  0
 16 29  1  0  0  0
 16 30  1  0  0  0
 17 18  1  0  0  0
 18 19  1  0  0  0
 18 20  1  0  0  0
 18 21  1  0  0  0
 19 31  1  0  0  0
 19 32  1  0  0  0
 19 33  1  0  0  0
 20 34  1  0  0  0
 20 35  1  0  0  0
 20 36  1  0  0  0
 21 37  1  0  0  0
 21 38  1  0  0  0
 21 39  1  0  0  0
M  END
> <s_m_entry_id>
5495

> <s_m_entry_name>
dock_pv.486

> <s_m_Source_Path>
/home/csk/Desktop/cluster/DUD-E-result/pgh1

> <s_m_Source_File>
dock_pv.maegz

> <i_m_Source_File_Index>
486

> <chembl_id>
CHEMBL1938840

> <chembl_pref_name>
None

> <i_lp_mmshare_version>
53161

> <r_lp_tautomer_probability>
1

> <s_lp_Force_Field>
OPLS_2005

> <r_lp_Energy>
15.311123

> <b_lp_Chiralities_Consistent>
1

> <s_lp_Variant>
CHEMBL221_lig901-2

> <s_i_glide_gridfile>
glide-grid_2oyu

> <i_i_glide_lignum>
1109

> <i_i_glide_rotatable_bonds>
3

> <r_i_docking_score>
-7.42775253991656

> <r_i_glide_ligand_efficiency>
-0.353702501900788

> <r_i_glide_ligand_efficiency_sa>
-0.975838382750254

> <r_i_glide_ligand_efficiency_ln>
-1.83649680630712

> <r_i_glide_gscore>
-7.42775253991656

> <r_i_glide_lipo>
-3.26066663527341

> <r_i_glide_hbond>
0

> <r_i_glide_metal>
0

> <r_i_glide_rewards>
-2.813067776394

> <r_i_glide_evdw>
-29.0951690673828

> <r_i_glide_ecoul>
-0.804961323738098

> <r_i_glide_erotb>
0.221484523680707

> <r_i_glide_esite>
0

> <r_i_glide_emodel>
-31.5312723393397

> <r_i_glide_energy>
-29.9001303911209

> <r_i_glide_einternal>
4.56773138046265

> <i_i_glide_confnum>
1

> <i_i_glide_posenum>
78

> <r_i_glide_eff_state_penalty>
0

> <s_user_duplicate_titles>
CHEMBL221_lig901

> <i_f3d_flags>
0

> <s_m_subgroup_title>
dock_pv

> <s_m_subgroupid>
dock_pv

> <b_m_subgroup_collapsed>
1

$$$$
CHEMBL221_lig716
                    3D
 Schrodinger Suite 2021-1.
 32 33  0  0  1  0            999 V2000
   20.6082   49.7361   14.7097 C   0  0  0  0  0  0
   21.0754   50.0652   13.4781 C   0  0  0  0  0  0
   19.6670   48.6021   14.8828 C   0  0  0  0  0  0
   21.9820   51.1665   13.1220 C   0  0  0  0  0  0
   18.6118   48.6729   15.8020 C   0  0  0  0  0  0
   17.6224   47.7015   15.8385 C   0  0  0  0  0  0
   17.7255   46.6045   15.0021 C   0  0  0  0  0  0
   18.8287   46.4586   14.1650 C   0  0  0  0  0  0
   19.7689   47.4726   14.0696 C   0  0  0  0  0  0
   23.0426   50.9616   12.2285 C   0  0  0  0  0  0
   22.6907   53.4578   13.4074 C   0  0  0  0  0  0
   21.7833   52.4403   13.6572 C   0  0  0  0  0  0
   16.7207   45.6737   15.0018 O   0  0  0  0  0  0
   23.7956   53.2260   12.5989 C   0  0  0  0  0  0
   23.9295   52.0049   11.9475 C   0  0  0  0  0  0
   24.9231   51.8716   11.0186 O   0  0  0  0  0  0
   22.4740   54.6815   13.9636 O   0  0  0  0  0  0
   21.0380   50.4368   15.9902 C   0  0  0  0  0  0
   20.7306   49.4980   12.6262 H   0  0  0  0  0  0
   18.4962   49.4887   16.4850 H   0  0  0  0  0  0
   16.7884   47.8102   16.5151 H   0  0  0  0  0  0
   18.9226   45.5926   13.5257 H   0  0  0  0  0  0
   20.5769   47.3703   13.3604 H   0  0  0  0  0  0
   23.1775   49.9988   11.7581 H   0  0  0  0  0  0
   20.9316   52.6469   14.2886 H   0  0  0  0  0  0
   15.9881   45.9165   15.5675 H   0  0  0  0  0  0
   24.5114   54.0123   12.4096 H   0  0  0  0  0  0
   25.0996   50.9763   10.7103 H   0  0  0  0  0  0
   23.2136   55.2905   13.8748 H   0  0  0  0  0  0
   20.2042   50.8218   16.5746 H   0  0  0  0  0  0
   21.5919   49.7046   16.5634 H   0  0  0  0  0  0
   21.7230   51.2584   15.8496 H   0  0  0  0  0  0
  1  3  1  0  0  0
  1  2  2  0  0  0
  1 18  1  0  0  0
  2  4  1  0  0  0
  2 19  1  0  0  0
  3  9  1  0  0  0
  3  5  2  0  0  0
  4 10  2  0  0  0
  4 12  1  0  0  0
  5  6  1  0  0  0
  5 20  1  0  0  0
  6  7  2  0  0  0
  6 21  1  0  0  0
  7 13  1  0  0  0
  7  8  1  0  0  0
  8  9  2  0  0  0
  8 22  1  0  0  0
  9 23  1  0  0  0
 10 15  1  0  0  0
 10 24  1  0  0  0
 11 14  1  0  0  0
 11 12  2  0  0  0
 11 17  1  0  0  0
 12 25  1  0  0  0
 13 26  1  0  0  0
 14 15  2  0  0  0
 14 27  1  0  0  0
 15 16  1  0  0  0
 16 28  1  0  0  0
 17 29  1  0  0  0
 18 30  1  0  0  0
 18 31  1  0  0  0
 18 32  1  0  0  0
M  END
> <s_m_entry_id>
5496

> <s_m_entry_name>
dock_pv.487

> <s_m_Source_Path>
/home/csk/Desktop/cluster/DUD-E-result/pgh1

> <s_m_Source_File>
dock_pv.maegz

> <i_m_Source_File_Index>
487

> <chembl_id>
CHEMBL474127

> <chembl_pref_name>
None

> <i_lp_mmshare_version>
53161

> <r_lp_tautomer_probability>
1

> <s_lp_Force_Field>
OPLS_2005

> <r_lp_Energy>
19.384754

> <b_lp_Chiralities_Consistent>
1

> <s_lp_Variant>
CHEMBL221_lig716-1

> <s_i_glide_gridfile>
glide-grid_2oyu

> <i_i_glide_lignum>
885

> <i_i_glide_rotatable_bonds>
5

> <r_i_docking_score>
-7.42515087087589

> <r_i_glide_ligand_efficiency>
-0.412508381715327

> <r_i_glide_ligand_efficiency_sa>
-1.08107779037791

> <r_i_glide_ligand_efficiency_ln>
-1.90859674420711

> <r_i_glide_gscore>
-7.42515087087589

> <r_i_glide_lipo>
-3.56477819043616

> <r_i_glide_hbond>
-0.406274103613581

> <r_i_glide_metal>
0

> <r_i_glide_rewards>
-2.22385510459729

> <r_i_glide_evdw>
-24.1404724121094

> <r_i_glide_ecoul>
-4.09425973892212

> <r_i_glide_erotb>
0.590919109214927

> <r_i_glide_esite>
0

> <r_i_glide_emodel>
-37.5280441528828

> <r_i_glide_energy>
-28.2347321510315

> <r_i_glide_einternal>
2.60108184814453

> <i_i_glide_confnum>
16

> <i_i_glide_posenum>
290

> <r_i_glide_eff_state_penalty>
0

> <s_user_duplicate_titles>
CHEMBL221_lig716

> <i_f3d_flags>
0

> <s_m_subgroup_title>
dock_pv

> <s_m_subgroupid>
dock_pv

> <b_m_subgroup_collapsed>
1

$$$$
CHEMBL221_lig689
                    3D
 Schrodinger Suite 2021-1.
 28 30  0  0  1  0            999 V2000
   20.0449   47.3013   12.3418 C   0  0  0  0  0  0
   19.2830   46.6730   13.3222 C   0  0  0  0  0  0
   18.9615   47.2940   14.5262 C   0  0  0  0  0  0
   19.4735   48.5405   14.8515 C   0  0  0  0  0  0
   20.5578   48.5656   12.6247 C   0  0  0  0  0  0
   20.2791   49.1427   13.8860 C   0  0  0  0  0  0
   20.9230   50.3249   14.0283 O   0  0  0  0  0  0
   21.6105   50.5202   12.8694 C   0  0  0  0  0  0
   21.3946   49.5006   11.9580 C   0  0  0  0  0  0
   22.4828   51.6955   12.8536 C   0  0  0  0  0  0
   23.6943   51.6483   12.1708 C   0  0  0  0  0  0
   24.5612   52.7296   12.2389 C   0  0  0  0  0  0
   24.2260   53.8582   13.0000 C   0  0  0  0  0  0
   22.9607   53.9361   13.5863 C   0  0  0  0  0  0
   22.1112   52.8431   13.5482 C   0  0  0  0  0  0
   22.5230   55.0730   14.2016 O   0  0  0  0  0  0
   25.7230   52.6730   11.5200 O   0  0  0  0  0  0
   18.1268   46.6730   15.4000 O   0  0  0  0  0  0
   20.2404   46.8124   11.4000 H   0  0  0  0  0  0
   18.9230   45.6789   13.1104 H   0  0  0  0  0  0
   19.2584   49.0177   15.7951 H   0  0  0  0  0  0
   21.8349   49.4286   10.9751 H   0  0  0  0  0  0
   23.9694   50.7668   11.6096 H   0  0  0  0  0  0
   24.9005   54.7012   13.0375 H   0  0  0  0  0  0
   21.1553   52.8969   14.0487 H   0  0  0  0  0  0
   23.1626   55.7979   14.2000 H   0  0  0  0  0  0
   25.8219   51.8634   11.0079 H   0  0  0  0  0  0
   17.7070   45.8972   15.0244 H   0  0  0  0  0  0
  1  2  2  0  0  0
  1  5  1  0  0  0
  1 19  1  0  0  0
  2  3  1  0  0  0
  2 20  1  0  0  0
  3  4  2  0  0  0
  3 18  1  0  0  0
  4  6  1  0  0  0
  4 21  1  0  0  0
  5  9  1  0  0  0
  5  6  2  0  0  0
  6  7  1  0  0  0
  7  8  1  0  0  0
  8  9  2  0  0  0
  8 10  1  0  0  0
  9 22  1  0  0  0
 10 11  2  0  0  0
 10 15  1  0  0  0
 11 12  1  0  0  0
 11 23  1  0  0  0
 12 13  2  0  0  0
 12 17  1  0  0  0
 13 14  1  0  0  0
 13 24  1  0  0  0
 14 15  2  0  0  0
 14 16  1  0  0  0
 15 25  1  0  0  0
 16 26  1  0  0  0
 17 27  1  0  0  0
 18 28  1  0  0  0
M  END
> <s_m_entry_id>
5497

> <s_m_entry_name>
dock_pv.488

> <s_m_Source_Path>
/home/csk/Desktop/cluster/DUD-E-result/pgh1

> <s_m_Source_File>
dock_pv.maegz

> <i_m_Source_File_Index>
488

> <chembl_id>
CHEMBL512578

> <chembl_pref_name>
MORACIN M

> <i_lp_mmshare_version>
53161

> <r_lp_tautomer_probability>
0.999999999898

> <s_lp_Force_Field>
OPLS_2005

> <r_lp_Energy>
7.860446

> <b_lp_Chiralities_Consistent>
1

> <s_lp_Variant>
CHEMBL221_lig689-1

> <s_i_glide_gridfile>
glide-grid_2oyu

> <i_i_glide_lignum>
851

> <i_i_glide_rotatable_bonds>
4

> <r_i_docking_score>
-7.42170448097961

> <r_i_glide_ligand_efficiency>
-0.412316915609978

> <r_i_glide_ligand_efficiency_sa>
-1.08057600723052

> <r_i_glide_ligand_efficiency_ln>
-1.90771086745528

> <r_i_glide_gscore>
-7.42170448097961

> <r_i_glide_lipo>
-3.01966304922004

> <r_i_glide_hbond>
-0.410063997621661

> <r_i_glide_metal>
0

> <r_i_glide_rewards>
-2.16322683400075

> <r_i_glide_evdw>
-20.9612312316895

> <r_i_glide_ecoul>
-7.17492198944092

> <r_i_glide_erotb>
0.295549259863446

> <r_i_glide_esite>
0

> <r_i_glide_emodel>
-34.6106547029779

> <r_i_glide_energy>
-28.1361532211304

> <r_i_glide_einternal>
2.26959753036499

> <i_i_glide_confnum>
1

> <i_i_glide_posenum>
270

> <r_i_glide_eff_state_penalty>
0

> <s_user_duplicate_titles>
CHEMBL221_lig689,465555

> <i_f3d_flags>
0

> <s_m_subgroup_title>
dock_pv

> <s_m_subgroupid>
dock_pv

> <b_m_subgroup_collapsed>
1

$$$$
CHEMBL221_lig454
                    3D
 Schrodinger Suite 2021-1.
 38 40  0  0  1  0            999 V2000
   19.1494   47.9835   13.0101 C   0  0  2  0  0  0
   23.8224   53.1040   12.8666 S   0  0  0  0  0  0
   20.2485   48.3226   14.0228 C   0  0  2  0  0  0
   19.3231   48.6051   11.6196 C   0  0  0  0  0  0
   17.8475   48.2347   13.7744 C   0  0  0  0  0  0
   19.5158   48.2975   15.3435 C   0  0  0  0  0  0
   22.8117   51.7170   13.2663 C   0  0  0  0  0  0
   21.1173   49.5740   13.7512 C   0  0  0  0  0  0
   23.9284   53.0730   11.4067 O   0  0  0  0  0  0
   25.0339   53.0736   13.6983 O   0  0  0  0  0  0
   19.6649   47.7878   10.5398 C   0  0  0  0  0  0
   18.1875   48.2732   15.1764 C   0  0  0  0  0  0
   16.6931   48.2731   13.3692 O   0  0  0  0  0  0
   22.0057   51.7237   14.4029 C   0  0  0  0  0  0
   22.7827   50.6627   12.3662 C   0  0  0  0  0  0
   21.1647   50.6470   14.6476 C   0  0  0  0  0  0
   21.9348   49.6014   12.5997 C   0  0  0  0  0  0
   19.9745   48.3232    9.2961 C   0  0  0  0  0  0
   22.7464   54.5546   13.4002 C   0  0  0  0  0  0
   20.1219   47.5083    8.2311 F   0  0  0  0  0  0
   19.3509   49.9925   11.4216 C   0  0  0  0  0  0
   19.8217   50.5324   10.2411 C   0  0  0  0  0  0
   20.1231   49.6996    9.1634 C   0  0  0  0  0  0
   20.0412   48.3376   16.2843 H   0  0  0  0  0  0
   20.9230   47.4705   14.0168 H   0  0  0  0  0  0
   19.7236   46.7199   10.6558 H   0  0  0  0  0  0
   17.4276   48.3083   15.9432 H   0  0  0  0  0  0
   19.1644   46.9026   12.8568 H   0  0  0  0  0  0
   22.0261   52.5465   15.0960 H   0  0  0  0  0  0
   23.4038   50.6609   11.4811 H   0  0  0  0  0  0
   20.5575   50.6596   15.5418 H   0  0  0  0  0  0
   21.9434   48.7706   11.9079 H   0  0  0  0  0  0
   23.1945   55.4736   13.0370 H   0  0  0  0  0  0
   22.7159   54.6008   14.4881 H   0  0  0  0  0  0
   21.7428   54.4363   13.0002 H   0  0  0  0  0  0
   19.0849   50.6737   12.2000 H   0  0  0  0  0  0
   19.9084   51.5955   10.1999 H   0  0  0  0  0  0
   20.3919   50.1163    8.2068 H   0  0  0  0  0  0
  1  3  1  0  0  0
  1  4  1  0  0  0
  1 28  1  0  0  0
  1  5  1  0  0  0
  2  7  1  0  0  0
  2  9  2  0  0  0
  2 10  2  0  0  0
  2 19  1  0  0  0
  3  6  1  0  0  0
  3  8  1  0  0  0
  3 25  1  0  0  0
  4 11  1  0  0  0
  4 21  2  0  0  0
  5 13  2  0  0  0
  5 12  1  0  0  0
  6 24  1  0  0  0
  6 12  2  0  0  0
  7 15  1  0  0  0
  7 14  2  0  0  0
  8 16  2  0  0  0
  8 17  1  0  0  0
 11 18  2  0  0  0
 11 26  1  0  0  0
 12 27  1  0  0  0
 14 16  1  0  0  0
 14 29  1  0  0  0
 15 17  2  0  0  0
 15 30  1  0  0  0
 16 31  1  0  0  0
 17 32  1  0  0  0
 18 20  1  0  0  0
 18 23  1  0  0  0
 19 33  1  0  0  0
 19 34  1  0  0  0
 19 35  1  0  0  0
 21 22  1  0  0  0
 21 36  1  0  0  0
 22 23  2  0  0  0
 22 37  1  0  0  0
 23 38  1  0  0  0
M  END
> <s_m_entry_id>
5498

> <s_m_entry_name>
dock_pv.489

> <s_m_Source_Path>
/home/csk/Desktop/cluster/DUD-E-result/pgh1

> <s_m_Source_File>
dock_pv.maegz

> <i_m_Source_File_Index>
489

> <chembl_id>
CHEMBL23245

> <chembl_pref_name>
None

> <i_lp_mmshare_version>
53161

> <r_lp_tautomer_probability>
0.499977396165832

> <s_lp_Force_Field>
OPLS_2005

> <r_lp_Energy>
17.792652

> <b_lp_Chiralities_Consistent>
1

> <s_lp_Variant>
CHEMBL221_lig454-3

> <s_i_glide_gridfile>
glide-grid_2oyu

> <i_i_glide_lignum>
547

> <i_i_glide_rotatable_bonds>
3

> <r_i_docking_score>
-7.41721557530545

> <r_i_glide_ligand_efficiency>
-0.322487633708932

> <r_i_glide_ligand_efficiency_sa>
-0.917111931956767

> <r_i_glide_ligand_efficiency_ln>
-1.79354998170127

> <r_i_glide_gscore>
-7.41721557530545

> <r_i_glide_lipo>
-4.09581754595016

> <r_i_glide_hbond>
0

> <r_i_glide_metal>
0

> <r_i_glide_rewards>
-2.88702914156197

> <r_i_glide_evdw>
-9.69721221923828

> <r_i_glide_ecoul>
-1.96087110042572

> <r_i_glide_erotb>
0.344622388232458

> <r_i_glide_esite>
0

> <r_i_glide_emodel>
-6.30162567659668

> <r_i_glide_energy>
-11.658083319664

> <r_i_glide_einternal>
23.8256359100342

> <i_i_glide_confnum>
1

> <i_i_glide_posenum>
93

> <r_i_glide_eff_state_penalty>
0

> <s_user_duplicate_titles>
CHEMBL221_lig454

> <i_f3d_flags>
0

> <s_m_subgroup_title>
dock_pv

> <s_m_subgroupid>
dock_pv

> <b_m_subgroup_collapsed>
1

$$$$
CHEMBL221_lig695
                    3D
 Schrodinger Suite 2021-1.
 34 36  0  0  1  0            999 V2000
   19.7230   48.6184   11.6657 O   0  0  0  0  0  0
   19.8039   48.8422   13.0175 C   0  0  0  0  0  0
   20.5656   49.8705   13.6069 C   0  0  0  0  0  0
   20.1539   49.6735   10.8065 C   0  0  1  0  0  0
   21.2040   50.9335   12.7121 C   0  0  0  0  0  0
   20.6651   49.8790   15.0031 C   0  0  0  0  0  0
   21.4479   50.3671   11.3086 C   0  0  1  0  0  0
   19.1268   47.9030   13.7819 C   0  0  0  0  0  0
   20.0267   48.9141   15.7691 C   0  0  0  0  0  0
   20.1230   49.2162    9.3464 C   0  0  0  0  0  0
   19.2269   47.9555   15.1617 C   0  0  0  0  0  0
   20.1230   50.1863    8.3442 C   0  0  0  0  0  0
   19.7230   47.9134    9.0099 C   0  0  0  0  0  0
   21.3230   50.8843   15.6541 O   0  0  0  0  0  0
   22.5230   49.4730   11.4000 O   0  0  0  0  0  0
   19.3772   48.5943    6.7142 C   0  0  0  0  0  0
   19.3230   47.6240    7.7090 C   0  0  0  0  0  0
   19.8077   49.8730    7.0214 C   0  0  0  0  0  0
   18.5230   47.0730   15.9179 O   0  0  0  0  0  0
   18.9408   48.3124    5.4496 O   0  0  0  0  0  0
   19.3515   50.4154   10.8453 H   0  0  0  0  0  0
   20.5230   51.7803   12.6384 H   0  0  0  0  0  0
   22.1303   51.3209   13.1393 H   0  0  0  0  0  0
   21.7432   51.1683   10.6297 H   0  0  0  0  0  0
   18.5362   47.1416   13.2941 H   0  0  0  0  0  0
   20.1230   48.9478   16.8381 H   0  0  0  0  0  0
   20.3554   51.2095    8.5858 H   0  0  0  0  0  0
   19.6151   47.1525    9.7688 H   0  0  0  0  0  0
   21.6337   51.5652   15.0545 H   0  0  0  0  0  0
   23.3369   49.9706   11.5117 H   0  0  0  0  0  0
   18.8875   46.6730    7.4854 H   0  0  0  0  0  0
   19.8161   50.6489    6.2708 H   0  0  0  0  0  0
   17.8992   46.5587   15.4022 H   0  0  0  0  0  0
   18.8083   49.0997    4.9133 H   0  0  0  0  0  0
  1  2  1  0  0  0
  1  4  1  0  0  0
  2  3  1  0  0  0
  2  8  2  0  0  0
  3  6  2  0  0  0
  3  5  1  0  0  0
  4  7  1  0  0  0
  4 10  1  0  0  0
  4 21  1  0  0  0
  5  7  1  0  0  0
  5 22  1  0  0  0
  5 23  1  0  0  0
  6 14  1  0  0  0
  6  9  1  0  0  0
  7 15  1  0  0  0
  7 24  1  0  0  0
  8 11  1  0  0  0
  8 25  1  0  0  0
  9 11  2  0  0  0
  9 26  1  0  0  0
 10 12  2  0  0  0
 10 13  1  0  0  0
 11 19  1  0  0  0
 12 18  1  0  0  0
 12 27  1  0  0  0
 13 17  2  0  0  0
 13 28  1  0  0  0
 14 29  1  0  0  0
 15 30  1  0  0  0
 16 17  1  0  0  0
 16 20  1  0  0  0
 16 18  2  0  0  0
 17 31  1  0  0  0
 18 32  1  0  0  0
 19 33  1  0  0  0
 20 34  1  0  0  0
M  END
> <s_m_entry_id>
5499

> <s_m_entry_name>
dock_pv.490

> <s_m_Source_Path>
/home/csk/Desktop/cluster/DUD-E-result/pgh1

> <s_m_Source_File>
dock_pv.maegz

> <i_m_Source_File_Index>
490

> <chembl_id>
CHEMBL159303

> <chembl_pref_name>
EPIAFZELECHIN (2R,3R)(-)

> <i_lp_mmshare_version>
53161

> <r_lp_tautomer_probability>
0.999999999997365

> <s_lp_Force_Field>
OPLS_2005

> <r_lp_Energy>
19.146934

> <b_lp_Chiralities_Consistent>
1

> <s_lp_Variant>
CHEMBL221_lig695-1

> <s_i_glide_gridfile>
glide-grid_2oyu

> <i_i_glide_lignum>
858

> <i_i_glide_rotatable_bonds>
5

> <r_i_docking_score>
-7.41095264180013

> <r_i_glide_ligand_efficiency>
-0.370547632090007

> <r_i_glide_ligand_efficiency_sa>
-1.00582101932825

> <r_i_glide_ligand_efficiency_ln>
-1.85471701666551

> <r_i_glide_gscore>
-7.41095264180013

> <r_i_glide_lipo>
-3.66996820817616

> <r_i_glide_hbond>
-0.32

> <r_i_glide_metal>
0

> <r_i_glide_rewards>
-1.92126435345864

> <r_i_glide_evdw>
-17.8337345123291

> <r_i_glide_ecoul>
-5.64472055435181

> <r_i_glide_erotb>
0.238674728603893

> <r_i_glide_esite>
0

> <r_i_glide_emodel>
-25.1164714664094

> <r_i_glide_energy>
-23.4784550666809

> <r_i_glide_einternal>
0.598395764827728

> <i_i_glide_confnum>
1

> <i_i_glide_posenum>
350

> <r_i_glide_eff_state_penalty>
0

> <s_user_duplicate_titles>
CHEMBL221_lig695

> <i_f3d_flags>
0

> <s_m_subgroup_title>
dock_pv

> <s_m_subgroupid>
dock_pv

> <b_m_subgroup_collapsed>
1

$$$$
CHEMBL221_lig845
                    3D
 Schrodinger Suite 2021-1.
 33 34  0  0  1  0            999 V2000
   19.7230   47.8744    9.4338 C   0  0  0  0  0  0
   20.1230   49.0022    8.7036 C   0  0  0  0  0  0
   20.3953   50.1747    9.4000 C   0  0  0  0  0  0
   19.7230   47.9173   10.8380 C   0  0  0  0  0  0
   20.1322   49.0632   11.5146 C   0  0  0  0  0  0
   20.4695   50.1898   10.7812 C   0  0  0  0  0  0
   20.8158   51.3728   11.3859 O   0  0  0  0  0  0
   21.4256   51.3248   12.6945 C   0  0  1  0  0  0
   20.8930   50.1570   13.5713 C   0  0  0  0  0  0
   20.2766   49.1201   12.9642 C   0  0  0  0  0  0
   22.9662   51.3719   12.5658 C   0  0  0  0  0  0
   23.3484   52.2730   11.6609 F   0  0  0  0  0  0
   23.5193   51.7394   13.7195 F   0  0  0  0  0  0
   23.4827   50.1990   12.2000 F   0  0  0  0  0  0
   20.9230   50.2233   15.0261 C   0  0  0  0  0  0
   21.3230   51.4296   15.5165 O   0  0  0  0  0  0
   20.5900   49.2965   15.7638 O   0  0  0  0  0  0
   19.3230   46.4226    8.6000 Cl  0  0  0  0  0  0
   20.1488   49.0080    7.1704 C   0  0  0  0  0  0
   18.7778   48.9836    6.4847 C   0  0  0  0  0  0
   18.9070   48.9406    4.9707 C   0  0  0  0  0  0
   20.5230   51.0730    8.8395 H   0  0  0  0  0  0
   19.4377   47.0730   11.4295 H   0  0  0  0  0  0
   21.1083   52.2730   13.1297 H   0  0  0  0  0  0
   19.8474   48.3187   13.5522 H   0  0  0  0  0  0
   21.6462   52.0398   14.8540 H   0  0  0  0  0  0
   20.7165   48.1450    6.8289 H   0  0  0  0  0  0
   20.6962   49.8730    6.8009 H   0  0  0  0  0  0
   18.2034   49.8730    6.7297 H   0  0  0  0  0  0
   18.1982   48.1200    6.8062 H   0  0  0  0  0  0
   17.9312   48.8154    4.4998 H   0  0  0  0  0  0
   19.5472   48.1224    4.6404 H   0  0  0  0  0  0
   19.3317   49.8730    4.6000 H   0  0  0  0  0  0
  1  2  2  0  0  0
  1  4  1  0  0  0
  1 18  1  0  0  0
  2  3  1  0  0  0
  2 19  1  0  0  0
  3  6  2  0  0  0
  3 22  1  0  0  0
  4  5  2  0  0  0
  4 23  1  0  0  0
  5  6  1  0  0  0
  5 10  1  0  0  0
  6  7  1  0  0  0
  7  8  1  0  0  0
  8 11  1  0  0  0
  8  9  1  0  0  0
  8 24  1  0  0  0
  9 10  2  0  0  0
  9 15  1  0  0  0
 10 25  1  0  0  0
 11 12  1  0  0  0
 11 13  1  0  0  0
 11 14  1  0  0  0
 15 16  1  0  0  0
 15 17  2  0  0  0
 16 26  1  0  0  0
 19 20  1  0  0  0
 19 27  1  0  0  0
 19 28  1  0  0  0
 20 21  1  0  0  0
 20 29  1  0  0  0
 20 30  1  0  0  0
 21 31  1  0  0  0
 21 32  1  0  0  0
 21 33  1  0  0  0
M  END
> <s_m_entry_id>
5500

> <s_m_entry_name>
dock_pv.491

> <s_m_Source_Path>
/home/csk/Desktop/cluster/DUD-E-result/pgh1

> <s_m_Source_File>
dock_pv.maegz

> <i_m_Source_File_Index>
491

> <chembl_id>
CHEMBL1630250

> <chembl_pref_name>
None

> <i_lp_mmshare_version>
53161

> <r_lp_tautomer_probability>
1

> <s_lp_Force_Field>
OPLS_2005

> <r_lp_Energy>
12.524995

> <b_lp_Chiralities_Consistent>
1

> <s_lp_Variant>
CHEMBL221_lig845-1

> <s_i_glide_gridfile>
glide-grid_2oyu

> <i_i_glide_lignum>
1037

> <i_i_glide_rotatable_bonds>
5

> <r_i_docking_score>
-7.40936848952028

> <r_i_glide_ligand_efficiency>
-0.352827070929537

> <r_i_glide_ligand_efficiency_sa>
-0.973423135081367

> <r_i_glide_ligand_efficiency_ln>
-1.83195138699511

> <r_i_glide_gscore>
-7.40936848952028

> <r_i_glide_lipo>
-2.84900827518803

> <r_i_glide_hbond>
0

> <r_i_glide_metal>
0

> <r_i_glide_rewards>
-3.38846559193801

> <r_i_glide_evdw>
-20.064977645874

> <r_i_glide_ecoul>
-3.5456371307373

> <r_i_glide_erotb>
0.363199829510062

> <r_i_glide_esite>
0

> <r_i_glide_emodel>
-25.412246813018

> <r_i_glide_energy>
-23.6106147766113

> <r_i_glide_einternal>
4.14959239959717

> <i_i_glide_confnum>
4

> <i_i_glide_posenum>
198

> <r_i_glide_eff_state_penalty>
0

> <s_user_duplicate_titles>
CHEMBL221_lig845

> <i_f3d_flags>
0

> <s_m_subgroup_title>
dock_pv

> <s_m_subgroupid>
dock_pv

> <b_m_subgroup_collapsed>
1

$$$$
CHEMBL221_lig776
                    3D
 Schrodinger Suite 2021-1.
 34 35  0  0  1  0            999 V2000
   19.5000   48.0720   11.2549 C   0  0  0  0  0  0
   19.7230   48.2696    9.8921 C   0  0  0  0  0  0
   20.3931   49.3339    9.4001 N   0  0  0  0  0  0
   20.8895   50.2199   10.2905 C   0  0  0  0  0  0
   20.7713   50.0783   11.6780 C   0  0  0  0  0  0
   20.0225   48.9913   12.1764 C   0  0  0  0  0  0
   19.8314   48.8505   13.5651 N   0  0  0  0  0  0
   18.9486   47.5465   14.3659 S   0  0  0  0  0  0
   21.3678   51.0127   12.5414 N   0  0  0  0  0  0
   22.5727   51.7287   12.4318 C   0  0  0  0  0  0
   22.8374   52.7698   13.3397 C   0  0  0  0  0  0
   24.0658   53.4316   13.2921 C   0  0  0  0  0  0
   25.0189   53.0730   12.3464 C   0  0  0  0  0  0
   24.7376   52.0984   11.4000 C   0  0  0  0  0  0
   23.5365   51.4013   11.4652 C   0  0  0  0  0  0
   19.3211   46.2891   13.7142 O   0  0  0  0  0  0
   17.1569   47.9494   13.9880 C   0  0  0  0  0  0
   19.1684   47.7402   15.8000 O   0  0  0  0  0  0
   21.7957   53.2279   14.3511 C   0  0  0  0  0  0
   18.9235   47.2127   11.5591 H   0  0  0  0  0  0
   19.3303   47.5758    9.1631 H   0  0  0  0  0  0
   21.3868   51.0716    9.8570 H   0  0  0  0  0  0
   20.2138   49.5608   14.1674 H   0  0  0  0  0  0
   20.8907   51.1538   13.4182 H   0  0  0  0  0  0
   24.2813   54.2411   13.9759 H   0  0  0  0  0  0
   25.9614   53.5988   12.3140 H   0  0  0  0  0  0
   25.4689   51.8710   10.6388 H   0  0  0  0  0  0
   23.3852   50.5960   10.7644 H   0  0  0  0  0  0
   16.5260   47.1672   14.4080 H   0  0  0  0  0  0
   16.9228   48.9020   14.4537 H   0  0  0  0  0  0
   17.0167   48.0112   12.9113 H   0  0  0  0  0  0
   21.5036   52.4119   15.0119 H   0  0  0  0  0  0
   22.1229   54.0686   14.9626 H   0  0  0  0  0  0
   20.9197   53.5553   13.8003 H   0  0  0  0  0  0
  1  6  1  0  0  0
  1  2  2  0  0  0
  1 20  1  0  0  0
  2  3  1  0  0  0
  2 21  1  0  0  0
  3  4  2  0  0  0
  4  5  1  0  0  0
  4 22  1  0  0  0
  5  6  2  0  0  0
  5  9  1  0  0  0
  6  7  1  0  0  0
  7  8  1  0  0  0
  7 23  1  0  0  0
  8 16  2  0  0  0
  8 17  1  0  0  0
  8 18  2  0  0  0
  9 10  1  0  0  0
  9 24  1  0  0  0
 10 11  2  0  0  0
 10 15  1  0  0  0
 11 12  1  0  0  0
 11 19  1  0  0  0
 12 13  2  0  0  0
 12 25  1  0  0  0
 13 14  1  0  0  0
 13 26  1  0  0  0
 14 15  2  0  0  0
 14 27  1  0  0  0
 15 28  1  0  0  0
 17 29  1  0  0  0
 17 30  1  0  0  0
 17 31  1  0  0  0
 19 32  1  0  0  0
 19 33  1  0  0  0
 19 34  1  0  0  0
M  END
> <s_m_entry_id>
5501

> <s_m_entry_name>
dock_pv.492

> <s_m_Source_Path>
/home/csk/Desktop/cluster/DUD-E-result/pgh1

> <s_m_Source_File>
dock_pv.maegz

> <i_m_Source_File_Index>
492

> <chembl_id>
CHEMBL1078374

> <chembl_pref_name>
None

> <i_lp_mmshare_version>
53161

> <r_lp_tautomer_probability>
1

> <s_lp_Force_Field>
OPLS_2005

> <r_lp_Energy>
7.879104

> <b_lp_Chiralities_Consistent>
1

> <s_lp_Variant>
CHEMBL221_lig776-1

> <s_i_glide_gridfile>
glide-grid_2oyu

> <i_i_glide_lignum>
946

> <i_i_glide_rotatable_bonds>
4

> <r_i_docking_score>
-7.40667852311319

> <r_i_glide_ligand_efficiency>
-0.38982518542701

> <r_i_glide_ligand_efficiency_sa>
-1.04021016648583

> <r_i_glide_ligand_efficiency_ln>
-1.87775208647756

> <r_i_glide_gscore>
-7.40667852311319

> <r_i_glide_lipo>
-3.93443167485327

> <r_i_glide_hbond>
0

> <r_i_glide_metal>
0

> <r_i_glide_rewards>
-1.97780960368504

> <r_i_glide_evdw>
-34.5000839233398

> <r_i_glide_ecoul>
-2.8403148651123

> <r_i_glide_erotb>
0.702317613895496

> <r_i_glide_esite>
-0.0457034325365369

> <r_i_glide_emodel>
-53.8189012198451

> <r_i_glide_energy>
-37.3403987884521

> <r_i_glide_einternal>
1.19368374347687

> <i_i_glide_confnum>
1

> <i_i_glide_posenum>
400

> <r_i_glide_eff_state_penalty>
0

> <s_user_duplicate_titles>
CHEMBL221_lig776,616920

> <i_f3d_flags>
0

> <s_m_subgroup_title>
dock_pv

> <s_m_subgroupid>
dock_pv

> <b_m_subgroup_collapsed>
1

$$$$
CHEMBL221_lig149
                    3D
 Schrodinger Suite 2021-1.
 42 44  0  0  1  0            999 V2000
   19.5296   48.5917   12.1360 N   0  0  0  0  0  0
   18.5636   47.8378   14.0313 N   0  0  0  0  0  0
   20.2325   49.0883   13.2068 C   0  0  0  0  0  0
   18.5230   47.8730   12.7267 C   0  0  0  0  0  0
   19.9583   49.1133    6.2000 S   0  0  0  0  0  0
   19.6149   48.5661   14.3421 C   0  0  0  0  0  0
   19.7378   48.7674   10.7477 C   0  0  0  0  0  0
   20.0057   48.9810    7.9792 C   0  0  0  0  0  0
   21.3739   50.0066   13.0780 C   0  0  0  0  0  0
   24.6595   53.8789   13.0327 C   0  0  0  0  0  0
   20.7319   50.2730    5.7977 O   0  0  0  0  0  0
   20.2058   47.8201    5.5982 O   0  0  0  0  0  0
   24.5362   52.6183   12.6257 N   0  0  0  0  0  0
   23.7431   54.6070   13.4000 O   0  0  0  0  0  0
   19.7987   47.7364    8.5580 C   0  0  0  0  0  0
   20.1230   50.1195    8.7907 C   0  0  0  0  0  0
   19.7161   47.6388    9.9363 C   0  0  0  0  0  0
   19.9795   50.0215   10.1773 C   0  0  0  0  0  0
   20.0805   48.8017   15.9772 Cl  0  0  0  0  0  0
   21.4332   51.1072   13.9251 C   0  0  0  0  0  0
   22.3604   49.7865   12.1159 C   0  0  0  0  0  0
   23.4353   51.8009   12.7936 C   0  0  0  0  0  0
   18.2029   49.3518    5.8000 C   0  0  0  0  0  0
   22.4716   52.0068   13.7906 C   0  0  0  0  0  0
   23.3920   50.6897   11.9647 C   0  0  0  0  0  0
   26.0600   54.4014   12.9892 C   0  0  0  0  0  0
   17.7425   47.4730   12.1061 H   0  0  0  0  0  0
   25.3134   52.2148   12.1271 H   0  0  0  0  0  0
   19.7309   46.8502    7.9470 H   0  0  0  0  0  0
   20.2468   51.0879    8.3306 H   0  0  0  0  0  0
   19.6579   46.6730   10.3902 H   0  0  0  0  0  0
   20.0139   50.9154   10.7845 H   0  0  0  0  0  0
   20.6795   51.2743   14.6804 H   0  0  0  0  0  0
   22.3316   48.9173   11.4783 H   0  0  0  0  0  0
   18.1230   49.3348    4.7170 H   0  0  0  0  0  0
   17.7230   48.4694    6.1934 H   0  0  0  0  0  0
   17.8086   50.2730    6.2000 H   0  0  0  0  0  0
   22.5196   52.8403   14.4755 H   0  0  0  0  0  0
   24.1531   50.5161   11.2164 H   0  0  0  0  0  0
   26.6440   53.9949   13.8000 H   0  0  0  0  0  0
   26.0714   55.4730   13.0000 H   0  0  0  0  0  0
   26.5230   54.1272   12.0466 H   0  0  0  0  0  0
  1  3  1  0  0  0
  1  4  1  0  0  0
  1  7  1  0  0  0
  2  4  2  0  0  0
  2  6  1  0  0  0
  3  6  2  0  0  0
  3  9  1  0  0  0
  4 27  1  0  0  0
  5  8  1  0  0  0
  5 11  2  0  0  0
  5 12  2  0  0  0
  5 23  1  0  0  0
  6 19  1  0  0  0
  7 17  2  0  0  0
  7 18  1  0  0  0
  8 16  1  0  0  0
  8 15  2  0  0  0
  9 20  1  0  0  0
  9 21  2  0  0  0
 10 13  1  0  0  0
 10 14  2  0  0  0
 10 26  1  0  0  0
 13 22  1  0  0  0
 13 28  1  0  0  0
 15 17  1  0  0  0
 15 29  1  0  0  0
 16 18  2  0  0  0
 16 30  1  0  0  0
 17 31  1  0  0  0
 18 32  1  0  0  0
 20 24  2  0  0  0
 20 33  1  0  0  0
 21 25  1  0  0  0
 21 34  1  0  0  0
 22 25  2  0  0  0
 22 24  1  0  0  0
 23 35  1  0  0  0
 23 36  1  0  0  0
 23 37  1  0  0  0
 24 38  1  0  0  0
 25 39  1  0  0  0
 26 40  1  0  0  0
 26 41  1  0  0  0
 26 42  1  0  0  0
M  END
> <s_m_entry_id>
5502

> <s_m_entry_name>
dock_pv.493

> <s_m_Source_Path>
/home/csk/Desktop/cluster/DUD-E-result/pgh1

> <s_m_Source_File>
dock_pv.maegz

> <i_m_Source_File_Index>
493

> <chembl_id>
CHEMBL116498

> <chembl_pref_name>
None

> <i_lp_mmshare_version>
53161

> <r_lp_tautomer_probability>
1

> <s_lp_Force_Field>
OPLS_2005

> <r_lp_Energy>
17.210029

> <b_lp_Chiralities_Consistent>
1

> <s_lp_Variant>
CHEMBL221_lig149-1

> <s_i_glide_gridfile>
glide-grid_2oyu

> <i_i_glide_lignum>
171

> <i_i_glide_rotatable_bonds>
5

> <r_i_docking_score>
-7.40572222886184

> <r_i_glide_ligand_efficiency>
-0.28483547034084

> <r_i_glide_ligand_efficiency_sa>
-0.843823960111282

> <r_i_glide_ligand_efficiency_ln>
-1.73920956529156

> <r_i_glide_gscore>
-7.40572222886184

> <r_i_glide_lipo>
-4.08770923704672

> <r_i_glide_hbond>
0

> <r_i_glide_metal>
0

> <r_i_glide_rewards>
-2.69714958712724

> <r_i_glide_evdw>
-10.2233142852783

> <r_i_glide_ecoul>
-3.10313129425049

> <r_i_glide_erotb>
0.384869419070942

> <r_i_glide_esite>
-0.0290974153573336

> <r_i_glide_emodel>
-15.0970762787159

> <r_i_glide_energy>
-13.3264455795288

> <r_i_glide_einternal>
3.80139398574829

> <i_i_glide_confnum>
41

> <i_i_glide_posenum>
61

> <r_i_glide_eff_state_penalty>
0

> <s_user_duplicate_titles>
CHEMBL221_lig149

> <i_f3d_flags>
0

> <s_m_subgroup_title>
dock_pv

> <s_m_subgroupid>
dock_pv

> <b_m_subgroup_collapsed>
1

$$$$
CHEMBL221_lig172
                    3D
 Schrodinger Suite 2021-1.
 34 35  0  0  1  0            999 V2000
   19.5660   48.4804   12.5927 C   0  0  0  0  0  0
   20.1864   49.4904   13.3306 C   0  0  0  0  0  0
   20.9913   50.4617   12.7267 C   0  0  0  0  0  0
   21.6720   51.4730   13.5930 C   0  0  0  0  0  0
   18.6220   47.4896   13.3071 C   0  0  1  0  0  0
   19.1472   46.8870   14.6323 C   0  0  0  0  0  0
   19.7719   48.4688   11.1978 C   0  0  0  0  0  0
   21.0824   50.4853   11.3300 C   0  0  0  0  0  0
   21.2983   51.6451   14.7574 O   0  0  0  0  0  0
   20.1230   47.2868   15.2597 O   0  0  0  0  0  0
   22.8144   52.2745   13.0800 C   0  0  0  0  0  0
   20.4941   49.4815   10.5762 C   0  0  0  0  0  0
   18.4161   45.7996   15.0000 O   0  0  0  0  0  0
   19.3230   47.4730   10.3802 O   0  0  0  0  0  0
   17.2197   48.1042   13.5362 C   0  0  0  0  0  0
   23.0251   53.5433   13.6238 C   0  0  0  0  0  0
   23.7595   51.7298   12.2000 C   0  0  0  0  0  0
   24.9230   52.4305   11.9184 C   0  0  0  0  0  0
   24.2256   54.1982   13.4000 C   0  0  0  0  0  0
   25.1903   53.6125   12.6000 C   0  0  0  0  0  0
   20.0309   49.5342   14.3992 H   0  0  0  0  0  0
   18.5230   46.6427   12.6401 H   0  0  0  0  0  0
   21.6192   51.2626   10.8061 H   0  0  0  0  0  0
   20.6125   49.4808    9.5020 H   0  0  0  0  0  0
   17.6466   45.6662   14.4461 H   0  0  0  0  0  0
   18.9230   46.7307   10.8452 H   0  0  0  0  0  0
   17.2806   49.0588   14.0559 H   0  0  0  0  0  0
   16.6980   48.2730   12.6000 H   0  0  0  0  0  0
   16.5593   47.4662   14.1251 H   0  0  0  0  0  0
   22.3166   53.9891   14.3092 H   0  0  0  0  0  0
   23.6452   50.7441   11.7721 H   0  0  0  0  0  0
   25.6543   52.0166   11.2386 H   0  0  0  0  0  0
   24.4202   55.1337   13.8927 H   0  0  0  0  0  0
   26.1230   54.1300   12.4434 H   0  0  0  0  0  0
  1  2  2  0  0  0
  1  5  1  0  0  0
  1  7  1  0  0  0
  2  3  1  0  0  0
  2 21  1  0  0  0
  3  4  1  0  0  0
  3  8  2  0  0  0
  4  9  2  0  0  0
  4 11  1  0  0  0
  5  6  1  0  0  0
  5 15  1  0  0  0
  5 22  1  0  0  0
  6 10  2  0  0  0
  6 13  1  0  0  0
  7 12  2  0  0  0
  7 14  1  0  0  0
  8 12  1  0  0  0
  8 23  1  0  0  0
 11 16  2  0  0  0
 11 17  1  0  0  0
 12 24  1  0  0  0
 13 25  1  0  0  0
 14 26  1  0  0  0
 15 27  1  0  0  0
 15 28  1  0  0  0
 15 29  1  0  0  0
 16 19  1  0  0  0
 16 30  1  0  0  0
 17 18  2  0  0  0
 17 31  1  0  0  0
 18 20  1  0  0  0
 18 32  1  0  0  0
 19 20  2  0  0  0
 19 33  1  0  0  0
 20 34  1  0  0  0
M  END
> <s_m_entry_id>
5503

> <s_m_entry_name>
dock_pv.494

> <s_m_Source_Path>
/home/csk/Desktop/cluster/DUD-E-result/pgh1

> <s_m_Source_File>
dock_pv.maegz

> <i_m_Source_File_Index>
494

> <chembl_id>
CHEMBL274587

> <chembl_pref_name>
None

> <i_lp_mmshare_version>
53161

> <r_lp_tautomer_probability>
1

> <s_lp_Force_Field>
OPLS_2005

> <r_lp_Energy>
22.297982

> <b_lp_Chiralities_Consistent>
1

> <s_lp_Variant>
CHEMBL221_lig172-2

> <s_i_glide_gridfile>
glide-grid_2oyu

> <i_i_glide_lignum>
197

> <i_i_glide_rotatable_bonds>
6

> <r_i_docking_score>
-7.40209038367169

> <r_i_glide_ligand_efficiency>
-0.370104519183585

> <r_i_glide_ligand_efficiency_sa>
-1.00461822585012

> <r_i_glide_ligand_efficiency_ln>
-1.85249908575279

> <r_i_glide_gscore>
-7.40209038367169

> <r_i_glide_lipo>
-3.5860938371059

> <r_i_glide_hbond>
0

> <r_i_glide_metal>
0

> <r_i_glide_rewards>
-2.59685202167142

> <r_i_glide_evdw>
-26.5459499359131

> <r_i_glide_ecoul>
-5.78402185440063

> <r_i_glide_erotb>
0.979223937830329

> <r_i_glide_esite>
-0.00346768776896113

> <r_i_glide_emodel>
-41.5264947685234

> <r_i_glide_energy>
-32.3299717903137

> <r_i_glide_einternal>
1.12470805644989

> <i_i_glide_confnum>
13

> <i_i_glide_posenum>
84

> <r_i_glide_eff_state_penalty>
0

> <s_user_duplicate_titles>
CHEMBL221_lig172,66975

> <i_f3d_flags>
0

> <s_m_subgroup_title>
dock_pv

> <s_m_subgroupid>
dock_pv

> <b_m_subgroup_collapsed>
1

$$$$
CHEMBL221_lig1012 
                    3D
 Schrodinger Suite 2021-1.
 26 27  0  0  1  0            999 V2000
   23.5323   50.9915   11.5801 C   0  0  0  0  0  0
   22.4995   51.1961   12.6980 C   0  0  0  0  0  0
   22.5762   52.1930   13.4986 N   0  0  0  0  0  0
   23.5783   53.1147   13.3999 N   0  0  0  0  0  0
   24.7017   53.0735   12.6566 C   0  0  0  0  0  0
   24.5145   52.1971   11.3963 C   0  0  0  0  0  0
   21.4348   50.2562   12.9045 C   0  0  0  0  0  0
   20.9314   49.9257   14.1151 C   0  0  0  0  0  0
   19.7936   49.0373   14.3947 C   0  0  0  0  0  0
   25.7229   53.6877   12.9514 O   0  0  0  0  0  0
   18.8624   48.6597   13.4189 C   0  0  0  0  0  0
   17.7374   47.9213   13.7889 C   0  0  0  0  0  0
   17.5887   47.5430   15.1217 C   0  0  0  0  0  0
   18.4896   47.8716   16.0793 N   0  0  0  0  0  0
   19.5671   48.6087   15.7070 C   0  0  0  0  0  0
   23.0408   50.7502   10.6368 H   0  0  0  0  0  0
   24.1179   50.1080   11.8385 H   0  0  0  0  0  0
   23.6175   53.7371   14.1970 H   0  0  0  0  0  0
   24.1022   52.8742   10.6471 H   0  0  0  0  0  0
   25.4790   51.8736   11.0015 H   0  0  0  0  0  0
   21.0486   49.8186   11.9963 H   0  0  0  0  0  0
   21.3721   50.3810   14.9923 H   0  0  0  0  0  0
   18.9703   48.9772   12.3927 H   0  0  0  0  0  0
   16.9868   47.6718   13.0548 H   0  0  0  0  0  0
   16.7251   46.9780   15.4421 H   0  0  0  0  0  0
   20.2430   48.8837   16.5034 H   0  0  0  0  0  0
  1  2  1  0  0  0
  1  6  1  0  0  0
  1 16  1  0  0  0
  1 17  1  0  0  0
  2  3  2  0  0  0
  2  7  1  0  0  0
  3  4  1  0  0  0
  4  5  1  0  0  0
  4 18  1  0  0  0
  5  6  1  0  0  0
  5 10  2  0  0  0
  6 19  1  0  0  0
  6 20  1  0  0  0
  7  8  2  0  0  0
  7 21  1  0  0  0
  8  9  1  0  0  0
  8 22  1  0  0  0
  9 11  2  0  0  0
  9 15  1  0  0  0
 11 12  1  0  0  0
 11 23  1  0  0  0
 12 13  2  0  0  0
 12 24  1  0  0  0
 13 14  1  0  0  0
 13 25  1  0  0  0
 14 15  2  0  0  0
 15 26  1  0  0  0
M  END
> <s_m_entry_id>
5504

> <s_m_entry_name>
dock_pv.495

> <s_m_Source_Path>
/home/csk/Desktop/cluster/DUD-E-result/pgh1

> <s_m_Source_File>
dock_pv.maegz

> <i_m_Source_File_Index>
495

> <chembl_id>
CHEMBL4536976

> <chembl_pref_name>
None

> <i_lp_mmshare_version>
53161

> <r_lp_tautomer_probability>
1

> <s_lp_Force_Field>
OPLS_2005

> <r_lp_Energy>
19.210522

> <b_lp_Chiralities_Consistent>
1

> <s_lp_Variant>
CHEMBL221_lig1012 -1

> <s_i_glide_gridfile>
glide-grid_2oyu

> <i_i_glide_lignum>
1266

> <i_i_glide_rotatable_bonds>
2

> <r_i_docking_score>
-7.40064682600258

> <r_i_glide_ligand_efficiency>
-0.493376455066839

> <r_i_glide_ligand_efficiency_sa>
-1.21677096957784

> <r_i_glide_ligand_efficiency_ln>
-1.9958324253007

> <r_i_glide_gscore>
-7.40064682600258

> <r_i_glide_lipo>
-2.54811478961067

> <r_i_glide_hbond>
-0.218176463749278

> <r_i_glide_metal>
0

> <r_i_glide_rewards>
-3.47240010940538

> <r_i_glide_evdw>
-32.4789505004883

> <r_i_glide_ecoul>
-2.30936741828918

> <r_i_glide_erotb>
0.808397174530545

> <r_i_glide_esite>
0

> <r_i_glide_emodel>
-46.8619587122161

> <r_i_glide_energy>
-34.7883179187775

> <r_i_glide_einternal>
2.34631133079529

> <i_i_glide_confnum>
6

> <i_i_glide_posenum>
309

> <r_i_glide_eff_state_penalty>
0

> <s_user_duplicate_titles>
CHEMBL221_lig1012 

> <i_f3d_flags>
0

> <s_m_subgroup_title>
dock_pv

> <s_m_subgroupid>
dock_pv

> <b_m_subgroup_collapsed>
1

$$$$
CHEMBL221_lig576
                    3D
 Schrodinger Suite 2021-1.
 39 41  0  0  1  0            999 V2000
   19.7671   48.6981   14.3262 C   0  0  0  0  0  0
   20.2192   48.5774   13.0174 C   0  0  0  0  0  0
   20.4608   49.7131   14.9472 N   0  0  0  0  0  0
   21.3230   49.4730   12.8966 C   0  0  0  0  0  0
   21.3544   50.2730   14.0706 C   0  0  0  0  0  0
   24.0232   53.0761   13.0000 S   0  0  0  0  0  0
   18.7566   47.9529   15.0927 C   0  0  0  0  0  0
   23.1187   51.5660   13.1557 C   0  0  0  0  0  0
   22.2150   51.3597   14.2000 C   0  0  0  0  0  0
   19.6300   47.4730   11.8000 S   0  0  0  0  0  0
   22.2998   49.6732   11.9147 C   0  0  0  0  0  0
   24.1230   53.2036   11.5500 O   0  0  0  0  0  0
   25.2486   53.0730   13.8000 O   0  0  0  0  0  0
   23.2103   50.6920   12.0750 C   0  0  0  0  0  0
   18.3969   46.8107   14.8010 O   0  0  0  0  0  0
   19.7230   48.2769   10.2068 C   0  0  0  0  0  0
   22.8661   54.3720   13.7343 C   0  0  0  0  0  0
   18.2759   48.6730   16.1371 O   0  0  0  0  0  0
   20.0385   49.3485    7.6459 C   0  0  0  0  0  0
   20.1885   49.8699    6.4079 F   0  0  0  0  0  0
   19.5884   47.4730    9.0694 C   0  0  0  0  0  0
   19.9497   49.6475   10.0520 C   0  0  0  0  0  0
   20.1230   50.1703    8.7726 C   0  0  0  0  0  0
   19.7230   48.0046    7.7925 C   0  0  0  0  0  0
   17.2842   48.1378   17.0000 C   0  0  0  0  0  0
   20.2604   49.9936   15.8969 H   0  0  0  0  0  0
   22.1799   51.9898   15.0714 H   0  0  0  0  0  0
   22.3374   49.0730   11.0230 H   0  0  0  0  0  0
   23.9331   50.8533   11.2855 H   0  0  0  0  0  0
   23.5359   55.0730   14.2000 H   0  0  0  0  0  0
   22.2347   53.9735   14.5188 H   0  0  0  0  0  0
   22.2279   54.8400   13.0000 H   0  0  0  0  0  0
   19.3996   46.4182    9.1659 H   0  0  0  0  0  0
   19.9755   50.3222   10.8917 H   0  0  0  0  0  0
   20.3176   51.2193    8.6327 H   0  0  0  0  0  0
   19.6258   47.3787    6.9198 H   0  0  0  0  0  0
   17.7364   47.4730   17.7353 H   0  0  0  0  0  0
   16.7889   48.9480   17.5348 H   0  0  0  0  0  0
   16.5230   47.5848   16.4490 H   0  0  0  0  0  0
  1  2  2  0  0  0
  1  3  1  0  0  0
  1  7  1  0  0  0
  2  4  1  0  0  0
  2 10  1  0  0  0
  3  5  1  0  0  0
  3 26  1  0  0  0
  4 11  2  0  0  0
  4  5  1  0  0  0
  5  9  2  0  0  0
  6  8  1  0  0  0
  6 12  2  0  0  0
  6 13  2  0  0  0
  6 17  1  0  0  0
  7 15  2  0  0  0
  7 18  1  0  0  0
  8  9  1  0  0  0
  8 14  2  0  0  0
  9 27  1  0  0  0
 10 16  1  0  0  0
 11 14  1  0  0  0
 11 28  1  0  0  0
 14 29  1  0  0  0
 16 21  2  0  0  0
 16 22  1  0  0  0
 17 30  1  0  0  0
 17 31  1  0  0  0
 17 32  1  0  0  0
 18 25  1  0  0  0
 19 23  1  0  0  0
 19 20  1  0  0  0
 19 24  2  0  0  0
 21 24  1  0  0  0
 21 33  1  0  0  0
 22 23  2  0  0  0
 22 34  1  0  0  0
 23 35  1  0  0  0
 24 36  1  0  0  0
 25 37  1  0  0  0
 25 38  1  0  0  0
 25 39  1  0  0  0
M  END
> <s_m_entry_id>
5505

> <s_m_entry_name>
dock_pv.496

> <s_m_Source_Path>
/home/csk/Desktop/cluster/DUD-E-result/pgh1

> <s_m_Source_File>
dock_pv.maegz

> <i_m_Source_File_Index>
496

> <chembl_id>
CHEMBL184039

> <chembl_pref_name>
None

> <i_lp_mmshare_version>
53161

> <r_lp_tautomer_probability>
1

> <s_lp_Force_Field>
OPLS_2005

> <r_lp_Energy>
4.586129

> <b_lp_Chiralities_Consistent>
1

> <s_lp_Variant>
CHEMBL221_lig576-1

> <s_i_glide_gridfile>
glide-grid_2oyu

> <i_i_glide_lignum>
714

> <i_i_glide_rotatable_bonds>
5

> <r_i_docking_score>
-7.39771307379886

> <r_i_glide_ligand_efficiency>
-0.295908522951955

> <r_i_glide_ligand_efficiency_sa>
-0.865241769071515

> <r_i_glide_ligand_efficiency_ln>
-1.75347969006174

> <r_i_glide_gscore>
-7.39771307379886

> <r_i_glide_lipo>
-3.92345187936104

> <r_i_glide_hbond>
0

> <r_i_glide_metal>
0

> <r_i_glide_rewards>
-2.67173325906011

> <r_i_glide_evdw>
-23.6572399139404

> <r_i_glide_ecoul>
-0.158105909824371

> <r_i_glide_erotb>
0.404049946792965

> <r_i_glide_esite>
0

> <r_i_glide_emodel>
-28.5202870802691

> <r_i_glide_energy>
-23.8153458237648

> <r_i_glide_einternal>
13.7737731933594

> <i_i_glide_confnum>
1

> <i_i_glide_posenum>
237

> <r_i_glide_eff_state_penalty>
0

> <s_user_duplicate_titles>
CHEMBL221_lig576

> <i_f3d_flags>
0

> <s_m_subgroup_title>
dock_pv

> <s_m_subgroupid>
dock_pv

> <b_m_subgroup_collapsed>
1

$$$$
CHEMBL221_lig142
                    3D
 Schrodinger Suite 2021-1.
 35 37  0  0  1  0            999 V2000
   21.0594   49.9523   12.9787 N   0  0  0  0  0  0
   19.7230   48.9305   14.4646 N   0  0  0  0  0  0
   20.0901   49.2615   12.2540 C   0  0  0  0  0  0
   20.7690   49.6830   14.2951 C   0  0  0  0  0  0
   19.9098   49.0434    6.1324 S   0  0  0  0  0  0
   19.2651   48.7282   13.2471 C   0  0  0  0  0  0
   22.1586   50.7279   12.5468 C   0  0  0  0  0  0
   19.9435   49.0236    7.9352 C   0  0  0  0  0  0
   19.9707   49.1773   10.7531 C   0  0  0  0  0  0
   20.4471   47.8252    5.5869 O   0  0  0  0  0  0
   20.5535   50.2730    5.7361 O   0  0  0  0  0  0
   20.1230   50.2449    8.5975 C   0  0  0  0  0  0
   19.7230   47.8730    8.6977 C   0  0  0  0  0  0
   20.1235   50.3265    9.9842 C   0  0  0  0  0  0
   19.7230   47.9614   10.0990 C   0  0  0  0  0  0
   17.5965   47.8730   13.0133 Br  0  0  0  0  0  0
   22.5854   51.8380   13.2925 C   0  0  0  0  0  0
   22.8554   50.3547   11.3995 C   0  0  0  0  0  0
   18.1706   49.0257    5.5227 C   0  0  0  0  0  0
   24.4393   52.1140   11.7832 C   0  0  0  0  0  0
   23.7378   52.5248   12.9144 C   0  0  0  0  0  0
   23.9731   51.0730   11.0003 C   0  0  0  0  0  0
   25.6202   52.6730   11.4592 F   0  0  0  0  0  0
   21.3922   50.0745   15.0837 H   0  0  0  0  0  0
   20.2303   51.1559    8.0266 H   0  0  0  0  0  0
   19.5524   46.9252    8.2097 H   0  0  0  0  0  0
   20.2701   51.2864   10.4579 H   0  0  0  0  0  0
   19.5724   47.0730   10.6906 H   0  0  0  0  0  0
   22.0566   52.1553   14.1802 H   0  0  0  0  0  0
   22.5406   49.5004   10.8185 H   0  0  0  0  0  0
   18.1958   49.0730    4.4398 H   0  0  0  0  0  0
   17.6510   49.8730    5.9347 H   0  0  0  0  0  0
   17.7230   48.0803    5.8000 H   0  0  0  0  0  0
   24.1033   53.3480   13.5112 H   0  0  0  0  0  0
   24.5230   50.7748   10.1199 H   0  0  0  0  0  0
  1  3  1  0  0  0
  1  4  1  0  0  0
  1  7  1  0  0  0
  2  4  2  0  0  0
  2  6  1  0  0  0
  3  6  2  0  0  0
  3  9  1  0  0  0
  4 24  1  0  0  0
  5  8  1  0  0  0
  5 10  2  0  0  0
  5 11  2  0  0  0
  5 19  1  0  0  0
  6 16  1  0  0  0
  7 17  2  0  0  0
  7 18  1  0  0  0
  8 13  2  0  0  0
  8 12  1  0  0  0
  9 14  1  0  0  0
  9 15  2  0  0  0
 12 14  2  0  0  0
 12 25  1  0  0  0
 13 15  1  0  0  0
 13 26  1  0  0  0
 14 27  1  0  0  0
 15 28  1  0  0  0
 17 21  1  0  0  0
 17 29  1  0  0  0
 18 22  2  0  0  0
 18 30  1  0  0  0
 19 31  1  0  0  0
 19 32  1  0  0  0
 19 33  1  0  0  0
 20 22  1  0  0  0
 20 23  1  0  0  0
 20 21  2  0  0  0
 21 34  1  0  0  0
 22 35  1  0  0  0
M  END
> <s_m_entry_id>
5506

> <s_m_entry_name>
dock_pv.497

> <s_m_Source_Path>
/home/csk/Desktop/cluster/DUD-E-result/pgh1

> <s_m_Source_File>
dock_pv.maegz

> <i_m_Source_File_Index>
497

> <chembl_id>
CHEMBL119853

> <chembl_pref_name>
None

> <i_lp_mmshare_version>
53161

> <r_lp_tautomer_probability>
1

> <s_lp_Force_Field>
OPLS_2005

> <r_lp_Energy>
13.054318

> <b_lp_Chiralities_Consistent>
1

> <s_lp_Variant>
CHEMBL221_lig142-1

> <s_i_glide_gridfile>
glide-grid_2oyu

> <i_i_glide_lignum>
164

> <i_i_glide_rotatable_bonds>
3

> <r_i_docking_score>
-7.39211912673951

> <r_i_glide_ligand_efficiency>
-0.321396483771283

> <r_i_glide_ligand_efficiency_sa>
-0.914008846682261

> <r_i_glide_ligand_efficiency_ln>
-1.78748143287601

> <r_i_glide_gscore>
-7.39211912673951

> <r_i_glide_lipo>
-4.00490648545947

> <r_i_glide_hbond>
0

> <r_i_glide_metal>
0

> <r_i_glide_rewards>
-2.57629657545442

> <r_i_glide_evdw>
-11.9058294296265

> <r_i_glide_ecoul>
-3.00247550010681

> <r_i_glide_erotb>
0.250325723678378

> <r_i_glide_esite>
-0.0155789930066534

> <r_i_glide_emodel>
-20.0122015612559

> <r_i_glide_energy>
-14.9083049297333

> <r_i_glide_einternal>
1.65042471885681

> <i_i_glide_confnum>
1

> <i_i_glide_posenum>
8

> <r_i_glide_eff_state_penalty>
0

> <s_user_duplicate_titles>
CHEMBL221_lig142

> <i_f3d_flags>
0

> <s_m_subgroup_title>
dock_pv

> <s_m_subgroupid>
dock_pv

> <b_m_subgroup_collapsed>
1

$$$$
CHEMBL221_lig14
                    3D
 Schrodinger Suite 2021-1.
 32 34  0  0  1  0            999 V2000
   19.0305   48.2279   15.2902 C   0  0  0  0  0  0
   18.3269   47.6464   14.2371 C   0  0  0  0  0  0
   18.7191   47.8780   12.9201 C   0  0  0  0  0  0
   20.1323   49.0466   15.0441 C   0  0  0  0  0  0
   20.5228   49.2840   13.7139 C   0  0  0  0  0  0
   19.8015   48.6856   12.6639 N   0  0  0  0  0  0
   20.4109   49.1445   11.5086 C   0  0  0  0  0  0
   21.4526   49.9641   11.9295 C   0  0  0  0  0  0
   21.5401   50.0355   13.2405 N   0  0  0  0  0  0
   20.0383   48.8067   10.1741 N   0  3  0  0  0  0
   20.5227   49.4696    9.2672 O   0  0  0  0  0  0
   19.2861   47.8661    9.9971 O   0  5  0  0  0  0
   22.3314   50.6057   11.0980 N   0  0  0  0  0  0
   23.6589   51.1268   11.3973 C   0  0  0  0  0  0
   23.6911   52.3899   12.2538 C   0  0  0  0  0  0
   24.9194   53.0343   12.3958 C   0  0  0  0  0  0
   25.0228   54.1716   13.1810 C   0  0  0  0  0  0
   23.8816   54.6691   13.7964 C   0  0  0  0  0  0
   22.6449   54.0557   13.6637 C   0  0  0  0  0  0
   22.5567   52.9086   12.8971 C   0  0  0  0  0  0
   18.7079   48.0485   16.3074 H   0  0  0  0  0  0
   17.4608   47.0322   14.4488 H   0  0  0  0  0  0
   18.1861   47.4731   12.0771 H   0  0  0  0  0  0
   20.6706   49.5065   15.8616 H   0  0  0  0  0  0
   22.2156   50.4199   10.1121 H   0  0  0  0  0  0
   24.1474   51.3490   10.4481 H   0  0  0  0  0  0
   24.2524   50.3431   11.8680 H   0  0  0  0  0  0
   25.7996   52.6683   11.8890 H   0  0  0  0  0  0
   25.9748   54.6635   13.3159 H   0  0  0  0  0  0
   23.9703   55.4696   14.4994 H   0  0  0  0  0  0
   21.7811   54.4429   14.1832 H   0  0  0  0  0  0
   21.5860   52.4567   12.8069 H   0  0  0  0  0  0
  1  2  1  0  0  0
  1  4  2  0  0  0
  1 21  1  0  0  0
  2  3  2  0  0  0
  2 22  1  0  0  0
  3  6  1  0  0  0
  3 23  1  0  0  0
  4  5  1  0  0  0
  4 24  1  0  0  0
  5  6  1  0  0  0
  5  9  2  0  0  0
  6  7  1  0  0  0
  7  8  2  0  0  0
  7 10  1  0  0  0
  8  9  1  0  0  0
  8 13  1  0  0  0
 10 11  2  0  0  0
 10 12  1  0  0  0
 13 14  1  0  0  0
 13 25  1  0  0  0
 14 15  1  0  0  0
 14 26  1  0  0  0
 14 27  1  0  0  0
 15 16  2  0  0  0
 15 20  1  0  0  0
 16 17  1  0  0  0
 16 28  1  0  0  0
 17 18  2  0  0  0
 17 29  1  0  0  0
 18 19  1  0  0  0
 18 30  1  0  0  0
 19 20  2  0  0  0
 19 31  1  0  0  0
 20 32  1  0  0  0
M  CHG  2  10   1  12  -1
M  END
> <s_m_entry_id>
5507

> <s_m_entry_name>
dock_pv.498

> <s_m_Source_Path>
/home/csk/Desktop/cluster/DUD-E-result/pgh1

> <s_m_Source_File>
dock_pv.maegz

> <i_m_Source_File_Index>
498

> <chembl_id>
CHEMBL2236579

> <chembl_pref_name>
None

> <i_lp_mmshare_version>
53161

> <r_lp_tautomer_probability>
1

> <s_lp_Force_Field>
OPLS_2005

> <r_lp_Energy>
11.811182

> <b_lp_Chiralities_Consistent>
1

> <s_lp_Variant>
CHEMBL221_lig14-1

> <s_i_glide_gridfile>
glide-grid_2oyu

> <i_i_glide_lignum>
18

> <i_i_glide_rotatable_bonds>
4

> <r_i_docking_score>
-7.38682593299552

> <r_i_glide_ligand_efficiency>
-0.369341296649776

> <r_i_glide_ligand_efficiency_sa>
-1.00254652116104

> <r_i_glide_ligand_efficiency_ln>
-1.84867889720382

> <r_i_glide_gscore>
-7.38682593299552

> <r_i_glide_lipo>
-3.27032967299835

> <r_i_glide_hbond>
0

> <r_i_glide_metal>
0

> <r_i_glide_rewards>
-3.26040483684029

> <r_i_glide_evdw>
-28.4958515167236

> <r_i_glide_ecoul>
-1.16836261749268

> <r_i_glide_erotb>
0.743955545303197

> <r_i_glide_esite>
0

> <r_i_glide_emodel>
-41.0299350865953

> <r_i_glide_energy>
-29.6642141342163

> <r_i_glide_einternal>
1.3289293050766

> <i_i_glide_confnum>
5

> <i_i_glide_posenum>
385

> <r_i_glide_eff_state_penalty>
0

> <s_user_duplicate_titles>
CHEMBL221_lig14

> <i_f3d_flags>
0

> <s_m_subgroup_title>
dock_pv

> <s_m_subgroupid>
dock_pv

> <b_m_subgroup_collapsed>
1

$$$$
CHEMBL221_lig560
                    3D
 Schrodinger Suite 2021-1.
 46 48  0  0  1  0            999 V2000
   20.6857   50.1530   13.4025 C   0  0  0  0  0  0
   21.3326   51.1121   12.6394 C   0  0  0  0  0  0
   19.8827   49.1481   12.8566 C   0  0  0  0  0  0
   20.8668   50.3377   14.7373 O   0  0  0  0  0  0
   19.8814   49.1642    8.3365 C   0  0  0  0  0  0
   19.4106   47.7854    8.6644 C   0  0  0  0  0  0
   20.2835   50.1450    9.1698 C   0  0  0  0  0  0
   22.1078   52.0351   13.5419 C   0  0  0  0  0  0
   20.4070   50.1072   10.6447 C   0  0  0  0  0  0
   19.1406   48.0512   13.6694 C   0  0  0  0  0  0
   21.2100   51.0730   11.2550 C   0  0  0  0  0  0
   19.7632   49.1590   11.4594 C   0  0  0  0  0  0
   21.6753   51.4745   14.9070 C   0  0  0  0  0  0
   19.2299   47.2300    7.2933 C   0  0  0  0  0  0
   19.2290   48.2730    6.3710 O   0  0  0  0  0  0
   19.7744   49.3356    6.8873 C   0  0  0  0  0  0
   21.7231   53.5261   13.4578 C   0  0  0  0  0  0
   23.6223   51.8730   13.2925 C   0  0  0  0  0  0
   19.7201   46.6871   13.2575 C   0  0  0  0  0  0
   17.6221   48.0946   13.3749 C   0  0  0  0  0  0
   19.2944   48.1456   15.2109 C   0  0  0  0  0  0
   20.1230   50.2730    6.2001 O   0  0  0  0  0  0
   20.1229   47.1991    9.2456 H   0  0  0  0  0  0
   18.4497   47.7737    9.1687 H   0  0  0  0  0  0
   20.5230   51.0946    8.7170 H   0  0  0  0  0  0
   21.7231   51.8092   10.6555 H   0  0  0  0  0  0
   19.1289   48.4118   11.0276 H   0  0  0  0  0  0
   22.5230   51.0730   15.4000 H   0  0  0  0  0  0
   21.1763   52.2010   15.5506 H   0  0  0  0  0  0
   20.1230   46.6730    7.0356 H   0  0  0  0  0  0
   18.3003   46.6730    7.2128 H   0  0  0  0  0  0
   22.0787   54.0758   14.3311 H   0  0  0  0  0  0
   20.6446   53.6640   13.4001 H   0  0  0  0  0  0
   22.1685   54.0168   12.6000 H   0  0  0  0  0  0
   24.2121   52.3285   14.0881 H   0  0  0  0  0  0
   23.8957   50.8208   13.2281 H   0  0  0  0  0  0
   23.9254   52.3359   12.3523 H   0  0  0  0  0  0
   20.7946   46.6730   13.4384 H   0  0  0  0  0  0
   19.2547   45.8711   13.8096 H   0  0  0  0  0  0
   19.5783   46.4857   12.2000 H   0  0  0  0  0  0
   17.1967   49.0730   13.5864 H   0  0  0  0  0  0
   17.3985   47.8730   12.3341 H   0  0  0  0  0  0
   17.0687   47.3733   13.9769 H   0  0  0  0  0  0
   18.8804   49.0730   15.6051 H   0  0  0  0  0  0
   18.7659   47.3361   15.7172 H   0  0  0  0  0  0
   20.3362   48.0753   15.5258 H   0  0  0  0  0  0
  1  2  2  0  0  0
  1  3  1  0  0  0
  1  4  1  0  0  0
  2  8  1  0  0  0
  2 11  1  0  0  0
  3 10  1  0  0  0
  3 12  2  0  0  0
  4 13  1  0  0  0
  5  7  2  0  0  0
  5  6  1  0  0  0
  5 16  1  0  0  0
  6 14  1  0  0  0
  6 23  1  0  0  0
  6 24  1  0  0  0
  7  9  1  0  0  0
  7 25  1  0  0  0
  8 17  1  0  0  0
  8 18  1  0  0  0
  8 13  1  0  0  0
  9 12  1  0  0  0
  9 11  2  0  0  0
 10 19  1  0  0  0
 10 20  1  0  0  0
 10 21  1  0  0  0
 11 26  1  0  0  0
 12 27  1  0  0  0
 13 28  1  0  0  0
 13 29  1  0  0  0
 14 15  1  0  0  0
 14 30  1  0  0  0
 14 31  1  0  0  0
 15 16  1  0  0  0
 16 22  2  0  0  0
 17 32  1  0  0  0
 17 33  1  0  0  0
 17 34  1  0  0  0
 18 35  1  0  0  0
 18 36  1  0  0  0
 18 37  1  0  0  0
 19 38  1  0  0  0
 19 39  1  0  0  0
 19 40  1  0  0  0
 20 41  1  0  0  0
 20 42  1  0  0  0
 20 43  1  0  0  0
 21 44  1  0  0  0
 21 45  1  0  0  0
 21 46  1  0  0  0
M  END
> <s_m_entry_id>
5508

> <s_m_entry_name>
dock_pv.499

> <s_m_Source_Path>
/home/csk/Desktop/cluster/DUD-E-result/pgh1

> <s_m_Source_File>
dock_pv.maegz

> <i_m_Source_File_Index>
499

> <chembl_id>
CHEMBL2112567

> <chembl_pref_name>
None

> <i_lp_mmshare_version>
53161

> <r_lp_tautomer_probability>
1

> <s_lp_Force_Field>
OPLS_2005

> <r_lp_Energy>
33.705384

> <b_lp_Chiralities_Consistent>
1

> <s_lp_Variant>
CHEMBL221_lig560-1

> <s_i_glide_gridfile>
glide-grid_2oyu

> <i_i_glide_lignum>
698

> <i_i_glide_rotatable_bonds>
2

> <r_i_docking_score>
-7.37361383107021

> <r_i_glide_ligand_efficiency>
-0.335164265048646

> <r_i_glide_ligand_efficiency_sa>
-0.939143451928869

> <r_i_glide_ligand_efficiency_ln>
-1.80238017941301

> <r_i_glide_gscore>
-7.37361383107021

> <r_i_glide_lipo>
-4.05525724337456

> <r_i_glide_hbond>
-0.199873301843159

> <r_i_glide_metal>
0

> <r_i_glide_rewards>
-2.33892091064661

> <r_i_glide_evdw>
-25.1607151031494

> <r_i_glide_ecoul>
1.83181893825531

> <r_i_glide_erotb>
0.203700539213289

> <r_i_glide_esite>
0

> <r_i_glide_emodel>
-25.9211695902077

> <r_i_glide_energy>
-23.3288961648941

> <r_i_glide_einternal>
5.28809833526611

> <i_i_glide_confnum>
1

> <i_i_glide_posenum>
55

> <r_i_glide_eff_state_penalty>
0

> <s_user_duplicate_titles>
CHEMBL221_lig560,193770

> <i_f3d_flags>
0

> <s_m_subgroup_title>
dock_pv

> <s_m_subgroupid>
dock_pv

> <b_m_subgroup_collapsed>
1

$$$$
CHEMBL221_lig569
                    3D
 Schrodinger Suite 2021-1.
 42 43  0  0  1  0            999 V2000
   21.0650   50.0196   12.9039 C   0  0  0  0  0  0
   20.1161   49.0550   12.6023 C   0  0  0  0  0  0
   21.7404   50.7609   11.9187 C   0  0  0  0  0  0
   21.2704   50.1432   14.2524 O   0  0  0  0  0  0
   19.5618   48.4655   13.8648 C   0  0  0  0  0  0
   20.4243   49.5045   10.2544 C   0  0  0  0  0  0
   22.8983   51.7534   12.2467 C   0  0  0  0  0  0
   19.8031   48.7786   11.2758 C   0  0  0  0  0  0
   20.1230   49.3056    8.8923 N   0  0  0  0  0  0
   21.3517   50.5025   10.5932 C   0  0  0  0  0  0
   20.3630   49.2708   14.9252 C   0  0  0  0  0  0
   19.7230   48.1685    8.2779 C   0  0  0  0  0  0
   19.6143   47.0730    8.8232 O   0  0  0  0  0  0
   19.8726   46.9669   13.9514 C   0  0  0  0  0  0
   18.0316   48.6730   13.9357 C   0  0  0  0  0  0
   23.5975   52.3802   11.0295 C   0  0  0  0  0  0
   24.0358   50.9911   12.8719 C   0  0  0  0  0  0
   22.4690   52.8736   13.2321 C   0  0  0  0  0  0
   19.4066   48.2894    6.7926 C   0  0  0  0  0  0
   19.0612   48.0271   11.0485 H   0  0  0  0  0  0
   20.2569   50.1105    8.2987 H   0  0  0  0  0  0
   21.7983   51.0693    9.8000 H   0  0  0  0  0  0
   19.7230   49.8729   15.5629 H   0  0  0  0  0  0
   20.9230   48.6164   15.5913 H   0  0  0  0  0  0
   19.6128   46.5637   14.9311 H   0  0  0  0  0  0
   20.9296   46.7906   13.7747 H   0  0  0  0  0  0
   19.3230   46.3967   13.1997 H   0  0  0  0  0  0
   17.6808   48.8883   14.9458 H   0  0  0  0  0  0
   17.7229   49.4729   13.2651 H   0  0  0  0  0  0
   17.4802   47.7975   13.5903 H   0  0  0  0  0  0
   22.9230   53.0730   10.6000 H   0  0  0  0  0  0
   24.4774   52.9682   11.2966 H   0  0  0  0  0  0
   23.9094   51.6511   10.2791 H   0  0  0  0  0  0
   23.7230   50.6730   13.8496 H   0  0  0  0  0  0
   24.3211   50.1184   12.2790 H   0  0  0  0  0  0
   24.9158   51.6235   13.0000 H   0  0  0  0  0  0
   22.0612   52.4799   14.1623 H   0  0  0  0  0  0
   23.3161   53.5023   13.5120 H   0  0  0  0  0  0
   21.7230   53.5409   12.8173 H   0  0  0  0  0  0
   20.1230   47.7134    6.2074 H   0  0  0  0  0  0
   18.4085   47.8972    6.5995 H   0  0  0  0  0  0
   19.4342   49.3253    6.4519 H   0  0  0  0  0  0
  1  2  2  0  0  0
  1  3  1  0  0  0
  1  4  1  0  0  0
  2  5  1  0  0  0
  2  8  1  0  0  0
  3  7  1  0  0  0
  3 10  2  0  0  0
  4 11  1  0  0  0
  5 14  1  0  0  0
  5 15  1  0  0  0
  5 11  1  0  0  0
  6 10  1  0  0  0
  6  9  1  0  0  0
  6  8  2  0  0  0
  7 16  1  0  0  0
  7 17  1  0  0  0
  7 18  1  0  0  0
  8 20  1  0  0  0
  9 12  1  0  0  0
  9 21  1  0  0  0
 10 22  1  0  0  0
 11 23  1  0  0  0
 11 24  1  0  0  0
 12 13  2  0  0  0
 12 19  1  0  0  0
 14 25  1  0  0  0
 14 26  1  0  0  0
 14 27  1  0  0  0
 15 28  1  0  0  0
 15 29  1  0  0  0
 15 30  1  0  0  0
 16 31  1  0  0  0
 16 32  1  0  0  0
 16 33  1  0  0  0
 17 34  1  0  0  0
 17 35  1  0  0  0
 17 36  1  0  0  0
 18 37  1  0  0  0
 18 38  1  0  0  0
 18 39  1  0  0  0
 19 40  1  0  0  0
 19 41  1  0  0  0
 19 42  1  0  0  0
M  END
> <s_m_entry_id>
5509

> <s_m_entry_name>
dock_pv.500

> <s_m_Source_Path>
/home/csk/Desktop/cluster/DUD-E-result/pgh1

> <s_m_Source_File>
dock_pv.maegz

> <i_m_Source_File_Index>
500

> <chembl_id>
CHEMBL326365

> <chembl_pref_name>
None

> <i_lp_mmshare_version>
53161

> <r_lp_tautomer_probability>
1

> <s_lp_Force_Field>
OPLS_2005

> <r_lp_Energy>
26.639785

> <b_lp_Chiralities_Consistent>
1

> <s_lp_Variant>
CHEMBL221_lig569-1

> <s_i_glide_gridfile>
glide-grid_2oyu

> <i_i_glide_lignum>
707

> <i_i_glide_rotatable_bonds>
3

> <r_i_docking_score>
-7.37052360941871

> <r_i_glide_ligand_efficiency>
-0.387922295232564

> <r_i_glide_ligand_efficiency_sa>
-1.03513249115861

> <r_i_glide_ligand_efficiency_ln>
-1.86858603931966

> <r_i_glide_gscore>
-7.37052360941871

> <r_i_glide_lipo>
-3.88701245941632

> <r_i_glide_hbond>
0

> <r_i_glide_metal>
0

> <r_i_glide_rewards>
-2.51260333287692

> <r_i_glide_evdw>
-19.4179744720459

> <r_i_glide_ecoul>
-1.72946906089783

> <r_i_glide_erotb>
0.259411265611498

> <r_i_glide_esite>
0

> <r_i_glide_emodel>
-19.7752121965211

> <r_i_glide_energy>
-21.1474435329437

> <r_i_glide_einternal>
2.76251983642578

> <i_i_glide_confnum>
2

> <i_i_glide_posenum>
53

> <r_i_glide_eff_state_penalty>
0

> <s_user_duplicate_titles>
CHEMBL221_lig569

> <i_f3d_flags>
0

> <s_m_subgroup_title>
dock_pv

> <s_m_subgroupid>
dock_pv

> <b_m_subgroup_collapsed>
1

$$$$
CHEMBL221_lig951
                    3D
 Schrodinger Suite 2021-1.
 27 29  0  0  1  0            999 V2000
   20.1230   49.3232    9.2750 C   0  0  0  0  0  0
   20.5817   49.7388   14.9874 C   0  0  0  0  0  0
   24.0288   52.6731   12.3637 C   0  0  0  0  0  0
   22.9421   50.5332   12.2348 C   0  0  0  0  0  0
   20.0822   49.0555   11.4920 C   0  0  0  0  0  0
   19.3230   46.6985    8.6000 Cl  0  0  0  0  0  0
   20.9801   49.9843   13.6888 C   0  0  0  0  0  0
   20.9230   50.2730   16.1912 N   0  0  0  0  0  0
   22.1230   52.2188   13.7653 C   0  0  0  0  0  0
   20.3178   49.9820   10.4841 C   0  0  0  0  0  0
   19.7074   47.8730   10.9331 O   0  0  0  0  0  0
   19.7230   48.0383    9.5859 C   0  0  0  0  0  0
   23.1255   53.0862   13.3406 C   0  0  0  0  0  0
   19.4025   48.3613   13.7025 N   0  0  0  0  0  0
   23.9362   51.4039   11.8000 C   0  0  0  0  0  0
   19.6649   48.7440   15.0165 O   0  0  0  0  0  0
   20.1540   49.1296   12.9407 C   0  0  0  0  0  0
   22.0296   50.9371   13.2159 C   0  0  0  0  0  0
   20.2243   49.7400    8.2833 H   0  0  0  0  0  0
   24.8093   53.3461   12.0424 H   0  0  0  0  0  0
   22.8910   49.5394   11.8140 H   0  0  0  0  0  0
   21.5935   51.0221   16.2575 H   0  0  0  0  0  0
   20.5002   49.9452   17.0467 H   0  0  0  0  0  0
   21.4235   52.5471   14.5199 H   0  0  0  0  0  0
   20.6141   51.0132   10.6143 H   0  0  0  0  0  0
   23.2064   54.0737   13.7729 H   0  0  0  0  0  0
   24.6409   51.0894   11.0431 H   0  0  0  0  0  0
  1 12  2  0  0  0
  1 10  1  0  0  0
  1 19  1  0  0  0
  2  7  2  0  0  0
  2 16  1  0  0  0
  2  8  1  0  0  0
  3 13  2  0  0  0
  3 15  1  0  0  0
  3 20  1  0  0  0
  4 15  2  0  0  0
  4 18  1  0  0  0
  4 21  1  0  0  0
  5 11  1  0  0  0
  5 10  2  0  0  0
  5 17  1  0  0  0
  6 12  1  0  0  0
  7 17  1  0  0  0
  7 18  1  0  0  0
  8 22  1  0  0  0
  8 23  1  0  0  0
  9 18  2  0  0  0
  9 13  1  0  0  0
  9 24  1  0  0  0
 10 25  1  0  0  0
 11 12  1  0  0  0
 13 26  1  0  0  0
 14 16  1  0  0  0
 14 17  2  0  0  0
 15 27  1  0  0  0
M  END
> <s_m_entry_id>
5510

> <s_m_entry_name>
dock_pv.501

> <s_m_Source_Path>
/home/csk/Desktop/cluster/DUD-E-result/pgh1

> <s_m_Source_File>
dock_pv.maegz

> <i_m_Source_File_Index>
501

> <chembl_id>
CHEMBL3114664

> <chembl_pref_name>
None

> <i_lp_mmshare_version>
53161

> <r_lp_tautomer_probability>
1

> <s_lp_Force_Field>
OPLS_2005

> <r_lp_Energy>
10.515288

> <b_lp_Chiralities_Consistent>
1

> <s_lp_Variant>
CHEMBL221_lig951-1

> <s_i_glide_gridfile>
glide-grid_2oyu

> <i_i_glide_lignum>
1179

> <i_i_glide_rotatable_bonds>
2

> <r_i_docking_score>
-7.36948649996403

> <r_i_glide_ligand_efficiency>
-0.409415916664668

> <r_i_glide_ligand_efficiency_sa>
-1.07297323921731

> <r_i_glide_ligand_efficiency_ln>
-1.89428850469275

> <r_i_glide_gscore>
-7.36948649996403

> <r_i_glide_lipo>
-3.95846630843818

> <r_i_glide_hbond>
0

> <r_i_glide_metal>
0

> <r_i_glide_rewards>
-2.21431196971184

> <r_i_glide_evdw>
-33.0268821716309

> <r_i_glide_ecoul>
-0.443560183048248

> <r_i_glide_erotb>
0.521169914224769

> <r_i_glide_esite>
0

> <r_i_glide_emodel>
-47.0347482889823

> <r_i_glide_energy>
-33.4704423546791

> <r_i_glide_einternal>
1.32349050045013

> <i_i_glide_confnum>
7

> <i_i_glide_posenum>
312

> <r_i_glide_eff_state_penalty>
0

> <s_user_duplicate_titles>
CHEMBL221_lig951

> <i_f3d_flags>
0

> <s_m_subgroup_title>
dock_pv

> <s_m_subgroupid>
dock_pv

> <b_m_subgroup_collapsed>
1

$$$$
CHEMBL221_lig994
                    3D
 Schrodinger Suite 2021-1.
 28 29  0  0  1  0            999 V2000
   23.0121   52.0903   11.4533 C   0  0  2  0  0  0
   22.9434   52.4127   12.9458 C   0  0  0  0  0  0
   22.1070   51.7356   13.7569 C   0  0  0  0  0  0
   21.2881   50.6446   13.2152 C   0  0  0  0  0  0
   20.6130   49.7100   14.0109 C   0  0  0  0  0  0
   19.8242   48.7146   13.4090 C   0  0  0  0  0  0
   19.7536   48.6417   12.0091 C   0  0  0  0  0  0
   20.4410   49.5526   11.2155 C   0  0  0  0  0  0
   21.2034   50.5405   11.8234 C   0  0  0  0  0  0
   21.7909   51.4730   10.9981 O   0  0  0  0  0  0
   23.6373   53.6002   13.4000 C   0  0  0  0  0  0
   24.7356   53.9564   12.9834 O   0  0  0  0  0  0
   24.2601   51.3212   11.0267 C   0  0  0  0  0  0
   18.8662   47.5440   14.3968 S   0  0  0  0  0  0
   17.5530   47.8730   13.5102 F   0  0  0  0  0  0
   20.1230   47.2054   15.3515 F   0  0  0  0  0  0
   17.9908   46.4678   15.2180 F   0  0  0  0  0  0
   19.3230   46.3369   13.4167 F   0  0  0  0  0  0
   18.4072   48.6730   15.4566 F   0  0  0  0  0  0
   24.5128   50.2730   11.8000 F   0  0  0  0  0  0
   24.1230   50.8524    9.8000 F   0  0  0  0  0  0
   25.3230   52.1214   11.0000 F   0  0  0  0  0  0
   23.0797   53.0278   10.9065 H   0  0  0  0  0  0
   21.9947   52.0193   14.7948 H   0  0  0  0  0  0
   20.6735   49.7742   15.0886 H   0  0  0  0  0  0
   19.1499   47.8842   11.5283 H   0  0  0  0  0  0
   20.3691   49.5073   10.1385 H   0  0  0  0  0  0
   23.1540   54.1589   14.2000 H   0  0  0  0  0  0
  1  2  1  0  0  0
  1 10  1  0  0  0
  1 13  1  0  0  0
  1 23  1  0  0  0
  2  3  2  0  0  0
  2 11  1  0  0  0
  3  4  1  0  0  0
  3 24  1  0  0  0
  4  5  1  0  0  0
  4  9  2  0  0  0
  5  6  2  0  0  0
  5 25  1  0  0  0
  6  7  1  0  0  0
  6 14  1  0  0  0
  7  8  2  0  0  0
  7 26  1  0  0  0
  8  9  1  0  0  0
  8 27  1  0  0  0
  9 10  1  0  0  0
 11 12  2  0  0  0
 11 28  1  0  0  0
 13 20  1  0  0  0
 13 21  1  0  0  0
 13 22  1  0  0  0
 14 15  1  0  0  0
 14 16  1  0  0  0
 14 17  1  0  0  0
 14 18  1  0  0  0
 14 19  1  0  0  0
M  END
> <s_m_entry_id>
5511

> <s_m_entry_name>
dock_pv.502

> <s_m_Source_Path>
/home/csk/Desktop/cluster/DUD-E-result/pgh1

> <s_m_Source_File>
dock_pv.maegz

> <i_m_Source_File_Index>
502

> <chembl_id>
CHEMBL4080317

> <chembl_pref_name>
None

> <i_lp_mmshare_version>
53161

> <r_lp_tautomer_probability>
1

> <s_lp_Force_Field>
OPLS_2005

> <r_lp_Energy>
13.361053

> <b_lp_Chiralities_Consistent>
1

> <s_lp_Variant>
CHEMBL221_lig994-1

> <s_i_glide_gridfile>
glide-grid_2oyu

> <i_i_glide_lignum>
1239

> <i_i_glide_rotatable_bonds>
3

> <r_i_docking_score>
-7.36873756968738

> <r_i_glide_ligand_efficiency>
-0.334942616803972

> <r_i_glide_ligand_efficiency_sa>
-0.938522384830361

> <r_i_glide_ligand_efficiency_ln>
-1.80118824326509

> <r_i_glide_gscore>
-7.36873756968738

> <r_i_glide_lipo>
-2.95714407674528

> <r_i_glide_hbond>
0

> <r_i_glide_metal>
0

> <r_i_glide_rewards>
-2.88090647429204

> <r_i_glide_evdw>
-25.7142696380615

> <r_i_glide_ecoul>
-0.989768743515015

> <r_i_glide_erotb>
0

> <r_i_glide_esite>
-0.0965082252197391

> <r_i_glide_emodel>
-35.7291046302515

> <r_i_glide_energy>
-26.7040383815765

> <r_i_glide_einternal>
3.1382908821106

> <i_i_glide_confnum>
1

> <i_i_glide_posenum>
243

> <r_i_glide_eff_state_penalty>
0

> <s_user_duplicate_titles>
CHEMBL221_lig994

> <i_f3d_flags>
0

> <s_m_subgroup_title>
dock_pv

> <s_m_subgroupid>
dock_pv

> <b_m_subgroup_collapsed>
1

$$$$
CHEMBL221_lig943
                    3D
 Schrodinger Suite 2021-1.
 29 31  0  0  1  0            999 V2000
   19.4111   48.4973   14.4020 C   0  0  0  0  0  0
   20.1230   49.2278   13.4563 C   0  0  0  0  0  0
   20.9479   50.0533   14.2476 C   0  0  0  0  0  0
   20.8076   49.8300   15.5342 N   0  0  0  0  0  0
   19.8556   48.8227   15.6431 O   0  0  0  0  0  0
   20.0290   49.1654   11.9607 C   0  0  0  0  0  0
   18.3057   47.4591   14.3336 C   0  0  0  0  0  0
   19.7230   47.9604   11.3196 C   0  0  0  0  0  0
   19.7230   47.8807    9.9282 C   0  0  0  0  0  0
   20.1230   48.9841    9.1800 C   0  0  0  0  0  0
   20.3552   50.2052    9.8000 C   0  0  0  0  0  0
   20.2799   50.3016   11.1831 C   0  0  0  0  0  0
   21.8777   51.0767   13.8000 C   0  0  0  0  0  0
   22.7064   50.7645   12.7667 O   0  0  0  0  0  0
   23.4334   51.8730   12.4738 C   0  0  0  0  0  0
   23.1099   52.8898   13.3542 C   0  0  0  0  0  0
   22.1230   52.3823   14.1996 C   0  0  0  0  0  0
   24.5230   51.7957   11.1494 Cl  0  0  0  0  0  0
   17.3230   47.7047   15.3217 O   0  0  0  0  0  0
   17.8100   47.4730   13.3631 H   0  0  0  0  0  0
   18.7014   46.4542   14.4797 H   0  0  0  0  0  0
   19.5050   47.0703   11.8870 H   0  0  0  0  0  0
   19.4902   46.9508    9.4327 H   0  0  0  0  0  0
   20.1665   48.9144    8.1025 H   0  0  0  0  0  0
   20.5803   51.0730    9.2020 H   0  0  0  0  0  0
   20.4554   51.2630   11.6393 H   0  0  0  0  0  0
   23.5315   53.8846   13.3775 H   0  0  0  0  0  0
   21.6323   52.9140   15.0016 H   0  0  0  0  0  0
   16.8854   48.5386   15.1289 H   0  0  0  0  0  0
  1  2  2  0  0  0
  1  5  1  0  0  0
  1  7  1  0  0  0
  2  3  1  0  0  0
  2  6  1  0  0  0
  3  4  2  0  0  0
  3 13  1  0  0  0
  4  5  1  0  0  0
  6  8  2  0  0  0
  6 12  1  0  0  0
  7 19  1  0  0  0
  7 20  1  0  0  0
  7 21  1  0  0  0
  8  9  1  0  0  0
  8 22  1  0  0  0
  9 10  2  0  0  0
  9 23  1  0  0  0
 10 11  1  0  0  0
 10 24  1  0  0  0
 11 12  2  0  0  0
 11 25  1  0  0  0
 12 26  1  0  0  0
 13 14  1  0  0  0
 13 17  2  0  0  0
 14 15  1  0  0  0
 15 16  2  0  0  0
 15 18  1  0  0  0
 16 17  1  0  0  0
 16 27  1  0  0  0
 17 28  1  0  0  0
 19 29  1  0  0  0
M  END
> <s_m_entry_id>
5512

> <s_m_entry_name>
dock_pv.503

> <s_m_Source_Path>
/home/csk/Desktop/cluster/DUD-E-result/pgh1

> <s_m_Source_File>
dock_pv.maegz

> <i_m_Source_File_Index>
503

> <chembl_id>
CHEMBL2380870

> <chembl_pref_name>
None

> <i_lp_mmshare_version>
53161

> <r_lp_tautomer_probability>
1

> <s_lp_Force_Field>
OPLS_2005

> <r_lp_Energy>
10.638165

> <b_lp_Chiralities_Consistent>
1

> <s_lp_Variant>
CHEMBL221_lig943-1

> <s_i_glide_gridfile>
glide-grid_2oyu

> <i_i_glide_lignum>
1171

> <i_i_glide_rotatable_bonds>
4

> <r_i_docking_score>
-7.3677968542263

> <r_i_glide_ligand_efficiency>
-0.387778781801384

> <r_i_glide_ligand_efficiency_sa>
-1.03474953968262

> <r_i_glide_ligand_efficiency_ln>
-1.86789474831306

> <r_i_glide_gscore>
-7.3677968542263

> <r_i_glide_lipo>
-4.12038435964334

> <r_i_glide_hbond>
0

> <r_i_glide_metal>
0

> <r_i_glide_rewards>
-2.07415610181362

> <r_i_glide_evdw>
-34.6236152648926

> <r_i_glide_ecoul>
-1.01151752471924

> <r_i_glide_erotb>
0.709651999183168

> <r_i_glide_esite>
0

> <r_i_glide_emodel>
-50.078064651557

> <r_i_glide_energy>
-35.6351327896118

> <r_i_glide_einternal>
1.46617317199707

> <i_i_glide_confnum>
18

> <i_i_glide_posenum>
185

> <r_i_glide_eff_state_penalty>
0

> <s_user_duplicate_titles>
CHEMBL221_lig943

> <i_f3d_flags>
0

> <s_m_subgroup_title>
dock_pv

> <s_m_subgroupid>
dock_pv

> <b_m_subgroup_collapsed>
1

$$$$
CHEMBL221_lig674
                    3D
 Schrodinger Suite 2021-1.
 37 39  0  0  1  0            999 V2000
   20.0930   48.7281   10.7405 C   0  0  0  0  0  0
   19.5396   47.8542   11.6009 C   0  0  0  0  0  0
   19.7185   47.9054   13.0184 C   0  0  0  0  0  0
   19.3231   47.0116   13.7646 O   0  0  0  0  0  0
   20.4011   49.1525   13.4591 C   0  0  0  0  0  0
   20.5464   49.4914   14.8039 C   0  0  0  0  0  0
   21.1397   50.6952   15.1794 C   0  0  0  0  0  0
   21.5958   51.5963   14.1982 C   0  0  0  0  0  0
   21.4965   51.2352   12.8520 C   0  0  0  0  0  0
   20.9146   50.0326   12.4952 C   0  0  0  0  0  0
   20.8554   49.7721   11.1435 O   0  0  0  0  0  0
   19.9218   48.6499    9.2748 C   0  0  0  0  0  0
   19.3734   47.5022    8.6904 C   0  0  0  0  0  0
   18.9388   47.5198    7.3796 C   0  0  0  0  0  0
   19.1420   48.6439    6.5876 C   0  0  0  0  0  0
   19.7753   49.7586    7.1131 C   0  0  0  0  0  0
   20.1230   49.7730    8.4649 C   0  0  0  0  0  0
   20.1132   48.6718   15.8053 O   0  0  0  0  0  0
   18.6479   48.6730    5.3143 O   0  0  0  0  0  0
   21.3230   50.8962   16.5282 O   0  0  0  0  0  0
   20.5053   51.8481   17.1692 C   0  0  0  0  0  0
   22.1229   52.8022   14.6000 O   0  0  0  0  0  0
   22.5687   53.7571   13.6431 C   0  0  0  0  0  0
   18.9057   47.0730   11.2442 H   0  0  0  0  0  0
   21.8534   51.8749   12.0619 H   0  0  0  0  0  0
   19.1838   46.6188    9.2651 H   0  0  0  0  0  0
   18.3786   46.6817    7.0000 H   0  0  0  0  0  0
   19.9163   50.6479    6.5169 H   0  0  0  0  0  0
   20.5143   50.6867    8.8891 H   0  0  0  0  0  0
   20.3239   49.0728   16.6528 H   0  0  0  0  0  0
   18.5232   49.5636    4.9683 H   0  0  0  0  0  0
   20.8715   51.9890   18.1860 H   0  0  0  0  0  0
   19.4830   51.4730   17.2383 H   0  0  0  0  0  0
   20.5230   52.8134   16.6703 H   0  0  0  0  0  0
   22.9467   54.6367   14.1649 H   0  0  0  0  0  0
   23.3808   53.3647   13.0294 H   0  0  0  0  0  0
   21.7531   54.0871   13.0000 H   0  0  0  0  0  0
  1 11  1  0  0  0
  1 12  1  0  0  0
  1  2  2  0  0  0
  2  3  1  0  0  0
  2 24  1  0  0  0
  3  4  2  0  0  0
  3  5  1  0  0  0
  5 10  2  0  0  0
  5  6  1  0  0  0
  6  7  2  0  0  0
  6 18  1  0  0  0
  7  8  1  0  0  0
  7 20  1  0  0  0
  8  9  2  0  0  0
  8 22  1  0  0  0
  9 10  1  0  0  0
  9 25  1  0  0  0
 10 11  1  0  0  0
 12 13  1  0  0  0
 12 17  2  0  0  0
 13 14  2  0  0  0
 13 26  1  0  0  0
 14 15  1  0  0  0
 14 27  1  0  0  0
 15 16  2  0  0  0
 15 19  1  0  0  0
 16 17  1  0  0  0
 16 28  1  0  0  0
 17 29  1  0  0  0
 18 30  1  0  0  0
 19 31  1  0  0  0
 20 21  1  0  0  0
 21 32  1  0  0  0
 21 33  1  0  0  0
 21 34  1  0  0  0
 22 23  1  0  0  0
 23 35  1  0  0  0
 23 36  1  0  0  0
 23 37  1  0  0  0
M  END
> <s_m_entry_id>
5513

> <s_m_entry_name>
dock_pv.504

> <s_m_Source_Path>
/home/csk/Desktop/cluster/DUD-E-result/pgh1

> <s_m_Source_File>
dock_pv.maegz

> <i_m_Source_File_Index>
504

> <chembl_id>
CHEMBL348436

> <chembl_pref_name>
CIRSIMARITIN

> <i_lp_mmshare_version>
53161

> <r_lp_tautomer_probability>
0.999999999997365

> <s_lp_Force_Field>
OPLS_2005

> <r_lp_Energy>
26.847269

> <b_lp_Chiralities_Consistent>
1

> <s_lp_Variant>
CHEMBL221_lig674-1

> <s_i_glide_gridfile>
glide-grid_2oyu

> <i_i_glide_lignum>
833

> <i_i_glide_rotatable_bonds>
5

> <r_i_docking_score>
-7.36763752492346

> <r_i_glide_ligand_efficiency>
-0.32033206630102

> <r_i_glide_ligand_efficiency_sa>
-0.910981784988967

> <r_i_glide_ligand_efficiency_ln>
-1.78156155957

> <r_i_glide_gscore>
-7.36763752492346

> <r_i_glide_lipo>
-3.65920893836377

> <r_i_glide_hbond>
-0.512740984449669

> <r_i_glide_metal>
0

> <r_i_glide_rewards>
-1.57578078794397

> <r_i_glide_evdw>
-23.1146049499512

> <r_i_glide_ecoul>
-4.34892511367798

> <r_i_glide_erotb>
0.18816220038321

> <r_i_glide_esite>
0

> <r_i_glide_emodel>
-29.2548880385659

> <r_i_glide_energy>
-27.4635300636292

> <r_i_glide_einternal>
3.74864268302917

> <i_i_glide_confnum>
1

> <i_i_glide_posenum>
129

> <r_i_glide_eff_state_penalty>
0

> <s_user_duplicate_titles>
CHEMBL221_lig674

> <i_f3d_flags>
0

> <s_m_subgroup_title>
dock_pv

> <s_m_subgroupid>
dock_pv

> <b_m_subgroup_collapsed>
1

$$$$
CHEMBL221_lig772
                    3D
 Schrodinger Suite 2021-1.
 31 32  0  0  1  0            999 V2000
   19.4767   48.0669   11.2536 C   0  0  0  0  0  0
   19.7219   48.2529    9.8924 C   0  0  0  0  0  0
   20.3835   49.3233    9.4006 N   0  0  0  0  0  0
   20.8644   50.2164   10.2928 C   0  0  0  0  0  0
   20.7405   50.0761   11.6803 C   0  0  0  0  0  0
   19.9858   48.9921   12.1764 C   0  0  0  0  0  0
   19.7919   48.8550   13.5649 N   0  0  0  0  0  0
   19.0076   47.5025   14.3921 S   0  0  0  0  0  0
   21.3496   50.9995   12.5490 N   0  0  0  0  0  0
   22.5630   51.7005   12.4462 C   0  0  0  0  0  0
   22.8458   52.7196   13.3692 C   0  0  0  0  0  0
   24.0569   53.4055   13.3053 C   0  0  0  0  0  0
   24.9962   53.0745   12.3372 C   0  0  0  0  0  0
   24.7129   52.0963   11.3929 C   0  0  0  0  0  0
   23.5145   51.3942   11.4613 C   0  0  0  0  0  0
   19.3746   47.6431   15.8000 O   0  0  0  0  0  0
   17.1767   47.8726   14.2498 C   0  0  0  0  0  0
   19.3218   46.2732   13.6612 O   0  0  0  0  0  0
   21.7219   53.1643   14.6040 Cl  0  0  0  0  0  0
   18.9012   47.2097   11.5563 H   0  0  0  0  0  0
   19.3435   47.5517    9.1626 H   0  0  0  0  0  0
   21.3571   51.0726    9.8618 H   0  0  0  0  0  0
   20.2097   49.5497   14.1632 H   0  0  0  0  0  0
   20.8489   51.1827   13.4044 H   0  0  0  0  0  0
   24.2672   54.2040   14.0026 H   0  0  0  0  0  0
   25.9317   53.6107   12.2954 H   0  0  0  0  0  0
   25.4381   51.8721   10.6238 H   0  0  0  0  0  0
   23.3577   50.5999   10.7500 H   0  0  0  0  0  0
   16.6307   46.9915   14.5822 H   0  0  0  0  0  0
   16.9284   48.1340   13.2225 H   0  0  0  0  0  0
   16.9247   48.6750   14.9294 H   0  0  0  0  0  0
  1  6  1  0  0  0
  1  2  2  0  0  0
  1 20  1  0  0  0
  2  3  1  0  0  0
  2 21  1  0  0  0
  3  4  2  0  0  0
  4  5  1  0  0  0
  4 22  1  0  0  0
  5  6  2  0  0  0
  5  9  1  0  0  0
  6  7  1  0  0  0
  7  8  1  0  0  0
  7 23  1  0  0  0
  8 16  2  0  0  0
  8 17  1  0  0  0
  8 18  2  0  0  0
  9 10  1  0  0  0
  9 24  1  0  0  0
 10 11  2  0  0  0
 10 15  1  0  0  0
 11 12  1  0  0  0
 11 19  1  0  0  0
 12 13  2  0  0  0
 12 25  1  0  0  0
 13 14  1  0  0  0
 13 26  1  0  0  0
 14 15  2  0  0  0
 14 27  1  0  0  0
 15 28  1  0  0  0
 17 29  1  0  0  0
 17 30  1  0  0  0
 17 31  1  0  0  0
M  END
> <s_m_entry_id>
5514

> <s_m_entry_name>
dock_pv.505

> <s_m_Source_Path>
/home/csk/Desktop/cluster/DUD-E-result/pgh1

> <s_m_Source_File>
dock_pv.maegz

> <i_m_Source_File_Index>
505

> <chembl_id>
CHEMBL1079878

> <chembl_pref_name>
None

> <i_lp_mmshare_version>
53161

> <r_lp_tautomer_probability>
1

> <s_lp_Force_Field>
OPLS_2005

> <r_lp_Energy>
8.850476

> <b_lp_Chiralities_Consistent>
1

> <s_lp_Variant>
CHEMBL221_lig772-1

> <s_i_glide_gridfile>
glide-grid_2oyu

> <i_i_glide_lignum>
942

> <i_i_glide_rotatable_bonds>
4

> <r_i_docking_score>
-7.36594506122946

> <r_i_glide_ligand_efficiency>
-0.387681319012077

> <r_i_glide_ligand_efficiency_sa>
-1.03448946981519

> <r_i_glide_ligand_efficiency_ln>
-1.86742527901549

> <r_i_glide_gscore>
-7.36594506122946

> <r_i_glide_lipo>
-3.96372171784941

> <r_i_glide_hbond>
0

> <r_i_glide_metal>
0

> <r_i_glide_rewards>
-1.84770562107164

> <r_i_glide_evdw>
-34.621826171875

> <r_i_glide_ecoul>
-2.63053703308105

> <r_i_glide_erotb>
0.620578337827352

> <r_i_glide_esite>
-0.0494241965798493

> <r_i_glide_emodel>
-51.6902742740005

> <r_i_glide_energy>
-37.2523632049561

> <r_i_glide_einternal>
4.80537414550781

> <i_i_glide_confnum>
7

> <i_i_glide_posenum>
174

> <r_i_glide_eff_state_penalty>
0

> <s_user_duplicate_titles>
CHEMBL221_lig772,616843

> <i_f3d_flags>
0

> <s_m_subgroup_title>
dock_pv

> <s_m_subgroupid>
dock_pv

> <b_m_subgroup_collapsed>
1

$$$$
CHEMBL221_lig832
                    3D
 Schrodinger Suite 2021-1.
 30 31  0  0  1  0            999 V2000
   20.1209   48.8023   14.0057 C   0  0  0  0  0  0
   19.9534   48.6094   12.6235 C   0  0  0  0  0  0
   20.5431   49.4837   11.7132 C   0  0  0  0  0  0
   20.8436   49.9169   14.4770 C   0  0  0  0  0  0
   21.4150   50.8017   13.5456 C   0  0  0  0  0  0
   21.2849   50.5583   12.1750 C   0  0  0  0  0  0
   21.7963   51.4199   11.2222 O   0  0  0  0  0  0
   22.9826   52.1726   11.5695 C   0  0  1  0  0  0
   22.9783   52.6130   13.0410 C   0  0  0  0  0  0
   22.2021   51.9709   13.9296 C   0  0  0  0  0  0
   23.6663   53.8225   13.4000 C   0  0  0  0  0  0
   22.7936   54.7847   13.8000 O   0  0  0  0  0  0
   24.8784   53.9930   13.3084 O   0  0  0  0  0  0
   24.2636   51.4635   11.0980 C   0  0  0  0  0  0
   25.3229   52.2730   11.1307 F   0  0  0  0  0  0
   24.5230   50.3692   11.8015 F   0  0  0  0  0  0
   24.1230   51.0730    9.8410 F   0  0  0  0  0  0
   19.4103   47.6645   15.1115 Cl  0  0  0  0  0  0
   19.1101   47.4729   12.0887 C   0  0  0  0  0  0
   20.9429   50.2250   15.9727 C   0  0  0  0  0  0
   20.4190   49.3453   10.6488 H   0  0  0  0  0  0
   22.9233   53.0730   10.9709 H   0  0  0  0  0  0
   22.1230   52.3513   14.9380 H   0  0  0  0  0  0
   23.2586   55.6014   14.0252 H   0  0  0  0  0  0
   18.1005   47.5344   12.4937 H   0  0  0  0  0  0
   19.0388   47.4733   11.0003 H   0  0  0  0  0  0
   19.5333   46.5214   12.4077 H   0  0  0  0  0  0
   20.4220   49.5085   16.6000 H   0  0  0  0  0  0
   21.9774   50.2730   16.3054 H   0  0  0  0  0  0
   20.5129   51.2045   16.1791 H   0  0  0  0  0  0
  1  2  2  0  0  0
  1  4  1  0  0  0
  1 18  1  0  0  0
  2  3  1  0  0  0
  2 19  1  0  0  0
  3  6  2  0  0  0
  3 21  1  0  0  0
  4  5  2  0  0  0
  4 20  1  0  0  0
  5  6  1  0  0  0
  5 10  1  0  0  0
  6  7  1  0  0  0
  7  8  1  0  0  0
  8  9  1  0  0  0
  8 14  1  0  0  0
  8 22  1  0  0  0
  9 10  2  0  0  0
  9 11  1  0  0  0
 10 23  1  0  0  0
 11 12  1  0  0  0
 11 13  2  0  0  0
 12 24  1  0  0  0
 14 15  1  0  0  0
 14 16  1  0  0  0
 14 17  1  0  0  0
 19 25  1  0  0  0
 19 26  1  0  0  0
 19 27  1  0  0  0
 20 28  1  0  0  0
 20 29  1  0  0  0
 20 30  1  0  0  0
M  END
> <s_m_entry_id>
5515

> <s_m_entry_name>
dock_pv.506

> <s_m_Source_Path>
/home/csk/Desktop/cluster/DUD-E-result/pgh1

> <s_m_Source_File>
dock_pv.maegz

> <i_m_Source_File_Index>
506

> <chembl_id>
CHEMBL1288728

> <chembl_pref_name>
None

> <i_lp_mmshare_version>
53161

> <r_lp_tautomer_probability>
1

> <s_lp_Force_Field>
OPLS_2005

> <r_lp_Energy>
15.257514

> <b_lp_Chiralities_Consistent>
1

> <s_lp_Variant>
CHEMBL221_lig832-1

> <s_i_glide_gridfile>
glide-grid_2oyu

> <i_i_glide_lignum>
1018

> <i_i_glide_rotatable_bonds>
3

> <r_i_docking_score>
-7.36347155359316

> <r_i_glide_ligand_efficiency>
-0.368173577679658

> <r_i_glide_ligand_efficiency_sa>
-0.999376844220482

> <r_i_glide_ligand_efficiency_ln>
-1.8428340663184

> <r_i_glide_gscore>
-7.36347155359316

> <r_i_glide_lipo>
-3.54382614056991

> <r_i_glide_hbond>
0

> <r_i_glide_metal>
0

> <r_i_glide_rewards>
-2.09264894617188

> <r_i_glide_evdw>
-26.0386638641357

> <r_i_glide_ecoul>
-4.0334849357605

> <r_i_glide_erotb>
0.196456339294348

> <r_i_glide_esite>
-0.0164968725748572

> <r_i_glide_emodel>
-39.9261125981279

> <r_i_glide_energy>
-30.0721487998962

> <r_i_glide_einternal>
3.16093182563782

> <i_i_glide_confnum>
1

> <i_i_glide_posenum>
233

> <r_i_glide_eff_state_penalty>
0

> <s_user_duplicate_titles>
CHEMBL221_lig832

> <i_f3d_flags>
0

> <s_m_subgroup_title>
dock_pv

> <s_m_subgroupid>
dock_pv

> <b_m_subgroup_collapsed>
1

$$$$
CHEMBL221_lig15
                    3D
 Schrodinger Suite 2021-1.
 35 37  0  0  1  0            999 V2000
   24.2207   52.1513   11.0663 C   0  0  0  0  0  0
   24.2060   53.0211   12.1546 C   0  0  0  0  0  0
   23.2793   52.8464   13.1724 C   0  0  0  0  0  0
   23.3376   51.0731   11.0030 C   0  0  0  0  0  0
   22.4900   50.8246   12.0904 C   0  0  0  0  0  0
   22.4656   51.7430   13.1551 N   0  0  0  0  0  0
   21.5819   51.2115   14.0631 C   0  0  0  0  0  0
   21.1890   49.9939   13.5256 C   0  0  0  0  0  0
   21.6586   49.7823   12.3156 N   0  0  0  0  0  0
   21.2347   51.8102   15.3049 N   0  3  0  0  0  0
   21.3230   53.0242   15.3999 O   0  0  0  0  0  0
   20.8323   51.0732   16.1990 O   0  5  0  0  0  0
   20.3935   49.1009   14.1658 N   0  0  0  0  0  0
   20.0450   47.7353   13.8241 C   0  0  0  0  0  0
   19.6155   47.0422   15.1281 C   0  0  0  0  0  0
   18.3817   47.6989   15.7773 C   0  0  0  0  0  0
   17.2109   47.7070   14.7803 C   0  0  0  0  0  0
   17.5851   48.2730   13.3912 C   0  0  0  0  0  0
   18.8952   47.7031   12.8116 C   0  0  0  0  0  0
   24.9227   52.3063   10.2585 H   0  0  0  0  0  0
   24.9028   53.8431   12.2116 H   0  0  0  0  0  0
   23.2068   53.5151   14.0138 H   0  0  0  0  0  0
   23.3234   50.4151   10.1528 H   0  0  0  0  0  0
   19.9973   49.3842   15.0501 H   0  0  0  0  0  0
   20.9226   47.2430   13.4064 H   0  0  0  0  0  0
   19.3643   46.0011   14.9213 H   0  0  0  0  0  0
   20.4622   47.0170   15.8086 H   0  0  0  0  0  0
   18.1046   47.1567   16.6801 H   0  0  0  0  0  0
   18.6037   48.7164   16.1020 H   0  0  0  0  0  0
   16.8425   46.6873   14.6582 H   0  0  0  0  0  0
   16.3816   48.2730   15.1977 H   0  0  0  0  0  0
   16.7641   48.0831   12.6992 H   0  0  0  0  0  0
   17.7029   49.3485   13.4000 H   0  0  0  0  0  0
   19.1684   48.2396   11.9012 H   0  0  0  0  0  0
   18.7384   46.6730   12.5085 H   0  0  0  0  0  0
  1  2  1  0  0  0
  1  4  2  0  0  0
  1 20  1  0  0  0
  2  3  2  0  0  0
  2 21  1  0  0  0
  3  6  1  0  0  0
  3 22  1  0  0  0
  4  5  1  0  0  0
  4 23  1  0  0  0
  5  6  1  0  0  0
  5  9  2  0  0  0
  6  7  1  0  0  0
  7  8  2  0  0  0
  7 10  1  0  0  0
  8  9  1  0  0  0
  8 13  1  0  0  0
 10 11  2  0  0  0
 10 12  1  0  0  0
 13 14  1  0  0  0
 13 24  1  0  0  0
 14 15  1  0  0  0
 14 19  1  0  0  0
 14 25  1  0  0  0
 15 16  1  0  0  0
 15 26  1  0  0  0
 15 27  1  0  0  0
 16 17  1  0  0  0
 16 28  1  0  0  0
 16 29  1  0  0  0
 17 18  1  0  0  0
 17 30  1  0  0  0
 17 31  1  0  0  0
 18 19  1  0  0  0
 18 32  1  0  0  0
 18 33  1  0  0  0
 19 34  1  0  0  0
 19 35  1  0  0  0
M  CHG  2  10   1  12  -1
M  END
> <s_m_entry_id>
5516

> <s_m_entry_name>
dock_pv.507

> <s_m_Source_Path>
/home/csk/Desktop/cluster/DUD-E-result/pgh1

> <s_m_Source_File>
dock_pv.maegz

> <i_m_Source_File_Index>
507

> <chembl_id>
CHEMBL2236578

> <chembl_pref_name>
None

> <i_lp_mmshare_version>
53161

> <r_lp_tautomer_probability>
1

> <s_lp_Force_Field>
OPLS_2005

> <r_lp_Energy>
13.853951

> <b_lp_Chiralities_Consistent>
1

> <s_lp_Variant>
CHEMBL221_lig15-1

> <s_i_glide_gridfile>
glide-grid_2oyu

> <i_i_glide_lignum>
19

> <i_i_glide_rotatable_bonds>
3

> <r_i_docking_score>
-7.36298368087273

> <r_i_glide_ligand_efficiency>
-0.387525456888038

> <r_i_glide_ligand_efficiency_sa>
-1.03407356706684

> <r_i_glide_ligand_efficiency_ln>
-1.86667450549044

> <r_i_glide_gscore>
-7.36298368087273

> <r_i_glide_lipo>
-2.88442142599007

> <r_i_glide_hbond>
0

> <r_i_glide_metal>
0

> <r_i_glide_rewards>
-3.3969930388025

> <r_i_glide_evdw>
-28.2660446166992

> <r_i_glide_ecoul>
-1.12835955619812

> <r_i_glide_erotb>
0.522494096412365

> <r_i_glide_esite>
-0.0215071482278323

> <r_i_glide_emodel>
-32.8983507681486

> <r_i_glide_energy>
-29.3944041728973

> <r_i_glide_einternal>
3.98563122749329

> <i_i_glide_confnum>
7

> <i_i_glide_posenum>
289

> <r_i_glide_eff_state_penalty>
0

> <s_user_duplicate_titles>
CHEMBL221_lig15

> <i_f3d_flags>
0

> <s_m_subgroup_title>
dock_pv

> <s_m_subgroupid>
dock_pv

> <b_m_subgroup_collapsed>
1

$$$$
CHEMBL221_lig807
                    3D
 Schrodinger Suite 2021-1.
 38 39  0  0  1  0            999 V2000
   21.9024   50.4774   13.4000 C   0  0  0  0  0  0
   21.4192   49.8635   12.2456 C   0  0  0  0  0  0
   20.2982   49.0415   12.2971 C   0  0  0  0  0  0
   19.6529   48.8029   13.5247 C   0  0  0  0  0  0
   20.1239   49.4730   14.6663 C   0  0  0  0  0  0
   21.2317   50.3098   14.6066 C   0  0  0  0  0  0
   23.1993   51.2524   13.3427 C   0  0  0  0  0  0
   23.0991   52.5357   12.4998 C   0  0  1  0  0  0
   22.8635   53.8336   13.3076 C   0  0  2  0  0  0
   24.2551   54.4923   13.4333 C   0  0  0  0  0  0
   25.2483   53.5938   12.6896 C   0  0  0  0  0  0
   24.3804   52.8085   11.7091 C   0  0  0  0  0  0
   22.1230   53.7335   14.5058 O   0  0  0  0  0  0
   18.4688   47.8250   13.6513 C   0  0  2  0  0  0
   17.1192   48.5581   13.7856 C   0  0  0  0  0  0
   18.6751   46.7977   14.7837 C   0  0  0  0  0  0
   17.5764   46.0280   15.0000 O   0  0  0  0  0  0
   19.7230   46.6729   15.4086 O   0  0  0  0  0  0
   19.7230   48.2730   10.6545 Br  0  0  0  0  0  0
   21.9316   50.0024   11.3045 H   0  0  0  0  0  0
   19.6387   49.3321   15.6211 H   0  0  0  0  0  0
   21.5876   50.7926   15.5051 H   0  0  0  0  0  0
   23.5811   51.4730   14.3407 H   0  0  0  0  0  0
   23.9268   50.5702   12.9037 H   0  0  0  0  0  0
   22.2921   52.4196   11.7762 H   0  0  0  0  0  0
   22.2461   54.4698   12.6725 H   0  0  0  0  0  0
   24.2282   55.4730   13.0000 H   0  0  0  0  0  0
   24.5999   54.6730   14.4459 H   0  0  0  0  0  0
   26.0474   54.1533   12.2017 H   0  0  0  0  0  0
   25.7230   52.9099   13.3949 H   0  0  0  0  0  0
   24.8823   51.9056   11.3566 H   0  0  0  0  0  0
   24.1230   53.3916   10.8247 H   0  0  0  0  0  0
   22.7526   53.8335   15.2381 H   0  0  0  0  0  0
   18.4161   47.2195   12.7485 H   0  0  0  0  0  0
   17.0339   49.0712   14.7444 H   0  0  0  0  0  0
   16.9895   49.2964   13.0000 H   0  0  0  0  0  0
   16.2747   47.8730   13.7012 H   0  0  0  0  0  0
   17.7317   45.4010   15.7081 H   0  0  0  0  0  0
  1  6  1  0  0  0
  1  2  2  0  0  0
  1  7  1  0  0  0
  2  3  1  0  0  0
  2 20  1  0  0  0
  3  4  2  0  0  0
  3 19  1  0  0  0
  4  5  1  0  0  0
  4 14  1  0  0  0
  5  6  2  0  0  0
  5 21  1  0  0  0
  6 22  1  0  0  0
  7  8  1  0  0  0
  7 23  1  0  0  0
  7 24  1  0  0  0
  8 12  1  0  0  0
  8  9  1  0  0  0
  8 25  1  0  0  0
  9 10  1  0  0  0
  9 13  1  0  0  0
  9 26  1  0  0  0
 10 11  1  0  0  0
 10 27  1  0  0  0
 10 28  1  0  0  0
 11 12  1  0  0  0
 11 29  1  0  0  0
 11 30  1  0  0  0
 12 31  1  0  0  0
 12 32  1  0  0  0
 13 33  1  0  0  0
 14 15  1  0  0  0
 14 16  1  0  0  0
 14 34  1  0  0  0
 15 35  1  0  0  0
 15 36  1  0  0  0
 15 37  1  0  0  0
 16 17  1  0  0  0
 16 18  2  0  0  0
 17 38  1  0  0  0
M  END
> <s_m_entry_id>
5517

> <s_m_entry_name>
dock_pv.508

> <s_m_Source_Path>
/home/csk/Desktop/cluster/DUD-E-result/pgh1

> <s_m_Source_File>
dock_pv.maegz

> <i_m_Source_File_Index>
508

> <chembl_id>
CHEMBL1275971

> <chembl_pref_name>
None

> <i_lp_mmshare_version>
53161

> <r_lp_tautomer_probability>
1

> <s_lp_Force_Field>
OPLS_2005

> <r_lp_Energy>
30.252675

> <b_lp_Chiralities_Consistent>
1

> <s_lp_Variant>
CHEMBL221_lig807-1

> <s_i_glide_gridfile>
glide-grid_2oyu

> <i_i_glide_lignum>
968

> <i_i_glide_rotatable_bonds>
6

> <r_i_docking_score>
-7.35665916970765

> <r_i_glide_ligand_efficiency>
-0.38719258787935

> <r_i_glide_ligand_efficiency_sa>
-1.03318533885612

> <r_i_glide_ligand_efficiency_ln>
-1.86507110607205

> <r_i_glide_gscore>
-7.35665916970765

> <r_i_glide_lipo>
-3.76718766143705

> <r_i_glide_hbond>
-0.325449327691264

> <r_i_glide_metal>
0

> <r_i_glide_rewards>
-1.92484551764146

> <r_i_glide_evdw>
-22.5981521606445

> <r_i_glide_ecoul>
-6.06880187988281

> <r_i_glide_erotb>
0.701051227076775

> <r_i_glide_esite>
0

> <r_i_glide_emodel>
-36.1033093241826

> <r_i_glide_energy>
-28.6669540405273

> <r_i_glide_einternal>
4.59115505218506

> <i_i_glide_confnum>
149

> <i_i_glide_posenum>
107

> <r_i_glide_eff_state_penalty>
0

> <s_user_duplicate_titles>
CHEMBL221_lig807

> <i_f3d_flags>
0

> <s_m_subgroup_title>
dock_pv

> <s_m_subgroupid>
dock_pv

> <b_m_subgroup_collapsed>
1

$$$$
CHEMBL221_lig691
                    3D
 Schrodinger Suite 2021-1.
 30 31  0  0  1  0            999 V2000
   24.5702   52.3262   11.8419 C   0  0  0  0  0  0
   24.3165   53.4730   12.6000 C   0  0  0  0  0  0
   23.1308   53.5660   13.3227 C   0  0  0  0  0  0
   22.2793   52.4841   13.4066 C   0  0  0  0  0  0
   22.5901   51.2924   12.7529 C   0  0  0  0  0  0
   23.7230   51.2272   11.9405 C   0  0  0  0  0  0
   21.7690   50.1044   12.9317 C   0  0  0  0  0  0
   20.8444   49.9515   13.8971 C   0  0  0  0  0  0
   20.0127   48.7699   14.1053 C   0  0  0  0  0  0
   19.7088   47.8496   13.0924 C   0  0  0  0  0  0
   19.0686   46.6730   13.4177 C   0  0  0  0  0  0
   18.6439   46.4224   14.7139 C   0  0  0  0  0  0
   18.8591   47.3670   15.7092 C   0  0  0  0  0  0
   19.5587   48.5312   15.4072 C   0  0  0  0  0  0
   25.6502   52.2730   11.0000 O   0  0  0  0  0  0
   22.7390   54.7244   13.9161 O   0  0  0  0  0  0
   18.0534   45.2270   15.0000 O   0  0  0  0  0  0
   20.0054   48.0422   11.7709 O   0  0  0  0  0  0
   24.9858   54.3185   12.5496 H   0  0  0  0  0  0
   21.3782   52.6021   13.9874 H   0  0  0  0  0  0
   23.9550   50.3214   11.3997 H   0  0  0  0  0  0
   21.9575   49.3114   12.2250 H   0  0  0  0  0  0
   20.6732   50.7476   14.6049 H   0  0  0  0  0  0
   18.9230   45.9353   12.6495 H   0  0  0  0  0  0
   18.5230   47.1795   16.7178 H   0  0  0  0  0  0
   19.7686   49.2347   16.2000 H   0  0  0  0  0  0
   25.8141   51.3977   10.6198 H   0  0  0  0  0  0
   23.3961   55.4263   13.8940 H   0  0  0  0  0  0
   17.9385   44.6680   14.2287 H   0  0  0  0  0  0
   19.6358   47.3494   11.2183 H   0  0  0  0  0  0
  1  6  1  0  0  0
  1  2  2  0  0  0
  1 15  1  0  0  0
  2  3  1  0  0  0
  2 19  1  0  0  0
  3  4  2  0  0  0
  3 16  1  0  0  0
  4  5  1  0  0  0
  4 20  1  0  0  0
  5  6  2  0  0  0
  5  7  1  0  0  0
  6 21  1  0  0  0
  7  8  2  0  0  0
  7 22  1  0  0  0
  8  9  1  0  0  0
  8 23  1  0  0  0
  9 10  2  0  0  0
  9 14  1  0  0  0
 10 11  1  0  0  0
 10 18  1  0  0  0
 11 12  2  0  0  0
 11 24  1  0  0  0
 12 13  1  0  0  0
 12 17  1  0  0  0
 13 14  2  0  0  0
 13 25  1  0  0  0
 14 26  1  0  0  0
 15 27  1  0  0  0
 16 28  1  0  0  0
 17 29  1  0  0  0
 18 30  1  0  0  0
M  END
> <s_m_entry_id>
5518

> <s_m_entry_name>
dock_pv.509

> <s_m_Source_Path>
/home/csk/Desktop/cluster/DUD-E-result/pgh1

> <s_m_Source_File>
dock_pv.maegz

> <i_m_Source_File_Index>
509

> <chembl_id>
CHEMBL43065

> <chembl_pref_name>
OXYRESVERATROL

> <i_lp_mmshare_version>
53161

> <r_lp_tautomer_probability>
1

> <s_lp_Force_Field>
OPLS_2005

> <r_lp_Energy>
14.803136

> <b_lp_Chiralities_Consistent>
1

> <s_lp_Variant>
CHEMBL221_lig691-1

> <s_i_glide_gridfile>
glide-grid_2oyu

> <i_i_glide_lignum>
853

> <i_i_glide_rotatable_bonds>
6

> <r_i_docking_score>
-7.35664550739907

> <r_i_glide_ligand_efficiency>
-0.408702528188837

> <r_i_glide_ligand_efficiency_sa>
-1.07110363251035

> <r_i_glide_ligand_efficiency_ln>
-1.8909877937674

> <r_i_glide_gscore>
-7.35664550739907

> <r_i_glide_lipo>
-3.18051357972231

> <r_i_glide_hbond>
-0.539659051654954

> <r_i_glide_metal>
0

> <r_i_glide_rewards>
-2.00915489527978

> <r_i_glide_evdw>
-21.7187595367432

> <r_i_glide_ecoul>
-7.49444627761841

> <r_i_glide_erotb>
0.582786937737895

> <r_i_glide_esite>
0

> <r_i_glide_emodel>
-37.2505703870131

> <r_i_glide_energy>
-29.2132058143616

> <r_i_glide_einternal>
5.36761713027954

> <i_i_glide_confnum>
7

> <i_i_glide_posenum>
99

> <r_i_glide_eff_state_penalty>
0

> <s_user_duplicate_titles>
CHEMBL221_lig691

> <i_f3d_flags>
0

> <s_m_subgroup_title>
dock_pv

> <s_m_subgroupid>
dock_pv

> <b_m_subgroup_collapsed>
1

$$$$
CHEMBL221_lig231
                    3D
 Schrodinger Suite 2021-1.
 37 39  0  0  1  0            999 V2000
   19.4435   48.1184   15.4000 S   0  0  0  0  0  0
   20.4746   49.6049   13.3618 C   0  0  0  0  0  0
   22.6541   50.7631   12.0657 C   0  0  0  0  0  0
   20.8069   49.1996   12.0684 C   0  0  0  0  0  0
   19.3230   49.0730   13.9531 N   0  0  0  0  0  0
   21.9529   49.7268   11.4534 C   0  0  0  0  0  0
   22.2956   51.1973   13.3331 C   0  0  0  0  0  0
   21.2355   50.5903   14.0026 C   0  0  0  0  0  0
   23.7767   51.5720   11.5466 C   0  0  0  0  0  0
   19.7230   48.0438   11.2441 S   0  0  0  0  0  0
   19.5188   46.7160   14.9839 O   0  0  0  0  0  0
   20.4990   48.7375   16.2000 O   0  0  0  0  0  0
   23.2217   52.2779   13.8000 C   0  0  0  0  0  0
   24.1096   52.6101   12.6057 C   0  0  0  0  0  0
   24.3285   51.4730   10.4587 O   0  0  0  0  0  0
   19.7844   48.4501    9.5345 C   0  0  0  0  0  0
   17.7720   48.4144   16.2000 C   0  0  0  0  0  0
   19.6999   49.0384    6.8280 C   0  0  0  0  0  0
   19.5022   49.4730    5.0000 Br  0  0  0  0  0  0
   20.1230   49.7316    9.0827 C   0  0  0  0  0  0
   19.3902   47.4730    8.6307 C   0  0  0  0  0  0
   19.3230   47.7894    7.2851 C   0  0  0  0  0  0
   20.1230   50.0032    7.7193 C   0  0  0  0  0  0
   18.8184   48.5469   13.2543 H   0  0  0  0  0  0
   22.2508   49.3913   10.4720 H   0  0  0  0  0  0
   20.9594   50.9202   14.9931 H   0  0  0  0  0  0
   23.8545   51.9074   14.6000 H   0  0  0  0  0  0
   22.6997   53.1674   14.1568 H   0  0  0  0  0  0
   25.1704   52.6006   12.8549 H   0  0  0  0  0  0
   23.8754   53.5934   12.2029 H   0  0  0  0  0  0
   17.7158   47.8226   17.1119 H   0  0  0  0  0  0
   17.6782   49.4728   16.4354 H   0  0  0  0  0  0
   16.9906   48.1106   15.5047 H   0  0  0  0  0  0
   20.3316   50.5460    9.7573 H   0  0  0  0  0  0
   19.0855   46.4990    8.9736 H   0  0  0  0  0  0
   18.9348   47.0730    6.6000 H   0  0  0  0  0  0
   20.3381   51.0001    7.3617 H   0  0  0  0  0  0
  1  5  1  0  0  0
  1 11  2  0  0  0
  1 12  2  0  0  0
  1 17  1  0  0  0
  2  5  1  0  0  0
  2  4  1  0  0  0
  2  8  2  0  0  0
  3  7  2  0  0  0
  3  9  1  0  0  0
  3  6  1  0  0  0
  4  6  2  0  0  0
  4 10  1  0  0  0
  5 24  1  0  0  0
  6 25  1  0  0  0
  7  8  1  0  0  0
  7 13  1  0  0  0
  8 26  1  0  0  0
  9 15  2  0  0  0
  9 14  1  0  0  0
 10 16  1  0  0  0
 13 14  1  0  0  0
 13 27  1  0  0  0
 13 28  1  0  0  0
 14 29  1  0  0  0
 14 30  1  0  0  0
 16 20  1  0  0  0
 16 21  2  0  0  0
 17 31  1  0  0  0
 17 32  1  0  0  0
 17 33  1  0  0  0
 18 22  2  0  0  0
 18 19  1  0  0  0
 18 23  1  0  0  0
 20 23  2  0  0  0
 20 34  1  0  0  0
 21 22  1  0  0  0
 21 35  1  0  0  0
 22 36  1  0  0  0
 23 37  1  0  0  0
M  END
> <s_m_entry_id>
5519

> <s_m_entry_name>
dock_pv.510

> <s_m_Source_Path>
/home/csk/Desktop/cluster/DUD-E-result/pgh1

> <s_m_Source_File>
dock_pv.maegz

> <i_m_Source_File_Index>
510

> <chembl_id>
CHEMBL144728

> <chembl_pref_name>
None

> <i_lp_mmshare_version>
53161

> <r_lp_tautomer_probability>
0.99995

> <s_lp_Force_Field>
OPLS_2005

> <r_lp_Energy>
19.2667

> <b_lp_Chiralities_Consistent>
1

> <s_lp_Variant>
CHEMBL221_lig231-1

> <s_i_glide_gridfile>
glide-grid_2oyu

> <i_i_glide_lignum>
259

> <i_i_glide_rotatable_bonds>
4

> <r_i_docking_score>
-7.35614366683613

> <r_i_glide_ligand_efficiency>
-0.319832333340701

> <r_i_glide_ligand_efficiency_sa>
-0.909560610925859

> <r_i_glide_ligand_efficiency_ln>
-1.77878224046394

> <r_i_glide_gscore>
-7.35614366683613

> <r_i_glide_lipo>
-4.48925507183603

> <r_i_glide_hbond>
0

> <r_i_glide_metal>
0

> <r_i_glide_rewards>
-1.91531356191943

> <r_i_glide_evdw>
-30.2876815795898

> <r_i_glide_ecoul>
1.71608686447144

> <r_i_glide_erotb>
0.347940858269827

> <r_i_glide_esite>
-0.0425448420417253

> <r_i_glide_emodel>
-35.7374777685263

> <r_i_glide_energy>
-28.5715947151184

> <r_i_glide_einternal>
13.6043500900269

> <i_i_glide_confnum>
4

> <i_i_glide_posenum>
268

> <r_i_glide_eff_state_penalty>
0

> <s_user_duplicate_titles>
CHEMBL221_lig231

> <i_f3d_flags>
0

> <s_m_subgroup_title>
dock_pv

> <s_m_subgroupid>
dock_pv

> <b_m_subgroup_collapsed>
1

$$$$
CHEMBL221_lig831
                    3D
 Schrodinger Suite 2021-1.
 30 31  0  0  1  0            999 V2000
   20.1214   48.6355   13.7630 C   0  0  0  0  0  0
   19.9525   48.5079   12.3835 C   0  0  0  0  0  0
   20.4908   49.4530   11.5099 C   0  0  0  0  0  0
   20.8134   49.7373   14.2991 C   0  0  0  0  0  0
   21.3279   50.7112   13.4219 C   0  0  0  0  0  0
   21.2041   50.5334   12.0352 C   0  0  0  0  0  0
   21.7232   51.4590   11.1422 O   0  0  0  0  0  0
   22.9093   52.1827   11.5497 C   0  0  1  0  0  0
   22.8203   52.6146   13.0169 C   0  0  0  0  0  0
   22.0529   51.9082   13.8654 C   0  0  0  0  0  0
   24.2050   51.4595   11.1669 C   0  0  0  0  0  0
   23.4316   53.8606   13.4000 C   0  0  0  0  0  0
   24.6218   54.1238   13.2573 O   0  0  0  0  0  0
   22.5222   54.7403   13.9028 O   0  0  0  0  0  0
   20.2897   49.3066   10.0097 C   0  0  0  0  0  0
   25.2647   52.2672   11.2616 F   0  0  0  0  0  0
   24.4067   50.3680   11.8950 F   0  0  0  0  0  0
   24.1271   51.0729    9.9037 F   0  0  0  0  0  0
   19.4548   47.4014   14.7797 Cl  0  0  0  0  0  0
   21.0112   49.8342   15.8117 C   0  0  0  0  0  0
   19.4023   47.6634   11.9929 H   0  0  0  0  0  0
   22.9276   53.0729   10.9375 H   0  0  0  0  0  0
   21.9127   52.2754   14.8720 H   0  0  0  0  0  0
   22.9551   55.5682   14.1462 H   0  0  0  0  0  0
   19.7042   48.4241    9.7501 H   0  0  0  0  0  0
   19.7808   50.1870    9.6150 H   0  0  0  0  0  0
   21.2544   49.2409    9.5082 H   0  0  0  0  0  0
   21.3229   48.8665   16.2013 H   0  0  0  0  0  0
   21.7780   50.5382   16.1198 H   0  0  0  0  0  0
   20.0898   50.1035   16.3181 H   0  0  0  0  0  0
  1  2  2  0  0  0
  1  4  1  0  0  0
  1 19  1  0  0  0
  2  3  1  0  0  0
  2 21  1  0  0  0
  3  6  2  0  0  0
  3 15  1  0  0  0
  4  5  2  0  0  0
  4 20  1  0  0  0
  5  6  1  0  0  0
  5 10  1  0  0  0
  6  7  1  0  0  0
  7  8  1  0  0  0
  8  9  1  0  0  0
  8 11  1  0  0  0
  8 22  1  0  0  0
  9 10  2  0  0  0
  9 12  1  0  0  0
 10 23  1  0  0  0
 11 16  1  0  0  0
 11 17  1  0  0  0
 11 18  1  0  0  0
 12 13  2  0  0  0
 12 14  1  0  0  0
 14 24  1  0  0  0
 15 25  1  0  0  0
 15 26  1  0  0  0
 15 27  1  0  0  0
 20 28  1  0  0  0
 20 29  1  0  0  0
 20 30  1  0  0  0
M  END
> <s_m_entry_id>
5520

> <s_m_entry_name>
dock_pv.511

> <s_m_Source_Path>
/home/csk/Desktop/cluster/DUD-E-result/pgh1

> <s_m_Source_File>
dock_pv.maegz

> <i_m_Source_File_Index>
511

> <chembl_id>
CHEMBL1288730

> <chembl_pref_name>
None

> <i_lp_mmshare_version>
53161

> <r_lp_tautomer_probability>
1

> <s_lp_Force_Field>
OPLS_2005

> <r_lp_Energy>
13.894305

> <b_lp_Chiralities_Consistent>
1

> <s_lp_Variant>
CHEMBL221_lig831-2

> <s_i_glide_gridfile>
glide-grid_2oyu

> <i_i_glide_lignum>
1017

> <i_i_glide_rotatable_bonds>
3

> <r_i_docking_score>
-7.35539060070349

> <r_i_glide_ligand_efficiency>
-0.367769530035175

> <r_i_glide_ligand_efficiency_sa>
-0.998280090177448

> <r_i_glide_ligand_efficiency_ln>
-1.84081167033778

> <r_i_glide_gscore>
-7.35539060070349

> <r_i_glide_lipo>
-3.50306416044967

> <r_i_glide_hbond>
0

> <r_i_glide_metal>
0

> <r_i_glide_rewards>
-2.1935509127808

> <r_i_glide_evdw>
-27.6951179504395

> <r_i_glide_ecoul>
-3.10662841796875

> <r_i_glide_erotb>
0.196456339294348

> <r_i_glide_esite>
-0.00448170655008692

> <r_i_glide_emodel>
-41.4001605935699

> <r_i_glide_energy>
-30.8017463684082

> <r_i_glide_einternal>
3.02918910980225

> <i_i_glide_confnum>
1

> <i_i_glide_posenum>
350

> <r_i_glide_eff_state_penalty>
0

> <s_user_duplicate_titles>
CHEMBL221_lig831

> <i_f3d_flags>
0

> <s_m_subgroup_title>
dock_pv

> <s_m_subgroupid>
dock_pv

> <b_m_subgroup_collapsed>
1

$$$$
CHEMBL221_lig756
                    3D
 Schrodinger Suite 2021-1.
 28 30  0  0  1  0            999 V2000
   20.1230   50.2021    8.9323 C   0  0  0  0  0  0
   19.9295   48.8194    8.7361 C   0  0  0  0  0  0
   19.7230   47.9774    9.8493 C   0  0  0  0  0  0
   20.3075   50.7432   10.2006 C   0  0  0  0  0  0
   20.1873   49.8717   11.2514 C   0  0  0  0  0  0
   19.8790   48.5586   11.1071 C   0  0  0  0  0  0
   19.8816   47.6789   12.6736 S   0  0  0  0  0  0
   20.5230   48.9492   13.7103 N   0  0  0  0  0  0
   20.5553   50.2730   12.9314 S   0  0  1  0  0  0
   21.9851   51.3544   13.0060 C   0  0  0  0  0  0
   21.8870   52.5533   13.7041 C   0  0  0  0  0  0
   22.9491   53.4466   13.6537 C   0  0  0  0  0  0
   24.0987   53.1167   12.9388 C   0  0  0  0  0  0
   24.1632   51.9375   12.2003 C   0  0  0  0  0  0
   23.1080   51.0375   12.2474 C   0  0  0  0  0  0
   25.6066   54.2730   13.0000 Br  0  0  0  0  0  0
   20.8865   46.6229   12.6000 O   0  0  0  0  0  0
   18.5231   47.3759   13.1264 O   0  0  0  0  0  0
   19.7232   48.3500    7.3593 N   0  3  0  0  0  0
   18.8996   47.4730    7.1962 O   0  0  0  0  0  0
   20.3395   48.8930    6.4471 O   0  5  0  0  0  0
   20.1611   50.8643    8.0767 H   0  0  0  0  0  0
   19.5076   46.9282    9.7160 H   0  0  0  0  0  0
   20.5602   51.7804   10.3434 H   0  0  0  0  0  0
   20.9943   52.7958   14.2615 H   0  0  0  0  0  0
   22.9086   54.3783   14.1998 H   0  0  0  0  0  0
   25.0350   51.7110   11.6057 H   0  0  0  0  0  0
   23.1542   50.1173   11.6835 H   0  0  0  0  0  0
  1  2  2  0  0  0
  1  4  1  0  0  0
  1 22  1  0  0  0
  2  3  1  0  0  0
  2 19  1  0  0  0
  3  6  2  0  0  0
  3 23  1  0  0  0
  4  5  2  0  0  0
  4 24  1  0  0  0
  5  6  1  0  0  0
  5  9  1  0  0  0
  6  7  1  0  0  0
  7 17  2  0  0  0
  7  8  1  0  0  0
  7 18  2  0  0  0
  8  9  2  0  0  0
  9 10  1  0  0  0
 10 11  2  0  0  0
 10 15  1  0  0  0
 11 12  1  0  0  0
 11 25  1  0  0  0
 12 13  2  0  0  0
 12 26  1  0  0  0
 13 14  1  0  0  0
 13 16  1  0  0  0
 14 15  2  0  0  0
 14 27  1  0  0  0
 15 28  1  0  0  0
 19 20  2  0  0  0
 19 21  1  0  0  0
M  CHG  2  19   1  21  -1
M  END
> <s_m_entry_id>
5521

> <s_m_entry_name>
dock_pv.512

> <s_m_Source_Path>
/home/csk/Desktop/cluster/DUD-E-result/pgh1

> <s_m_Source_File>
dock_pv.maegz

> <i_m_Source_File_Index>
512

> <chembl_id>
CHEMBL605161

> <chembl_pref_name>
None

> <i_lp_mmshare_version>
53161

> <r_lp_tautomer_probability>
1

> <s_lp_Force_Field>
OPLS_2005

> <r_lp_Energy>
16.59544

> <b_lp_Chiralities_Consistent>
1

> <s_lp_Variant>
CHEMBL221_lig756-2

> <s_i_glide_gridfile>
glide-grid_2oyu

> <i_i_glide_lignum>
926

> <i_i_glide_rotatable_bonds>
2

> <r_i_docking_score>
-7.3485341944219

> <r_i_glide_ligand_efficiency>
-0.349930199734376

> <r_i_glide_ligand_efficiency_sa>
-0.965430887113286

> <r_i_glide_ligand_efficiency_ln>
-1.81691023045931

> <r_i_glide_gscore>
-7.3485341944219

> <r_i_glide_lipo>
-3.30199232335722

> <r_i_glide_hbond>
0

> <r_i_glide_metal>
0

> <r_i_glide_rewards>
-2.49198029280265

> <r_i_glide_evdw>
-23.5006828308105

> <r_i_glide_ecoul>
-3.04414057731628

> <r_i_glide_erotb>
0.129855722959826

> <r_i_glide_esite>
-0.0527620730838858

> <r_i_glide_emodel>
-28.3441777004849

> <r_i_glide_energy>
-26.5448234081268

> <r_i_glide_einternal>
1.76941633224487

> <i_i_glide_confnum>
1

> <i_i_glide_posenum>
323

> <r_i_glide_eff_state_penalty>
0

> <s_user_duplicate_titles>
CHEMBL221_lig756

> <i_f3d_flags>
0

> <s_m_subgroup_title>
dock_pv

> <s_m_subgroupid>
dock_pv

> <b_m_subgroup_collapsed>
1

$$$$
CHEMBL221_lig964
                    3D
 Schrodinger Suite 2021-1.
 31 32  0  0  1  0            999 V2000
   18.9779   47.4771   14.3910 S   0  0  0  0  0  0
   19.3431   47.6012   15.8000 O   0  0  0  0  0  0
   19.3230   46.2730   13.6349 O   0  0  0  0  0  0
   19.4409   48.0798   11.2630 C   0  0  0  0  0  0
   19.7230   48.2730    9.9108 C   0  0  0  0  0  0
   20.4278   49.3311    9.4491 N   0  0  0  0  0  0
   20.8790   50.2246   10.3589 C   0  0  0  0  0  0
   20.6693   50.0998   11.7366 C   0  0  0  0  0  0
   19.9239   49.0012   12.2030 C   0  0  0  0  0  0
   21.1583   51.0669   12.6301 N   0  0  0  0  0  0
   22.3154   51.8460   12.5833 C   0  0  0  0  0  0
   22.3687   52.9737   13.4000 C   0  0  0  0  0  0
   23.5073   53.7677   13.4000 C   0  0  0  0  0  0
   24.6034   53.4005   12.6321 C   0  0  0  0  0  0
   24.5500   52.2854   11.8000 C   0  0  0  0  0  0
   23.4063   51.4998   11.7805 C   0  0  0  0  0  0
   19.7230   48.8525   13.5885 N   0  0  0  0  0  0
   17.1500   47.8377   14.2449 C   0  0  0  0  0  0
   25.7277   54.1390   12.7051 F   0  0  0  0  0  0
   18.8536   47.2231   11.5457 H   0  0  0  0  0  0
   19.3643   47.5761    9.1670 H   0  0  0  0  0  0
   21.4044   51.0730    9.9527 H   0  0  0  0  0  0
   20.5819   51.2262   13.4415 H   0  0  0  0  0  0
   21.5315   53.2461   14.0260 H   0  0  0  0  0  0
   23.5594   54.6444   14.0308 H   0  0  0  0  0  0
   25.4010   52.0178   11.1908 H   0  0  0  0  0  0
   23.3921   50.6146   11.1635 H   0  0  0  0  0  0
   20.1359   49.5430   14.1944 H   0  0  0  0  0  0
   16.5995   46.9679   14.6000 H   0  0  0  0  0  0
   16.9028   48.0727   13.2117 H   0  0  0  0  0  0
   16.9230   48.6730   14.8946 H   0  0  0  0  0  0
  1  2  2  0  0  0
  1  3  2  0  0  0
  1 17  1  0  0  0
  1 18  1  0  0  0
  4  5  2  0  0  0
  4  9  1  0  0  0
  4 20  1  0  0  0
  5  6  1  0  0  0
  5 21  1  0  0  0
  6  7  2  0  0  0
  7  8  1  0  0  0
  7 22  1  0  0  0
  8  9  2  0  0  0
  8 10  1  0  0  0
  9 17  1  0  0  0
 10 11  1  0  0  0
 10 23  1  0  0  0
 11 12  2  0  0  0
 11 16  1  0  0  0
 12 13  1  0  0  0
 12 24  1  0  0  0
 13 14  2  0  0  0
 13 25  1  0  0  0
 14 15  1  0  0  0
 14 19  1  0  0  0
 15 16  2  0  0  0
 15 26  1  0  0  0
 16 27  1  0  0  0
 17 28  1  0  0  0
 18 29  1  0  0  0
 18 30  1  0  0  0
 18 31  1  0  0  0
M  END
> <s_m_entry_id>
5522

> <s_m_entry_name>
dock_pv.513

> <s_m_Source_Path>
/home/csk/Desktop/cluster/DUD-E-result/pgh1

> <s_m_Source_File>
dock_pv.maegz

> <i_m_Source_File_Index>
513

> <chembl_id>
CHEMBL3113242

> <chembl_pref_name>
None

> <i_lp_mmshare_version>
53161

> <r_lp_tautomer_probability>
1

> <s_lp_Force_Field>
OPLS_2005

> <r_lp_Energy>
7.707977

> <b_lp_Chiralities_Consistent>
1

> <s_lp_Variant>
CHEMBL221_lig964-1

> <s_i_glide_gridfile>
glide-grid_2oyu

> <i_i_glide_lignum>
1192

> <i_i_glide_rotatable_bonds>
4

> <r_i_docking_score>
-7.34459941714834

> <r_i_glide_ligand_efficiency>
-0.386557864060439

> <r_i_glide_ligand_efficiency_sa>
-1.03149164077292

> <r_i_glide_ligand_efficiency_ln>
-1.86201369977853

> <r_i_glide_gscore>
-7.34459941714834

> <r_i_glide_lipo>
-3.64100975868966

> <r_i_glide_hbond>
0

> <r_i_glide_metal>
0

> <r_i_glide_rewards>
-2.24693555641395

> <r_i_glide_evdw>
-32.9937057495117

> <r_i_glide_ecoul>
-2.94009876251221

> <r_i_glide_erotb>
0.685223213704686

> <r_i_glide_esite>
-0.0511772138969938

> <r_i_glide_emodel>
-50.7062521465337

> <r_i_glide_energy>
-35.9338045120239

> <r_i_glide_einternal>
3.03906321525574

> <i_i_glide_confnum>
10

> <i_i_glide_posenum>
191

> <r_i_glide_eff_state_penalty>
0

> <s_user_duplicate_titles>
CHEMBL221_lig964

> <i_f3d_flags>
0

> <s_m_subgroup_title>
dock_pv

> <s_m_subgroupid>
dock_pv

> <b_m_subgroup_collapsed>
1

$$$$
CHEMBL221_lig673
                    3D
 Schrodinger Suite 2021-1.
 41 42  0  0  1  0            999 V2000
   24.6539   53.3102   12.6000 C   0  0  0  0  0  0
   23.5583   53.5467   13.4005 C   0  0  0  0  0  0
   22.4427   52.7305   13.3304 C   0  0  0  0  0  0
   24.5976   52.3396   11.5981 C   0  0  0  0  0  0
   23.4230   51.6031   11.4292 C   0  0  0  0  0  0
   22.3637   51.7723   12.3242 C   0  0  0  0  0  0
   21.1642   51.0955   12.2080 O   0  0  0  0  0  0
   21.0275   49.9879   11.2974 C   0  0  2  0  0  0
   22.1388   49.9258   10.2439 C   0  0  0  0  0  0
   23.2502   50.6729   10.3359 C   0  0  0  0  0  0
   19.7204   50.2572   10.5475 C   0  0  0  0  0  0
   21.0770   48.6718   12.1201 C   0  0  0  0  0  0
   20.5401   48.7051   13.5647 C   0  0  0  0  0  0
   19.0387   48.6681   13.6822 C   0  0  0  0  0  0
   18.3041   47.8760   14.4867 C   0  0  0  0  0  0
   18.8450   46.8729   15.4964 C   0  0  0  0  0  0
   16.8013   47.9507   14.4453 C   0  0  0  0  0  0
   25.7557   54.0731   12.8243 O   0  0  0  0  0  0
   21.3233   52.9265   14.3179 C   0  0  0  0  0  0
   23.6012   54.3187   14.1568 H   0  0  0  0  0  0
   25.4448   52.1918   10.9423 H   0  0  0  0  0  0
   22.0174   49.2565    9.4086 H   0  0  0  0  0  0
   24.0148   50.6082    9.5732 H   0  0  0  0  0  0
   19.3887   49.3697   10.0087 H   0  0  0  0  0  0
   18.9234   50.5568   11.2267 H   0  0  0  0  0  0
   19.8248   51.0731    9.8291 H   0  0  0  0  0  0
   22.1165   48.3552   12.1991 H   0  0  0  0  0  0
   20.5586   47.8794   11.5750 H   0  0  0  0  0  0
   20.9417   49.5521   14.1238 H   0  0  0  0  0  0
   20.9229   47.8148   14.0501 H   0  0  0  0  0  0
   18.5222   49.3559   13.0301 H   0  0  0  0  0  0
   18.5482   45.8639   15.2114 H   0  0  0  0  0  0
   18.4310   47.0898   16.4816 H   0  0  0  0  0  0
   19.9261   46.8823   15.6095 H   0  0  0  0  0  0
   16.4279   48.2726   15.4162 H   0  0  0  0  0  0
   16.4924   48.6721   13.6891 H   0  0  0  0  0  0
   16.3667   46.9824   14.2010 H   0  0  0  0  0  0
   25.5744   54.8275   13.3920 H   0  0  0  0  0  0
   21.6026   53.5692   15.1544 H   0  0  0  0  0  0
   20.5230   53.3820   13.7522 H   0  0  0  0  0  0
   20.9742   51.9730   14.7162 H   0  0  0  0  0  0
  1  2  2  0  0  0
  1  4  1  0  0  0
  1 18  1  0  0  0
  2  3  1  0  0  0
  2 20  1  0  0  0
  3  6  2  0  0  0
  3 19  1  0  0  0
  4  5  2  0  0  0
  4 21  1  0  0  0
  5  6  1  0  0  0
  5 10  1  0  0  0
  6  7  1  0  0  0
  7  8  1  0  0  0
  8  9  1  0  0  0
  8 11  1  0  0  0
  8 12  1  0  0  0
  9 10  2  0  0  0
  9 22  1  0  0  0
 10 23  1  0  0  0
 11 24  1  0  0  0
 11 25  1  0  0  0
 11 26  1  0  0  0
 12 13  1  0  0  0
 12 27  1  0  0  0
 12 28  1  0  0  0
 13 14  1  0  0  0
 13 29  1  0  0  0
 13 30  1  0  0  0
 14 15  2  0  0  0
 14 31  1  0  0  0
 15 16  1  0  0  0
 15 17  1  0  0  0
 16 32  1  0  0  0
 16 33  1  0  0  0
 16 34  1  0  0  0
 17 35  1  0  0  0
 17 36  1  0  0  0
 17 37  1  0  0  0
 18 38  1  0  0  0
 19 39  1  0  0  0
 19 40  1  0  0  0
 19 41  1  0  0  0
M  END
> <s_m_entry_id>
5523

> <s_m_entry_name>
dock_pv.514

> <s_m_Source_Path>
/home/csk/Desktop/cluster/DUD-E-result/pgh1

> <s_m_Source_File>
dock_pv.maegz

> <i_m_Source_File_Index>
514

> <chembl_id>
CHEMBL450070

> <chembl_pref_name>
ATRACTYLOCHROMENE

> <i_lp_mmshare_version>
53161

> <r_lp_tautomer_probability>
1

> <s_lp_Force_Field>
OPLS_2005

> <r_lp_Energy>
10.762333

> <b_lp_Chiralities_Consistent>
1

> <s_lp_Variant>
CHEMBL221_lig673-1

> <s_i_glide_gridfile>
glide-grid_2oyu

> <i_i_glide_lignum>
831

> <i_i_glide_rotatable_bonds>
4

> <r_i_docking_score>
-7.33994135440633

> <r_i_glide_ligand_efficiency>
-0.386312702863491

> <r_i_glide_ligand_efficiency_sa>
-1.03083745223142

> <r_i_glide_ligand_efficiency_ln>
-1.86083278082741

> <r_i_glide_gscore>
-7.33994135440633

> <r_i_glide_lipo>
-4.20586754913931

> <r_i_glide_hbond>
0

> <r_i_glide_metal>
0

> <r_i_glide_rewards>
-2.38243183526882

> <r_i_glide_evdw>
-25.2577419281006

> <r_i_glide_ecoul>
-1.88424515724182

> <r_i_glide_erotb>
0.793881899993113

> <r_i_glide_esite>
0

> <r_i_glide_emodel>
-33.043758773895

> <r_i_glide_energy>
-27.1419870853424

> <r_i_glide_einternal>
5.10500764846802

> <i_i_glide_confnum>
10

> <i_i_glide_posenum>
156

> <r_i_glide_eff_state_penalty>
0

> <s_user_duplicate_titles>
CHEMBL221_lig673

> <i_f3d_flags>
0

> <s_m_subgroup_title>
dock_pv

> <s_m_subgroupid>
dock_pv

> <b_m_subgroup_collapsed>
1

$$$$
CHEMBL221_lig737
                    3D
 Schrodinger Suite 2021-1.
 37 39  0  0  1  0            999 V2000
   21.0178   49.7867   12.6648 C   0  0  2  0  0  0
   19.7139   49.8104   11.8478 C   0  0  2  0  0  0
   18.7705   49.0730   12.6447 O   0  0  0  0  0  0
   19.2331   48.6729   13.9261 C   0  0  2  0  0  0
   20.5229   49.4756   14.0886 C   0  0  0  0  0  0
   19.4520   47.1559   13.9830 C   0  0  0  0  0  0
   21.9662   51.0188   12.5671 C   0  0  0  0  0  0
   21.7623   52.1312   13.4005 C   0  0  0  0  0  0
   22.7100   53.1444   13.4889 C   0  0  0  0  0  0
   23.8776   53.0706   12.7410 C   0  0  0  0  0  0
   24.0518   52.0407   11.8196 C   0  0  0  0  0  0
   23.0948   51.0310   11.7243 C   0  0  0  0  0  0
   21.7230   48.6730   12.1999 O   0  0  0  0  0  0
   19.7373   49.2764   10.4035 C   0  0  0  0  0  0
   20.1266   50.1239    9.3721 C   0  0  0  0  0  0
   20.1230   49.6694    8.0538 C   0  0  0  0  0  0
   19.7230   48.3713    7.7609 C   0  0  0  0  0  0
   19.3449   47.5027    8.7813 C   0  0  0  0  0  0
   19.3493   47.9604   10.0993 C   0  0  0  0  0  0
   19.3230   46.6734   15.2547 O   0  0  0  0  0  0
   19.7230   46.4681   13.0022 O   0  0  0  0  0  0
   25.1203   54.2421   13.0001 Cl  0  0  0  0  0  0
   19.7230   47.8729    6.1170 Cl  0  0  0  0  0  0
   19.3383   50.8347   11.8124 H   0  0  0  0  0  0
   18.4919   48.9370   14.6820 H   0  0  0  0  0  0
   20.2740   50.3627   14.6602 H   0  0  0  0  0  0
   21.2743   48.9746   14.6978 H   0  0  0  0  0  0
   20.8942   52.2218   14.0311 H   0  0  0  0  0  0
   22.5653   53.9597   14.1841 H   0  0  0  0  0  0
   24.9433   51.9976   11.2101 H   0  0  0  0  0  0
   23.2727   50.2313   11.0227 H   0  0  0  0  0  0
   22.5936   48.6735   12.6027 H   0  0  0  0  0  0
   20.4371   51.1323    9.5892 H   0  0  0  0  0  0
   20.3953   50.3389    7.2498 H   0  0  0  0  0  0
   19.0314   46.4972    8.5553 H   0  0  0  0  0  0
   19.0221   47.2980   10.8802 H   0  0  0  0  0  0
   19.0684   47.3499   15.8853 H   0  0  0  0  0  0
  1  2  1  0  0  0
  1 13  1  0  0  0
  1  7  1  0  0  0
  1  5  1  0  0  0
  2  3  1  0  0  0
  2 14  1  0  0  0
  2 24  1  0  0  0
  3  4  1  0  0  0
  4  6  1  0  0  0
  4  5  1  0  0  0
  4 25  1  0  0  0
  5 26  1  0  0  0
  5 27  1  0  0  0
  6 20  1  0  0  0
  6 21  2  0  0  0
  7 12  1  0  0  0
  7  8  2  0  0  0
  8  9  1  0  0  0
  8 28  1  0  0  0
  9 10  2  0  0  0
  9 29  1  0  0  0
 10 22  1  0  0  0
 10 11  1  0  0  0
 11 12  2  0  0  0
 11 30  1  0  0  0
 12 31  1  0  0  0
 13 32  1  0  0  0
 14 15  2  0  0  0
 14 19  1  0  0  0
 15 16  1  0  0  0
 15 33  1  0  0  0
 16 17  2  0  0  0
 16 34  1  0  0  0
 17 18  1  0  0  0
 17 23  1  0  0  0
 18 19  2  0  0  0
 18 35  1  0  0  0
 19 36  1  0  0  0
 20 37  1  0  0  0
M  END
> <s_m_entry_id>
5524

> <s_m_entry_name>
dock_pv.515

> <s_m_Source_Path>
/home/csk/Desktop/cluster/DUD-E-result/pgh1

> <s_m_Source_File>
dock_pv.maegz

> <i_m_Source_File_Index>
515

> <chembl_id>
CHEMBL501782

> <chembl_pref_name>
None

> <i_lp_mmshare_version>
53161

> <r_lp_tautomer_probability>
1

> <s_lp_Force_Field>
OPLS_2005

> <r_lp_Energy>
31.840556

> <b_lp_Chiralities_Consistent>
1

> <s_lp_Variant>
CHEMBL221_lig737-1

> <s_i_glide_gridfile>
glide-grid_2oyu

> <i_i_glide_lignum>
906

> <i_i_glide_rotatable_bonds>
5

> <r_i_docking_score>
-7.33672895321581

> <r_i_glide_ligand_efficiency>
-0.318988215357209

> <r_i_glide_ligand_efficiency_sa>
-0.907160051668015

> <r_i_glide_ligand_efficiency_ln>
-1.77408758666766

> <r_i_glide_gscore>
-7.33672895321581

> <r_i_glide_lipo>
-4.48258791853697

> <r_i_glide_hbond>
-0.13607704346118

> <r_i_glide_metal>
0

> <r_i_glide_rewards>
-1.82459366547288

> <r_i_glide_evdw>
-22.5486755371094

> <r_i_glide_ecoul>
-1.42577123641968

> <r_i_glide_erotb>
0.459182537084817

> <r_i_glide_esite>
-0.0113534005111713

> <r_i_glide_emodel>
-28.2985161695633

> <r_i_glide_energy>
-23.9744467735291

> <r_i_glide_einternal>
4.74549198150635

> <i_i_glide_confnum>
24

> <i_i_glide_posenum>
198

> <r_i_glide_eff_state_penalty>
0

> <s_user_duplicate_titles>
CHEMBL221_lig737

> <i_f3d_flags>
0

> <s_m_subgroup_title>
dock_pv

> <s_m_subgroupid>
dock_pv

> <b_m_subgroup_collapsed>
1

$$$$
CHEMBL221_lig448
                    3D
 Schrodinger Suite 2021-1.
 38 40  0  0  1  0            999 V2000
   23.9801   53.1045   12.9181 S   0  0  0  0  0  0
   20.2883   48.3602   14.0248 C   0  0  2  0  0  0
   19.1871   48.0158   13.0129 C   0  0  1  0  0  0
   17.8874   48.2311   13.7991 C   0  0  0  0  0  0
   19.5686   48.3348   15.3518 C   0  0  0  0  0  0
   22.9256   51.7313   13.2909 C   0  0  0  0  0  0
   21.1909   49.6013   13.7565 C   0  0  0  0  0  0
   24.1229   53.0730   11.4606 O   0  0  0  0  0  0
   25.1633   53.0728   13.7817 O   0  0  0  0  0  0
   19.3315   48.7171   11.6604 C   0  0  0  0  0  0
   18.2401   48.2731   15.1990 C   0  0  0  0  0  0
   16.7329   48.2730   13.3995 O   0  0  0  0  0  0
   22.8755   50.6826   12.3793 C   0  0  0  0  0  0
   22.1052   51.7416   14.4156 C   0  0  0  0  0  0
   22.0013   49.6369   12.6000 C   0  0  0  0  0  0
   21.2526   50.6724   14.6562 C   0  0  0  0  0  0
   22.9436   54.5830   13.4279 C   0  0  0  0  0  0
   19.7230   48.0049   10.5248 C   0  0  0  0  0  0
   19.3230   50.1115   11.6063 C   0  0  0  0  0  0
   19.7294   50.7945   10.4855 C   0  0  0  0  0  0
   20.1230   48.6839    9.3748 C   0  0  0  0  0  0
   20.1230   50.0787    9.3633 C   0  0  0  0  0  0
   20.1027   48.3913   16.2865 H   0  0  0  0  0  0
   20.9230   47.4846   14.0215 H   0  0  0  0  0  0
   17.4875   48.2912   15.9736 H   0  0  0  0  0  0
   19.2153   46.9442   12.8094 H   0  0  0  0  0  0
   23.5002   50.6742   11.4970 H   0  0  0  0  0  0
   22.1221   52.5693   15.1068 H   0  0  0  0  0  0
   21.9915   48.8189   11.8958 H   0  0  0  0  0  0
   20.6391   50.6941   15.5440 H   0  0  0  0  0  0
   23.4593   55.4729   13.0811 H   0  0  0  0  0  0
   22.8887   54.6278   14.5142 H   0  0  0  0  0  0
   21.9477   54.5082   13.0005 H   0  0  0  0  0  0
   19.7670   46.9290   10.5448 H   0  0  0  0  0  0
   19.0921   50.6730   12.4743 H   0  0  0  0  0  0
   19.7473   51.8730   10.5398 H   0  0  0  0  0  0
   20.4264   48.1315    8.4982 H   0  0  0  0  0  0
   20.4182   50.6139    8.4739 H   0  0  0  0  0  0
  1  6  1  0  0  0
  1  8  2  0  0  0
  1  9  2  0  0  0
  1 17  1  0  0  0
  2  5  1  0  0  0
  2  7  1  0  0  0
  2 24  1  0  0  0
  2  3  1  0  0  0
  3 10  1  0  0  0
  3 26  1  0  0  0
  3  4  1  0  0  0
  4 12  2  0  0  0
  4 11  1  0  0  0
  5 23  1  0  0  0
  5 11  2  0  0  0
  6 13  1  0  0  0
  6 14  2  0  0  0
  7 16  2  0  0  0
  7 15  1  0  0  0
 10 18  2  0  0  0
 10 19  1  0  0  0
 11 25  1  0  0  0
 13 15  2  0  0  0
 13 27  1  0  0  0
 14 16  1  0  0  0
 14 28  1  0  0  0
 15 29  1  0  0  0
 16 30  1  0  0  0
 17 31  1  0  0  0
 17 32  1  0  0  0
 17 33  1  0  0  0
 18 21  1  0  0  0
 18 34  1  0  0  0
 19 20  2  0  0  0
 19 35  1  0  0  0
 20 22  1  0  0  0
 20 36  1  0  0  0
 21 22  2  0  0  0
 21 37  1  0  0  0
 22 38  1  0  0  0
M  END
> <s_m_entry_id>
5525

> <s_m_entry_name>
dock_pv.516

> <s_m_Source_Path>
/home/csk/Desktop/cluster/DUD-E-result/pgh1

> <s_m_Source_File>
dock_pv.maegz

> <i_m_Source_File_Index>
516

> <chembl_id>
CHEMBL23170

> <chembl_pref_name>
None

> <i_lp_mmshare_version>
53161

> <r_lp_tautomer_probability>
0.499977396165832

> <s_lp_Force_Field>
OPLS_2005

> <r_lp_Energy>
18.17012

> <b_lp_Chiralities_Consistent>
1

> <s_lp_Variant>
CHEMBL221_lig448-4

> <s_i_glide_gridfile>
glide-grid_2oyu

> <i_i_glide_lignum>
538

> <i_i_glide_rotatable_bonds>
3

> <r_i_docking_score>
-7.33452765977472

> <r_i_glide_ligand_efficiency>
-0.333387620898851

> <r_i_glide_ligand_efficiency_sa>
-0.934165225149693

> <r_i_glide_ligand_efficiency_ln>
-1.79282609344566

> <r_i_glide_gscore>
-7.33452765977472

> <r_i_glide_lipo>
-4.06423362502058

> <r_i_glide_hbond>
0

> <r_i_glide_metal>
0

> <r_i_glide_rewards>
-2.8553187226005

> <r_i_glide_evdw>
-9.35923767089844

> <r_i_glide_ecoul>
-2.18255400657654

> <r_i_glide_erotb>
0.380369672377759

> <r_i_glide_esite>
0

> <r_i_glide_emodel>
-5.55509431902729

> <r_i_glide_energy>
-11.541791677475

> <r_i_glide_einternal>
25.0251789093018

> <i_i_glide_confnum>
1

> <i_i_glide_posenum>
230

> <r_i_glide_eff_state_penalty>
0

> <s_user_duplicate_titles>
CHEMBL221_lig448

> <i_f3d_flags>
0

> <s_m_subgroup_title>
dock_pv

> <s_m_subgroupid>
dock_pv

> <b_m_subgroup_collapsed>
1

$$$$
CHEMBL221_lig80
                    3D
 Schrodinger Suite 2021-1.
 36 39  0  0  1  0            999 V2000
   20.4514   49.0730   10.4102 N   0  0  0  0  0  0
   19.6912   48.5011   11.3472 N   0  0  0  0  0  0
   21.2437   49.7734   12.3208 C   0  0  0  0  0  0
   21.4522   49.7980   10.9883 C   0  0  0  0  0  0
   20.1230   48.9493   12.4987 C   0  0  0  0  0  0
   20.1230   48.8699    9.0661 C   0  0  0  0  0  0
   19.4080   48.6016   13.7363 C   0  0  0  0  0  0
   20.1230   49.9530    8.1900 C   0  0  0  0  0  0
   19.5966   47.6413    8.6548 C   0  0  0  0  0  0
   18.0922   48.1175   13.7384 C   0  0  0  0  0  0
   20.0872   48.7984   14.9274 C   0  0  0  0  0  0
   22.2321   50.6721   13.0172 C   0  0  0  0  0  0
   22.5933   50.6483   10.6000 C   0  0  0  0  0  0
   19.0996   48.6146    6.5099 C   0  0  0  0  0  0
   18.1227   48.1141   16.1358 C   0  0  0  0  0  0
   19.7230   49.7966    6.8736 C   0  0  0  0  0  0
   17.4468   47.8729   14.9448 C   0  0  0  0  0  0
   19.0210   47.5460    7.3999 C   0  0  0  0  0  0
   19.4419   48.5583   16.1151 C   0  0  0  0  0  0
   17.3229   47.8730   17.6406 Cl  0  0  0  0  0  0
   18.2903   48.5325    4.9999 Cl  0  0  0  0  0  0
   23.2630   50.9777   11.9270 C   0  0  0  0  0  0
   20.4556   50.9278    8.5175 H   0  0  0  0  0  0
   19.5212   46.8086    9.3385 H   0  0  0  0  0  0
   17.5580   47.9532   12.8132 H   0  0  0  0  0  0
   21.1071   49.1466   14.9523 H   0  0  0  0  0  0
   21.7810   51.5851   13.4086 H   0  0  0  0  0  0
   22.7589   50.1634   13.8000 H   0  0  0  0  0  0
   23.2860   50.2729    9.8494 H   0  0  0  0  0  0
   22.0672   51.4730   10.2000 H   0  0  0  0  0  0
   19.7349   50.6403    6.1999 H   0  0  0  0  0  0
   16.4272   47.5203   14.9540 H   0  0  0  0  0  0
   18.4531   46.6730    7.1343 H   0  0  0  0  0  0
   20.0272   48.7075   17.0000 H   0  0  0  0  0  0
   24.1370   50.3349   12.0531 H   0  0  0  0  0  0
   23.6187   52.0082   11.9668 H   0  0  0  0  0  0
  1  2  1  0  0  0
  1  4  1  0  0  0
  1  6  1  0  0  0
  2  5  2  0  0  0
  3  4  2  0  0  0
  3 12  1  0  0  0
  3  5  1  0  0  0
  4 13  1  0  0  0
  5  7  1  0  0  0
  6  8  2  0  0  0
  6  9  1  0  0  0
  7 10  1  0  0  0
  7 11  2  0  0  0
  8 16  1  0  0  0
  8 23  1  0  0  0
  9 18  2  0  0  0
  9 24  1  0  0  0
 10 17  2  0  0  0
 10 25  1  0  0  0
 11 19  1  0  0  0
 11 26  1  0  0  0
 12 22  1  0  0  0
 12 27  1  0  0  0
 12 28  1  0  0  0
 13 22  1  0  0  0
 13 29  1  0  0  0
 13 30  1  0  0  0
 14 18  1  0  0  0
 14 21  1  0  0  0
 14 16  2  0  0  0
 15 19  2  0  0  0
 15 20  1  0  0  0
 15 17  1  0  0  0
 16 31  1  0  0  0
 17 32  1  0  0  0
 18 33  1  0  0  0
 19 34  1  0  0  0
 22 35  1  0  0  0
 22 36  1  0  0  0
M  END
> <s_m_entry_id>
5526

> <s_m_entry_name>
dock_pv.517

> <s_m_Source_Path>
/home/csk/Desktop/cluster/DUD-E-result/pgh1

> <s_m_Source_File>
dock_pv.maegz

> <i_m_Source_File_Index>
517

> <chembl_id>
CHEMBL347945

> <chembl_pref_name>
None

> <i_lp_mmshare_version>
53161

> <r_lp_tautomer_probability>
1

> <s_lp_Force_Field>
OPLS_2005

> <r_lp_Energy>
39.33773

> <b_lp_Chiralities_Consistent>
1

> <s_lp_Variant>
CHEMBL221_lig80-1

> <s_i_glide_gridfile>
glide-grid_2oyu

> <i_i_glide_lignum>
97

> <i_i_glide_rotatable_bonds>
2

> <r_i_docking_score>
-7.33343686129972

> <r_i_glide_ligand_efficiency>
-0.333338039149987

> <r_i_glide_ligand_efficiency_sa>
-0.934026295139438

> <r_i_glide_ligand_efficiency_ln>
-1.79255946251052

> <r_i_glide_gscore>
-7.33343686129972

> <r_i_glide_lipo>
-4.30812502411741

> <r_i_glide_hbond>
0

> <r_i_glide_metal>
0

> <r_i_glide_rewards>
-2.39195944277537

> <r_i_glide_evdw>
-20.6072196960449

> <r_i_glide_ecoul>
0.335017442703247

> <r_i_glide_erotb>
0.346755973989822

> <r_i_glide_esite>
0

> <r_i_glide_emodel>
-37.3064761792633

> <r_i_glide_energy>
-20.2722022533417

> <r_i_glide_einternal>
0.483954399824142

> <i_i_glide_confnum>
8

> <i_i_glide_posenum>
172

> <r_i_glide_eff_state_penalty>
0

> <s_user_duplicate_titles>
CHEMBL221_lig80

> <i_f3d_flags>
0

> <s_m_subgroup_title>
dock_pv

> <s_m_subgroupid>
dock_pv

> <b_m_subgroup_collapsed>
1

$$$$
CHEMBL221_lig169
                    3D
 Schrodinger Suite 2021-1.
 33 34  0  0  1  0            999 V2000
   21.8305   51.0942   12.2543 C   0  0  0  0  0  0
   21.2237   50.4636   13.4822 C   0  0  0  0  0  0
   17.5642   47.7160   14.5055 C   0  0  0  0  0  0
   19.8978   48.6471   14.4488 C   0  0  0  0  0  0
   20.4160   49.3255   13.3357 C   0  0  0  0  0  0
   19.0523   47.3821   14.3009 C   0  0  2  0  0  0
   21.5347   50.6730   11.1319 O   0  0  0  0  0  0
   16.9725   47.5125   15.5609 O   0  0  0  0  0  0
   22.9641   52.0588   12.3828 C   0  0  0  0  0  0
   16.9949   48.2730   13.4012 O   0  0  0  0  0  0
   21.4523   50.9383   14.7847 C   0  0  0  0  0  0
   20.1521   49.1452   15.7281 C   0  0  0  0  0  0
   20.9230   50.2888   15.8926 C   0  0  0  0  0  0
   19.3291   46.5918   13.0000 C   0  0  0  0  0  0
   24.1230   51.8421   11.6300 C   0  0  0  0  0  0
   22.8786   53.1948   13.1993 C   0  0  0  0  0  0
   25.2236   52.6730   11.8000 C   0  0  0  0  0  0
   23.9942   53.9984   13.4000 C   0  0  0  0  0  0
   25.1763   53.7083   12.7305 C   0  0  0  0  0  0
   20.2072   48.9479   12.3451 H   0  0  0  0  0  0
   19.3364   46.7240   15.1239 H   0  0  0  0  0  0
   16.0681   48.4672   13.5532 H   0  0  0  0  0  0
   22.0793   51.7833   15.0015 H   0  0  0  0  0  0
   19.7443   48.6567   16.5999 H   0  0  0  0  0  0
   21.1157   50.6730   16.8836 H   0  0  0  0  0  0
   18.9002   47.0730   12.1197 H   0  0  0  0  0  0
   20.3983   46.4999   12.8110 H   0  0  0  0  0  0
   18.9230   45.5827   13.0569 H   0  0  0  0  0  0
   24.1989   51.0108   10.9414 H   0  0  0  0  0  0
   21.9620   53.4535   13.7102 H   0  0  0  0  0  0
   26.1252   52.4924   11.2324 H   0  0  0  0  0  0
   23.9391   54.8485   14.0659 H   0  0  0  0  0  0
   26.0413   54.3388   12.8795 H   0  0  0  0  0  0
  1  2  1  0  0  0
  1  7  2  0  0  0
  1  9  1  0  0  0
  2  5  1  0  0  0
  2 11  2  0  0  0
  3  6  1  0  0  0
  3  8  2  0  0  0
  3 10  1  0  0  0
  4  5  2  0  0  0
  4  6  1  0  0  0
  4 12  1  0  0  0
  5 20  1  0  0  0
  6 14  1  0  0  0
  6 21  1  0  0  0
  9 15  2  0  0  0
  9 16  1  0  0  0
 10 22  1  0  0  0
 11 13  1  0  0  0
 11 23  1  0  0  0
 12 13  2  0  0  0
 12 24  1  0  0  0
 13 25  1  0  0  0
 14 26  1  0  0  0
 14 27  1  0  0  0
 14 28  1  0  0  0
 15 17  1  0  0  0
 15 29  1  0  0  0
 16 18  2  0  0  0
 16 30  1  0  0  0
 17 19  2  0  0  0
 17 31  1  0  0  0
 18 19  1  0  0  0
 18 32  1  0  0  0
 19 33  1  0  0  0
M  END
> <s_m_entry_id>
5527

> <s_m_entry_name>
dock_pv.518

> <s_m_Source_Path>
/home/csk/Desktop/cluster/DUD-E-result/pgh1

> <s_m_Source_File>
dock_pv.maegz

> <i_m_Source_File_Index>
518

> <chembl_id>
CHEMBL75435

> <chembl_pref_name>
DEXKETOPROFEN

> <i_lp_mmshare_version>
53161

> <r_lp_tautomer_probability>
1

> <s_lp_Force_Field>
OPLS_2005

> <r_lp_Energy>
22.559587

> <b_lp_Chiralities_Consistent>
1

> <s_lp_Variant>
CHEMBL221_lig169-1

> <s_i_glide_gridfile>
glide-grid_2oyu

> <i_i_glide_lignum>
193

> <i_i_glide_rotatable_bonds>
5

> <r_i_docking_score>
-7.33295746429424

> <r_i_glide_ligand_efficiency>
-0.385945129699697

> <r_i_glide_ligand_efficiency_sa>
-1.02985661939609

> <r_i_glide_ligand_efficiency_ln>
-1.85906221468379

> <r_i_glide_gscore>
-7.33295746429424

> <r_i_glide_lipo>
-3.44573023355505

> <r_i_glide_hbond>
0

> <r_i_glide_metal>
0

> <r_i_glide_rewards>
-3.12757158315112

> <r_i_glide_evdw>
-31.139196395874

> <r_i_glide_ecoul>
-1.93691504001617

> <r_i_glide_erotb>
1.08784142820806

> <r_i_glide_esite>
0

> <r_i_glide_emodel>
-42.5498379765114

> <r_i_glide_energy>
-33.0761114358902

> <r_i_glide_einternal>
8.45998287200928

> <i_i_glide_confnum>
17

> <i_i_glide_posenum>
60

> <r_i_glide_eff_state_penalty>
0

> <s_user_duplicate_titles>
CHEMBL221_lig169,CHEMBL221_lig384,16591,117758

> <i_f3d_flags>
0

> <s_m_subgroup_title>
dock_pv

> <s_m_subgroupid>
dock_pv

> <b_m_subgroup_collapsed>
1

$$$$
CHEMBL221_lig384
                    3D
 Schrodinger Suite 2021-1.
 33 34  0  0  1  0            999 V2000
   21.8334   51.0498   12.2245 C   0  0  0  0  0  0
   17.4901   47.8730   14.5609 C   0  0  0  0  0  0
   21.2188   50.4336   13.4575 C   0  0  0  0  0  0
   19.8520   48.6758   14.4708 C   0  0  0  0  0  0
   20.3893   49.3013   13.3368 C   0  0  0  0  0  0
   18.9505   47.4475   14.3611 C   0  0  1  0  0  0
   16.9230   48.2730   13.4000 O   0  0  0  0  0  0
   16.9230   47.8730   15.6494 O   0  0  0  0  0  0
   21.5531   50.6048   11.1078 O   0  0  0  0  0  0
   22.9527   52.0351   12.3524 C   0  0  0  0  0  0
   21.4677   50.9285   14.7508 C   0  0  0  0  0  0
   20.1230   49.2073   15.7306 C   0  0  0  0  0  0
   20.9230   50.3268   15.8736 C   0  0  0  0  0  0
   19.3307   46.3738   15.4000 C   0  0  0  0  0  0
   24.1230   51.8326   11.6133 C   0  0  0  0  0  0
   22.8466   53.1709   13.1681 C   0  0  0  0  0  0
   23.9553   53.9757   13.4000 C   0  0  0  0  0  0
   25.2137   52.6730   11.8020 C   0  0  0  0  0  0
   25.1476   53.6992   12.7422 C   0  0  0  0  0  0
   20.1668   48.8898   12.3615 H   0  0  0  0  0  0
   19.0609   47.0203   13.3621 H   0  0  0  0  0  0
   16.0129   48.5434   13.5366 H   0  0  0  0  0  0
   22.1218   51.7540   14.9614 H   0  0  0  0  0  0
   19.6899   48.7530   16.6000 H   0  0  0  0  0  0
   21.1273   50.7245   16.8567 H   0  0  0  0  0  0
   18.9862   46.6702   16.3932 H   0  0  0  0  0  0
   18.8943   45.4038   15.1585 H   0  0  0  0  0  0
   20.4106   46.2730   15.4784 H   0  0  0  0  0  0
   24.2160   51.0035   10.9241 H   0  0  0  0  0  0
   21.9206   53.4198   13.6672 H   0  0  0  0  0  0
   23.8853   54.8191   14.0730 H   0  0  0  0  0  0
   26.1241   52.5036   11.2453 H   0  0  0  0  0  0
   26.0068   54.3332   12.9089 H   0  0  0  0  0  0
  1  3  1  0  0  0
  1  9  2  0  0  0
  1 10  1  0  0  0
  2  6  1  0  0  0
  2  7  1  0  0  0
  2  8  2  0  0  0
  3  5  2  0  0  0
  3 11  1  0  0  0
  4  5  1  0  0  0
  4  6  1  0  0  0
  4 12  2  0  0  0
  5 20  1  0  0  0
  6 14  1  0  0  0
  6 21  1  0  0  0
  7 22  1  0  0  0
 10 15  2  0  0  0
 10 16  1  0  0  0
 11 13  2  0  0  0
 11 23  1  0  0  0
 12 13  1  0  0  0
 12 24  1  0  0  0
 13 25  1  0  0  0
 14 26  1  0  0  0
 14 27  1  0  0  0
 14 28  1  0  0  0
 15 18  1  0  0  0
 15 29  1  0  0  0
 16 17  2  0  0  0
 16 30  1  0  0  0
 17 19  1  0  0  0
 17 31  1  0  0  0
 18 19  2  0  0  0
 18 32  1  0  0  0
 19 33  1  0  0  0
M  END
> <s_m_entry_id>
5529

> <s_m_entry_name>
dock_pv.520

> <s_m_Source_Path>
/home/csk/Desktop/cluster/DUD-E-result/pgh1

> <s_m_Source_File>
dock_pv.maegz

> <i_m_Source_File_Index>
520

> <chembl_id>
CHEMBL571

> <chembl_pref_name>
KETOPROFEN

> <i_lp_mmshare_version>
53161

> <r_lp_tautomer_probability>
1

> <s_lp_Force_Field>
OPLS_2005

> <r_lp_Energy>
21.402065

> <b_lp_Chiralities_Consistent>
1

> <s_lp_Variant>
CHEMBL221_lig384-2

> <s_i_glide_gridfile>
glide-grid_2oyu

> <i_i_glide_lignum>
451

> <i_i_glide_rotatable_bonds>
5

> <r_i_docking_score>
-7.33162085943716

> <r_i_glide_ligand_efficiency>
-0.38587478207564

> <r_i_glide_ligand_efficiency_sa>
-1.02966890368026

> <r_i_glide_ligand_efficiency_ln>
-1.85872335664488

> <r_i_glide_gscore>
-7.33162085943716

> <r_i_glide_lipo>
-3.48066618610156

> <r_i_glide_hbond>
0

> <r_i_glide_metal>
0

> <r_i_glide_rewards>
-3.12734276506639

> <r_i_glide_evdw>
-31.0524959564209

> <r_i_glide_ecoul>
-1.72552359104156

> <r_i_glide_erotb>
1.08784142820806

> <r_i_glide_esite>
0

> <r_i_glide_emodel>
-42.3179416972957

> <r_i_glide_energy>
-32.7780195474625

> <r_i_glide_einternal>
5.87037992477417

> <i_i_glide_confnum>
17

> <i_i_glide_posenum>
270

> <r_i_glide_eff_state_penalty>
0

> <s_user_duplicate_titles>
CHEMBL221_lig384

> <i_f3d_flags>
0

> <s_m_subgroup_title>
dock_pv

> <s_m_subgroupid>
dock_pv

> <b_m_subgroup_collapsed>
1

$$$$
CHEMBL221_lig247
                    3D
 Schrodinger Suite 2021-1.
 49 50  0  0  1  0            999 V2000
   20.5782   49.8553   13.9179 C   0  0  0  0  0  0
   19.6899   48.8040   13.7372 C   0  0  0  0  0  0
   21.1843   50.5440   12.8614 C   0  0  0  0  0  0
   20.7965   50.1404   15.2314 O   0  0  0  0  0  0
   20.0100   48.9766   11.3624 C   0  0  0  0  0  0
   19.3987   48.3609   12.4550 C   0  0  0  0  0  0
   20.8933   50.0444   11.5804 C   0  0  0  0  0  0
   19.2152   48.2992   15.0629 C   0  0  0  0  0  0
   22.0981   51.7913   13.0758 C   0  0  0  0  0  0
   20.0185   49.2342   15.9937 C   0  0  0  0  0  0
   19.7230   48.4798    9.9902 C   0  0  0  0  0  0
   19.0728   47.4730    9.7512 O   0  0  0  0  0  0
   19.5975   46.8181   15.2212 C   0  0  0  0  0  0
   17.6862   48.4412   15.2707 C   0  0  0  0  0  0
   23.2700   51.4730   13.9883 C   0  0  0  0  0  0
   21.3199   52.9433   13.7693 C   0  0  0  0  0  0
   22.7771   52.2603   11.7668 C   0  0  0  0  0  0
   20.2406   49.3114    8.8212 C   0  0  0  0  0  0
   19.8894   48.7455    7.4238 C   0  0  0  0  0  0
   20.2069   49.7164    6.2809 C   0  0  0  0  0  0
   19.3231   49.4719    5.0565 C   0  0  0  0  0  0
   18.7135   47.5355   12.3113 H   0  0  0  0  0  0
   21.3622   50.4742   10.7194 H   0  0  0  0  0  0
   19.3534   49.8385   16.6000 H   0  0  0  0  0  0
   20.7163   48.6728   16.6000 H   0  0  0  0  0  0
   19.3253   46.4396   16.2000 H   0  0  0  0  0  0
   20.6648   46.6730   15.0914 H   0  0  0  0  0  0
   19.0848   46.1965   14.4857 H   0  0  0  0  0  0
   17.3628   47.9198   16.1726 H   0  0  0  0  0  0
   17.3648   49.4730   15.4000 H   0  0  0  0  0  0
   17.1237   48.0194   14.4363 H   0  0  0  0  0  0
   23.7230   50.5627   13.6240 H   0  0  0  0  0  0
   24.0252   52.2610   14.0193 H   0  0  0  0  0  0
   22.9230   51.3255   15.0000 H   0  0  0  0  0  0
   20.3082   53.0730   13.4000 H   0  0  0  0  0  0
   21.1959   52.7587   14.8374 H   0  0  0  0  0  0
   21.8369   53.8997   13.6803 H   0  0  0  0  0  0
   22.0737   52.2730   10.9519 H   0  0  0  0  0  0
   23.2325   53.2464   11.8594 H   0  0  0  0  0  0
   23.5664   51.5759   11.4490 H   0  0  0  0  0  0
   19.8288   50.3167    8.9198 H   0  0  0  0  0  0
   21.3110   49.3911    8.9965 H   0  0  0  0  0  0
   20.3977   47.7958    7.2516 H   0  0  0  0  0  0
   18.8252   48.5070    7.3938 H   0  0  0  0  0  0
   20.0604   50.7448    6.6115 H   0  0  0  0  0  0
   21.2564   49.6290    5.9990 H   0  0  0  0  0  0
   19.4784   50.2595    4.3183 H   0  0  0  0  0  0
   19.5361   48.5051    4.6003 H   0  0  0  0  0  0
   18.2655   49.4730    5.3252 H   0  0  0  0  0  0
  1  2  2  0  0  0
  1  3  1  0  0  0
  1  4  1  0  0  0
  2  6  1  0  0  0
  2  8  1  0  0  0
  3  7  2  0  0  0
  3  9  1  0  0  0
  4 10  1  0  0  0
  5  7  1  0  0  0
  5 11  1  0  0  0
  5  6  2  0  0  0
  6 22  1  0  0  0
  7 23  1  0  0  0
  8 13  1  0  0  0
  8 14  1  0  0  0
  8 10  1  0  0  0
  9 15  1  0  0  0
  9 16  1  0  0  0
  9 17  1  0  0  0
 10 24  1  0  0  0
 10 25  1  0  0  0
 11 12  2  0  0  0
 11 18  1  0  0  0
 13 26  1  0  0  0
 13 27  1  0  0  0
 13 28  1  0  0  0
 14 29  1  0  0  0
 14 30  1  0  0  0
 14 31  1  0  0  0
 15 32  1  0  0  0
 15 33  1  0  0  0
 15 34  1  0  0  0
 16 35  1  0  0  0
 16 36  1  0  0  0
 16 37  1  0  0  0
 17 38  1  0  0  0
 17 39  1  0  0  0
 17 40  1  0  0  0
 18 19  1  0  0  0
 18 41  1  0  0  0
 18 42  1  0  0  0
 19 20  1  0  0  0
 19 43  1  0  0  0
 19 44  1  0  0  0
 20 21  1  0  0  0
 20 45  1  0  0  0
 20 46  1  0  0  0
 21 47  1  0  0  0
 21 48  1  0  0  0
 21 49  1  0  0  0
M  END
> <s_m_entry_id>
5530

> <s_m_entry_name>
dock_pv.521

> <s_m_Source_Path>
/home/csk/Desktop/cluster/DUD-E-result/pgh1

> <s_m_Source_File>
dock_pv.maegz

> <i_m_Source_File_Index>
521

> <chembl_id>
CHEMBL13661

> <chembl_pref_name>
None

> <i_lp_mmshare_version>
53161

> <r_lp_tautomer_probability>
0.99990000499975

> <s_lp_Force_Field>
OPLS_2005

> <r_lp_Energy>
30.764445

> <b_lp_Chiralities_Consistent>
1

> <s_lp_Variant>
CHEMBL221_lig247-1

> <s_i_glide_gridfile>
glide-grid_2oyu

> <i_i_glide_lignum>
277

> <i_i_glide_rotatable_bonds>
5

> <r_i_docking_score>
-7.3311803377839

> <r_i_glide_ligand_efficiency>
-0.349103825608757

> <r_i_glide_ligand_efficiency_sa>
-0.963150983561694

> <r_i_glide_ligand_efficiency_ln>
-1.81261952447233

> <r_i_glide_gscore>
-7.3311803377839

> <r_i_glide_lipo>
-4.21472336591642

> <r_i_glide_hbond>
0

> <r_i_glide_metal>
0

> <r_i_glide_rewards>
-2.60371468453862

> <r_i_glide_evdw>
-24.003396987915

> <r_i_glide_ecoul>
0.209064453840256

> <r_i_glide_erotb>
0.656067893990851

> <r_i_glide_esite>
0

> <r_i_glide_emodel>
-23.567321671256

> <r_i_glide_energy>
-23.7943325340748

> <r_i_glide_einternal>
3.95904684066772

> <i_i_glide_confnum>
4

> <i_i_glide_posenum>
234

> <r_i_glide_eff_state_penalty>
0

> <s_user_duplicate_titles>
CHEMBL221_lig247

> <i_f3d_flags>
0

> <s_m_subgroup_title>
dock_pv

> <s_m_subgroupid>
dock_pv

> <b_m_subgroup_collapsed>
1

$$$$
CHEMBL221_lig44
                    3D
 Schrodinger Suite 2021-1.
 35 37  0  0  1  0            999 V2000
   20.0175   48.7430   11.8940 C   0  0  0  0  0  0
   20.6497   49.4731   12.8575 C   0  0  0  0  0  0
   19.9750   49.0023    5.8508 S   0  0  0  0  0  0
   20.0361   48.6730   13.9745 C   0  0  0  0  0  0
   19.2346   47.9188   12.9169 C   0  0  0  0  0  0
   19.9292   48.7836   10.4291 C   0  0  0  0  0  0
   19.9506   48.8643    7.6340 C   0  0  0  0  0  0
   20.5229   47.8203    5.2140 O   0  0  0  0  0  0
   20.6104   50.2729    5.5553 O   0  0  0  0  0  0
   20.1230   48.6252   15.2000 O   0  0  0  0  0  0
   21.6631   50.5466   12.8597 C   0  0  0  0  0  0
   20.1230   49.9939    9.7713 C   0  0  0  0  0  0
   19.7230   47.6227    9.6801 C   0  0  0  0  0  0
   19.7230   47.6561    8.2873 C   0  0  0  0  0  0
   20.1230   50.0303    8.3848 C   0  0  0  0  0  0
   18.1834   49.0172    5.4000 C   0  0  0  0  0  0
   21.6480   51.5334   13.8488 C   0  0  0  0  0  0
   22.6192   50.6131   11.8388 C   0  0  0  0  0  0
   23.5439   51.6533   11.8019 C   0  0  0  0  0  0
   22.5543   52.5878   13.8000 C   0  0  0  0  0  0
   23.5034   52.6413   12.7822 C   0  0  0  0  0  0
   18.1738   48.1310   13.0537 H   0  0  0  0  0  0
   19.4399   46.8522   12.9960 H   0  0  0  0  0  0
   20.2649   50.9122   10.3232 H   0  0  0  0  0  0
   19.6447   46.6731   10.1805 H   0  0  0  0  0  0
   19.5834   46.7449    7.7346 H   0  0  0  0  0  0
   20.2337   50.9870    7.8927 H   0  0  0  0  0  0
   18.1114   49.0730    4.3193 H   0  0  0  0  0  0
   17.7230   49.8730    5.8689 H   0  0  0  0  0  0
   17.7231   48.0975    5.7444 H   0  0  0  0  0  0
   20.9182   51.5023   14.6446 H   0  0  0  0  0  0
   22.6490   49.8593   11.0662 H   0  0  0  0  0  0
   24.2818   51.6961   11.0133 H   0  0  0  0  0  0
   22.5230   53.3591   14.5565 H   0  0  0  0  0  0
   24.2118   53.4566   12.7540 H   0  0  0  0  0  0
  1  2  2  0  0  0
  1  5  1  0  0  0
  1  6  1  0  0  0
  2 11  1  0  0  0
  2  4  1  0  0  0
  3  7  1  0  0  0
  3  8  2  0  0  0
  3  9  2  0  0  0
  3 16  1  0  0  0
  4  5  1  0  0  0
  4 10  2  0  0  0
  5 22  1  0  0  0
  5 23  1  0  0  0
  6 12  2  0  0  0
  6 13  1  0  0  0
  7 14  1  0  0  0
  7 15  2  0  0  0
 11 17  1  0  0  0
 11 18  2  0  0  0
 12 15  1  0  0  0
 12 24  1  0  0  0
 13 14  2  0  0  0
 13 25  1  0  0  0
 14 26  1  0  0  0
 15 27  1  0  0  0
 16 28  1  0  0  0
 16 29  1  0  0  0
 16 30  1  0  0  0
 17 20  2  0  0  0
 17 31  1  0  0  0
 18 19  1  0  0  0
 18 32  1  0  0  0
 19 21  2  0  0  0
 19 33  1  0  0  0
 20 21  1  0  0  0
 20 34  1  0  0  0
 21 35  1  0  0  0
M  END
> <s_m_entry_id>
5531

> <s_m_entry_name>
dock_pv.522

> <s_m_Source_Path>
/home/csk/Desktop/cluster/DUD-E-result/pgh1

> <s_m_Source_File>
dock_pv.maegz

> <i_m_Source_File_Index>
522

> <chembl_id>
CHEMBL328003

> <chembl_pref_name>
None

> <i_lp_mmshare_version>
53161

> <r_lp_tautomer_probability>
1

> <s_lp_Force_Field>
OPLS_2005

> <r_lp_Energy>
18.258971

> <b_lp_Chiralities_Consistent>
1

> <s_lp_Variant>
CHEMBL221_lig44-1

> <s_i_glide_gridfile>
glide-grid_2oyu

> <i_i_glide_lignum>
51

> <i_i_glide_rotatable_bonds>
3

> <r_i_docking_score>
-7.32451530952738

> <r_i_glide_ligand_efficiency>
-0.348786443310827

> <r_i_glide_ligand_efficiency_sa>
-0.962275349867669

> <r_i_glide_ligand_efficiency_ln>
-1.81097160970386

> <r_i_glide_gscore>
-7.32451530952738

> <r_i_glide_lipo>
-3.95236730279734

> <r_i_glide_hbond>
0

> <r_i_glide_metal>
0

> <r_i_glide_rewards>
-2.65355769988001

> <r_i_glide_evdw>
-13.0300588607788

> <r_i_glide_ecoul>
-3.07634949684143

> <r_i_glide_erotb>
0.412274746579904

> <r_i_glide_esite>
-0.0179096858647743

> <r_i_glide_emodel>
-16.2194909132675

> <r_i_glide_energy>
-16.1064083576202

> <r_i_glide_einternal>
5.92728567123413

> <i_i_glide_confnum>
2

> <i_i_glide_posenum>
376

> <r_i_glide_eff_state_penalty>
0

> <s_user_duplicate_titles>
CHEMBL221_lig44

> <i_f3d_flags>
0

> <s_m_subgroup_title>
dock_pv

> <s_m_subgroupid>
dock_pv

> <b_m_subgroup_collapsed>
1

$$$$
CHEMBL221_lig781
                    3D
 Schrodinger Suite 2021-1.
 35 36  0  0  1  0            999 V2000
   19.4897   48.0620   11.2668 C   0  0  0  0  0  0
   19.7230   48.2638    9.9070 C   0  0  0  0  0  0
   20.3822   49.3373    9.4236 N   0  0  0  0  0  0
   20.8617   50.2244   10.3225 C   0  0  0  0  0  0
   20.7324   50.0798   11.7097 C   0  0  0  0  0  0
   19.9931   48.9846   12.1956 C   0  0  0  0  0  0
   19.7982   48.8370   13.5811 N   0  0  0  0  0  0
   18.9378   47.5158   14.3656 S   0  0  0  0  0  0
   21.3249   51.0104   12.5827 N   0  0  0  0  0  0
   22.5363   51.7118   12.4656 C   0  0  0  0  0  0
   22.7934   52.7979   13.3214 C   0  0  0  0  0  0
   24.0216   53.4698   13.2104 C   0  0  0  0  0  0
   24.9642   53.0730   12.2704 C   0  0  0  0  0  0
   24.6870   52.0317   11.3996 C   0  0  0  0  0  0
   23.4965   51.3321   11.5182 C   0  0  0  0  0  0
   19.3230   46.2731   13.6944 O   0  0  0  0  0  0
   17.1447   47.9085   14.0000 C   0  0  0  0  0  0
   19.1644   47.6908   15.8000 O   0  0  0  0  0  0
   21.8332   53.1529   14.2525 O   0  0  0  0  0  0
   21.7230   54.5310   14.5996 C   0  0  0  0  0  0
   18.9229   47.1955   11.5606 H   0  0  0  0  0  0
   19.3468   47.5651    9.1738 H   0  0  0  0  0  0
   21.3659   51.0731    9.8953 H   0  0  0  0  0  0
   20.1588   49.5547   14.1885 H   0  0  0  0  0  0
   20.8290   51.2024   13.4403 H   0  0  0  0  0  0
   24.2731   54.2999   13.8499 H   0  0  0  0  0  0
   25.9033   53.6003   12.2004 H   0  0  0  0  0  0
   25.4106   51.7470   10.6517 H   0  0  0  0  0  0
   23.3461   50.4849   10.8675 H   0  0  0  0  0  0
   16.5227   47.1320   14.4394 H   0  0  0  0  0  0
   16.9221   48.8690   14.4544 H   0  0  0  0  0  0
   16.9963   47.9523   12.9236 H   0  0  0  0  0  0
   20.9685   54.6732   15.3722 H   0  0  0  0  0  0
   22.6325   54.9896   14.9833 H   0  0  0  0  0  0
   21.4057   55.0726   13.7114 H   0  0  0  0  0  0
  1  6  1  0  0  0
  1  2  2  0  0  0
  1 21  1  0  0  0
  2  3  1  0  0  0
  2 22  1  0  0  0
  3  4  2  0  0  0
  4  5  1  0  0  0
  4 23  1  0  0  0
  5  6  2  0  0  0
  5  9  1  0  0  0
  6  7  1  0  0  0
  7  8  1  0  0  0
  7 24  1  0  0  0
  8 16  2  0  0  0
  8 17  1  0  0  0
  8 18  2  0  0  0
  9 10  1  0  0  0
  9 25  1  0  0  0
 10 11  2  0  0  0
 10 15  1  0  0  0
 11 12  1  0  0  0
 11 19  1  0  0  0
 12 13  2  0  0  0
 12 26  1  0  0  0
 13 14  1  0  0  0
 13 27  1  0  0  0
 14 15  2  0  0  0
 14 28  1  0  0  0
 15 29  1  0  0  0
 17 30  1  0  0  0
 17 31  1  0  0  0
 17 32  1  0  0  0
 19 20  1  0  0  0
 20 33  1  0  0  0
 20 34  1  0  0  0
 20 35  1  0  0  0
M  END
> <s_m_entry_id>
5532

> <s_m_entry_name>
dock_pv.523

> <s_m_Source_Path>
/home/csk/Desktop/cluster/DUD-E-result/pgh1

> <s_m_Source_File>
dock_pv.maegz

> <i_m_Source_File_Index>
523

> <chembl_id>
CHEMBL1077442

> <chembl_pref_name>
None

> <i_lp_mmshare_version>
53161

> <r_lp_tautomer_probability>
1

> <s_lp_Force_Field>
OPLS_2005

> <r_lp_Energy>
11.627548

> <b_lp_Chiralities_Consistent>
1

> <s_lp_Variant>
CHEMBL221_lig781-1

> <s_i_glide_gridfile>
glide-grid_2oyu

> <i_i_glide_lignum>
951

> <i_i_glide_rotatable_bonds>
5

> <r_i_docking_score>
-7.32416568877284

> <r_i_glide_ligand_efficiency>
-0.366208284438642

> <r_i_glide_ligand_efficiency_sa>
-0.99404221763062

> <r_i_glide_ligand_efficiency_ln>
-1.83299710474806

> <r_i_glide_gscore>
-7.32416568877284

> <r_i_glide_lipo>
-3.83673797280696

> <r_i_glide_hbond>
0

> <r_i_glide_metal>
0

> <r_i_glide_rewards>
-1.86329964931306

> <r_i_glide_evdw>
-35.2921371459961

> <r_i_glide_ecoul>
-2.99427366256714

> <r_i_glide_erotb>
0.63700299816874

> <r_i_glide_esite>
-0.0473831581366743

> <r_i_glide_emodel>
-52.4290321236468

> <r_i_glide_energy>
-38.2864108085632

> <r_i_glide_einternal>
4.11028003692627

> <i_i_glide_confnum>
7

> <i_i_glide_posenum>
223

> <r_i_glide_eff_state_penalty>
0

> <s_user_duplicate_titles>
CHEMBL221_lig781

> <i_f3d_flags>
0

> <s_m_subgroup_title>
dock_pv

> <s_m_subgroupid>
dock_pv

> <b_m_subgroup_collapsed>
1

$$$$
CHEMBL221_lig235
                    3D
 Schrodinger Suite 2021-1.
 36 38  0  0  1  0            999 V2000
   19.0060   47.5765   14.2441 S   0  0  0  0  0  0
   22.7567   51.8245   12.2447 C   0  0  0  0  0  0
   23.3559   52.7732   12.9145 N   0  0  0  0  0  0
   20.0653   48.9249   11.9891 C   0  0  0  0  0  0
   20.1916   49.3467    9.2089 C   0  0  0  0  0  0
   20.6013   50.1164   11.4812 C   0  0  0  0  0  0
   19.9637   48.7722   13.3852 N   0  0  0  0  0  0
   23.7230   51.1089   11.0002 S   0  0  0  0  0  0
   20.6004   50.3530   10.0963 C   0  0  0  0  0  0
   19.7230   48.1415    9.7121 C   0  0  0  0  0  0
   21.1208   51.3647   12.6411 S   0  0  0  0  0  0
   19.6231   47.9552   11.0898 C   0  0  0  0  0  0
   20.0679   49.3326    7.7144 C   0  0  0  0  0  0
   24.5599   53.0360   12.4609 C   0  0  0  0  0  0
   24.9497   52.2730   11.3677 C   0  0  0  0  0  0
   19.3230   46.2730   13.6642 O   0  0  0  0  0  0
   19.2154   47.8372   15.6699 O   0  0  0  0  0  0
   19.3193   47.2164    8.6000 C   0  0  0  0  0  0
   19.6829   47.9256    7.3074 C   0  0  0  0  0  0
   20.1230   50.2730    6.9325 O   0  0  0  0  0  0
   17.2497   48.0457   13.8000 C   0  0  0  0  0  0
   25.3230   54.1165   13.1831 C   0  0  0  0  0  0
   20.2942   49.5467   13.9406 H   0  0  0  0  0  0
   20.9230   51.3130    9.7249 H   0  0  0  0  0  0
   19.1710   47.0626   11.4581 H   0  0  0  0  0  0
   25.8812   52.2886   10.8198 H   0  0  0  0  0  0
   19.8091   46.2460    8.6535 H   0  0  0  0  0  0
   18.2402   47.0730    8.6009 H   0  0  0  0  0  0
   20.5230   47.4615    6.8015 H   0  0  0  0  0  0
   18.8469   47.9501    6.6075 H   0  0  0  0  0  0
   16.5690   47.3823   14.3304 H   0  0  0  0  0  0
   17.0721   49.0730   14.1001 H   0  0  0  0  0  0
   17.1139   47.9366   12.7259 H   0  0  0  0  0  0
   26.1657   54.4833   12.6000 H   0  0  0  0  0  0
   25.7195   53.7554   14.1311 H   0  0  0  0  0  0
   24.7001   54.9859   13.4000 H   0  0  0  0  0  0
  1  7  1  0  0  0
  1 16  2  0  0  0
  1 17  2  0  0  0
  1 21  1  0  0  0
  2 11  1  0  0  0
  2  3  2  0  0  0
  2  8  1  0  0  0
  3 14  1  0  0  0
  4  7  1  0  0  0
  4  6  2  0  0  0
  4 12  1  0  0  0
  5 10  1  0  0  0
  5 13  1  0  0  0
  5  9  2  0  0  0
  6  9  1  0  0  0
  6 11  1  0  0  0
  7 23  1  0  0  0
  8 15  1  0  0  0
  9 24  1  0  0  0
 10 12  2  0  0  0
 10 18  1  0  0  0
 12 25  1  0  0  0
 13 20  2  0  0  0
 13 19  1  0  0  0
 14 22  1  0  0  0
 14 15  2  0  0  0
 15 26  1  0  0  0
 18 19  1  0  0  0
 18 27  1  0  0  0
 18 28  1  0  0  0
 19 29  1  0  0  0
 19 30  1  0  0  0
 21 31  1  0  0  0
 21 32  1  0  0  0
 21 33  1  0  0  0
 22 34  1  0  0  0
 22 35  1  0  0  0
 22 36  1  0  0  0
M  END
> <s_m_entry_id>
5533

> <s_m_entry_name>
dock_pv.524

> <s_m_Source_Path>
/home/csk/Desktop/cluster/DUD-E-result/pgh1

> <s_m_Source_File>
dock_pv.maegz

> <i_m_Source_File_Index>
524

> <chembl_id>
CHEMBL37414

> <chembl_pref_name>
None

> <i_lp_mmshare_version>
53161

> <r_lp_tautomer_probability>
0.99995

> <s_lp_Force_Field>
OPLS_2005

> <r_lp_Energy>
14.430119

> <b_lp_Chiralities_Consistent>
1

> <s_lp_Variant>
CHEMBL221_lig235-1

> <s_i_glide_gridfile>
glide-grid_2oyu

> <i_i_glide_lignum>
263

> <i_i_glide_rotatable_bonds>
4

> <r_i_docking_score>
-7.32411499220466

> <r_i_glide_ligand_efficiency>
-0.332914317827485

> <r_i_glide_ligand_efficiency_sa>
-0.932839011329772

> <r_i_glide_ligand_efficiency_ln>
-1.79028085768026

> <r_i_glide_gscore>
-7.32411499220466

> <r_i_glide_lipo>
-4.27822286702633

> <r_i_glide_hbond>
0

> <r_i_glide_metal>
0

> <r_i_glide_rewards>
-1.83688862585419

> <r_i_glide_evdw>
-30.8623199462891

> <r_i_glide_ecoul>
-0.48550871014595

> <r_i_glide_erotb>
0.456248460736019

> <r_i_glide_esite>
-0.0493096562238154

> <r_i_glide_emodel>
-37.8347453591043

> <r_i_glide_energy>
-31.347828656435

> <r_i_glide_einternal>
3.7700080871582

> <i_i_glide_confnum>
1

> <i_i_glide_posenum>
222

> <r_i_glide_eff_state_penalty>
0

> <s_user_duplicate_titles>
CHEMBL221_lig235,57450

> <i_f3d_flags>
0

> <s_m_subgroup_title>
dock_pv

> <s_m_subgroupid>
dock_pv

> <b_m_subgroup_collapsed>
1

$$$$
CHEMBL221_lig990
                    3D
 Schrodinger Suite 2021-1.
 39 41  0  0  1  0            999 V2000
   19.4093   47.7763   15.4787 C   0  0  0  0  0  0
   20.0540   48.8831   15.8799 C   0  0  0  0  0  0
   20.5819   49.8730   14.9895 C   0  0  0  0  0  0
   19.3232   47.3939   14.1008 C   0  0  0  0  0  0
   18.9231   46.2728   13.7999 O   0  0  0  0  0  0
   21.1342   50.8830   15.4210 O   0  0  0  0  0  0
   19.7900   48.3509   13.2267 N   0  0  0  0  0  0
   20.3300   49.6020   13.6709 N   0  0  0  0  0  0
   20.5232   50.4713   12.5064 C   0  0  2  0  0  0
   20.2190   49.5212   11.3610 C   0  0  0  0  0  0
   19.9069   48.3292   11.8730 C   0  0  0  0  0  0
   19.7229   47.1707   11.2111 N   0  0  0  0  0  0
   20.3173   49.9148    9.9543 C   0  0  0  0  0  0
   20.5230   51.0729    9.6435 O   0  0  0  0  0  0
   20.1230   48.9068    9.0618 O   0  0  0  0  0  0
   19.9911   49.1549    7.6608 C   0  0  0  0  0  0
   19.4251   47.9042    6.9998 C   0  0  0  0  0  0
   21.8831   51.1828   12.5148 C   0  0  0  0  0  0
   22.0245   52.4885   13.0002 C   0  0  0  0  0  0
   23.2459   53.1544   12.9122 C   0  0  0  0  0  0
   24.3241   52.5346   12.2860 C   0  0  0  0  0  0
   24.1934   51.2203   11.8399 C   0  0  0  0  0  0
   23.0055   50.5335   12.0309 C   0  0  0  0  0  0
   22.9230   49.1987   11.8000 O   0  0  0  0  0  0
   18.9805   47.1036   16.2065 H   0  0  0  0  0  0
   20.1230   49.1070   16.9282 H   0  0  0  0  0  0
   19.7676   51.2342   12.3704 H   0  0  0  0  0  0
   19.7853   47.1677   10.2023 H   0  0  0  0  0  0
   19.2871   46.3628   11.6461 H   0  0  0  0  0  0
   19.3229   49.9960    7.4804 H   0  0  0  0  0  0
   20.9230   49.4250    7.1872 H   0  0  0  0  0  0
   19.2488   48.0857    5.9400 H   0  0  0  0  0  0
   20.1225   47.0732    7.0880 H   0  0  0  0  0  0
   18.4802   47.6048    7.4523 H   0  0  0  0  0  0
   21.1783   52.9968   13.4386 H   0  0  0  0  0  0
   23.3432   54.1607   13.2942 H   0  0  0  0  0  0
   25.2644   53.0554   12.1795 H   0  0  0  0  0  0
   25.0285   50.7057   11.4000 H   0  0  0  0  0  0
   22.0020   48.9301   11.7491 H   0  0  0  0  0  0
  1  2  2  0  0  0
  1  4  1  0  0  0
  1 25  1  0  0  0
  2  3  1  0  0  0
  2 26  1  0  0  0
  3  8  1  0  0  0
  3  6  2  0  0  0
  4  7  1  0  0  0
  4  5  2  0  0  0
  7  8  1  0  0  0
  7 11  1  0  0  0
  8  9  1  0  0  0
  9 10  1  0  0  0
  9 18  1  0  0  0
  9 27  1  0  0  0
 10 11  2  0  0  0
 10 13  1  0  0  0
 11 12  1  0  0  0
 12 28  1  0  0  0
 12 29  1  0  0  0
 13 14  2  0  0  0
 13 15  1  0  0  0
 15 16  1  0  0  0
 16 17  1  0  0  0
 16 30  1  0  0  0
 16 31  1  0  0  0
 17 32  1  0  0  0
 17 33  1  0  0  0
 17 34  1  0  0  0
 18 19  2  0  0  0
 18 23  1  0  0  0
 19 20  1  0  0  0
 19 35  1  0  0  0
 20 21  2  0  0  0
 20 36  1  0  0  0
 21 22  1  0  0  0
 21 37  1  0  0  0
 22 23  2  0  0  0
 22 38  1  0  0  0
 23 24  1  0  0  0
 24 39  1  0  0  0
M  END
> <s_m_entry_id>
5534

> <s_m_entry_name>
dock_pv.525

> <s_m_Source_Path>
/home/csk/Desktop/cluster/DUD-E-result/pgh1

> <s_m_Source_File>
dock_pv.maegz

> <i_m_Source_File_Index>
525

> <chembl_id>
CHEMBL4074153

> <chembl_pref_name>
None

> <i_lp_mmshare_version>
53161

> <r_lp_tautomer_probability>
0.999999999997365

> <s_lp_Force_Field>
OPLS_2005

> <r_lp_Energy>
39.334143

> <b_lp_Chiralities_Consistent>
1

> <s_lp_Variant>
CHEMBL221_lig990-1

> <s_i_glide_gridfile>
glide-grid_2oyu

> <i_i_glide_lignum>
1231

> <i_i_glide_rotatable_bonds>
5

> <r_i_docking_score>
-7.31947391380495

> <r_i_glide_ligand_efficiency>
-0.304978079741873

> <r_i_glide_ligand_efficiency_sa>
-0.879709007989869

> <r_i_glide_ligand_efficiency_ln>
-1.75188597634593

> <r_i_glide_gscore>
-7.31947391380495

> <r_i_glide_lipo>
-3.76186061234367

> <r_i_glide_hbond>
-0.174510859258808

> <r_i_glide_metal>
0

> <r_i_glide_rewards>
-2.71467618742135

> <r_i_glide_evdw>
-14.1677484512329

> <r_i_glide_ecoul>
-3.1995735168457

> <r_i_glide_erotb>
0.519897195307376

> <r_i_glide_esite>
0

> <r_i_glide_emodel>
-36.5925398668509

> <r_i_glide_energy>
-17.3673219680786

> <r_i_glide_einternal>
3.00636029243469

> <i_i_glide_confnum>
5

> <i_i_glide_posenum>
245

> <r_i_glide_eff_state_penalty>
0

> <s_user_duplicate_titles>
CHEMBL221_lig990

> <i_f3d_flags>
0

> <s_m_subgroup_title>
dock_pv

> <s_m_subgroupid>
dock_pv

> <b_m_subgroup_collapsed>
1

$$$$
CHEMBL221_lig881
                    3D
 Schrodinger Suite 2021-1.
 31 31  0  0  1  0            999 V2000
   21.5864   51.0283   11.3775 C   0  0  0  0  0  0
   20.0182   49.2630   10.9173 C   0  0  0  0  0  0
   20.8551   50.2740   10.4670 C   0  0  0  0  0  0
   20.6300   49.7655   13.2030 C   0  0  0  0  0  0
   19.8842   48.9982   12.2844 C   0  0  0  0  0  0
   21.4850   50.7927   12.7533 C   0  0  0  0  0  0
   22.2568   51.6846   13.7449 C   0  0  0  0  0  0
   18.9431   47.8587   12.7086 C   0  0  0  0  0  0
   20.5231   49.5066   14.5462 O   0  0  0  0  0  0
   21.3492   52.7807   14.3179 C   0  0  0  0  0  0
   17.7682   48.3017   13.6050 C   0  0  0  0  0  0
   19.7134   46.6730   13.2993 C   0  0  0  0  0  0
   23.5760   52.2688   13.1925 C   0  0  0  0  0  0
   22.2162   51.8177   10.9989 H   0  0  0  0  0  0
   19.4612   48.6887   10.1914 H   0  0  0  0  0  0
   20.9225   50.4813    9.4087 H   0  0  0  0  0  0
   22.5534   51.0725   14.5923 H   0  0  0  0  0  0
   18.4751   47.4731   11.8007 H   0  0  0  0  0  0
   19.8497   48.8444   14.7154 H   0  0  0  0  0  0
   20.5231   52.3346   14.8739 H   0  0  0  0  0  0
   20.9343   53.4084   13.5291 H   0  0  0  0  0  0
   21.8930   53.4331   15.0003 H   0  0  0  0  0  0
   17.1744   49.0729   13.1199 H   0  0  0  0  0  0
   17.0891   47.4728   13.8023 H   0  0  0  0  0  0
   18.0865   48.6837   14.5725 H   0  0  0  0  0  0
   20.4820   46.3403   12.6000 H   0  0  0  0  0  0
   20.1893   46.9238   14.2461 H   0  0  0  0  0  0
   19.0433   45.8307   13.4780 H   0  0  0  0  0  0
   24.1763   51.4971   12.7085 H   0  0  0  0  0  0
   23.4001   53.0661   12.4688 H   0  0  0  0  0  0
   24.1840   52.6897   13.9924 H   0  0  0  0  0  0
  1  3  1  0  0  0
  1  6  2  0  0  0
  1 14  1  0  0  0
  2  3  2  0  0  0
  2  5  1  0  0  0
  2 15  1  0  0  0
  3 16  1  0  0  0
  4  6  1  0  0  0
  4  5  2  0  0  0
  4  9  1  0  0  0
  5  8  1  0  0  0
  6  7  1  0  0  0
  7 10  1  0  0  0
  7 13  1  0  0  0
  7 17  1  0  0  0
  8 11  1  0  0  0
  8 12  1  0  0  0
  8 18  1  0  0  0
  9 19  1  0  0  0
 10 20  1  0  0  0
 10 21  1  0  0  0
 10 22  1  0  0  0
 11 23  1  0  0  0
 11 24  1  0  0  0
 11 25  1  0  0  0
 12 26  1  0  0  0
 12 27  1  0  0  0
 12 28  1  0  0  0
 13 29  1  0  0  0
 13 30  1  0  0  0
 13 31  1  0  0  0
M  END
> <s_m_entry_id>
5535

> <s_m_entry_name>
dock_pv.526

> <s_m_Source_Path>
/home/csk/Desktop/cluster/DUD-E-result/pgh1

> <s_m_Source_File>
dock_pv.maegz

> <i_m_Source_File_Index>
526

> <chembl_id>
CHEMBL526

> <chembl_pref_name>
PROPOFOL

> <i_lp_mmshare_version>
53161

> <r_lp_tautomer_probability>
0.999999999997365

> <s_lp_Force_Field>
OPLS_2005

> <r_lp_Energy>
8.40352

> <b_lp_Chiralities_Consistent>
1

> <s_lp_Variant>
CHEMBL221_lig881-1

> <s_i_glide_gridfile>
glide-grid_2oyu

> <i_i_glide_lignum>
1087

> <i_i_glide_rotatable_bonds>
3

> <r_i_docking_score>
-7.31936136834174

> <r_i_glide_ligand_efficiency>
-0.563027797564749

> <r_i_glide_ligand_efficiency_sa>
-1.32386678943313

> <r_i_glide_ligand_efficiency_ln>
-2.05314595928891

> <r_i_glide_gscore>
-7.31936136834174

> <r_i_glide_lipo>
-3.2536265572475

> <r_i_glide_hbond>
0

> <r_i_glide_metal>
0

> <r_i_glide_rewards>
-2.83443414789124

> <r_i_glide_evdw>
-24.7996006011963

> <r_i_glide_ecoul>
0.0578624457120895

> <r_i_glide_erotb>
0

> <r_i_glide_esite>
0

> <r_i_glide_emodel>
-35.0419995772683

> <r_i_glide_energy>
-24.7417381554842

> <r_i_glide_einternal>
0.726182579994202

> <i_i_glide_confnum>
1

> <i_i_glide_posenum>
249

> <r_i_glide_eff_state_penalty>
0

> <s_user_duplicate_titles>
CHEMBL221_lig881

> <i_f3d_flags>
0

> <s_m_subgroup_title>
dock_pv

> <s_m_subgroupid>
dock_pv

> <b_m_subgroup_collapsed>
1

$$$$
CHEMBL221_lig656
                    3D
 Schrodinger Suite 2021-1.
 45 46  0  0  1  0            999 V2000
   22.0059   51.4804   14.7005 C   0  0  0  0  0  0
   21.8795   50.8817   13.4502 C   0  0  0  0  0  0
   20.8691   49.9093   13.2561 C   0  0  0  0  0  0
   20.1852   49.3962   14.3891 C   0  0  0  0  0  0
   20.5223   49.8735   15.6627 C   0  0  0  0  0  0
   21.3230   50.9838   15.8003 C   0  0  0  0  0  0
   20.4878   49.5445   11.8502 C   0  0  0  0  0  0
   20.5426   50.5307   10.8563 C   0  0  0  0  0  0
   20.3782   50.2334    9.5151 C   0  0  0  0  0  0
   20.0315   48.9444    9.1024 C   0  0  0  0  0  0
   19.7230   48.0276   10.1232 C   0  0  0  0  0  0
   20.0684   48.2692   11.4502 C   0  0  0  0  0  0
   20.0570   47.2148   12.2986 F   0  0  0  0  0  0
   19.7010   48.5679    7.6195 C   0  0  2  0  0  0
   19.8050   47.0732    7.4136 C   0  0  0  0  0  0
   20.3385   49.3589    6.4642 C   0  0  0  0  0  0
   20.1230   50.6730    6.6000 O   0  0  0  0  0  0
   20.9230   48.8768    5.5003 O   0  0  0  0  0  0
   22.7000   51.2345   12.3889 O   0  0  0  0  0  0
   23.7786   52.1489   12.5648 C   0  0  0  0  0  0
   24.6422   52.1042   11.3017 C   0  0  0  0  0  0
   19.1423   48.4997   14.2225 O   0  0  0  0  0  0
   18.3046   48.1531   15.3258 C   0  0  0  0  0  0
   17.2509   47.1486   14.8622 C   0  0  0  0  0  0
   22.6753   52.3102   14.8544 H   0  0  0  0  0  0
   20.0429   49.5076   16.5557 H   0  0  0  0  0  0
   21.4349   51.4259   16.7770 H   0  0  0  0  0  0
   20.7852   51.5494   11.1032 H   0  0  0  0  0  0
   20.5168   51.0551    8.8354 H   0  0  0  0  0  0
   19.3294   47.0549    9.8940 H   0  0  0  0  0  0
   18.6531   48.7648    7.3998 H   0  0  0  0  0  0
   20.5227   46.6446    8.1088 H   0  0  0  0  0  0
   18.8154   46.6730    7.6281 H   0  0  0  0  0  0
   20.1230   46.7937    6.4091 H   0  0  0  0  0  0
   19.4091   50.9170    7.1999 H   0  0  0  0  0  0
   23.4009   53.1588   12.7320 H   0  0  0  0  0  0
   24.3926   51.8734   13.4224 H   0  0  0  0  0  0
   25.5620   52.6729   11.4305 H   0  0  0  0  0  0
   24.9229   51.0791   11.0614 H   0  0  0  0  0  0
   24.1121   52.5125   10.4420 H   0  0  0  0  0  0
   18.8851   47.7004   16.1313 H   0  0  0  0  0  0
   17.8122   49.0450   15.7181 H   0  0  0  0  0  0
   16.5266   46.9504   15.6519 H   0  0  0  0  0  0
   16.7056   47.5181   13.9928 H   0  0  0  0  0  0
   17.7197   46.2011   14.5994 H   0  0  0  0  0  0
  1  6  1  0  0  0
  1  2  2  0  0  0
  1 25  1  0  0  0
  2 19  1  0  0  0
  2  3  1  0  0  0
  3  7  1  0  0  0
  3  4  2  0  0  0
  4  5  1  0  0  0
  4 22  1  0  0  0
  5  6  2  0  0  0
  5 26  1  0  0  0
  6 27  1  0  0  0
  7 12  1  0  0  0
  7  8  2  0  0  0
  8  9  1  0  0  0
  8 28  1  0  0  0
  9 10  2  0  0  0
  9 29  1  0  0  0
 10 14  1  0  0  0
 10 11  1  0  0  0
 11 12  2  0  0  0
 11 30  1  0  0  0
 12 13  1  0  0  0
 14 15  1  0  0  0
 14 16  1  0  0  0
 14 31  1  0  0  0
 15 32  1  0  0  0
 15 33  1  0  0  0
 15 34  1  0  0  0
 16 17  1  0  0  0
 16 18  2  0  0  0
 17 35  1  0  0  0
 19 20  1  0  0  0
 20 21  1  0  0  0
 20 36  1  0  0  0
 20 37  1  0  0  0
 21 38  1  0  0  0
 21 39  1  0  0  0
 21 40  1  0  0  0
 22 23  1  0  0  0
 23 24  1  0  0  0
 23 41  1  0  0  0
 23 42  1  0  0  0
 24 43  1  0  0  0
 24 44  1  0  0  0
 24 45  1  0  0  0
M  END
> <s_m_entry_id>
5536

> <s_m_entry_name>
dock_pv.527

> <s_m_Source_Path>
/home/csk/Desktop/cluster/DUD-E-result/pgh1

> <s_m_Source_File>
dock_pv.maegz

> <i_m_Source_File_Index>
527

> <chembl_id>
CHEMBL257539

> <chembl_pref_name>
None

> <i_lp_mmshare_version>
53161

> <r_lp_tautomer_probability>
1

> <s_lp_Force_Field>
OPLS_2005

> <r_lp_Energy>
24.227621

> <b_lp_Chiralities_Consistent>
1

> <s_lp_Variant>
CHEMBL221_lig656-1

> <s_i_glide_gridfile>
glide-grid_2oyu

> <i_i_glide_lignum>
797

> <i_i_glide_rotatable_bonds>
8

> <r_i_docking_score>
-7.31637539863955

> <r_i_glide_ligand_efficiency>
-0.304848974943315

> <r_i_glide_ligand_efficiency_sa>
-0.879336605309772

> <r_i_glide_ligand_efficiency_ln>
-1.75114435948525

> <r_i_glide_gscore>
-7.31637539863955

> <r_i_glide_lipo>
-4.73334170174192

> <r_i_glide_hbond>
0

> <r_i_glide_metal>
0

> <r_i_glide_rewards>
-1.95755565706344

> <r_i_glide_evdw>
-17.7191371917725

> <r_i_glide_ecoul>
-3.91253304481506

> <r_i_glide_erotb>
0.85244793672031

> <r_i_glide_esite>
-0.00508916024361802

> <r_i_glide_emodel>
-20.2151101318861

> <r_i_glide_energy>
-21.6316702365875

> <r_i_glide_einternal>
13.8853874206543

> <i_i_glide_confnum>
82

> <i_i_glide_posenum>
203

> <r_i_glide_eff_state_penalty>
0

> <s_user_duplicate_titles>
CHEMBL221_lig656

> <i_f3d_flags>
0

> <s_m_subgroup_title>
dock_pv

> <s_m_subgroupid>
dock_pv

> <b_m_subgroup_collapsed>
1

$$$$
CHEMBL221_lig820
                    3D
 Schrodinger Suite 2021-1.
 30 31  0  0  1  0            999 V2000
   18.8834   47.9938   15.4311 C   0  0  0  0  0  0
   18.8337   47.0808   14.3702 C   0  0  0  0  0  0
   19.6380   47.2764   13.2500 C   0  0  0  0  0  0
   19.7599   49.0730   15.3887 C   0  0  0  0  0  0
   20.5230   49.2989   14.2583 C   0  0  0  0  0  0
   20.4693   48.3892   13.2054 C   0  0  0  0  0  0
   21.3228   48.5178   12.1395 O   0  0  0  0  0  0
   21.6355   49.8583   11.7188 C   0  0  2  0  0  0
   21.9036   50.7970   12.9196 C   0  0  0  0  0  0
   21.3496   50.4899   14.1102 C   0  0  0  0  0  0
   20.5147   50.3731   10.7934 C   0  0  0  0  0  0
   20.2257   49.4936    9.8335 F   0  0  0  0  0  0
   19.3823   50.6707   11.4297 F   0  0  0  0  0  0
   20.9230   51.4730   10.2000 F   0  0  0  0  0  0
   22.7872   51.9336   12.7309 C   0  0  0  0  0  0
   23.5672   52.0515   11.7902 O   0  0  0  0  0  0
   22.6685   52.8813   13.7030 O   0  0  0  0  0  0
   17.9743   47.8995   16.6270 C   0  0  0  0  0  0
   16.5591   47.4730   16.3150 C   0  0  0  0  0  0
   18.1693   46.2317   14.3998 H   0  0  0  0  0  0
   19.6097   46.5855   12.4207 H   0  0  0  0  0  0
   19.7978   49.7789   16.2065 H   0  0  0  0  0  0
   22.5426   49.7554   11.1214 H   0  0  0  0  0  0
   21.5318   51.1069   14.9803 H   0  0  0  0  0  0
   23.2862   53.6011   13.5584 H   0  0  0  0  0  0
   18.4320   47.2870   17.4000 H   0  0  0  0  0  0
   17.8564   48.9139   17.0000 H   0  0  0  0  0  0
   16.0130   47.4107   17.2582 H   0  0  0  0  0  0
   16.1230   48.2254   15.6606 H   0  0  0  0  0  0
   16.4918   46.5146   15.8000 H   0  0  0  0  0  0
  1  2  2  0  0  0
  1  4  1  0  0  0
  1 18  1  0  0  0
  2  3  1  0  0  0
  2 20  1  0  0  0
  3  6  2  0  0  0
  3 21  1  0  0  0
  4  5  2  0  0  0
  4 22  1  0  0  0
  5  6  1  0  0  0
  5 10  1  0  0  0
  6  7  1  0  0  0
  7  8  1  0  0  0
  8  9  1  0  0  0
  8 11  1  0  0  0
  8 23  1  0  0  0
  9 10  2  0  0  0
  9 15  1  0  0  0
 10 24  1  0  0  0
 11 12  1  0  0  0
 11 13  1  0  0  0
 11 14  1  0  0  0
 15 16  2  0  0  0
 15 17  1  0  0  0
 17 25  1  0  0  0
 18 19  1  0  0  0
 18 26  1  0  0  0
 18 27  1  0  0  0
 19 28  1  0  0  0
 19 29  1  0  0  0
 19 30  1  0  0  0
M  END
> <s_m_entry_id>
5537

> <s_m_entry_name>
dock_pv.528

> <s_m_Source_Path>
/home/csk/Desktop/cluster/DUD-E-result/pgh1

> <s_m_Source_File>
dock_pv.maegz

> <i_m_Source_File_Index>
528

> <chembl_id>
CHEMBL1288539

> <chembl_pref_name>
None

> <i_lp_mmshare_version>
53161

> <r_lp_tautomer_probability>
1

> <s_lp_Force_Field>
OPLS_2005

> <r_lp_Energy>
11.477942

> <b_lp_Chiralities_Consistent>
1

> <s_lp_Variant>
CHEMBL221_lig820-1

> <s_i_glide_gridfile>
glide-grid_2oyu

> <i_i_glide_lignum>
994

> <i_i_glide_rotatable_bonds>
4

> <r_i_docking_score>
-7.3027865528629

> <r_i_glide_ligand_efficiency>
-0.384357186992784

> <r_i_glide_ligand_efficiency_sa>
-1.02561935046305

> <r_i_glide_ligand_efficiency_ln>
-1.85141324062419

> <r_i_glide_gscore>
-7.3027865528629

> <r_i_glide_lipo>
-2.6620144181266

> <r_i_glide_hbond>
0

> <r_i_glide_metal>
0

> <r_i_glide_rewards>
-3.77420435703757

> <r_i_glide_evdw>
-20.3559379577637

> <r_i_glide_ecoul>
-0.60377049446106

> <r_i_glide_erotb>
0.24179469435862

> <r_i_glide_esite>
0

> <r_i_glide_emodel>
-26.4142205593381

> <r_i_glide_energy>
-20.9597084522247

> <r_i_glide_einternal>
0.746444761753082

> <i_i_glide_confnum>
2

> <i_i_glide_posenum>
148

> <r_i_glide_eff_state_penalty>
0

> <s_user_duplicate_titles>
CHEMBL221_lig820

> <i_f3d_flags>
0

> <s_m_subgroup_title>
dock_pv

> <s_m_subgroupid>
dock_pv

> <b_m_subgroup_collapsed>
1

$$$$
CHEMBL221_lig1016 
                    3D
 Schrodinger Suite 2021-1.
 28 29  0  0  1  0            999 V2000
   18.6533   48.3279   13.1541 C   0  0  0  0  0  0
   19.8593   48.8745   13.7344 C   0  0  0  0  0  0
   20.0191   48.7982   15.0155 N   0  0  0  0  0  0
   19.0048   48.2730   15.8000 N   0  0  0  0  0  0
   17.7829   47.8283   15.4000 C   0  0  0  0  0  0
   17.6628   47.8495   13.9489 C   0  0  0  0  0  0
   20.8345   49.5130   12.9154 C   0  0  0  0  0  0
   21.7230   50.4209   13.3705 C   0  0  0  0  0  0
   22.7639   51.0899   12.5860 C   0  0  0  0  0  0
   16.9230   47.4730   16.1930 O   0  0  0  0  0  0
   23.0639   50.7106   11.2738 C   0  0  0  0  0  0
   24.1230   51.3066   10.6001 C   0  0  0  0  0  0
   24.8979   52.2730   11.2287 C   0  0  0  0  0  0
   24.5804   52.6954   12.5210 C   0  0  0  0  0  0
   23.5042   52.1116   13.1887 C   0  0  0  0  0  0
   25.4157   53.7518   13.2187 C   0  0  0  0  0  0
   18.5228   48.3061   12.0830 H   0  0  0  0  0  0
   19.1873   48.2762   16.7924 H   0  0  0  0  0  0
   16.7491   47.4730   13.5140 H   0  0  0  0  0  0
   20.8018   49.2223   11.8770 H   0  0  0  0  0  0
   21.6994   50.6920   14.4183 H   0  0  0  0  0  0
   22.5134   49.9313   10.7703 H   0  0  0  0  0  0
   24.3784   50.9874    9.6004 H   0  0  0  0  0  0
   25.7538   52.6730   10.7068 H   0  0  0  0  0  0
   23.2802   52.4233   14.1999 H   0  0  0  0  0  0
   24.7801   54.4211   13.8000 H   0  0  0  0  0  0
   26.1230   53.2692   13.8909 H   0  0  0  0  0  0
   25.9706   54.3765   12.5205 H   0  0  0  0  0  0
  1  2  1  0  0  0
  1  6  2  0  0  0
  1 17  1  0  0  0
  2  3  2  0  0  0
  2  7  1  0  0  0
  3  4  1  0  0  0
  4  5  1  0  0  0
  4 18  1  0  0  0
  5  6  1  0  0  0
  5 10  2  0  0  0
  6 19  1  0  0  0
  7  8  2  0  0  0
  7 20  1  0  0  0
  8  9  1  0  0  0
  8 21  1  0  0  0
  9 11  2  0  0  0
  9 15  1  0  0  0
 11 12  1  0  0  0
 11 22  1  0  0  0
 12 13  2  0  0  0
 12 23  1  0  0  0
 13 14  1  0  0  0
 13 24  1  0  0  0
 14 15  2  0  0  0
 14 16  1  0  0  0
 15 25  1  0  0  0
 16 26  1  0  0  0
 16 27  1  0  0  0
 16 28  1  0  0  0
M  END
> <s_m_entry_id>
5538

> <s_m_entry_name>
dock_pv.529

> <s_m_Source_Path>
/home/csk/Desktop/cluster/DUD-E-result/pgh1

> <s_m_Source_File>
dock_pv.maegz

> <i_m_Source_File_Index>
529

> <chembl_id>
CHEMBL4442101

> <chembl_pref_name>
None

> <i_lp_mmshare_version>
53161

> <r_lp_tautomer_probability>
1

> <s_lp_Force_Field>
OPLS_2005

> <r_lp_Energy>
26.432099

> <b_lp_Chiralities_Consistent>
1

> <s_lp_Variant>
CHEMBL221_lig1016 -1

> <s_i_glide_gridfile>
glide-grid_2oyu

> <i_i_glide_lignum>
1270

> <i_i_glide_rotatable_bonds>
2

> <r_i_docking_score>
-7.28948851619752

> <r_i_glide_ligand_efficiency>
-0.455593032262345

> <r_i_glide_ligand_efficiency_sa>
-1.14802250200453

> <r_i_glide_ligand_efficiency_ln>
-1.93222454205657

> <r_i_glide_gscore>
-7.28948851619752

> <r_i_glide_lipo>
-3.73085351462668

> <r_i_glide_hbond>
0

> <r_i_glide_metal>
0

> <r_i_glide_rewards>
-2.71180224322466

> <r_i_glide_evdw>
-30.49241065979

> <r_i_glide_ecoul>
-0.410477817058563

> <r_i_glide_erotb>
0.739359447202107

> <r_i_glide_esite>
0

> <r_i_glide_emodel>
-42.0475100692772

> <r_i_glide_energy>
-30.9028884768486

> <r_i_glide_einternal>
2.29581928253174

> <i_i_glide_confnum>
6

> <i_i_glide_posenum>
81

> <r_i_glide_eff_state_penalty>
0

> <s_user_duplicate_titles>
CHEMBL221_lig1016 

> <i_f3d_flags>
0

> <s_m_subgroup_title>
dock_pv

> <s_m_subgroupid>
dock_pv

> <b_m_subgroup_collapsed>
1

$$$$
CHEMBL221_lig726
                    3D
 Schrodinger Suite 2021-1.
 42 43  0  0  1  0            999 V2000
   20.6149   49.8326   14.3664 C   0  0  0  0  0  0
   21.0028   50.1714   13.1149 C   0  0  0  0  0  0
   19.4599   48.9259   14.5531 C   0  0  0  0  0  0
   22.0910   51.0557   12.7483 C   0  0  0  0  0  0
   18.5323   48.6732   13.5299 C   0  0  0  0  0  0
   17.2970   48.1437   13.8460 C   0  0  0  0  0  0
   17.0422   47.6679   15.1153 C   0  0  0  0  0  0
   17.9180   47.9456   16.1323 C   0  0  0  0  0  0
   19.1568   48.4759   15.8363 C   0  0  0  0  0  0
   23.0226   50.5555   11.8544 C   0  0  0  0  0  0
   23.4318   53.0088   13.1063 C   0  0  0  0  0  0
   22.2501   52.3180   13.3143 C   0  0  0  0  0  0
   21.3231   50.3495   15.6393 C   0  0  0  0  0  0
   20.5643   51.2793   16.6001 C   0  0  0  0  0  0
   17.4737   47.8729   17.4154 O   0  0  0  0  0  0
   16.2464   48.2730   13.0000 O   0  0  0  0  0  0
   24.4471   52.4624   12.3051 C   0  0  0  0  0  0
   24.1868   51.2606   11.6337 C   0  0  0  0  0  0
   25.7230   53.0729   12.1999 N   0  0  0  0  0  0
   26.5181   52.7780   10.9771 C   0  0  0  0  0  0
   25.9301   54.3249   12.9408 C   0  0  0  0  0  0
   20.4980   49.7750   12.2504 H   0  0  0  0  0  0
   18.6509   49.0695   12.5384 H   0  0  0  0  0  0
   16.1230   47.2014   15.3510 H   0  0  0  0  0  0
   19.8185   48.6727   16.6521 H   0  0  0  0  0  0
   22.8914   49.5854   11.3977 H   0  0  0  0  0  0
   23.5481   53.9483   13.6236 H   0  0  0  0  0  0
   21.5022   52.7293   13.9765 H   0  0  0  0  0  0
   21.7231   49.5018   16.1957 H   0  0  0  0  0  0
   22.1836   50.9328   15.3588 H   0  0  0  0  0  0
   21.1820   51.4746   17.4762 H   0  0  0  0  0  0
   20.3892   52.2360   16.1147 H   0  0  0  0  0  0
   19.6304   50.8826   16.9983 H   0  0  0  0  0  0
   16.5646   47.5687   17.4613 H   0  0  0  0  0  0
   16.3452   48.7814   12.1910 H   0  0  0  0  0  0
   24.9227   50.8031   10.9978 H   0  0  0  0  0  0
   25.8207   52.6496   10.1535 H   0  0  0  0  0  0
   27.1801   53.5715   10.6245 H   0  0  0  0  0  0
   27.1115   51.8730   11.0011 H   0  0  0  0  0  0
   25.2379   55.0944   12.5998 H   0  0  0  0  0  0
   25.7227   54.1780   14.0010 H   0  0  0  0  0  0
   26.9227   54.7448   12.8524 H   0  0  0  0  0  0
  1  3  1  0  0  0
  1  2  2  0  0  0
  1 13  1  0  0  0
  2  4  1  0  0  0
  2 22  1  0  0  0
  3  9  1  0  0  0
  3  5  2  0  0  0
  4 12  1  0  0  0
  4 10  2  0  0  0
  5  6  1  0  0  0
  5 23  1  0  0  0
  6  7  2  0  0  0
  6 16  1  0  0  0
  7  8  1  0  0  0
  7 24  1  0  0  0
  8 15  1  0  0  0
  8  9  2  0  0  0
  9 25  1  0  0  0
 10 18  1  0  0  0
 10 26  1  0  0  0
 11 17  1  0  0  0
 11 12  2  0  0  0
 11 27  1  0  0  0
 12 28  1  0  0  0
 13 14  1  0  0  0
 13 29  1  0  0  0
 13 30  1  0  0  0
 14 31  1  0  0  0
 14 32  1  0  0  0
 14 33  1  0  0  0
 15 34  1  0  0  0
 16 35  1  0  0  0
 17 18  2  0  0  0
 17 19  1  0  0  0
 18 36  1  0  0  0
 19 20  1  0  0  0
 19 21  1  0  0  0
 20 37  1  0  0  0
 20 38  1  0  0  0
 20 39  1  0  0  0
 21 40  1  0  0  0
 21 41  1  0  0  0
 21 42  1  0  0  0
M  END
> <s_m_entry_id>
5539

> <s_m_entry_name>
dock_pv.530

> <s_m_Source_Path>
/home/csk/Desktop/cluster/DUD-E-result/pgh1

> <s_m_Source_File>
dock_pv.maegz

> <i_m_Source_File_Index>
530

> <chembl_id>
CHEMBL470938

> <chembl_pref_name>
None

> <i_lp_mmshare_version>
53161

> <r_lp_tautomer_probability>
1

> <s_lp_Force_Field>
OPLS_2005

> <r_lp_Energy>
22.219354

> <b_lp_Chiralities_Consistent>
1

> <s_lp_Variant>
CHEMBL221_lig726-1

> <s_i_glide_gridfile>
glide-grid_2oyu

> <i_i_glide_lignum>
895

> <i_i_glide_rotatable_bonds>
6

> <r_i_docking_score>
-7.28118006375783

> <r_i_glide_ligand_efficiency>
-0.346722860178944

> <r_i_glide_ligand_efficiency_sa>
-0.956582080480922

> <r_i_glide_ligand_efficiency_ln>
-1.80025705775445

> <r_i_glide_gscore>
-7.28118006375783

> <r_i_glide_lipo>
-4.34155167263975

> <r_i_glide_hbond>
-0.228783689112383

> <r_i_glide_metal>
0

> <r_i_glide_rewards>
-2.24647469335499

> <r_i_glide_evdw>
-12.1959562301636

> <r_i_glide_ecoul>
-3.54111790657043

> <r_i_glide_erotb>
0.676595488843032

> <r_i_glide_esite>
0

> <r_i_glide_emodel>
-26.8974743412165

> <r_i_glide_energy>
-15.737074136734

> <r_i_glide_einternal>
5.34449815750122

> <i_i_glide_confnum>
40

> <i_i_glide_posenum>
197

> <r_i_glide_eff_state_penalty>
0

> <s_user_duplicate_titles>
CHEMBL221_lig726

> <i_f3d_flags>
0

> <s_m_subgroup_title>
dock_pv

> <s_m_subgroupid>
dock_pv

> <b_m_subgroup_collapsed>
1

$$$$
CHEMBL221_lig565
                    3D
 Schrodinger Suite 2021-1.
 42 44  0  0  1  0            999 V2000
   20.5331   49.8477   13.5796 C   0  0  0  0  0  0
   19.7530   48.7745   13.1801 C   0  0  0  0  0  0
   21.2295   50.6731   12.6754 C   0  0  0  0  0  0
   20.5275   50.0100   14.9410 O   0  0  0  0  0  0
   20.2908   49.2701   10.8742 C   0  0  0  0  0  0
   19.6465   48.4708   11.8244 C   0  0  0  0  0  0
   21.0739   50.3498   11.3116 C   0  0  0  0  0  0
   20.1230   49.0398    9.4021 C   0  0  0  0  0  0
   19.1541   48.1082   14.3903 C   0  0  0  0  0  0
   19.7230   47.4730    8.7276 S   0  0  0  0  0  0
   22.1032   51.8860   13.1317 C   0  0  0  0  0  0
   19.7228   48.9914   15.5284 C   0  0  0  0  0  0
   20.1230   49.9907    8.3851 C   0  0  0  0  0  0
   19.7230   48.1115    7.1168 C   0  0  0  0  0  0
   19.9314   49.4730    7.0992 C   0  0  0  0  0  0
   19.6655   46.6730   14.5142 C   0  0  0  0  0  0
   17.6097   48.0844   14.3632 C   0  0  0  0  0  0
   23.1004   51.4641   14.2000 C   0  0  0  0  0  0
   21.2394   52.9916   13.8000 C   0  0  0  0  0  0
   23.0263   52.4474   12.0093 C   0  0  0  0  0  0
   19.0325   47.6399   11.5076 H   0  0  0  0  0  0
   21.5596   50.9335   10.5493 H   0  0  0  0  0  0
   18.9350   49.4422   16.1333 H   0  0  0  0  0  0
   20.3591   48.4145   16.2000 H   0  0  0  0  0  0
   20.2683   51.0463    8.5625 H   0  0  0  0  0  0
   19.5576   47.4730    6.2674 H   0  0  0  0  0  0
   19.9298   50.0758    6.2023 H   0  0  0  0  0  0
   19.3235   46.2046   15.4378 H   0  0  0  0  0  0
   20.7530   46.6730   14.5151 H   0  0  0  0  0  0
   19.3230   46.0567   13.6810 H   0  0  0  0  0  0
   17.2014   47.6507   15.2771 H   0  0  0  0  0  0
   17.1781   49.0730   14.2625 H   0  0  0  0  0  0
   17.2351   47.4921   13.5280 H   0  0  0  0  0  0
   23.7230   50.6730   13.8000 H   0  0  0  0  0  0
   23.7552   52.2730   14.5210 H   0  0  0  0  0  0
   22.5770   51.0868   15.0731 H   0  0  0  0  0  0
   20.2353   53.0730   13.4000 H   0  0  0  0  0  0
   21.0775   52.7900   14.8605 H   0  0  0  0  0  0
   21.7092   53.9744   13.7419 H   0  0  0  0  0  0
   22.5230   52.6730   11.0843 H   0  0  0  0  0  0
   23.5422   53.3559   12.3242 H   0  0  0  0  0  0
   23.8001   51.7288   11.7319 H   0  0  0  0  0  0
  1  2  2  0  0  0
  1  3  1  0  0  0
  1  4  1  0  0  0
  2  6  1  0  0  0
  2  9  1  0  0  0
  3  7  2  0  0  0
  3 11  1  0  0  0
  4 12  1  0  0  0
  5  7  1  0  0  0
  5  8  1  0  0  0
  5  6  2  0  0  0
  6 21  1  0  0  0
  7 22  1  0  0  0
  8 10  1  0  0  0
  8 13  2  0  0  0
  9 16  1  0  0  0
  9 17  1  0  0  0
  9 12  1  0  0  0
 10 14  1  0  0  0
 11 18  1  0  0  0
 11 19  1  0  0  0
 11 20  1  0  0  0
 12 23  1  0  0  0
 12 24  1  0  0  0
 13 15  1  0  0  0
 13 25  1  0  0  0
 14 15  2  0  0  0
 14 26  1  0  0  0
 15 27  1  0  0  0
 16 28  1  0  0  0
 16 29  1  0  0  0
 16 30  1  0  0  0
 17 31  1  0  0  0
 17 32  1  0  0  0
 17 33  1  0  0  0
 18 34  1  0  0  0
 18 35  1  0  0  0
 18 36  1  0  0  0
 19 37  1  0  0  0
 19 38  1  0  0  0
 19 39  1  0  0  0
 20 40  1  0  0  0
 20 41  1  0  0  0
 20 42  1  0  0  0
M  END
> <s_m_entry_id>
5540

> <s_m_entry_name>
dock_pv.531

> <s_m_Source_Path>
/home/csk/Desktop/cluster/DUD-E-result/pgh1

> <s_m_Source_File>
dock_pv.maegz

> <i_m_Source_File_Index>
531

> <chembl_id>
CHEMBL118839

> <chembl_pref_name>
None

> <i_lp_mmshare_version>
53161

> <r_lp_tautomer_probability>
1

> <s_lp_Force_Field>
OPLS_2005

> <r_lp_Energy>
23.905461

> <b_lp_Chiralities_Consistent>
1

> <s_lp_Variant>
CHEMBL221_lig565-1

> <s_i_glide_gridfile>
glide-grid_2oyu

> <i_i_glide_lignum>
703

> <i_i_glide_rotatable_bonds>
2

> <r_i_docking_score>
-7.27567596826239

> <r_i_glide_ligand_efficiency>
-0.36378379841312

> <r_i_glide_ligand_efficiency_sa>
-0.987461150058326

> <r_i_glide_ligand_efficiency_ln>
-1.82086172700231

> <r_i_glide_gscore>
-7.27567596826239

> <r_i_glide_lipo>
-4.40999509760403

> <r_i_glide_hbond>
0

> <r_i_glide_metal>
0

> <r_i_glide_rewards>
-2.08027769906983

> <r_i_glide_evdw>
-20.2975044250488

> <r_i_glide_ecoul>
0.054180484265089

> <r_i_glide_erotb>
0.221344977024143

> <r_i_glide_esite>
0

> <r_i_glide_emodel>
-24.6773941487631

> <r_i_glide_energy>
-20.2433239407837

> <r_i_glide_einternal>
1.39058351516724

> <i_i_glide_confnum>
3

> <i_i_glide_posenum>
32

> <r_i_glide_eff_state_penalty>
0

> <s_user_duplicate_titles>
CHEMBL221_lig565,194491

> <i_f3d_flags>
0

> <s_m_subgroup_title>
dock_pv

> <s_m_subgroupid>
dock_pv

> <b_m_subgroup_collapsed>
1

$$$$
CHEMBL221_lig587
                    3D
 Schrodinger Suite 2021-1.
 44 47  0  0  1  0            999 V2000
   18.3841   47.9526   13.5706 N   0  0  0  0  0  0
   18.5230   47.8730   12.2412 N   0  0  0  0  0  0
   19.5955   48.5443   11.9065 C   0  0  0  0  0  0
   20.2370   49.0609   13.0441 C   0  0  0  0  0  0
   19.4998   48.5515   14.1473 C   0  0  0  0  0  0
   24.5873   53.1396   13.1363 S   0  0  0  0  0  0
   17.2970   47.4730   14.1963 N   0  0  0  0  0  0
   21.3715   49.9897   13.1207 C   0  0  0  0  0  0
   19.8406   48.7451   10.4407 C   0  0  0  0  0  0
   23.4131   51.8263   13.2415 C   0  0  0  0  0  0
   19.5464   48.5341   15.5537 C   0  0  0  0  0  0
   25.5771   53.0730   14.2000 O   0  0  0  0  0  0
   25.0695   53.0730   11.7737 O   0  0  0  0  0  0
   17.3743   47.4799   15.5412 C   0  0  0  0  0  0
   18.4758   47.9527   16.2384 C   0  0  0  0  0  0
   21.3821   50.9469   14.1380 C   0  0  0  0  0  0
   22.4138   49.9065   12.2000 C   0  0  0  0  0  0
   22.4076   51.8730   14.2000 C   0  0  0  0  0  0
   23.4345   50.8371   12.2535 C   0  0  0  0  0  0
   19.6681   47.6827    9.5412 C   0  0  0  0  0  0
   20.1230   50.0182    9.9402 C   0  0  0  0  0  0
   23.5408   54.6637   13.4034 C   0  0  0  0  0  0
   19.9739   49.1611    7.6735 C   0  0  0  0  0  0
   19.7230   47.8859    8.1679 C   0  0  0  0  0  0
   20.1230   50.2265    8.5638 C   0  0  0  0  0  0
   20.0495   49.3807    6.3229 O   0  0  0  0  0  0
   18.7956   49.3419    5.6531 C   0  0  0  0  0  0
   20.3843   48.9512   16.0933 H   0  0  0  0  0  0
   16.5232   47.0730   16.0678 H   0  0  0  0  0  0
   18.4758   47.8730   17.3139 H   0  0  0  0  0  0
   20.5762   51.0110   14.8534 H   0  0  0  0  0  0
   22.4229   49.1468   11.4325 H   0  0  0  0  0  0
   22.3881   52.6473   14.9530 H   0  0  0  0  0  0
   24.2189   50.7996   11.5097 H   0  0  0  0  0  0
   19.4708   46.6883    9.9005 H   0  0  0  0  0  0
   20.2329   50.8628   10.6048 H   0  0  0  0  0  0
   24.1230   55.4733   13.0000 H   0  0  0  0  0  0
   22.5692   54.5483   12.9285 H   0  0  0  0  0  0
   23.3911   54.8308   14.4676 H   0  0  0  0  0  0
   19.5840   47.0730    7.4776 H   0  0  0  0  0  0
   20.2699   51.2205    8.1697 H   0  0  0  0  0  0
   18.9605   49.2341    4.5852 H   0  0  0  0  0  0
   18.2498   50.2720    5.8001 H   0  0  0  0  0  0
   18.1596   48.5119    5.9654 H   0  0  0  0  0  0
  1  2  1  0  0  0
  1  5  1  0  0  0
  1  7  1  0  0  0
  2  3  2  0  0  0
  3  9  1  0  0  0
  3  4  1  0  0  0
  4  5  2  0  0  0
  4  8  1  0  0  0
  5 11  1  0  0  0
  6 10  1  0  0  0
  6 12  2  0  0  0
  6 13  2  0  0  0
  6 22  1  0  0  0
  7 14  2  0  0  0
  8 16  1  0  0  0
  8 17  2  0  0  0
  9 20  2  0  0  0
  9 21  1  0  0  0
 10 19  2  0  0  0
 10 18  1  0  0  0
 11 15  2  0  0  0
 11 28  1  0  0  0
 14 15  1  0  0  0
 14 29  1  0  0  0
 15 30  1  0  0  0
 16 18  2  0  0  0
 16 31  1  0  0  0
 17 19  1  0  0  0
 17 32  1  0  0  0
 18 33  1  0  0  0
 19 34  1  0  0  0
 20 24  1  0  0  0
 20 35  1  0  0  0
 21 25  2  0  0  0
 21 36  1  0  0  0
 22 37  1  0  0  0
 22 38  1  0  0  0
 22 39  1  0  0  0
 23 25  1  0  0  0
 23 26  1  0  0  0
 23 24  2  0  0  0
 24 40  1  0  0  0
 25 41  1  0  0  0
 26 27  1  0  0  0
 27 42  1  0  0  0
 27 43  1  0  0  0
 27 44  1  0  0  0
M  END
> <s_m_entry_id>
5541

> <s_m_entry_name>
dock_pv.532

> <s_m_Source_Path>
/home/csk/Desktop/cluster/DUD-E-result/pgh1

> <s_m_Source_File>
dock_pv.maegz

> <i_m_Source_File_Index>
532

> <chembl_id>
CHEMBL359775

> <chembl_pref_name>
None

> <i_lp_mmshare_version>
53161

> <r_lp_tautomer_probability>
1

> <s_lp_Force_Field>
OPLS_2005

> <r_lp_Energy>
28.848869

> <b_lp_Chiralities_Consistent>
1

> <s_lp_Variant>
CHEMBL221_lig587-1

> <s_i_glide_gridfile>
glide-grid_2oyu

> <i_i_glide_lignum>
725

> <i_i_glide_rotatable_bonds>
4

> <r_i_docking_score>
-7.27380935080014

> <r_i_glide_ligand_efficiency>
-0.269400346325931

> <r_i_glide_ligand_efficiency_sa>
-0.808201038089894

> <r_i_glide_ligand_efficiency_ln>
-1.69322289874702

> <r_i_glide_gscore>
-7.27380935080014

> <r_i_glide_lipo>
-4.91697630250357

> <r_i_glide_hbond>
0

> <r_i_glide_metal>
0

> <r_i_glide_rewards>
-0.717086629016418

> <r_i_glide_evdw>
-21.8713817596436

> <r_i_glide_ecoul>
-5.38919353485107

> <r_i_glide_erotb>
0.269359614928667

> <r_i_glide_esite>
-0.00715791599898607

> <r_i_glide_emodel>
-31.9049676156823

> <r_i_glide_energy>
-27.2605752944946

> <r_i_glide_einternal>
8.29435443878174

> <i_i_glide_confnum>
1

> <i_i_glide_posenum>
195

> <r_i_glide_eff_state_penalty>
0

> <s_user_duplicate_titles>
CHEMBL221_lig587

> <i_f3d_flags>
0

> <s_m_subgroup_title>
dock_pv

> <s_m_subgroupid>
dock_pv

> <b_m_subgroup_collapsed>
1

$$$$
CHEMBL221_lig959
                    3D
 Schrodinger Suite 2021-1.
 37 38  0  0  1  0            999 V2000
   19.6049   48.1239   14.7177 S   0  0  0  0  0  0
   19.7873   46.9404   15.5616 O   0  0  0  0  0  0
   20.2783   49.3873   15.0393 O   0  0  0  0  0  0
   19.5090   47.8807   10.8683 C   0  0  0  0  0  0
   19.7231   48.3985    9.6005 C   0  0  0  0  0  0
   20.5091   49.4751    9.3894 N   0  0  0  0  0  0
   21.1086   50.0416   10.4586 C   0  0  0  0  0  0
   21.0145   49.5359   11.7620 C   0  0  0  0  0  0
   20.1958   48.4011   11.9611 C   0  0  0  0  0  0
   21.7058   50.1694   12.8020 N   0  0  0  0  0  0
   22.5962   51.2448   12.7060 C   0  0  0  0  0  0
   23.7232   51.2035   11.8798 C   0  0  0  0  0  0
   24.6232   52.2705   11.8680 C   0  0  0  0  0  0
   24.4168   53.3795   12.6893 C   0  0  0  0  0  0
   23.2085   53.4747   13.4006 C   0  0  0  0  0  0
   22.3352   52.3885   13.4483 C   0  0  0  0  0  0
   20.1240   47.6047   13.1133 N   0  0  0  0  0  0
   17.7433   48.3935   14.5173 C   0  0  0  0  0  0
   17.3231   49.0704   15.5849 F   0  0  0  0  0  0
   17.5332   49.0729   13.3984 F   0  0  0  0  0  0
   17.1503   47.2020   14.4366 F   0  0  0  0  0  0
   22.8215   54.7303   14.1523 C   0  0  0  0  0  0
   25.5111   54.4386   12.8237 C   0  0  0  0  0  0
   18.8251   47.0730   10.9933 H   0  0  0  0  0  0
   19.2408   47.9688    8.7339 H   0  0  0  0  0  0
   21.6928   50.9181   10.2287 H   0  0  0  0  0  0
   21.2251   50.0948   13.6933 H   0  0  0  0  0  0
   23.9325   50.3264   11.2870 H   0  0  0  0  0  0
   25.5183   52.1970   11.2670 H   0  0  0  0  0  0
   21.4353   52.4453   14.0439 H   0  0  0  0  0  0
   19.8316   46.6598   12.9267 H   0  0  0  0  0  0
   22.1218   54.5312   14.9650 H   0  0  0  0  0  0
   22.3819   55.4524   13.4647 H   0  0  0  0  0  0
   23.6981   55.1875   14.6005 H   0  0  0  0  0  0
   26.4052   54.2728   12.2070 H   0  0  0  0  0  0
   25.1222   55.4309   12.6001 H   0  0  0  0  0  0
   25.8415   54.4750   13.8573 H   0  0  0  0  0  0
  1  2  2  0  0  0
  1  3  2  0  0  0
  1 17  1  0  0  0
  1 18  1  0  0  0
  4  5  2  0  0  0
  4  9  1  0  0  0
  4 24  1  0  0  0
  5  6  1  0  0  0
  5 25  1  0  0  0
  6  7  2  0  0  0
  7  8  1  0  0  0
  7 26  1  0  0  0
  8  9  2  0  0  0
  8 10  1  0  0  0
  9 17  1  0  0  0
 10 11  1  0  0  0
 10 27  1  0  0  0
 11 12  2  0  0  0
 11 16  1  0  0  0
 12 13  1  0  0  0
 12 28  1  0  0  0
 13 14  2  0  0  0
 13 29  1  0  0  0
 14 15  1  0  0  0
 14 23  1  0  0  0
 15 16  2  0  0  0
 15 22  1  0  0  0
 16 30  1  0  0  0
 17 31  1  0  0  0
 18 19  1  0  0  0
 18 20  1  0  0  0
 18 21  1  0  0  0
 22 32  1  0  0  0
 22 33  1  0  0  0
 22 34  1  0  0  0
 23 35  1  0  0  0
 23 36  1  0  0  0
 23 37  1  0  0  0
M  END
> <s_m_entry_id>
5542

> <s_m_entry_name>
dock_pv.533

> <s_m_Source_Path>
/home/csk/Desktop/cluster/DUD-E-result/pgh1

> <s_m_Source_File>
dock_pv.maegz

> <i_m_Source_File_Index>
533

> <chembl_id>
CHEMBL3113231

> <chembl_pref_name>
None

> <i_lp_mmshare_version>
53161

> <r_lp_tautomer_probability>
1

> <s_lp_Force_Field>
OPLS_2005

> <r_lp_Energy>
10.578594

> <b_lp_Chiralities_Consistent>
1

> <s_lp_Variant>
CHEMBL221_lig959-1

> <s_i_glide_gridfile>
glide-grid_2oyu

> <i_i_glide_lignum>
1187

> <i_i_glide_rotatable_bonds>
5

> <r_i_docking_score>
-7.27206011268945

> <r_i_glide_ligand_efficiency>
-0.316176526638672

> <r_i_glide_ligand_efficiency_sa>
-0.899163982972103

> <r_i_glide_ligand_efficiency_ln>
-1.75845007464376

> <r_i_glide_gscore>
-7.27206011268945

> <r_i_glide_lipo>
-3.61496285939781

> <r_i_glide_hbond>
0

> <r_i_glide_metal>
0

> <r_i_glide_rewards>
-2.30826607418849

> <r_i_glide_evdw>
-31.7781887054443

> <r_i_glide_ecoul>
-2.51408386230469

> <r_i_glide_erotb>
0.637213692512758

> <r_i_glide_esite>
-0.0200228569979985

> <r_i_glide_emodel>
-33.1098794474017

> <r_i_glide_energy>
-34.292272567749

> <r_i_glide_einternal>
14.2881879806519

> <i_i_glide_confnum>
15

> <i_i_glide_posenum>
390

> <r_i_glide_eff_state_penalty>
0

> <s_user_duplicate_titles>
CHEMBL221_lig959

> <i_f3d_flags>
0

> <s_m_subgroup_title>
dock_pv

> <s_m_subgroupid>
dock_pv

> <b_m_subgroup_collapsed>
1

$$$$
CHEMBL221_lig821
                    3D
 Schrodinger Suite 2021-1.
 27 28  0  0  1  0            999 V2000
   18.6611   48.0877   15.5234 C   0  0  0  0  0  0
   18.5690   47.1237   14.5155 C   0  0  0  0  0  0
   19.3983   47.1975   13.4000 C   0  0  0  0  0  0
   19.6508   49.0730   15.4566 C   0  0  0  0  0  0
   20.4440   49.1825   14.3222 C   0  0  0  0  0  0
   20.3058   48.2442   13.3015 C   0  0  0  0  0  0
   21.1262   48.2860   12.2000 O   0  0  0  0  0  0
   21.5085   49.5967   11.7225 C   0  0  2  0  0  0
   21.8428   50.5702   12.8778 C   0  0  0  0  0  0
   21.3230   50.3252   14.0994 C   0  0  0  0  0  0
   20.4247   50.1400   10.7634 C   0  0  0  0  0  0
   19.9705   49.1699    9.9700 F   0  0  0  0  0  0
   19.3802   50.6730   11.4000 F   0  0  0  0  0  0
   20.9230   51.0730    9.9685 F   0  0  0  0  0  0
   22.7442   51.6764   12.6061 C   0  0  0  0  0  0
   23.4680   51.7469   11.6170 O   0  0  0  0  0  0
   22.7114   52.6542   13.5546 O   0  0  0  0  0  0
   17.6328   48.1156   16.6345 C   0  0  0  0  0  0
   17.3230   49.3600   17.0000 F   0  0  0  0  0  0
   16.5230   47.4962   16.2711 F   0  0  0  0  0  0
   18.1217   47.4730   17.6776 F   0  0  0  0  0  0
   17.8347   46.3366   14.6000 H   0  0  0  0  0  0
   19.3230   46.4780   12.6014 H   0  0  0  0  0  0
   19.7382   49.8115   16.2390 H   0  0  0  0  0  0
   22.4097   49.4140   11.1344 H   0  0  0  0  0  0
   21.5523   50.9737   14.9350 H   0  0  0  0  0  0
   23.3231   53.3595   13.3349 H   0  0  0  0  0  0
  1  2  2  0  0  0
  1  4  1  0  0  0
  1 18  1  0  0  0
  2  3  1  0  0  0
  2 22  1  0  0  0
  3  6  2  0  0  0
  3 23  1  0  0  0
  4  5  2  0  0  0
  4 24  1  0  0  0
  5  6  1  0  0  0
  5 10  1  0  0  0
  6  7  1  0  0  0
  7  8  1  0  0  0
  8 11  1  0  0  0
  8  9  1  0  0  0
  8 25  1  0  0  0
  9 10  2  0  0  0
  9 15  1  0  0  0
 10 26  1  0  0  0
 11 12  1  0  0  0
 11 13  1  0  0  0
 11 14  1  0  0  0
 15 16  2  0  0  0
 15 17  1  0  0  0
 17 27  1  0  0  0
 18 19  1  0  0  0
 18 20  1  0  0  0
 18 21  1  0  0  0
M  END
> <s_m_entry_id>
5543

> <s_m_entry_name>
dock_pv.534

> <s_m_Source_Path>
/home/csk/Desktop/cluster/DUD-E-result/pgh1

> <s_m_Source_File>
dock_pv.maegz

> <i_m_Source_File_Index>
534

> <chembl_id>
CHEMBL1290563

> <chembl_pref_name>
None

> <i_lp_mmshare_version>
53161

> <r_lp_tautomer_probability>
1

> <s_lp_Force_Field>
OPLS_2005

> <r_lp_Energy>
12.501918

> <b_lp_Chiralities_Consistent>
1

> <s_lp_Variant>
CHEMBL221_lig821-1

> <s_i_glide_gridfile>
glide-grid_2oyu

> <i_i_glide_lignum>
996

> <i_i_glide_rotatable_bonds>
4

> <r_i_docking_score>
-7.25805264595206

> <r_i_glide_ligand_efficiency>
-0.345621554569146

> <r_i_glide_ligand_efficiency_sa>
-0.953543661811548

> <r_i_glide_ligand_efficiency_ln>
-1.79453885043532

> <r_i_glide_gscore>
-7.25805264595206

> <r_i_glide_lipo>
-2.62132089551499

> <r_i_glide_hbond>
0

> <r_i_glide_metal>
0

> <r_i_glide_rewards>
-3.82085353325605

> <r_i_glide_evdw>
-18.6800975799561

> <r_i_glide_ecoul>
-0.481952786445618

> <r_i_glide_erotb>
0.190419579783621

> <r_i_glide_esite>
0

> <r_i_glide_emodel>
-21.5882813248502

> <r_i_glide_energy>
-19.1620503664017

> <r_i_glide_einternal>
0.506122767925262

> <i_i_glide_confnum>
1

> <i_i_glide_posenum>
71

> <r_i_glide_eff_state_penalty>
0

> <s_user_duplicate_titles>
CHEMBL221_lig821

> <i_f3d_flags>
0

> <s_m_subgroup_title>
dock_pv

> <s_m_subgroupid>
dock_pv

> <b_m_subgroup_collapsed>
1

$$$$
CHEMBL221_lig966
                    3D
 Schrodinger Suite 2021-1.
 31 32  0  0  1  0            999 V2000
   19.0225   47.4546   14.4157 S   0  0  0  0  0  0
   19.4931   47.5325   15.8000 O   0  0  0  0  0  0
   19.3230   46.2730   13.6056 O   0  0  0  0  0  0
   19.4324   48.0849   11.2675 C   0  0  0  0  0  0
   19.7230   48.2730    9.9163 C   0  0  0  0  0  0
   20.4314   49.3290    9.4552 N   0  0  0  0  0  0
   20.8792   50.2240   10.3650 C   0  0  0  0  0  0
   20.6668   50.1001   11.7423 C   0  0  0  0  0  0
   19.9197   49.0029   12.2095 C   0  0  0  0  0  0
   21.1565   51.0673   12.6350 N   0  0  0  0  0  0
   22.3147   51.8447   12.5862 C   0  0  0  0  0  0
   22.3691   52.9744   13.4000 C   0  0  0  0  0  0
   23.5091   53.7663   13.4000 C   0  0  0  0  0  0
   24.6039   53.3974   12.6310 C   0  0  0  0  0  0
   24.5490   52.2813   11.8000 C   0  0  0  0  0  0
   23.4052   51.4958   11.7839 C   0  0  0  0  0  0
   19.7282   48.8522   13.5972 N   0  0  0  0  0  0
   17.1650   47.7941   14.4011 C   0  0  0  0  0  0
   16.5261   46.6540   14.6547 F   0  0  0  0  0  0
   16.8201   48.2730   13.2073 F   0  0  0  0  0  0
   16.9230   48.6730   15.3637 F   0  0  0  0  0  0
   25.7287   54.1354   12.7016 F   0  0  0  0  0  0
   18.8320   47.2357   11.5441 H   0  0  0  0  0  0
   19.3615   47.5781    9.1720 H   0  0  0  0  0  0
   21.4046   51.0730    9.9595 H   0  0  0  0  0  0
   20.5686   51.2472   13.4338 H   0  0  0  0  0  0
   21.5324   53.2493   14.0255 H   0  0  0  0  0  0
   23.5625   54.6437   14.0296 H   0  0  0  0  0  0
   25.3992   52.0125   11.1902 H   0  0  0  0  0  0
   23.3908   50.6093   11.1687 H   0  0  0  0  0  0
   20.1552   49.5400   14.1969 H   0  0  0  0  0  0
  1  2  2  0  0  0
  1  3  2  0  0  0
  1 17  1  0  0  0
  1 18  1  0  0  0
  4  5  2  0  0  0
  4  9  1  0  0  0
  4 23  1  0  0  0
  5  6  1  0  0  0
  5 24  1  0  0  0
  6  7  2  0  0  0
  7  8  1  0  0  0
  7 25  1  0  0  0
  8  9  2  0  0  0
  8 10  1  0  0  0
  9 17  1  0  0  0
 10 11  1  0  0  0
 10 26  1  0  0  0
 11 12  2  0  0  0
 11 16  1  0  0  0
 12 13  1  0  0  0
 12 27  1  0  0  0
 13 14  2  0  0  0
 13 28  1  0  0  0
 14 15  1  0  0  0
 14 22  1  0  0  0
 15 16  2  0  0  0
 15 29  1  0  0  0
 16 30  1  0  0  0
 17 31  1  0  0  0
 18 19  1  0  0  0
 18 20  1  0  0  0
 18 21  1  0  0  0
M  END
> <s_m_entry_id>
5544

> <s_m_entry_name>
dock_pv.535

> <s_m_Source_Path>
/home/csk/Desktop/cluster/DUD-E-result/pgh1

> <s_m_Source_File>
dock_pv.maegz

> <i_m_Source_File_Index>
535

> <chembl_id>
CHEMBL3113240

> <chembl_pref_name>
None

> <i_lp_mmshare_version>
53161

> <r_lp_tautomer_probability>
1

> <s_lp_Force_Field>
OPLS_2005

> <r_lp_Energy>
11.028922

> <b_lp_Chiralities_Consistent>
1

> <s_lp_Variant>
CHEMBL221_lig966-1

> <s_i_glide_gridfile>
glide-grid_2oyu

> <i_i_glide_lignum>
1194

> <i_i_glide_rotatable_bonds>
5

> <r_i_docking_score>
-7.25680104134313

> <r_i_glide_ligand_efficiency>
-0.329854592788324

> <r_i_glide_ligand_efficiency_sa>
-0.924265541437886

> <r_i_glide_ligand_efficiency_ln>
-1.77382687275368

> <r_i_glide_gscore>
-7.25680104134313

> <r_i_glide_lipo>
-3.62098015882469

> <r_i_glide_hbond>
0

> <r_i_glide_metal>
0

> <r_i_glide_rewards>
-2.25392347953088

> <r_i_glide_evdw>
-33.1618385314941

> <r_i_glide_ecoul>
-2.28072810173035

> <r_i_glide_erotb>
0.671511489906621

> <r_i_glide_esite>
-0.0532077510599192

> <r_i_glide_emodel>
-47.2999977857362

> <r_i_glide_energy>
-35.4425666332245

> <r_i_glide_einternal>
7.915198802948

> <i_i_glide_confnum>
2

> <i_i_glide_posenum>
268

> <r_i_glide_eff_state_penalty>
0

> <s_user_duplicate_titles>
CHEMBL221_lig966

> <i_f3d_flags>
0

> <s_m_subgroup_title>
dock_pv

> <s_m_subgroupid>
dock_pv

> <b_m_subgroup_collapsed>
1

$$$$
CHEMBL221_lig961
                    3D
 Schrodinger Suite 2021-1.
 35 37  0  0  1  0            999 V2000
   19.3523   47.4176   14.3075 S   0  0  0  0  0  0
   20.1229   47.3397   15.5448 O   0  0  0  0  0  0
   19.3231   46.2730   13.3997 O   0  0  0  0  0  0
   19.4935   48.1037   11.1479 C   0  0  0  0  0  0
   19.7229   48.2998    9.7895 C   0  0  0  0  0  0
   20.3739   49.3815    9.3110 N   0  0  0  0  0  0
   20.8499   50.2733   10.2072 C   0  0  0  0  0  0
   20.7446   50.1187   11.5891 C   0  0  0  0  0  0
   20.0327   49.0086   12.0750 C   0  0  0  0  0  0
   21.3250   51.0559   12.4641 N   0  0  0  0  0  0
   22.5405   51.7455   12.3763 C   0  0  0  0  0  0
   22.7923   52.7364   13.3252 C   0  0  0  0  0  0
   24.0066   53.4129   13.3154 C   0  0  0  0  0  0
   24.9708   53.0787   12.3733 C   0  0  0  0  0  0
   24.7179   52.1179   11.3997 C   0  0  0  0  0  0
   23.5087   51.4381   11.4121 C   0  0  0  0  0  0
   19.9534   48.8307   13.4655 N   0  0  0  0  0  0
   17.5959   47.8712   14.7350 C   0  0  0  0  0  0
   16.8370   46.7130   15.3108 C   0  0  0  0  0  0
   17.2385   47.8731   16.2037 C   0  0  0  0  0  0
   18.9054   47.2496   11.4263 H   0  0  0  0  0  0
   19.3295   47.6102    9.0572 H   0  0  0  0  0  0
   21.3233   51.1446    9.7995 H   0  0  0  0  0  0
   20.7795   51.2703   13.2854 H   0  0  0  0  0  0
   22.0531   52.9879   14.0726 H   0  0  0  0  0  0
   24.2009   54.1937   14.0363 H   0  0  0  0  0  0
   25.9164   53.5993   12.3763 H   0  0  0  0  0  0
   25.4682   51.8739   10.6602 H   0  0  0  0  0  0
   23.3582   50.6586   10.6826 H   0  0  0  0  0  0
   20.4987   49.4648   14.0267 H   0  0  0  0  0  0
   17.1153   48.4843   13.9715 H   0  0  0  0  0  0
   17.3578   45.7590   15.3987 H   0  0  0  0  0  0
   15.8065   46.5634   14.9999 H   0  0  0  0  0  0
   16.4996   48.5832   16.5648 H   0  0  0  0  0  0
   18.0195   47.7100   16.9471 H   0  0  0  0  0  0
  1  2  2  0  0  0
  1  3  2  0  0  0
  1 17  1  0  0  0
  1 18  1  0  0  0
  4  5  2  0  0  0
  4  9  1  0  0  0
  4 21  1  0  0  0
  5  6  1  0  0  0
  5 22  1  0  0  0
  6  7  2  0  0  0
  7  8  1  0  0  0
  7 23  1  0  0  0
  8  9  2  0  0  0
  8 10  1  0  0  0
  9 17  1  0  0  0
 10 11  1  0  0  0
 10 24  1  0  0  0
 11 12  2  0  0  0
 11 16  1  0  0  0
 12 13  1  0  0  0
 12 25  1  0  0  0
 13 14  2  0  0  0
 13 26  1  0  0  0
 14 15  1  0  0  0
 14 27  1  0  0  0
 15 16  2  0  0  0
 15 28  1  0  0  0
 16 29  1  0  0  0
 17 30  1  0  0  0
 18 19  1  0  0  0
 18 20  1  0  0  0
 18 31  1  0  0  0
 19 20  1  0  0  0
 19 32  1  0  0  0
 19 33  1  0  0  0
 20 34  1  0  0  0
 20 35  1  0  0  0
M  END
> <s_m_entry_id>
5545

> <s_m_entry_name>
dock_pv.536

> <s_m_Source_Path>
/home/csk/Desktop/cluster/DUD-E-result/pgh1

> <s_m_Source_File>
dock_pv.maegz

> <i_m_Source_File_Index>
536

> <chembl_id>
CHEMBL3113228

> <chembl_pref_name>
None

> <i_lp_mmshare_version>
53161

> <r_lp_tautomer_probability>
1

> <s_lp_Force_Field>
OPLS_2005

> <r_lp_Energy>
14.879313

> <b_lp_Chiralities_Consistent>
1

> <s_lp_Variant>
CHEMBL221_lig961-1

> <s_i_glide_gridfile>
glide-grid_2oyu

> <i_i_glide_lignum>
1189

> <i_i_glide_rotatable_bonds>
5

> <r_i_docking_score>
-7.25151336509648

> <r_i_glide_ligand_efficiency>
-0.362575668254824

> <r_i_glide_ligand_efficiency_sa>
-0.984181780276784

> <r_i_glide_ligand_efficiency_ln>
-1.81481462436587

> <r_i_glide_gscore>
-7.25151336509648

> <r_i_glide_lipo>
-4.35086369597005

> <r_i_glide_hbond>
0

> <r_i_glide_metal>
0

> <r_i_glide_rewards>
-2.0495533912789

> <r_i_glide_evdw>
-29.9195995330811

> <r_i_glide_ecoul>
-2.48802733421326

> <r_i_glide_erotb>
1.08733277964921

> <r_i_glide_esite>
-0.0692449807106991

> <r_i_glide_emodel>
-40.8771698887168

> <r_i_glide_energy>
-32.4076268672943

> <r_i_glide_einternal>
10.0554580688477

> <i_i_glide_confnum>
7

> <i_i_glide_posenum>
246

> <r_i_glide_eff_state_penalty>
0

> <s_user_duplicate_titles>
CHEMBL221_lig961

> <i_f3d_flags>
0

> <s_m_subgroup_title>
dock_pv

> <s_m_subgroupid>
dock_pv

> <b_m_subgroup_collapsed>
1

$$$$
CHEMBL221_lig1002
                    3D
 Schrodinger Suite 2021-1.
 29 30  0  0  1  0            999 V2000
   22.8807   52.1234   13.9256 C   0  0  2  0  0  0
   23.3082   51.7662   12.4781 C   0  0  0  0  0  0
   22.6217   50.8180   11.8084 C   0  0  0  0  0  0
   21.5229   50.0963   12.4353 C   0  0  0  0  0  0
   20.6881   49.2484   11.7082 C   0  0  0  0  0  0
   19.7230   48.4930   12.3722 C   0  0  0  0  0  0
   19.5789   48.5811   13.7662 C   0  0  0  0  0  0
   20.3854   49.4730   14.4816 C   0  0  0  0  0  0
   21.3230   50.2519   13.8091 C   0  0  0  0  0  0
   22.1230   51.0730   14.5795 O   0  0  0  0  0  0
   24.4874   52.4295   11.9444 C   0  0  0  0  0  0
   25.2692   53.0730   12.6401 O   0  0  0  0  0  0
   24.6691   52.2730   10.6000 O   0  0  0  0  0  0
   22.0609   53.4257   13.9978 C   0  0  0  0  0  0
   21.7230   53.8068   15.2246 F   0  0  0  0  0  0
   22.6363   54.4665   13.4000 F   0  0  0  0  0  0
   20.9230   53.1810   13.4000 F   0  0  0  0  0  0
   18.3837   47.5310   14.6226 S   0  0  0  0  0  0
   18.9230   46.2472   13.8000 F   0  0  0  0  0  0
   17.8486   48.7371   15.5496 F   0  0  0  0  0  0
   17.2793   46.5938   15.3281 F   0  0  0  0  0  0
   19.4456   47.1460   15.7790 F   0  0  0  0  0  0
   17.2680   47.8798   13.5058 F   0  0  0  0  0  0
   23.7706   52.2526   14.5416 H   0  0  0  0  0  0
   22.9124   50.5139   10.8134 H   0  0  0  0  0  0
   20.8022   49.1440   10.6386 H   0  0  0  0  0  0
   19.1017   47.8175   11.8002 H   0  0  0  0  0  0
   20.2936   49.5593   15.5549 H   0  0  0  0  0  0
   23.9689   51.7995   10.1547 H   0  0  0  0  0  0
  1  2  1  0  0  0
  1 10  1  0  0  0
  1 14  1  0  0  0
  1 24  1  0  0  0
  2  3  2  0  0  0
  2 11  1  0  0  0
  3  4  1  0  0  0
  3 25  1  0  0  0
  4  5  1  0  0  0
  4  9  2  0  0  0
  5  6  2  0  0  0
  5 26  1  0  0  0
  6  7  1  0  0  0
  6 27  1  0  0  0
  7  8  2  0  0  0
  7 18  1  0  0  0
  8  9  1  0  0  0
  8 28  1  0  0  0
  9 10  1  0  0  0
 11 12  2  0  0  0
 11 13  1  0  0  0
 13 29  1  0  0  0
 14 15  1  0  0  0
 14 16  1  0  0  0
 14 17  1  0  0  0
 18 19  1  0  0  0
 18 20  1  0  0  0
 18 21  1  0  0  0
 18 22  1  0  0  0
 18 23  1  0  0  0
M  END
> <s_m_entry_id>
5546

> <s_m_entry_name>
dock_pv.537

> <s_m_Source_Path>
/home/csk/Desktop/cluster/DUD-E-result/pgh1

> <s_m_Source_File>
dock_pv.maegz

> <i_m_Source_File_Index>
537

> <chembl_id>
CHEMBL4081499

> <chembl_pref_name>
None

> <i_lp_mmshare_version>
53161

> <r_lp_tautomer_probability>
1

> <s_lp_Force_Field>
OPLS_2005

> <r_lp_Energy>
13.690755

> <b_lp_Chiralities_Consistent>
1

> <s_lp_Variant>
CHEMBL221_lig1002-1

> <s_i_glide_gridfile>
glide-grid_2oyu

> <i_i_glide_lignum>
1253

> <i_i_glide_rotatable_bonds>
4

> <r_i_docking_score>
-7.24975276010409

> <r_i_glide_ligand_efficiency>
-0.315206641743656

> <r_i_glide_ligand_efficiency_sa>
-0.896405759347794

> <r_i_glide_ligand_efficiency_ln>
-1.75305595451673

> <r_i_glide_gscore>
-7.24975276010409

> <r_i_glide_lipo>
-2.63403770287824

> <r_i_glide_hbond>
0

> <r_i_glide_metal>
0

> <r_i_glide_rewards>
-3.12663439392641

> <r_i_glide_evdw>
-26.0215854644775

> <r_i_glide_ecoul>
-1.79816401004791

> <r_i_glide_erotb>
0.140738168681626

> <r_i_glide_esite>
-0.059014957250001

> <r_i_glide_emodel>
-35.9778434037283

> <r_i_glide_energy>
-27.8197494745255

> <r_i_glide_einternal>
1.22837090492249

> <i_i_glide_confnum>
2

> <i_i_glide_posenum>
330

> <r_i_glide_eff_state_penalty>
0

> <s_user_duplicate_titles>
CHEMBL221_lig1002

> <i_f3d_flags>
0

> <s_m_subgroup_title>
dock_pv

> <s_m_subgroupid>
dock_pv

> <b_m_subgroup_collapsed>
1

$$$$
CHEMBL221_lig839
                    3D
 Schrodinger Suite 2021-1.
 43 44  0  0  1  0            999 V2000
   20.0782   48.6047   11.2956 C   0  0  0  0  0  0
   19.8365   48.3609   12.6582 C   0  0  0  0  0  0
   20.5230   49.1171   13.6227 C   0  0  0  0  0  0
   21.0011   49.5699   10.8985 C   0  0  0  0  0  0
   21.7162   50.2734   11.8604 C   0  0  0  0  0  0
   21.4298   50.0821   13.2083 C   0  0  0  0  0  0
   22.1240   50.7406   14.2004 O   0  0  0  0  0  0
   22.8065   51.9717   13.8892 C   0  0  1  0  0  0
   23.3708   51.9636   12.4498 C   0  0  0  0  0  0
   22.8080   51.1673   11.5210 C   0  0  0  0  0  0
   21.8097   53.1113   14.1636 C   0  0  0  0  0  0
   22.2721   54.3347   13.9078 F   0  0  0  0  0  0
   20.7669   52.9058   13.4006 F   0  0  0  0  0  0
   21.3230   53.0922   15.4000 F   0  0  0  0  0  0
   24.5902   52.6729   12.1434 C   0  0  0  0  0  0
   24.8837   53.6706   13.0202 O   0  0  0  0  0  0
   25.3208   52.3829   11.1995 O   0  0  0  0  0  0
   19.3209   47.6701   10.0610 Cl  0  0  0  0  0  0
   18.9652   47.3661   13.0364 O   0  0  0  0  0  0
   17.8044   47.8246   13.7237 C   0  0  0  0  0  0
   20.3773   48.8233   15.3258 Cl  0  0  0  0  0  0
   17.6676   47.1122   15.1044 C   0  0  0  0  0  0
   16.8013   45.8299   14.9999 C   0  0  0  0  0  0
   17.1617   48.1376   16.1362 C   0  0  0  0  0  0
   17.6203   44.5583   14.6333 C   0  0  0  0  0  0
   17.3231   47.8211   17.6184 C   0  0  0  0  0  0
   21.2023   49.7161    9.8469 H   0  0  0  0  0  0
   23.6287   52.0445   14.5996 H   0  0  0  0  0  0
   23.2406   51.0910   10.5324 H   0  0  0  0  0  0
   25.6900   54.1190   12.7585 H   0  0  0  0  0  0
   16.9337   47.6586   13.0920 H   0  0  0  0  0  0
   17.8050   48.9116   13.8331 H   0  0  0  0  0  0
   18.6575   46.8046   15.4403 H   0  0  0  0  0  0
   16.0332   46.0161   14.2496 H   0  0  0  0  0  0
   16.1226   45.6501   15.8106 H   0  0  0  0  0  0
   17.6329   49.1069   15.9772 H   0  0  0  0  0  0
   16.1230   48.2720   15.9287 H   0  0  0  0  0  0
   16.9671   43.7105   14.4250 H   0  0  0  0  0  0
   18.3168   44.2743   15.4004 H   0  0  0  0  0  0
   18.2992   44.6730   13.8000 H   0  0  0  0  0  0
   17.1686   48.7283   18.1998 H   0  0  0  0  0  0
   16.6038   47.0734   17.9573 H   0  0  0  0  0  0
   18.3279   47.4727   17.8393 H   0  0  0  0  0  0
  1  2  2  0  0  0
  1  4  1  0  0  0
  1 18  1  0  0  0
  2  3  1  0  0  0
  2 19  1  0  0  0
  3  6  2  0  0  0
  3 21  1  0  0  0
  4  5  2  0  0  0
  4 27  1  0  0  0
  5 10  1  0  0  0
  5  6  1  0  0  0
  6  7  1  0  0  0
  7  8  1  0  0  0
  8  9  1  0  0  0
  8 11  1  0  0  0
  8 28  1  0  0  0
  9 15  1  0  0  0
  9 10  2  0  0  0
 10 29  1  0  0  0
 11 13  1  0  0  0
 11 14  1  0  0  0
 11 12  1  0  0  0
 15 16  1  0  0  0
 15 17  2  0  0  0
 16 30  1  0  0  0
 19 20  1  0  0  0
 20 22  1  0  0  0
 20 31  1  0  0  0
 20 32  1  0  0  0
 22 23  1  0  0  0
 22 24  1  0  0  0
 22 33  1  0  0  0
 23 25  1  0  0  0
 23 34  1  0  0  0
 23 35  1  0  0  0
 24 26  1  0  0  0
 24 36  1  0  0  0
 24 37  1  0  0  0
 25 38  1  0  0  0
 25 39  1  0  0  0
 25 40  1  0  0  0
 26 41  1  0  0  0
 26 42  1  0  0  0
 26 43  1  0  0  0
M  END
> <s_m_entry_id>
5547

> <s_m_entry_name>
dock_pv.538

> <s_m_Source_Path>
/home/csk/Desktop/cluster/DUD-E-result/pgh1

> <s_m_Source_File>
dock_pv.maegz

> <i_m_Source_File_Index>
538

> <chembl_id>
CHEMBL1630240

> <chembl_pref_name>
None

> <i_lp_mmshare_version>
53161

> <r_lp_tautomer_probability>
1

> <s_lp_Force_Field>
OPLS_2005

> <r_lp_Energy>
26.11096

> <b_lp_Chiralities_Consistent>
1

> <s_lp_Variant>
CHEMBL221_lig839-2

> <s_i_glide_gridfile>
glide-grid_2oyu

> <i_i_glide_lignum>
1029

> <i_i_glide_rotatable_bonds>
8

> <r_i_docking_score>
-7.24773099907247

> <r_i_glide_ligand_efficiency>
-0.27875888457971

> <r_i_glide_ligand_efficiency_sa>
-0.825822098704146

> <r_i_glide_ligand_efficiency_ln>
-1.70210584338704

> <r_i_glide_gscore>
-7.24773099907247

> <r_i_glide_lipo>
-4.59840885344055

> <r_i_glide_hbond>
0

> <r_i_glide_metal>
0

> <r_i_glide_rewards>
-1.89637925740882

> <r_i_glide_evdw>
-22.8691997528076

> <r_i_glide_ecoul>
-0.188707813620567

> <r_i_glide_erotb>
0.462115448562968

> <r_i_glide_esite>
-0.0432921771025905

> <r_i_glide_emodel>
-20.070893593767

> <r_i_glide_energy>
-23.0579075664282

> <r_i_glide_einternal>
12.3995933532715

> <i_i_glide_confnum>
24

> <i_i_glide_posenum>
363

> <r_i_glide_eff_state_penalty>
0

> <s_user_duplicate_titles>
CHEMBL221_lig839

> <i_f3d_flags>
0

> <s_m_subgroup_title>
dock_pv

> <s_m_subgroupid>
dock_pv

> <b_m_subgroup_collapsed>
1

$$$$
CHEMBL221_lig117
                    3D
 Schrodinger Suite 2021-1.
 39 41  0  0  1  0            999 V2000
   20.9982   50.1345   12.5485 N   0  0  0  0  0  0
   20.5544   49.7947   13.8244 C   0  0  0  0  0  0
   19.3230   48.1382    7.1317 S   0  0  0  0  0  0
   22.1417   51.3739   14.0520 N   0  0  0  0  0  0
   21.2846   50.6098   14.6806 C   0  0  0  0  0  0
   22.0283   51.0452   12.7899 C   0  0  0  0  0  0
   20.5333   49.6536   11.2890 C   0  0  0  0  0  0
   19.8209   48.7137    8.7485 C   0  0  0  0  0  0
   19.4994   48.8058   14.2043 C   0  0  0  0  0  0
   20.5230   47.8734    6.3724 O   0  0  0  0  0  0
   18.3632   47.0730    7.4000 O   0  0  0  0  0  0
   19.7230   47.8730    9.8528 C   0  0  0  0  0  0
   20.1230   50.0606    8.9397 C   0  0  0  0  0  0
   20.1230   48.3255   11.1090 C   0  0  0  0  0  0
   20.4512   50.5296   10.2049 C   0  0  0  0  0  0
   18.3282   48.6776   13.4605 C   0  0  0  0  0  0
   19.6377   48.0752   15.3814 C   0  0  0  0  0  0
   18.5418   49.4895    6.1156 C   0  0  0  0  0  0
   17.4508   47.1165   15.0266 C   0  0  0  0  0  0
   17.2899   47.8730   13.8787 C   0  0  0  0  0  0
   18.6139   47.2268   15.7850 C   0  0  0  0  0  0
   23.0383   51.5682   11.7791 C   0  0  0  0  0  0
   16.4680   46.2730   15.4000 F   0  0  0  0  0  0
   24.1230   50.6730   11.7376 O   0  0  0  0  0  0
   21.1849   50.6518   15.7555 H   0  0  0  0  0  0
   19.4231   46.8458    9.7230 H   0  0  0  0  0  0
   20.1122   50.7520    8.1092 H   0  0  0  0  0  0
   20.1560   47.6139   11.9199 H   0  0  0  0  0  0
   20.6539   51.5787   10.3275 H   0  0  0  0  0  0
   18.1865   49.2990   12.6000 H   0  0  0  0  0  0
   20.5231   48.1809   15.9901 H   0  0  0  0  0  0
   18.2503   49.0730    5.1527 H   0  0  0  0  0  0
   17.6798   49.8730    6.6000 H   0  0  0  0  0  0
   19.2698   50.2806    5.9567 H   0  0  0  0  0  0
   16.3727   47.8301   13.3100 H   0  0  0  0  0  0
   18.7209   46.6730   16.6959 H   0  0  0  0  0  0
   22.6787   51.6901   10.7650 H   0  0  0  0  0  0
   23.4198   52.5487   12.0697 H   0  0  0  0  0  0
   24.7360   50.9309   11.0413 H   0  0  0  0  0  0
  1  2  1  0  0  0
  1  6  1  0  0  0
  1  7  1  0  0  0
  2  5  2  0  0  0
  2  9  1  0  0  0
  3  8  1  0  0  0
  3 10  2  0  0  0
  3 11  2  0  0  0
  3 18  1  0  0  0
  4  6  2  0  0  0
  4  5  1  0  0  0
  5 25  1  0  0  0
  6 22  1  0  0  0
  7 14  1  0  0  0
  7 15  2  0  0  0
  8 13  2  0  0  0
  8 12  1  0  0  0
  9 16  1  0  0  0
  9 17  2  0  0  0
 12 14  2  0  0  0
 12 26  1  0  0  0
 13 15  1  0  0  0
 13 27  1  0  0  0
 14 28  1  0  0  0
 15 29  1  0  0  0
 16 20  2  0  0  0
 16 30  1  0  0  0
 17 21  1  0  0  0
 17 31  1  0  0  0
 18 32  1  0  0  0
 18 33  1  0  0  0
 18 34  1  0  0  0
 19 21  2  0  0  0
 19 23  1  0  0  0
 19 20  1  0  0  0
 20 35  1  0  0  0
 21 36  1  0  0  0
 22 24  1  0  0  0
 22 37  1  0  0  0
 22 38  1  0  0  0
 24 39  1  0  0  0
M  END
> <s_m_entry_id>
5548

> <s_m_entry_name>
dock_pv.539

> <s_m_Source_Path>
/home/csk/Desktop/cluster/DUD-E-result/pgh1

> <s_m_Source_File>
dock_pv.maegz

> <i_m_Source_File_Index>
539

> <chembl_id>
CHEMBL117618

> <chembl_pref_name>
None

> <i_lp_mmshare_version>
53161

> <r_lp_tautomer_probability>
1

> <s_lp_Force_Field>
OPLS_2005

> <r_lp_Energy>
12.252548

> <b_lp_Chiralities_Consistent>
1

> <s_lp_Variant>
CHEMBL221_lig117-1

> <s_i_glide_gridfile>
glide-grid_2oyu

> <i_i_glide_lignum>
139

> <i_i_glide_rotatable_bonds>
5

> <r_i_docking_score>
-7.24698359146445

> <r_i_glide_ligand_efficiency>
-0.301957649644352

> <r_i_glide_ligand_efficiency_sa>
-0.870996579978512

> <r_i_glide_ligand_efficiency_ln>
-1.7345357158457

> <r_i_glide_gscore>
-7.24698359146445

> <r_i_glide_lipo>
-3.66458821243946

> <r_i_glide_hbond>
-0.065212244680897

> <r_i_glide_metal>
0

> <r_i_glide_rewards>
-3.07343157840228

> <r_i_glide_evdw>
-8.8878116607666

> <r_i_glide_ecoul>
-2.97714257240295

> <r_i_glide_erotb>
0.475375151575859

> <r_i_glide_esite>
-0.0281647386188961

> <r_i_glide_emodel>
-17.5805903767237

> <r_i_glide_energy>
-11.8649542331696

> <r_i_glide_einternal>
4.88138246536255

> <i_i_glide_confnum>
45

> <i_i_glide_posenum>
275

> <r_i_glide_eff_state_penalty>
0

> <s_user_duplicate_titles>
CHEMBL221_lig117

> <i_f3d_flags>
0

> <s_m_subgroup_title>
dock_pv

> <s_m_subgroupid>
dock_pv

> <b_m_subgroup_collapsed>
1

$$$$
CHEMBL221_lig918
                    3D
 Schrodinger Suite 2021-1.
 30 31  0  0  1  0            999 V2000
   20.5942   49.6777   12.8677 C   0  0  0  0  0  0
   21.3466   50.8462   12.9917 N   0  0  0  0  0  0
   22.4517   51.3566   12.2918 C   0  0  0  0  0  0
   23.0679   52.5575   12.7044 C   0  0  0  0  0  0
   24.2551   52.9691   12.0787 C   0  0  0  0  0  0
   24.7718   52.2724   11.0004 C   0  0  0  0  0  0
   24.1229   51.1360   10.5564 C   0  0  0  0  0  0
   22.9967   50.6657   11.2098 C   0  0  0  0  0  0
   22.5075   53.4213   13.7996 C   0  0  0  0  0  0
   21.6660   53.0425   14.6078 O   0  0  0  0  0  0
   23.0047   54.6768   13.8001 O   0  0  0  0  0  0
   19.4010   47.9008   14.0051 C   0  0  0  0  0  0
   19.2086   47.2747   12.7737 C   0  0  0  0  0  0
   19.6257   47.8740   11.5899 C   0  0  0  0  0  0
   20.2904   49.0923   11.6356 C   0  0  0  0  0  0
   20.1208   49.0963   14.0448 C   0  0  0  0  0  0
   18.8200   47.2926   15.2741 C   0  0  0  0  0  0
   18.5120   48.2276   16.1745 F   0  0  0  0  0  0
   17.7147   46.5973   15.0010 F   0  0  0  0  0  0
   19.7228   46.4704   15.7993 F   0  0  0  0  0  0
   21.2511   51.3043   13.8899 H   0  0  0  0  0  0
   24.7846   53.8577   12.3949 H   0  0  0  0  0  0
   25.6702   52.6096   10.5049 H   0  0  0  0  0  0
   24.5223   50.6168    9.6997 H   0  0  0  0  0  0
   22.5906   49.7327   10.8662 H   0  0  0  0  0  0
   22.6971   55.1704   14.5627 H   0  0  0  0  0  0
   18.6990   46.3272   12.7218 H   0  0  0  0  0  0
   19.4173   47.4041   10.6400 H   0  0  0  0  0  0
   20.5531   49.5719   10.7059 H   0  0  0  0  0  0
   20.3144   49.5740   14.9957 H   0  0  0  0  0  0
  1  2  1  0  0  0
  1 15  1  0  0  0
  1 16  2  0  0  0
  2  3  1  0  0  0
  2 21  1  0  0  0
  3  4  2  0  0  0
  3  8  1  0  0  0
  4  9  1  0  0  0
  4  5  1  0  0  0
  5  6  2  0  0  0
  5 22  1  0  0  0
  6  7  1  0  0  0
  6 23  1  0  0  0
  7  8  2  0  0  0
  7 24  1  0  0  0
  8 25  1  0  0  0
  9 10  2  0  0  0
  9 11  1  0  0  0
 11 26  1  0  0  0
 12 13  2  0  0  0
 12 16  1  0  0  0
 12 17  1  0  0  0
 13 14  1  0  0  0
 13 27  1  0  0  0
 14 15  2  0  0  0
 14 28  1  0  0  0
 15 29  1  0  0  0
 16 30  1  0  0  0
 17 18  1  0  0  0
 17 19  1  0  0  0
 17 20  1  0  0  0
M  END
> <s_m_entry_id>
5549

> <s_m_entry_name>
dock_pv.540

> <s_m_Source_Path>
/home/csk/Desktop/cluster/DUD-E-result/pgh1

> <s_m_Source_File>
dock_pv.maegz

> <i_m_Source_File_Index>
540

> <chembl_id>
CHEMBL23588

> <chembl_pref_name>
FLUFENAMIC ACID

> <i_lp_mmshare_version>
53161

> <r_lp_tautomer_probability>
1

> <s_lp_Force_Field>
OPLS_2005

> <r_lp_Energy>
22.269311

> <b_lp_Chiralities_Consistent>
1

> <s_lp_Variant>
CHEMBL221_lig918-1

> <s_i_glide_gridfile>
glide-grid_2oyu

> <i_i_glide_lignum>
1126

> <i_i_glide_rotatable_bonds>
5

> <r_i_docking_score>
-7.24241711906775

> <r_i_glide_ligand_efficiency>
-0.362120855953387

> <r_i_glide_ligand_efficiency_sa>
-0.982947229754753

> <r_i_glide_ligand_efficiency_ln>
-1.81253813399915

> <r_i_glide_gscore>
-7.24241711906775

> <r_i_glide_lipo>
-3.20286322683846

> <r_i_glide_hbond>
0

> <r_i_glide_metal>
0

> <r_i_glide_rewards>
-2.78471663476305

> <r_i_glide_evdw>
-27.3412666320801

> <r_i_glide_ecoul>
-3.68028903007507

> <r_i_glide_erotb>
0.685549577188459

> <r_i_glide_esite>
-0.0212801485394314

> <r_i_glide_emodel>
-39.6743616396201

> <r_i_glide_energy>
-31.0215556621552

> <r_i_glide_einternal>
7.30198049545288

> <i_i_glide_confnum>
6

> <i_i_glide_posenum>
387

> <r_i_glide_eff_state_penalty>
0

> <s_user_duplicate_titles>
CHEMBL221_lig918

> <i_f3d_flags>
0

> <s_m_subgroup_title>
dock_pv

> <s_m_subgroupid>
dock_pv

> <b_m_subgroup_collapsed>
1

$$$$
CHEMBL221_lig20
                    3D
 Schrodinger Suite 2021-1.
 28 29  0  0  1  0            999 V2000
   19.0809   48.1368   15.5773 C   0  0  0  0  0  0
   18.4851   47.5469   14.4676 C   0  0  0  0  0  0
   18.9022   47.8978   13.1875 C   0  0  0  0  0  0
   20.1132   49.0661   15.4281 C   0  0  0  0  0  0
   20.5224   49.4290   14.1356 C   0  0  0  0  0  0
   19.8937   48.8363   13.0260 N   0  0  0  0  0  0
   20.4798   49.4332   11.9261 C   0  0  0  0  0  0
   21.4417   50.3096   12.4428 C   0  0  0  0  0  0
   21.4721   50.3071   13.7567 N   0  0  0  0  0  0
   20.1231   49.1628   10.5679 N   0  3  0  0  0  0
   20.6548   49.8544    9.7136 O   0  0  0  0  0  0
   19.3231   48.2726   10.3167 O   0  5  0  0  0  0
   22.3092   51.0887   11.7240 N   0  0  0  0  0  0
   23.5620   51.6864   12.1740 C   0  0  0  0  0  0
   23.3561   52.8255   13.1922 C   0  0  0  0  0  0
   24.4002   52.1700   10.9806 C   0  0  0  0  0  0
   18.7242   47.8725   16.5624 H   0  0  0  0  0  0
   17.6859   46.8306   14.6007 H   0  0  0  0  0  0
   18.4546   47.4732   12.3026 H   0  0  0  0  0  0
   20.5678   49.5336   16.2840 H   0  0  0  0  0  0
   22.2509   51.0315   10.7171 H   0  0  0  0  0  0
   24.1246   50.8884   12.6645 H   0  0  0  0  0  0
   24.3061   53.2755   13.4802 H   0  0  0  0  0  0
   22.8856   52.4759   14.1113 H   0  0  0  0  0  0
   22.7238   53.6149   12.7844 H   0  0  0  0  0  0
   25.3958   52.4792   11.3019 H   0  0  0  0  0  0
   24.5332   51.3812   10.2384 H   0  0  0  0  0  0
   23.9352   53.0206   10.4809 H   0  0  0  0  0  0
  1  2  1  0  0  0
  1  4  2  0  0  0
  1 17  1  0  0  0
  2  3  2  0  0  0
  2 18  1  0  0  0
  3  6  1  0  0  0
  3 19  1  0  0  0
  4  5  1  0  0  0
  4 20  1  0  0  0
  5  6  1  0  0  0
  5  9  2  0  0  0
  6  7  1  0  0  0
  7  8  2  0  0  0
  7 10  1  0  0  0
  8  9  1  0  0  0
  8 13  1  0  0  0
 10 11  2  0  0  0
 10 12  1  0  0  0
 13 14  1  0  0  0
 13 21  1  0  0  0
 14 15  1  0  0  0
 14 16  1  0  0  0
 14 22  1  0  0  0
 15 23  1  0  0  0
 15 24  1  0  0  0
 15 25  1  0  0  0
 16 26  1  0  0  0
 16 27  1  0  0  0
 16 28  1  0  0  0
M  CHG  2  10   1  12  -1
M  END
> <s_m_entry_id>
5550

> <s_m_entry_name>
dock_pv.541

> <s_m_Source_Path>
/home/csk/Desktop/cluster/DUD-E-result/pgh1

> <s_m_Source_File>
dock_pv.maegz

> <i_m_Source_File_Index>
541

> <chembl_id>
CHEMBL2236573

> <chembl_pref_name>
None

> <i_lp_mmshare_version>
53161

> <r_lp_tautomer_probability>
1

> <s_lp_Force_Field>
OPLS_2005

> <r_lp_Energy>
7.447749

> <b_lp_Chiralities_Consistent>
1

> <s_lp_Variant>
CHEMBL221_lig20-1

> <s_i_glide_gridfile>
glide-grid_2oyu

> <i_i_glide_lignum>
24

> <i_i_glide_rotatable_bonds>
3

> <r_i_docking_score>
-7.2389264326673

> <r_i_glide_ligand_efficiency>
-0.452432902041706

> <r_i_glide_ligand_efficiency_sa>
-1.1400594728411

> <r_i_glide_ligand_efficiency_ln>
-1.91882205181633

> <r_i_glide_gscore>
-7.2389264326673

> <r_i_glide_lipo>
-2.6598633697639

> <r_i_glide_hbond>
0

> <r_i_glide_metal>
0

> <r_i_glide_rewards>
-3.19274823778996

> <r_i_glide_evdw>
-32.6271514892578

> <r_i_glide_ecoul>
-0.682407438755035

> <r_i_glide_erotb>
0.347403865162699

> <r_i_glide_esite>
0

> <r_i_glide_emodel>
-46.9044933114

> <r_i_glide_energy>
-33.3095589280128

> <r_i_glide_einternal>
1.02074646949768

> <i_i_glide_confnum>
1

> <i_i_glide_posenum>
42

> <r_i_glide_eff_state_penalty>
0

> <s_user_duplicate_titles>
CHEMBL221_lig20

> <i_f3d_flags>
0

> <s_m_subgroup_title>
dock_pv

> <s_m_subgroupid>
dock_pv

> <b_m_subgroup_collapsed>
1

$$$$
CHEMBL221_lig477
                    3D
 Schrodinger Suite 2021-1.
 38 40  0  0  1  0            999 V2000
   20.4026   48.5471   13.3612 C   0  0  1  0  0  0
   19.8809   48.8507    6.2135 S   0  0  0  0  0  0
   19.3230   48.8745   12.3268 C   0  0  2  0  0  0
   20.9621   49.8191   14.0080 C   0  0  0  0  0  0
   19.7230   47.5664   14.3479 C   0  0  0  0  0  0
   18.2010   47.9316   12.7188 C   0  0  0  0  0  0
   19.9188   48.8915    8.0209 C   0  0  0  0  0  0
   19.7232   48.8853   10.8355 C   0  0  0  0  0  0
   20.1230   47.4730    5.8672 O   0  0  0  0  0  0
   20.7596   49.8807    5.6747 O   0  0  0  0  0  0
   20.6779   50.1786   15.3320 C   0  0  0  0  0  0
   21.6955   50.7043   13.2086 C   0  0  0  0  0  0
   22.0329   51.9699   13.6833 C   0  0  0  0  0  0
   20.9759   51.4493   15.7941 C   0  0  0  0  0  0
   18.4307   47.2789   13.8546 C   0  0  0  0  0  0
   21.6299   52.3561   14.9595 C   0  0  0  0  0  0
   20.1230   47.0847   15.4000 O   0  0  0  0  0  0
   20.1230   50.0736    8.7530 C   0  0  0  0  0  0
   19.7230   47.6995    8.7187 C   0  0  0  0  0  0
   20.0202   50.0739   10.1533 C   0  0  0  0  0  0
   19.6853   47.7026   10.1081 C   0  0  0  0  0  0
   18.1626   49.0730    5.5458 C   0  0  0  0  0  0
   22.9230   53.0618   12.6858 Cl  0  0  0  0  0  0
   20.5230   51.8731   17.3999 Cl  0  0  0  0  0  0
   17.2603   47.8730   12.2000 H   0  0  0  0  0  0
   18.9232   49.8729   12.5162 H   0  0  0  0  0  0
   20.1330   49.5303   16.0007 H   0  0  0  0  0  0
   21.9648   50.4304   12.1989 H   0  0  0  0  0  0
   17.7594   46.6147   14.3769 H   0  0  0  0  0  0
   21.2180   48.0184   12.8692 H   0  0  0  0  0  0
   21.8595   53.3498   15.3164 H   0  0  0  0  0  0
   20.2650   51.0087    8.2284 H   0  0  0  0  0  0
   19.6128   46.7624    8.1954 H   0  0  0  0  0  0
   20.0763   51.0127   10.6854 H   0  0  0  0  0  0
   19.5908   46.7760   10.6413 H   0  0  0  0  0  0
   18.2336   49.0737    4.4591 H   0  0  0  0  0  0
   17.7260   49.9950    5.9200 H   0  0  0  0  0  0
   17.5682   48.2036    5.8000 H   0  0  0  0  0  0
  1  3  1  0  0  0
  1  4  1  0  0  0
  1 30  1  0  0  0
  1  5  1  0  0  0
  2  7  1  0  0  0
  2  9  2  0  0  0
  2 10  2  0  0  0
  2 22  1  0  0  0
  3  6  1  0  0  0
  3  8  1  0  0  0
  3 26  1  0  0  0
  4 11  2  0  0  0
  4 12  1  0  0  0
  5 17  2  0  0  0
  5 15  1  0  0  0
  6 25  1  0  0  0
  6 15  2  0  0  0
  7 19  1  0  0  0
  7 18  2  0  0  0
  8 20  2  0  0  0
  8 21  1  0  0  0
 11 14  1  0  0  0
 11 27  1  0  0  0
 12 13  2  0  0  0
 12 28  1  0  0  0
 13 16  1  0  0  0
 13 23  1  0  0  0
 14 24  1  0  0  0
 14 16  2  0  0  0
 15 29  1  0  0  0
 16 31  1  0  0  0
 18 20  1  0  0  0
 18 32  1  0  0  0
 19 21  2  0  0  0
 19 33  1  0  0  0
 20 34  1  0  0  0
 21 35  1  0  0  0
 22 36  1  0  0  0
 22 37  1  0  0  0
 22 38  1  0  0  0
M  END
> <s_m_entry_id>
5551

> <s_m_entry_name>
dock_pv.542

> <s_m_Source_Path>
/home/csk/Desktop/cluster/DUD-E-result/pgh1

> <s_m_Source_File>
dock_pv.maegz

> <i_m_Source_File_Index>
542

> <chembl_id>
CHEMBL282924

> <chembl_pref_name>
None

> <i_lp_mmshare_version>
53161

> <r_lp_tautomer_probability>
0.499977396165832

> <s_lp_Force_Field>
OPLS_2005

> <r_lp_Energy>
20.178767

> <b_lp_Chiralities_Consistent>
1

> <s_lp_Variant>
CHEMBL221_lig477-2

> <s_i_glide_gridfile>
glide-grid_2oyu

> <i_i_glide_lignum>
601

> <i_i_glide_rotatable_bonds>
3

> <r_i_docking_score>
-7.23844164309251

> <r_i_glide_ligand_efficiency>
-0.301601735128854

> <r_i_glide_ligand_efficiency_sa>
-0.869969944865514

> <r_i_glide_ligand_efficiency_ln>
-1.73249123563583

> <r_i_glide_gscore>
-7.23844164309251

> <r_i_glide_lipo>
-4.29172753398524

> <r_i_glide_hbond>
0

> <r_i_glide_metal>
0

> <r_i_glide_rewards>
-2.01392242459146

> <r_i_glide_evdw>
-5.76656436920166

> <r_i_glide_ecoul>
-5.96519994735718

> <r_i_glide_erotb>
0.267034758937991

> <r_i_glide_esite>
-0.016718232890131

> <r_i_glide_emodel>
-42.0111530169634

> <r_i_glide_energy>
-11.7317643165588

> <r_i_glide_einternal>
2.38502168655396

> <i_i_glide_confnum>
3

> <i_i_glide_posenum>
273

> <r_i_glide_eff_state_penalty>
0

> <s_user_duplicate_titles>
CHEMBL221_lig477

> <i_f3d_flags>
0

> <s_m_subgroup_title>
dock_pv

> <s_m_subgroupid>
dock_pv

> <b_m_subgroup_collapsed>
1

$$$$
CHEMBL221_lig848
                    3D
 Schrodinger Suite 2021-1.
 39 40  0  0  1  0            999 V2000
   20.5248   50.3012   15.7199 C   0  0  0  0  0  0
   20.0633   49.0554   15.2308 C   0  0  0  0  0  0
   20.4786   48.6404   13.9745 C   0  0  0  0  0  0
   21.3298   51.1207   14.9538 C   0  0  0  0  0  0
   21.7067   50.6993   13.7030 C   0  0  0  0  0  0
   21.2660   49.4730   13.2116 C   0  0  0  0  0  0
   21.7021   48.9853   12.0034 O   0  0  0  0  0  0
   21.8667   49.9912   11.0090 C   0  0  2  0  0  0
   22.7445   51.1433   11.6063 C   0  0  0  0  0  0
   22.5763   51.4934   12.8870 C   0  0  0  0  0  0
   20.4500   50.3757   10.4969 C   0  0  0  0  0  0
   19.7326   51.0737   11.3731 F   0  0  0  0  0  0
   20.5230   51.0729    9.3794 F   0  0  0  0  0  0
   19.7284   49.2868   10.2147 F   0  0  0  0  0  0
   23.9780   51.5362   10.9932 C   0  0  0  0  0  0
   24.1230   50.9566    9.8002 O   0  0  0  0  0  0
   24.8339   52.2740   11.4725 O   0  0  0  0  0  0
   19.9555   51.0703   17.1307 Cl  0  0  0  0  0  0
   19.1140   48.1297   15.9726 C   0  0  0  0  0  0
   17.6183   48.4126   15.8298 C   0  0  0  0  0  0
   16.8785   47.7289   14.6696 C   0  0  0  0  0  0
   16.4868   46.2807   15.0045 C   0  0  0  0  0  0
   17.4715   47.9294   13.2697 C   0  0  0  0  0  0
   20.2015   47.6765   13.5809 H   0  0  0  0  0  0
   21.6307   52.0931   15.3162 H   0  0  0  0  0  0
   22.3593   49.4762   10.1875 H   0  0  0  0  0  0
   23.2389   52.1967   13.3788 H   0  0  0  0  0  0
   25.0061   51.1414    9.4745 H   0  0  0  0  0  0
   19.3246   48.2729   16.9996 H   0  0  0  0  0  0
   19.3409   47.0808   15.7752 H   0  0  0  0  0  0
   17.4408   49.4762   15.7989 H   0  0  0  0  0  0
   17.1329   48.1116   16.7605 H   0  0  0  0  0  0
   15.9549   48.2730   14.6183 H   0  0  0  0  0  0
   17.3413   45.6038   14.9953 H   0  0  0  0  0  0
   15.7065   45.8960   14.3433 H   0  0  0  0  0  0
   16.0456   46.2578   15.9974 H   0  0  0  0  0  0
   18.2148   47.1731   13.0258 H   0  0  0  0  0  0
   16.6900   47.8741   12.5131 H   0  0  0  0  0  0
   17.9176   48.9174   13.1600 H   0  0  0  0  0  0
  1  2  2  0  0  0
  1  4  1  0  0  0
  1 18  1  0  0  0
  2  3  1  0  0  0
  2 19  1  0  0  0
  3  6  2  0  0  0
  3 24  1  0  0  0
  4  5  2  0  0  0
  4 25  1  0  0  0
  5 10  1  0  0  0
  5  6  1  0  0  0
  6  7  1  0  0  0
  7  8  1  0  0  0
  8 11  1  0  0  0
  8  9  1  0  0  0
  8 26  1  0  0  0
  9 15  1  0  0  0
  9 10  2  0  0  0
 10 27  1  0  0  0
 11 12  1  0  0  0
 11 13  1  0  0  0
 11 14  1  0  0  0
 15 16  1  0  0  0
 15 17  2  0  0  0
 16 28  1  0  0  0
 19 20  1  0  0  0
 19 29  1  0  0  0
 19 30  1  0  0  0
 20 21  1  0  0  0
 20 31  1  0  0  0
 20 32  1  0  0  0
 21 22  1  0  0  0
 21 23  1  0  0  0
 21 33  1  0  0  0
 22 34  1  0  0  0
 22 35  1  0  0  0
 22 36  1  0  0  0
 23 37  1  0  0  0
 23 38  1  0  0  0
 23 39  1  0  0  0
M  END
> <s_m_entry_id>
5552

> <s_m_entry_name>
dock_pv.543

> <s_m_Source_Path>
/home/csk/Desktop/cluster/DUD-E-result/pgh1

> <s_m_Source_File>
dock_pv.maegz

> <i_m_Source_File_Index>
543

> <chembl_id>
CHEMBL1630257

> <chembl_pref_name>
None

> <i_lp_mmshare_version>
53161

> <r_lp_tautomer_probability>
1

> <s_lp_Force_Field>
OPLS_2005

> <r_lp_Energy>
14.10205

> <b_lp_Chiralities_Consistent>
1

> <s_lp_Variant>
CHEMBL221_lig848-1

> <s_i_glide_gridfile>
glide-grid_2oyu

> <i_i_glide_lignum>
1040

> <i_i_glide_rotatable_bonds>
6

> <r_i_docking_score>
-7.23342874544787

> <r_i_glide_ligand_efficiency>
-0.314496901975994

> <r_i_glide_ligand_efficiency_sa>
-0.894387353860362

> <r_i_glide_ligand_efficiency_ln>
-1.74910865975487

> <r_i_glide_gscore>
-7.23342874544787

> <r_i_glide_lipo>
-3.96167378346942

> <r_i_glide_hbond>
0

> <r_i_glide_metal>
0

> <r_i_glide_rewards>
-3.12821531314316

> <r_i_glide_evdw>
-7.11280822753906

> <r_i_glide_ecoul>
-1.71704423427582

> <r_i_glide_erotb>
0.469657397683046

> <r_i_glide_esite>
0

> <r_i_glide_emodel>
-17.2813653015481

> <r_i_glide_energy>
-8.82985246181488

> <r_i_glide_einternal>
4.19212865829468

> <i_i_glide_confnum>
4

> <i_i_glide_posenum>
75

> <r_i_glide_eff_state_penalty>
0

> <s_user_duplicate_titles>
CHEMBL221_lig848

> <i_f3d_flags>
0

> <s_m_subgroup_title>
dock_pv

> <s_m_subgroupid>
dock_pv

> <b_m_subgroup_collapsed>
1

$$$$
CHEMBL221_lig629
                    3D
 Schrodinger Suite 2021-1.
 30 31  0  0  1  0            999 V2000
   19.5829   48.1876   11.2945 C   0  0  0  0  0  0
   19.7230   48.5433    9.9559 C   0  0  0  0  0  0
   20.2130   49.7414    9.5635 N   0  0  0  0  0  0
   20.6337   50.5907   10.5290 C   0  0  0  0  0  0
   20.6338   50.2730   11.8915 C   0  0  0  0  0  0
   20.0354   49.0699   12.2866 C   0  0  0  0  0  0
   19.9273   48.8110   13.6598 N   0  0  0  0  0  0
   19.0514   47.4646   14.3786 S   0  0  0  0  0  0
   17.2538   47.9346   14.2000 C   0  0  0  0  0  0
   19.3801   47.4943   15.8000 O   0  0  0  0  0  0
   19.3230   46.2730   13.5782 O   0  0  0  0  0  0
   21.1999   51.1105   12.8342 O   0  0  0  0  0  0
   22.4367   51.6984   12.6286 C   0  0  0  0  0  0
   23.3608   51.2159   11.6866 C   0  0  0  0  0  0
   24.5610   51.8784   11.4682 C   0  0  0  0  0  0
   24.8988   52.9849   12.2436 C   0  0  0  0  0  0
   24.0096   53.4579   13.2013 C   0  0  0  0  0  0
   22.7860   52.8191   13.3945 C   0  0  0  0  0  0
   21.7230   53.4368   14.6000 Cl  0  0  0  0  0  0
   19.1197   47.2416   11.5123 H   0  0  0  0  0  0
   19.3893   47.8807    9.1699 H   0  0  0  0  0  0
   21.0346   51.5331   10.1986 H   0  0  0  0  0  0
   20.2801   49.5173   14.2880 H   0  0  0  0  0  0
   16.6397   47.0730   14.4443 H   0  0  0  0  0  0
   17.0594   48.2730   13.1842 H   0  0  0  0  0  0
   17.0457   48.7111   14.9244 H   0  0  0  0  0  0
   23.1565   50.3311   11.1035 H   0  0  0  0  0  0
   25.2537   51.5072   10.7272 H   0  0  0  0  0  0
   25.8523   53.4730   12.1111 H   0  0  0  0  0  0
   24.2679   54.3204   13.8000 H   0  0  0  0  0  0
  1  6  1  0  0  0
  1  2  2  0  0  0
  1 20  1  0  0  0
  2  3  1  0  0  0
  2 21  1  0  0  0
  3  4  2  0  0  0
  4  5  1  0  0  0
  4 22  1  0  0  0
  5  6  2  0  0  0
  5 12  1  0  0  0
  6  7  1  0  0  0
  7  8  1  0  0  0
  7 23  1  0  0  0
  8 10  2  0  0  0
  8 11  2  0  0  0
  8  9  1  0  0  0
  9 24  1  0  0  0
  9 25  1  0  0  0
  9 26  1  0  0  0
 12 13  1  0  0  0
 13 14  2  0  0  0
 13 18  1  0  0  0
 14 15  1  0  0  0
 14 27  1  0  0  0
 15 16  2  0  0  0
 15 28  1  0  0  0
 16 17  1  0  0  0
 16 29  1  0  0  0
 17 18  2  0  0  0
 17 30  1  0  0  0
 18 19  1  0  0  0
M  END
> <s_m_entry_id>
5553

> <s_m_entry_name>
dock_pv.544

> <s_m_Source_Path>
/home/csk/Desktop/cluster/DUD-E-result/pgh1

> <s_m_Source_File>
dock_pv.maegz

> <i_m_Source_File_Index>
544

> <chembl_id>
CHEMBL388628

> <chembl_pref_name>
None

> <i_lp_mmshare_version>
53161

> <r_lp_tautomer_probability>
1

> <s_lp_Force_Field>
OPLS_2005

> <r_lp_Energy>
5.987841

> <b_lp_Chiralities_Consistent>
1

> <s_lp_Variant>
CHEMBL221_lig629-1

> <s_i_glide_gridfile>
glide-grid_2oyu

> <i_i_glide_lignum>
768

> <i_i_glide_rotatable_bonds>
4

> <r_i_docking_score>
-7.2322158560352

> <r_i_glide_ligand_efficiency>
-0.380642939791327

> <r_i_glide_ligand_efficiency_sa>
-1.01570824711665

> <r_i_glide_ligand_efficiency_ln>
-1.83352205325878

> <r_i_glide_gscore>
-7.2322158560352

> <r_i_glide_lipo>
-3.87070510908631

> <r_i_glide_hbond>
0

> <r_i_glide_metal>
0

> <r_i_glide_rewards>
-1.80764605814404

> <r_i_glide_evdw>
-34.1898727416992

> <r_i_glide_ecoul>
-2.7105450630188

> <r_i_glide_erotb>
0.617005163901103

> <r_i_glide_esite>
-0.054794456168179

> <r_i_glide_emodel>
-53.3991862304686

> <r_i_glide_energy>
-36.900417804718

> <r_i_glide_einternal>
0.771462976932526

> <i_i_glide_confnum>
13

> <i_i_glide_posenum>
231

> <r_i_glide_eff_state_penalty>
0

> <s_user_duplicate_titles>
CHEMBL221_lig629

> <i_f3d_flags>
0

> <s_m_subgroup_title>
dock_pv

> <s_m_subgroupid>
dock_pv

> <b_m_subgroup_collapsed>
1

$$$$
CHEMBL221_lig17
                    3D
 Schrodinger Suite 2021-1.
 31 32  0  0  1  0            999 V2000
   24.5301   52.2816   11.7100 C   0  0  0  0  0  0
   24.1486   52.7802   12.9521 C   0  0  0  0  0  0
   23.0826   52.1954   13.6326 C   0  0  0  0  0  0
   23.8257   51.2524   11.0991 C   0  0  0  0  0  0
   22.7505   50.6750   11.7850 C   0  0  0  0  0  0
   22.4200   51.1323   13.0699 N   0  0  0  0  0  0
   21.4291   50.2728   13.5080 C   0  0  0  0  0  0
   21.0977   49.4935   12.3895 C   0  0  0  0  0  0
   21.9351   49.6821   11.3969 N   0  0  0  0  0  0
   20.9225   50.2195   14.8441 N   0  3  0  0  0  0
   20.1229   49.3257   15.0974 O   0  0  0  0  0  0
   21.3228   51.0260   15.6726 O   0  5  0  0  0  0
   20.0674   48.5924   12.2799 N   0  0  0  0  0  0
   19.6375   47.7853   11.1353 C   0  0  0  0  0  0
   19.7708   48.4487    9.7437 C   0  0  0  0  0  0
   19.1957   47.5987    8.5953 C   0  0  0  0  0  0
   19.4603   48.1844    7.1962 C   0  0  0  0  0  0
   25.3995   52.6730   11.2066 H   0  0  0  0  0  0
   24.6933   53.6035   13.3957 H   0  0  0  0  0  0
   22.7496   52.5355   14.5996 H   0  0  0  0  0  0
   24.1217   50.8911   10.1266 H   0  0  0  0  0  0
   19.5774   48.3480   13.1293 H   0  0  0  0  0  0
   18.5848   47.5485   11.2942 H   0  0  0  0  0  0
   20.1245   46.8114   11.1510 H   0  0  0  0  0  0
   20.8112   48.6501    9.4949 H   0  0  0  0  0  0
   19.3231   49.4384    9.8001 H   0  0  0  0  0  0
   18.1230   47.4730    8.7300 H   0  0  0  0  0  0
   19.6320   46.6007    8.6396 H   0  0  0  0  0  0
   19.1144   47.4914    6.4338 H   0  0  0  0  0  0
   20.5222   48.3519    7.0195 H   0  0  0  0  0  0
   18.9427   49.1283    7.0188 H   0  0  0  0  0  0
  1  2  1  0  0  0
  1  4  2  0  0  0
  1 18  1  0  0  0
  2  3  2  0  0  0
  2 19  1  0  0  0
  3  6  1  0  0  0
  3 20  1  0  0  0
  4  5  1  0  0  0
  4 21  1  0  0  0
  5  6  1  0  0  0
  5  9  2  0  0  0
  6  7  1  0  0  0
  7  8  2  0  0  0
  7 10  1  0  0  0
  8  9  1  0  0  0
  8 13  1  0  0  0
 10 11  2  0  0  0
 10 12  1  0  0  0
 13 14  1  0  0  0
 13 22  1  0  0  0
 14 15  1  0  0  0
 14 23  1  0  0  0
 14 24  1  0  0  0
 15 16  1  0  0  0
 15 25  1  0  0  0
 15 26  1  0  0  0
 16 17  1  0  0  0
 16 27  1  0  0  0
 16 28  1  0  0  0
 17 29  1  0  0  0
 17 30  1  0  0  0
 17 31  1  0  0  0
M  CHG  2  10   1  12  -1
M  END
> <s_m_entry_id>
5554

> <s_m_entry_name>
dock_pv.545

> <s_m_Source_Path>
/home/csk/Desktop/cluster/DUD-E-result/pgh1

> <s_m_Source_File>
dock_pv.maegz

> <i_m_Source_File_Index>
545

> <chembl_id>
CHEMBL2236576

> <chembl_pref_name>
None

> <i_lp_mmshare_version>
53161

> <r_lp_tautomer_probability>
1

> <s_lp_Force_Field>
OPLS_2005

> <r_lp_Energy>
7.423088

> <b_lp_Chiralities_Consistent>
1

> <s_lp_Variant>
CHEMBL221_lig17-1

> <s_i_glide_gridfile>
glide-grid_2oyu

> <i_i_glide_lignum>
21

> <i_i_glide_rotatable_bonds>
5

> <r_i_docking_score>
-7.2296511626197

> <r_i_glide_ligand_efficiency>
-0.425273597801159

> <r_i_glide_ligand_efficiency_sa>
-1.09349817198641

> <r_i_glide_ligand_efficiency_ln>
-1.88605499191168

> <r_i_glide_gscore>
-7.2296511626197

> <r_i_glide_lipo>
-2.94460108059184

> <r_i_glide_hbond>
0

> <r_i_glide_metal>
0

> <r_i_glide_rewards>
-3.20268097979438

> <r_i_glide_evdw>
-34.7409629821777

> <r_i_glide_ecoul>
-1.89340734481812

> <r_i_glide_erotb>
0.938690148598112

> <r_i_glide_esite>
0

> <r_i_glide_emodel>
-50.6039766638656

> <r_i_glide_energy>
-36.6343703269958

> <r_i_glide_einternal>
1.22651243209839

> <i_i_glide_confnum>
4

> <i_i_glide_posenum>
392

> <r_i_glide_eff_state_penalty>
0

> <s_user_duplicate_titles>
CHEMBL221_lig17

> <i_f3d_flags>
0

> <s_m_subgroup_title>
dock_pv

> <s_m_subgroupid>
dock_pv

> <b_m_subgroup_collapsed>
1

$$$$
CHEMBL221_lig497
                    3D
 Schrodinger Suite 2021-1.
 45 46  0  0  1  0            999 V2000
   20.9211   50.1095   12.7856 C   0  0  0  0  0  0
   20.2150   49.2076   12.0855 C   0  0  0  0  0  0
   20.7756   49.8730   14.2190 C   0  0  0  0  0  0
   19.5833   48.2731   13.1061 C   0  0  0  0  0  0
   19.8628   48.8685    6.0040 S   0  0  0  0  0  0
   20.0003   48.7933   14.3603 O   0  0  0  0  0  0
   21.5842   51.2145   12.3526 O   0  0  0  0  0  0
   20.0323   49.1686   10.6018 C   0  0  0  0  0  0
   19.8925   49.0135    7.7871 C   0  0  0  0  0  0
   20.7323   49.8730    5.4002 O   0  0  0  0  0  0
   20.1230   47.4730    5.7514 O   0  0  0  0  0  0
   21.2382   50.5229   15.1564 O   0  0  0  0  0  0
   19.6882   47.8731    8.5623 C   0  0  0  0  0  0
   20.1230   50.2346    8.4195 C   0  0  0  0  0  0
   19.7230   47.9705    9.9472 C   0  0  0  0  0  0
   20.2202   50.3061    9.8092 C   0  0  0  0  0  0
   18.1230   49.0730    5.4113 C   0  0  0  0  0  0
   20.1230   46.8511   13.0725 C   0  0  0  0  0  0
   18.0526   48.2730   13.1174 C   0  0  0  0  0  0
   22.9469   51.3796   12.7513 C   0  0  1  0  0  0
   23.8443   51.0967   11.5222 C   0  0  0  0  0  0
   23.0493   52.7809   13.3794 C   0  0  0  0  0  0
   24.6792   52.2730   11.0021 C   0  0  0  0  0  0
   19.4824   46.9195    8.1014 H   0  0  0  0  0  0
   20.2397   51.1301    7.8252 H   0  0  0  0  0  0
   19.5318   47.0730   10.4882 H   0  0  0  0  0  0
   20.4316   51.2639   10.2592 H   0  0  0  0  0  0
   18.1234   49.0729    4.3223 H   0  0  0  0  0  0
   17.5476   48.2258    5.7703 H   0  0  0  0  0  0
   17.7220   50.0055    5.8000 H   0  0  0  0  0  0
   19.7230   46.2498   12.2701 H   0  0  0  0  0  0
   21.2108   46.8288   12.9999 H   0  0  0  0  0  0
   19.8187   46.3362   13.9849 H   0  0  0  0  0  0
   17.6537   47.8555   12.2000 H   0  0  0  0  0  0
   17.6434   47.7038   13.9529 H   0  0  0  0  0  0
   17.6622   49.2826   13.1775 H   0  0  0  0  0  0
   23.2504   50.6730   13.5249 H   0  0  0  0  0  0
   23.2379   50.7159   10.6985 H   0  0  0  0  0  0
   24.5230   50.2778   11.7668 H   0  0  0  0  0  0
   24.0566   52.9850   13.7424 H   0  0  0  0  0  0
   22.7759   53.5603   12.6688 H   0  0  0  0  0  0
   22.3786   52.8731   14.2338 H   0  0  0  0  0  0
   25.3313   51.9420   10.2001 H   0  0  0  0  0  0
   25.3236   52.6870   11.7775 H   0  0  0  0  0  0
   24.0476   53.0715   10.6122 H   0  0  0  0  0  0
  1  2  2  0  0  0
  1  3  1  0  0  0
  1  7  1  0  0  0
  2  4  1  0  0  0
  2  8  1  0  0  0
  3  6  1  0  0  0
  3 12  2  0  0  0
  4 18  1  0  0  0
  4 19  1  0  0  0
  4  6  1  0  0  0
  5  9  1  0  0  0
  5 10  2  0  0  0
  5 11  2  0  0  0
  5 17  1  0  0  0
  7 20  1  0  0  0
  8 15  1  0  0  0
  8 16  2  0  0  0
  9 14  2  0  0  0
  9 13  1  0  0  0
 13 15  2  0  0  0
 13 24  1  0  0  0
 14 16  1  0  0  0
 14 25  1  0  0  0
 15 26  1  0  0  0
 16 27  1  0  0  0
 17 28  1  0  0  0
 17 29  1  0  0  0
 17 30  1  0  0  0
 18 31  1  0  0  0
 18 32  1  0  0  0
 18 33  1  0  0  0
 19 34  1  0  0  0
 19 35  1  0  0  0
 19 36  1  0  0  0
 20 21  1  0  0  0
 20 22  1  0  0  0
 20 37  1  0  0  0
 21 23  1  0  0  0
 21 38  1  0  0  0
 21 39  1  0  0  0
 22 40  1  0  0  0
 22 41  1  0  0  0
 22 42  1  0  0  0
 23 43  1  0  0  0
 23 44  1  0  0  0
 23 45  1  0  0  0
M  END
> <s_m_entry_id>
5555

> <s_m_entry_name>
dock_pv.546

> <s_m_Source_Path>
/home/csk/Desktop/cluster/DUD-E-result/pgh1

> <s_m_Source_File>
dock_pv.maegz

> <i_m_Source_File_Index>
546

> <chembl_id>
CHEMBL304982

> <chembl_pref_name>
None

> <i_lp_mmshare_version>
53161

> <r_lp_tautomer_probability>
1

> <s_lp_Force_Field>
OPLS_2005

> <r_lp_Energy>
12.981406

> <b_lp_Chiralities_Consistent>
1

> <s_lp_Variant>
CHEMBL221_lig497-2

> <s_i_glide_gridfile>
glide-grid_2oyu

> <i_i_glide_lignum>
632

> <i_i_glide_rotatable_bonds>
5

> <r_i_docking_score>
-7.22717542269706

> <r_i_glide_ligand_efficiency>
-0.314225018378133

> <r_i_glide_ligand_efficiency_sa>
-0.893614153074849

> <r_i_glide_ligand_efficiency_ln>
-1.74759654961173

> <r_i_glide_gscore>
-7.22717542269706

> <r_i_glide_lipo>
-3.59181926532906

> <r_i_glide_hbond>
0

> <r_i_glide_metal>
0

> <r_i_glide_rewards>
-2.27448645306574

> <r_i_glide_evdw>
-18.7987365722656

> <r_i_glide_ecoul>
-5.9837760925293

> <r_i_glide_erotb>
0.495383931220623

> <r_i_glide_esite>
-0.0187503930302071

> <r_i_glide_emodel>
-21.836925191201

> <r_i_glide_energy>
-24.7825126647949

> <r_i_glide_einternal>
11.2863006591797

> <i_i_glide_confnum>
6

> <i_i_glide_posenum>
148

> <r_i_glide_eff_state_penalty>
0

> <s_user_duplicate_titles>
CHEMBL221_lig497

> <i_f3d_flags>
0

> <s_m_subgroup_title>
dock_pv

> <s_m_subgroupid>
dock_pv

> <b_m_subgroup_collapsed>
1

$$$$
CHEMBL221_lig55
                    3D
 Schrodinger Suite 2021-1.
 32 33  0  0  1  0            999 V2000
   21.7501   50.3307   11.3118 C   0  0  0  0  0  0
   20.4956   50.3896   11.7928 N   0  0  0  0  0  0
   22.7268   51.3653   11.8155 C   0  0  0  0  0  0
   19.7230   49.2219   11.8975 N   0  0  0  0  0  0
   22.1185   49.4731   10.5127 O   0  0  0  0  0  0
   22.4231   52.1921   12.9090 C   0  0  0  0  0  0
   23.9836   51.4749   11.2037 C   0  0  0  0  0  0
   19.3359   48.7976   13.1757 C   0  0  0  0  0  0
   24.6092   53.1809   12.7734 C   0  0  0  0  0  0
   18.3528   48.1295   15.7135 C   0  0  0  0  0  0
   23.3580   53.1069   13.3727 C   0  0  0  0  0  0
   24.9223   52.3797   11.6804 C   0  0  0  0  0  0
   25.7814   54.2730   13.3986 Cl  0  0  0  0  0  0
   20.1229   49.0089   14.3141 C   0  0  0  0  0  0
   18.0908   48.1913   13.3149 C   0  0  0  0  0  0
   17.5896   47.8731   14.5685 C   0  0  0  0  0  0
   19.6314   48.6715   15.5723 C   0  0  0  0  0  0
   17.9293   47.8730   16.9999 O   0  0  0  0  0  0
   16.5654   47.5648   17.2547 C   0  0  0  0  0  0
   20.1178   51.1831   12.2887 H   0  0  0  0  0  0
   18.9954   49.2438   11.1978 H   0  0  0  0  0  0
   21.4711   52.1433   13.4171 H   0  0  0  0  0  0
   24.2521   50.8524   10.3605 H   0  0  0  0  0  0
   23.1140   53.7542   14.1999 H   0  0  0  0  0  0
   25.8919   52.4468   11.2079 H   0  0  0  0  0  0
   21.1002   49.4619   14.2335 H   0  0  0  0  0  0
   17.4766   47.9828   12.4531 H   0  0  0  0  0  0
   16.6027   47.4424   14.6146 H   0  0  0  0  0  0
   20.2315   48.8619   16.4493 H   0  0  0  0  0  0
   16.5227   47.0731   18.2206 H   0  0  0  0  0  0
   15.9625   48.4719   17.3025 H   0  0  0  0  0  0
   16.1230   46.8577   16.5557 H   0  0  0  0  0  0
  1  2  1  0  0  0
  1  3  1  0  0  0
  1  5  2  0  0  0
  2  4  1  0  0  0
  2 20  1  0  0  0
  3  6  1  0  0  0
  3  7  2  0  0  0
  4  8  1  0  0  0
  4 21  1  0  0  0
  6 11  2  0  0  0
  6 22  1  0  0  0
  7 12  1  0  0  0
  7 23  1  0  0  0
  8 14  1  0  0  0
  8 15  2  0  0  0
  9 12  2  0  0  0
  9 13  1  0  0  0
  9 11  1  0  0  0
 10 16  2  0  0  0
 10 18  1  0  0  0
 10 17  1  0  0  0
 11 24  1  0  0  0
 12 25  1  0  0  0
 14 17  2  0  0  0
 14 26  1  0  0  0
 15 16  1  0  0  0
 15 27  1  0  0  0
 16 28  1  0  0  0
 17 29  1  0  0  0
 18 19  1  0  0  0
 19 30  1  0  0  0
 19 31  1  0  0  0
 19 32  1  0  0  0
M  END
> <s_m_entry_id>
5556

> <s_m_entry_name>
dock_pv.547

> <s_m_Source_Path>
/home/csk/Desktop/cluster/DUD-E-result/pgh1

> <s_m_Source_File>
dock_pv.maegz

> <i_m_Source_File_Index>
547

> <chembl_id>
CHEMBL347187

> <chembl_pref_name>
None

> <i_lp_mmshare_version>
53161

> <r_lp_tautomer_probability>
1

> <s_lp_Force_Field>
OPLS_2005

> <r_lp_Energy>
20.031008

> <b_lp_Chiralities_Consistent>
1

> <s_lp_Variant>
CHEMBL221_lig55-1

> <s_i_glide_gridfile>
glide-grid_2oyu

> <i_i_glide_lignum>
72

> <i_i_glide_rotatable_bonds>
5

> <r_i_docking_score>
-7.21201867824491

> <r_i_glide_ligand_efficiency>
-0.379579930433943

> <r_i_glide_ligand_efficiency_sa>
-1.01287171119758

> <r_i_glide_ligand_efficiency_ln>
-1.82840163489333

> <r_i_glide_gscore>
-7.21201867824491

> <r_i_glide_lipo>
-3.89260642850891

> <r_i_glide_hbond>
0

> <r_i_glide_metal>
0

> <r_i_glide_rewards>
-2.21990137113226

> <r_i_glide_evdw>
-32.8828010559082

> <r_i_glide_ecoul>
-1.06962215900421

> <r_i_glide_erotb>
0.705072498042299

> <r_i_glide_esite>
0

> <r_i_glide_emodel>
-46.6785156852761

> <r_i_glide_energy>
-33.9524232149124

> <r_i_glide_einternal>
5.64949560165405

> <i_i_glide_confnum>
7

> <i_i_glide_posenum>
132

> <r_i_glide_eff_state_penalty>
0

> <s_user_duplicate_titles>
CHEMBL221_lig55

> <i_f3d_flags>
0

> <s_m_subgroup_title>
dock_pv

> <s_m_subgroupid>
dock_pv

> <b_m_subgroup_collapsed>
1

$$$$
CHEMBL221_lig993
                    3D
 Schrodinger Suite 2021-1.
 28 29  0  0  1  0            999 V2000
   22.9368   52.0088   11.4515 C   0  0  2  0  0  0
   22.8699   52.3550   12.9437 C   0  0  0  0  0  0
   22.0302   51.6960   13.7626 C   0  0  0  0  0  0
   21.2099   50.6023   13.2369 C   0  0  0  0  0  0
   20.5485   49.6835   14.0593 C   0  0  0  0  0  0
   19.7597   48.6730   13.4895 C   0  0  0  0  0  0
   19.6841   48.5620   12.0946 C   0  0  0  0  0  0
   20.3592   49.4560   11.2718 C   0  0  0  0  0  0
   21.1148   50.4738   11.8464 C   0  0  0  0  0  0
   21.7201   51.3811   11.0000 O   0  0  0  0  0  0
   23.5866   53.5295   13.4000 C   0  0  0  0  0  0
   24.6791   53.8730   12.9577 O   0  0  0  0  0  0
   24.1757   51.2149   11.0449 C   0  0  0  0  0  0
   18.8184   47.5295   14.5211 S   0  0  0  0  0  0
   18.4324   48.6730   15.5945 F   0  0  0  0  0  0
   19.1899   46.2981   13.5390 F   0  0  0  0  0  0
   17.9612   46.4889   15.4000 F   0  0  0  0  0  0
   17.4749   47.8730   13.6877 F   0  0  0  0  0  0
   20.1230   47.1672   15.4000 F   0  0  0  0  0  0
   25.2520   51.9989   11.0000 F   0  0  0  0  0  0
   24.4075   50.2245   11.8896 F   0  0  0  0  0  0
   24.0481   50.6732    9.8387 F   0  0  0  0  0  0
   20.2236   49.2761    9.3817 Br  0  0  0  0  0  0
   23.0085   52.9359   10.8911 H   0  0  0  0  0  0
   21.9247   51.9891   14.7990 H   0  0  0  0  0  0
   20.6219   49.7721   15.1345 H   0  0  0  0  0  0
   19.0806   47.7896   11.6384 H   0  0  0  0  0  0
   23.1184   54.0975   14.2000 H   0  0  0  0  0  0
  1  2  1  0  0  0
  1 10  1  0  0  0
  1 13  1  0  0  0
  1 24  1  0  0  0
  2  3  2  0  0  0
  2 11  1  0  0  0
  3  4  1  0  0  0
  3 25  1  0  0  0
  4  5  1  0  0  0
  4  9  2  0  0  0
  5  6  2  0  0  0
  5 26  1  0  0  0
  6  7  1  0  0  0
  6 14  1  0  0  0
  7  8  2  0  0  0
  7 27  1  0  0  0
  8  9  1  0  0  0
  8 23  1  0  0  0
  9 10  1  0  0  0
 11 12  2  0  0  0
 11 28  1  0  0  0
 13 20  1  0  0  0
 13 21  1  0  0  0
 13 22  1  0  0  0
 14 15  1  0  0  0
 14 16  1  0  0  0
 14 17  1  0  0  0
 14 18  1  0  0  0
 14 19  1  0  0  0
M  END
> <s_m_entry_id>
5557

> <s_m_entry_name>
dock_pv.548

> <s_m_Source_Path>
/home/csk/Desktop/cluster/DUD-E-result/pgh1

> <s_m_Source_File>
dock_pv.maegz

> <i_m_Source_File_Index>
548

> <chembl_id>
CHEMBL4098347

> <chembl_pref_name>
None

> <i_lp_mmshare_version>
53161

> <r_lp_tautomer_probability>
1

> <s_lp_Force_Field>
OPLS_2005

> <r_lp_Energy>
12.224824

> <b_lp_Chiralities_Consistent>
1

> <s_lp_Variant>
CHEMBL221_lig993-1

> <s_i_glide_gridfile>
glide-grid_2oyu

> <i_i_glide_lignum>
1237

> <i_i_glide_rotatable_bonds>
3

> <r_i_docking_score>
-7.20782728047637

> <r_i_glide_ligand_efficiency>
-0.313383794803321

> <r_i_glide_ligand_efficiency_sa>
-0.891221825130268

> <r_i_glide_ligand_efficiency_ln>
-1.74291799338352

> <r_i_glide_gscore>
-7.20782728047637

> <r_i_glide_lipo>
-3.15055118130838

> <r_i_glide_hbond>
0

> <r_i_glide_metal>
0

> <r_i_glide_rewards>
-2.46162237972746

> <r_i_glide_evdw>
-26.822509765625

> <r_i_glide_ecoul>
-1.24584627151489

> <r_i_glide_erotb>
0

> <r_i_glide_esite>
-0.0676512904320503

> <r_i_glide_emodel>
-37.6047652801788

> <r_i_glide_energy>
-28.0683560371399

> <r_i_glide_einternal>
3.17670202255249

> <i_i_glide_confnum>
1

> <i_i_glide_posenum>
260

> <r_i_glide_eff_state_penalty>
0

> <s_user_duplicate_titles>
CHEMBL221_lig993

> <i_f3d_flags>
0

> <s_m_subgroup_title>
dock_pv

> <s_m_subgroupid>
dock_pv

> <b_m_subgroup_collapsed>
1

$$$$
CHEMBL221_lig1047 
                    3D
 Schrodinger Suite 2021-1.
 45 47  0  0  1  0            999 V2000
   20.9238   49.8819    5.7223 O   0  0  0  0  0  0
   20.0032   48.9125    6.3060 S   0  0  0  0  0  0
   20.1229   47.4969    5.9918 O   0  0  0  0  0  0
   20.1230   50.2461    8.7649 C   0  0  0  0  0  0
   20.0349   49.0202    8.0979 C   0  0  0  0  0  0
   19.7456   47.8688    8.8326 C   0  0  0  0  0  0
   19.6541   47.9424   10.2151 C   0  0  0  0  0  0
   19.7809   49.1474   10.8876 C   0  0  0  0  0  0
   19.9830   50.3216   10.1545 C   0  0  0  0  0  0
   18.4157   49.3887    5.8201 N   0  0  0  0  0  0
   19.7858   49.1240   12.3055 N   0  0  0  0  0  0
   20.6648   49.7183   13.1978 C   0  0  0  0  0  0
   20.1703   49.4569   14.4544 C   0  0  0  0  0  0
   19.1072   48.5771   14.2441 C   0  0  0  0  0  0
   18.8719   48.3830   12.9680 N   0  0  0  0  0  0
   20.6246   50.1033   15.6672 C   0  0  0  0  0  0
   20.9764   50.6732   16.6006 N   0  0  0  0  0  0
   21.7659   50.5050   12.9282 N   0  0  0  0  0  0
   22.6585   50.3207   11.9495 C   0  0  0  0  0  0
   23.8918   51.2275   11.8746 C   0  0  0  0  0  0
   22.5229   49.4730   11.0899 O   0  0  0  0  0  0
   23.9046   52.2909   12.8978 N   0  0  0  0  0  0
   25.2347   52.9208   12.8604 C   0  0  0  0  0  0
   25.3539   54.2669   13.5589 C   0  0  0  0  0  0
   24.2247   55.0718   13.4016 O   0  0  0  0  0  0
   22.9757   54.4762   13.6046 C   0  0  0  0  0  0
   22.8291   53.2750   12.7011 C   0  0  0  0  0  0
   20.1513   51.1400    8.1714 H   0  0  0  0  0  0
   19.6191   46.9156    8.3450 H   0  0  0  0  0  0
   19.5099   47.0740   10.8103 H   0  0  0  0  0  0
   20.0403   51.2774   10.6526 H   0  0  0  0  0  0
   17.6498   48.8366    6.2234 H   0  0  0  0  0  0
   18.2421   50.3969    5.8961 H   0  0  0  0  0  0
   18.4664   48.1556   15.0061 H   0  0  0  0  0  0
   22.0259   51.1961   13.6195 H   0  0  0  0  0  0
   24.7482   50.5642   11.9995 H   0  0  0  0  0  0
   23.9535   51.6489   10.8682 H   0  0  0  0  0  0
   25.9228   52.2736   13.3809 H   0  0  0  0  0  0
   25.5849   53.0377   11.8329 H   0  0  0  0  0  0
   26.2252   54.8051   13.1844 H   0  0  0  0  0  0
   25.5242   54.1098   14.6001 H   0  0  0  0  0  0
   22.2009   55.2132   13.4076 H   0  0  0  0  0  0
   22.8772   54.1577   14.6148 H   0  0  0  0  0  0
   22.9240   53.6232   11.6989 H   0  0  0  0  0  0
   21.8121   52.8883   12.7932 H   0  0  0  0  0  0
  1  2  2  0  0  0
  2  3  2  0  0  0
  2  5  1  0  0  0
  2 10  1  0  0  0
  4  5  2  0  0  0
  4  9  1  0  0  0
  4 28  1  0  0  0
  5  6  1  0  0  0
  6  7  2  0  0  0
  6 29  1  0  0  0
  7  8  1  0  0  0
  7 30  1  0  0  0
  8  9  2  0  0  0
  8 11  1  0  0  0
  9 31  1  0  0  0
 10 32  1  0  0  0
 10 33  1  0  0  0
 11 12  1  0  0  0
 11 15  1  0  0  0
 12 13  2  0  0  0
 12 18  1  0  0  0
 13 14  1  0  0  0
 13 16  1  0  0  0
 14 15  2  0  0  0
 14 34  1  0  0  0
 16 17  3  0  0  0
 18 19  1  0  0  0
 18 35  1  0  0  0
 19 20  1  0  0  0
 19 21  2  0  0  0
 20 22  1  0  0  0
 20 36  1  0  0  0
 20 37  1  0  0  0
 22 23  1  0  0  0
 22 27  1  0  0  0
 23 24  1  0  0  0
 23 38  1  0  0  0
 23 39  1  0  0  0
 24 25  1  0  0  0
 24 40  1  0  0  0
 24 41  1  0  0  0
 25 26  1  0  0  0
 26 27  1  0  0  0
 26 42  1  0  0  0
 26 43  1  0  0  0
 27 44  1  0  0  0
 27 45  1  0  0  0
M  END
> <s_m_entry_id>
5558

> <s_m_entry_name>
dock_pv.549

> <s_m_Source_Path>
/home/csk/Desktop/cluster/DUD-E-result/pgh1

> <s_m_Source_File>
dock_pv.maegz

> <i_m_Source_File_Index>
549

> <chembl_id>
CHEMBL4532877

> <chembl_pref_name>
None

> <i_lp_mmshare_version>
53161

> <r_lp_tautomer_probability>
1

> <s_lp_Force_Field>
OPLS_2005

> <r_lp_Energy>
36.415738

> <b_lp_Chiralities_Consistent>
1

> <s_lp_Variant>
CHEMBL221_lig1047 -1

> <s_i_glide_gridfile>
glide-grid_2oyu

> <i_i_glide_lignum>
1304

> <i_i_glide_rotatable_bonds>
6

> <r_i_docking_score>
-7.20567229876274

> <r_i_glide_ligand_efficiency>
-0.266876751806027

> <r_i_glide_ligand_efficiency_sa>
-0.8006302545385

> <r_i_glide_ligand_efficiency_ln>
-1.6773617163598

> <r_i_glide_gscore>
-7.20567229876274

> <r_i_glide_lipo>
-3.11026516154965

> <r_i_glide_hbond>
-0.54154141441586

> <r_i_glide_metal>
0

> <r_i_glide_rewards>
-2.80974638639849

> <r_i_glide_evdw>
-8.08535671234131

> <r_i_glide_ecoul>
-5.20508193969727

> <r_i_glide_erotb>
0.511835024814355

> <r_i_glide_esite>
-0.070924234641436

> <r_i_glide_emodel>
-28.3373981248302

> <r_i_glide_energy>
-13.2904386520386

> <r_i_glide_einternal>
3.73112940788269

> <i_i_glide_confnum>
21

> <i_i_glide_posenum>
131

> <r_i_glide_eff_state_penalty>
0

> <s_user_duplicate_titles>
CHEMBL221_lig1047 

> <i_f3d_flags>
0

> <s_m_subgroup_title>
dock_pv

> <s_m_subgroupid>
dock_pv

> <b_m_subgroup_collapsed>
1

$$$$
CHEMBL221_lig550
                    3D
 Schrodinger Suite 2021-1.
 30 31  0  0  1  0            999 V2000
   19.4981   48.0377   11.2515 C   0  0  0  0  0  0
   19.7230   48.2730    9.8959 C   0  0  0  0  0  0
   20.3183   49.3994    9.4361 N   0  0  0  0  0  0
   20.7194   50.3167   10.3486 C   0  0  0  0  0  0
   20.5874   50.1374   11.7304 C   0  0  0  0  0  0
   19.9391   48.9831   12.1883 C   0  0  0  0  0  0
   19.7734   48.8425   13.5735 N   0  0  0  0  0  0
   18.9982   47.4955   14.3931 S   0  0  0  0  0  0
   21.0090   51.0789   12.6478 O   0  0  0  0  0  0
   22.2424   51.6954   12.5909 C   0  0  0  0  0  0
   22.4082   52.8198   13.3999 C   0  0  0  0  0  0
   23.6123   53.5152   13.3999 C   0  0  0  0  0  0
   24.6618   53.0731   12.6000 C   0  0  0  0  0  0
   24.5106   51.9532   11.7864 C   0  0  0  0  0  0
   23.3115   51.2484   11.7999 C   0  0  0  0  0  0
   19.3618   47.6361   15.8000 O   0  0  0  0  0  0
   17.1741   47.8730   14.2366 C   0  0  0  0  0  0
   19.3230   46.2730   13.6597 O   0  0  0  0  0  0
   18.9796   47.1373   11.5333 H   0  0  0  0  0  0
   19.3973   47.5634    9.1489 H   0  0  0  0  0  0
   21.1661   51.2140    9.9536 H   0  0  0  0  0  0
   20.1232   49.5917   14.1517 H   0  0  0  0  0  0
   21.5928   53.1625   14.0197 H   0  0  0  0  0  0
   23.7288   54.3964   14.0152 H   0  0  0  0  0  0
   25.5962   53.6155   12.6000 H   0  0  0  0  0  0
   25.3230   51.6218   11.1555 H   0  0  0  0  0  0
   23.2239   50.3636   11.1887 H   0  0  0  0  0  0
   16.6124   46.9953   14.5482 H   0  0  0  0  0  0
   16.9389   48.1562   13.2124 H   0  0  0  0  0  0
   16.9422   48.6733   14.9256 H   0  0  0  0  0  0
  1  6  1  0  0  0
  1  2  2  0  0  0
  1 19  1  0  0  0
  2  3  1  0  0  0
  2 20  1  0  0  0
  3  4  2  0  0  0
  4  5  1  0  0  0
  4 21  1  0  0  0
  5  9  1  0  0  0
  5  6  2  0  0  0
  6  7  1  0  0  0
  7  8  1  0  0  0
  7 22  1  0  0  0
  8 16  2  0  0  0
  8 17  1  0  0  0
  8 18  2  0  0  0
  9 10  1  0  0  0
 10 11  2  0  0  0
 10 15  1  0  0  0
 11 12  1  0  0  0
 11 23  1  0  0  0
 12 13  2  0  0  0
 12 24  1  0  0  0
 13 14  1  0  0  0
 13 25  1  0  0  0
 14 15  2  0  0  0
 14 26  1  0  0  0
 15 27  1  0  0  0
 17 28  1  0  0  0
 17 29  1  0  0  0
 17 30  1  0  0  0
M  END
> <s_m_entry_id>
5559

> <s_m_entry_name>
dock_pv.550

> <s_m_Source_Path>
/home/csk/Desktop/cluster/DUD-E-result/pgh1

> <s_m_Source_File>
dock_pv.maegz

> <i_m_Source_File_Index>
550

> <chembl_id>
CHEMBL148542

> <chembl_pref_name>
None

> <i_lp_mmshare_version>
53161

> <r_lp_tautomer_probability>
1

> <s_lp_Force_Field>
OPLS_2005

> <r_lp_Energy>
5.226643

> <b_lp_Chiralities_Consistent>
1

> <s_lp_Variant>
CHEMBL221_lig550-1

> <s_i_glide_gridfile>
glide-grid_2oyu

> <i_i_glide_lignum>
688

> <i_i_glide_rotatable_bonds>
4

> <r_i_docking_score>
-7.20283929368748

> <r_i_glide_ligand_efficiency>
-0.400157738538193

> <r_i_glide_ligand_efficiency_sa>
-1.04870994858968

> <r_i_glide_ligand_efficiency_ln>
-1.85145269962134

> <r_i_glide_gscore>
-7.20283929368748

> <r_i_glide_lipo>
-3.7015430794181

> <r_i_glide_hbond>
0

> <r_i_glide_metal>
0

> <r_i_glide_rewards>
-2.11156077429561

> <r_i_glide_evdw>
-32.7796287536621

> <r_i_glide_ecoul>
-3.09674882888794

> <r_i_glide_erotb>
0.763356442933316

> <r_i_glide_esite>
-0.049598120890791

> <r_i_glide_emodel>
-52.0727151497856

> <r_i_glide_energy>
-35.87637758255

> <r_i_glide_einternal>
0.393796235322952

> <i_i_glide_confnum>
3

> <i_i_glide_posenum>
68

> <r_i_glide_eff_state_penalty>
0

> <s_user_duplicate_titles>
CHEMBL221_lig550,247261

> <i_f3d_flags>
0

> <s_m_subgroup_title>
dock_pv

> <s_m_subgroupid>
dock_pv

> <b_m_subgroup_collapsed>
1

$$$$
CHEMBL221_lig616
                    3D
 Schrodinger Suite 2021-1.
 30 31  0  0  1  0            999 V2000
   19.4341   47.9918   11.7899 C   0  0  0  0  0  0
   19.6317   48.3525   10.4576 C   0  0  0  0  0  0
   20.1597   49.5437   10.0906 N   0  0  0  0  0  0
   20.5802   50.3721   11.0758 C   0  0  0  0  0  0
   20.5462   50.0283   12.4343 C   0  0  0  0  0  0
   19.8835   48.8478   12.8015 C   0  0  0  0  0  0
   19.6791   48.5569   14.1574 N   0  0  0  0  0  0
   18.1665   47.8849   14.7666 S   0  0  0  0  0  0
   21.3230   51.0582   13.6694 S   0  0  0  0  0  0
   22.7927   51.6728   12.9147 C   0  0  0  0  0  0
   23.4122   50.9882   11.8690 C   0  0  0  0  0  0
   24.5227   51.5386   11.2599 C   0  0  0  0  0  0
   25.1085   52.6730   11.8000 C   0  0  0  0  0  0
   24.5231   53.3446   12.8689 C   0  0  0  0  0  0
   23.3354   52.8595   13.4000 C   0  0  0  0  0  0
   17.1091   48.1914   13.8000 O   0  0  0  0  0  0
   18.5409   46.0591   14.7274 C   0  0  0  0  0  0
   18.0654   48.2987   16.1683 O   0  0  0  0  0  0
   18.9229   47.0730   12.0125 H   0  0  0  0  0  0
   19.2937   47.7109    9.6564 H   0  0  0  0  0  0
   21.0076   51.3078   10.7460 H   0  0  0  0  0  0
   20.1615   49.1568   14.8096 H   0  0  0  0  0  0
   23.0382   50.0484   11.4960 H   0  0  0  0  0  0
   24.9230   51.0730   10.3790 H   0  0  0  0  0  0
   26.0238   53.0556   11.3739 H   0  0  0  0  0  0
   24.9689   54.2468   13.2626 H   0  0  0  0  0  0
   22.8551   53.3935   14.2055 H   0  0  0  0  0  0
   17.6435   45.5057   15.0000 H   0  0  0  0  0  0
   19.3230   45.8892   15.4519 H   0  0  0  0  0  0
   18.9230   45.7795   13.7492 H   0  0  0  0  0  0
  1  6  1  0  0  0
  1  2  2  0  0  0
  1 19  1  0  0  0
  2  3  1  0  0  0
  2 20  1  0  0  0
  3  4  2  0  0  0
  4  5  1  0  0  0
  4 21  1  0  0  0
  5  9  1  0  0  0
  5  6  2  0  0  0
  6  7  1  0  0  0
  7  8  1  0  0  0
  7 22  1  0  0  0
  8 16  2  0  0  0
  8 17  1  0  0  0
  8 18  2  0  0  0
  9 10  1  0  0  0
 10 11  2  0  0  0
 10 15  1  0  0  0
 11 12  1  0  0  0
 11 23  1  0  0  0
 12 13  2  0  0  0
 12 24  1  0  0  0
 13 14  1  0  0  0
 13 25  1  0  0  0
 14 15  2  0  0  0
 14 26  1  0  0  0
 15 27  1  0  0  0
 17 28  1  0  0  0
 17 29  1  0  0  0
 17 30  1  0  0  0
M  END
> <s_m_entry_id>
5560

> <s_m_entry_name>
dock_pv.551

> <s_m_Source_Path>
/home/csk/Desktop/cluster/DUD-E-result/pgh1

> <s_m_Source_File>
dock_pv.maegz

> <i_m_Source_File_Index>
551

> <chembl_id>
CHEMBL224122

> <chembl_pref_name>
None

> <i_lp_mmshare_version>
53161

> <r_lp_tautomer_probability>
1

> <s_lp_Force_Field>
OPLS_2005

> <r_lp_Energy>
2.76681

> <b_lp_Chiralities_Consistent>
1

> <s_lp_Variant>
CHEMBL221_lig616-1

> <s_i_glide_gridfile>
glide-grid_2oyu

> <i_i_glide_lignum>
755

> <i_i_glide_rotatable_bonds>
4

> <r_i_docking_score>
-7.20012113759825

> <r_i_glide_ligand_efficiency>
-0.400006729866569

> <r_i_glide_ligand_efficiency_sa>
-1.04831419391345

> <r_i_glide_ligand_efficiency_ln>
-1.85075401161454

> <r_i_glide_gscore>
-7.20012113759825

> <r_i_glide_lipo>
-3.62587825782166

> <r_i_glide_hbond>
0

> <r_i_glide_metal>
0

> <r_i_glide_rewards>
-2.33443563708837

> <r_i_glide_evdw>
-35.1572303771973

> <r_i_glide_ecoul>
-1.14107704162598

> <r_i_glide_erotb>
0.689215832415541

> <r_i_glide_esite>
0

> <r_i_glide_emodel>
-51.1825644808735

> <r_i_glide_energy>
-36.2983074188232

> <r_i_glide_einternal>
1.78467750549316

> <i_i_glide_confnum>
3

> <i_i_glide_posenum>
15

> <r_i_glide_eff_state_penalty>
0

> <s_user_duplicate_titles>
CHEMBL221_lig616

> <i_f3d_flags>
0

> <s_m_subgroup_title>
dock_pv

> <s_m_subgroupid>
dock_pv

> <b_m_subgroup_collapsed>
1

$$$$
CHEMBL221_lig992
                    3D
 Schrodinger Suite 2021-1.
 41 42  0  0  1  0            999 V2000
   17.5614   48.6709   16.5999 C   0  0  0  0  0  0
   17.8264   45.4278   14.9999 F   0  0  0  0  0  0
   19.6167   48.1022    8.0215 C   0  0  0  0  0  0
   24.2700   50.7617   12.1583 F   0  0  0  0  0  0
   22.2121   53.1092   12.9998 F   0  0  0  0  0  0
   19.8328   48.8918   13.0620 C   0  0  0  0  0  0
   23.2469   51.9400   12.5752 S   0  0  0  0  0  0
   20.3967   49.0843   11.7966 C   0  0  0  0  0  0
   24.4190   53.0364   12.3784 F   0  0  0  0  0  0
   19.7227   49.2663   15.5010 C   0  0  0  0  0  0
   18.1602   47.7131   14.3551 C   0  0  2  0  0  0
   19.2397   45.8693   13.4002 F   0  0  0  0  0  0
   18.5392   48.6044   15.5367 C   0  0  0  0  0  0
   18.7355   46.2976   14.5599 C   0  0  0  0  0  0
   20.1235   48.9571    9.1994 C   0  0  0  0  0  0
   20.3874   49.4736   14.2081 C   0  0  0  0  0  0
   21.9543   50.6827   12.7955 C   0  0  0  0  0  0
   19.8063   48.3518   10.5824 C   0  0  0  0  0  0
   22.9240   52.1598   11.0056 F   0  0  0  0  0  0
   19.7227   46.2711   15.4418 F   0  0  0  0  0  0
   16.9067   47.7194   16.9876 O   0  0  0  0  0  0
   18.5954   48.2743   13.1045 O   0  0  0  0  0  0
   17.3246   49.9202   17.0624 O   0  0  0  0  0  0
   21.3970   50.4226   14.0578 C   0  0  0  0  0  0
   23.7189   51.8732   14.1145 F   0  0  0  0  0  0
   21.4835   49.9602   11.6881 C   0  0  0  0  0  0
   19.8303   48.7862    6.6648 C   0  0  0  0  0  0
   18.5573   47.8724    8.1459 H   0  0  0  0  0  0
   20.1243   47.1385    8.0267 H   0  0  0  0  0  0
   20.0313   49.8719   16.3422 H   0  0  0  0  0  0
   17.0759   47.6363   14.2397 H   0  0  0  0  0  0
   21.1943   49.0733    9.0919 H   0  0  0  0  0  0
   19.7255   49.9709    9.1441 H   0  0  0  0  0  0
   18.7276   48.3017   10.6814 H   0  0  0  0  0  0
   20.1085   47.3064   10.6320 H   0  0  0  0  0  0
   16.6086   49.8919   17.6992 H   0  0  0  0  0  0
   21.7269   50.9775   14.9253 H   0  0  0  0  0  0
   21.9445   50.1279   10.7278 H   0  0  0  0  0  0
   19.5034   48.1438    5.8466 H   0  0  0  0  0  0
   20.8816   49.0220    6.4929 H   0  0  0  0  0  0
   19.2638   49.7181    6.5982 H   0  0  0  0  0  0
  1 21  2  0  0  0
  1 13  1  0  0  0
  1 23  1  0  0  0
  2 14  1  0  0  0
  3 15  1  0  0  0
  3 27  1  0  0  0
  3 28  1  0  0  0
  3 29  1  0  0  0
  4  7  1  0  0  0
  5  7  1  0  0  0
  6 22  1  0  0  0
  6 16  2  0  0  0
  6  8  1  0  0  0
  7 17  1  0  0  0
  7  9  1  0  0  0
  7 19  1  0  0  0
  7 25  1  0  0  0
  8 18  1  0  0  0
  8 26  2  0  0  0
 10 13  2  0  0  0
 10 16  1  0  0  0
 10 30  1  0  0  0
 11 13  1  0  0  0
 11 14  1  0  0  0
 11 22  1  0  0  0
 11 31  1  0  0  0
 12 14  1  0  0  0
 14 20  1  0  0  0
 15 18  1  0  0  0
 15 32  1  0  0  0
 15 33  1  0  0  0
 16 24  1  0  0  0
 17 26  1  0  0  0
 17 24  2  0  0  0
 18 34  1  0  0  0
 18 35  1  0  0  0
 23 36  1  0  0  0
 24 37  1  0  0  0
 26 38  1  0  0  0
 27 39  1  0  0  0
 27 40  1  0  0  0
 27 41  1  0  0  0
M  END
> <s_m_entry_id>
5561

> <s_m_entry_name>
dock_pv.552

> <s_m_Source_Path>
/home/csk/Desktop/cluster/DUD-E-result/pgh1

> <s_m_Source_File>
dock_pv.maegz

> <i_m_Source_File_Index>
552

> <chembl_id>
CHEMBL4088012

> <chembl_pref_name>
None

> <i_lp_mmshare_version>
53161

> <r_lp_tautomer_probability>
1

> <s_lp_Force_Field>
OPLS_2005

> <r_lp_Energy>
13.769999

> <b_lp_Chiralities_Consistent>
1

> <s_lp_Variant>
CHEMBL221_lig992-1

> <s_i_glide_gridfile>
glide-grid_2oyu

> <i_i_glide_lignum>
1235

> <i_i_glide_rotatable_bonds>
7

> <r_i_docking_score>
-7.18986009274873

> <r_i_glide_ligand_efficiency>
-0.266291114546249

> <r_i_glide_ligand_efficiency_sa>
-0.798873342761095

> <r_i_glide_ligand_efficiency_ln>
-1.67368089548433

> <r_i_glide_gscore>
-7.18986009274873

> <r_i_glide_lipo>
-3.56864944344768

> <r_i_glide_hbond>
0

> <r_i_glide_metal>
0

> <r_i_glide_rewards>
-2.94037466838714

> <r_i_glide_evdw>
-19.3495025634766

> <r_i_glide_ecoul>
0.516072988510132

> <r_i_glide_erotb>
0.32756392927033

> <r_i_glide_esite>
-0.118335730286926

> <r_i_glide_emodel>
-21.6061655292506

> <r_i_glide_energy>
-18.8334295749664

> <r_i_glide_einternal>
12.0258073806763

> <i_i_glide_confnum>
2

> <i_i_glide_posenum>
294

> <r_i_glide_eff_state_penalty>
0

> <s_user_duplicate_titles>
CHEMBL221_lig992

> <i_f3d_flags>
0

> <s_m_subgroup_title>
dock_pv

> <s_m_subgroupid>
dock_pv

> <b_m_subgroup_collapsed>
1

$$$$
CHEMBL221_lig631
                    3D
 Schrodinger Suite 2021-1.
 36 37  0  0  1  0            999 V2000
   18.4839   48.0759   14.9415 C   0  0  2  0  0  0
   17.8813   48.1411   13.5135 C   0  0  0  0  0  0
   18.9796   47.9564   12.4550 C   0  0  0  0  0  0
   20.0568   49.0175   12.6973 C   0  0  0  0  0  0
   20.8103   49.6204   11.6733 C   0  0  0  0  0  0
   21.8004   50.5671   11.9921 C   0  0  0  0  0  0
   21.9927   51.0033   13.3104 C   0  0  0  0  0  0
   21.2067   50.4511   14.3322 C   0  0  0  0  0  0
   20.2925   49.4344   14.0245 C   0  0  0  0  0  0
   19.6650   48.8693   15.1224 O   0  0  0  0  0  0
   21.2912   50.9841   15.7657 C   0  0  0  0  0  0
   23.0641   52.0497   13.6349 C   0  0  0  0  0  0
   20.5848   49.2462   10.2061 C   0  0  0  0  0  0
   22.5907   51.0827   10.9990 O   0  0  0  0  0  0
   18.9057   46.6339   15.2865 C   0  0  0  0  0  0
   19.9784   46.3360   15.7995 O   0  0  0  0  0  0
   17.9422   45.7140   15.0000 O   0  0  0  0  0  0
   17.4941   48.4790   16.0463 C   0  0  0  0  0  0
   17.3905   49.0880   13.3633 H   0  0  0  0  0  0
   17.0578   47.4487   13.3896 H   0  0  0  0  0  0
   19.4287   46.9666   12.5409 H   0  0  0  0  0  0
   18.5346   47.9855   11.4589 H   0  0  0  0  0  0
   22.1100   50.5273   16.3152 H   0  0  0  0  0  0
   21.4159   52.0657   15.7662 H   0  0  0  0  0  0
   20.3741   50.8140   16.3285 H   0  0  0  0  0  0
   22.6249   53.0462   13.6921 H   0  0  0  0  0  0
   23.5468   51.8336   14.5859 H   0  0  0  0  0  0
   23.8782   52.0645   12.9118 H   0  0  0  0  0  0
   21.5437   49.1457    9.7013 H   0  0  0  0  0  0
   20.0796   48.2934   10.0544 H   0  0  0  0  0  0
   20.0300   50.0329    9.6946 H   0  0  0  0  0  0
   23.2371   51.7079   11.3317 H   0  0  0  0  0  0
   18.1955   44.8339   15.2825 H   0  0  0  0  0  0
   16.5401   47.9627   15.9434 H   0  0  0  0  0  0
   17.8732   48.2703   17.0463 H   0  0  0  0  0  0
   17.3228   49.5462   16.0061 H   0  0  0  0  0  0
  1 10  1  0  0  0
  1 15  1  0  0  0
  1  2  1  0  0  0
  1 18  1  0  0  0
  2  3  1  0  0  0
  2 19  1  0  0  0
  2 20  1  0  0  0
  3  4  1  0  0  0
  3 21  1  0  0  0
  3 22  1  0  0  0
  4  5  1  0  0  0
  4  9  2  0  0  0
  5  6  2  0  0  0
  5 13  1  0  0  0
  6  7  1  0  0  0
  6 14  1  0  0  0
  7  8  2  0  0  0
  7 12  1  0  0  0
  8  9  1  0  0  0
  8 11  1  0  0  0
  9 10  1  0  0  0
 11 23  1  0  0  0
 11 24  1  0  0  0
 11 25  1  0  0  0
 12 26  1  0  0  0
 12 27  1  0  0  0
 12 28  1  0  0  0
 13 29  1  0  0  0
 13 30  1  0  0  0
 13 31  1  0  0  0
 14 32  1  0  0  0
 15 16  2  0  0  0
 15 17  1  0  0  0
 17 33  1  0  0  0
 18 34  1  0  0  0
 18 35  1  0  0  0
 18 36  1  0  0  0
M  END
> <s_m_entry_id>
5562

> <s_m_entry_name>
dock_pv.553

> <s_m_Source_Path>
/home/csk/Desktop/cluster/DUD-E-result/pgh1

> <s_m_Source_File>
dock_pv.maegz

> <i_m_Source_File_Index>
553

> <chembl_id>
CHEMBL153

> <chembl_pref_name>
TROLOX

> <i_lp_mmshare_version>
53161

> <r_lp_tautomer_probability>
1

> <s_lp_Force_Field>
OPLS_2005

> <r_lp_Energy>
15.359125

> <b_lp_Chiralities_Consistent>
1

> <s_lp_Variant>
CHEMBL221_lig631-2

> <s_i_glide_gridfile>
glide-grid_2oyu

> <i_i_glide_lignum>
771

> <i_i_glide_rotatable_bonds>
3

> <r_i_docking_score>
-7.18932519763227

> <r_i_glide_ligand_efficiency>
-0.399406955424015

> <r_i_glide_ligand_efficiency_sa>
-1.04674234020617

> <r_i_glide_ligand_efficiency_ln>
-1.84797897091462

> <r_i_glide_gscore>
-7.18932519763227

> <r_i_glide_lipo>
-3.65607338087818

> <r_i_glide_hbond>
-0.0753935066999274

> <r_i_glide_metal>
0

> <r_i_glide_rewards>
-2.36085932592589

> <r_i_glide_evdw>
-21.8579444885254

> <r_i_glide_ecoul>
-1.89030122756958

> <r_i_glide_erotb>
0.279443424433438

> <r_i_glide_esite>
0

> <r_i_glide_emodel>
-27.5011107277365

> <r_i_glide_energy>
-23.748245716095

> <r_i_glide_einternal>
0.754350304603577

> <i_i_glide_confnum>
1

> <i_i_glide_posenum>
340

> <r_i_glide_eff_state_penalty>
0

> <s_user_duplicate_titles>
CHEMBL221_lig631

> <i_f3d_flags>
0

> <s_m_subgroup_title>
dock_pv

> <s_m_subgroupid>
dock_pv

> <b_m_subgroup_collapsed>
1

$$$$
CHEMBL221_lig457
                    3D
 Schrodinger Suite 2021-1.
 41 44  0  0  1  0            999 V2000
   19.3647   48.2277   13.3875 C   0  0  1  0  0  0
   19.5546   48.6266   11.9224 C   0  0  0  0  0  0
   19.7232   50.2499   11.2154 S   0  0  0  0  0  0
   24.1135   53.2002   12.9855 S   0  0  0  0  0  0
   20.2819   48.7887   14.4658 C   0  0  2  0  0  0
   19.9911   49.5775    9.6154 C   0  0  0  0  0  0
   17.9556   48.2847   13.9577 C   0  0  0  0  0  0
   19.7197   47.7057   10.9375 C   0  0  0  0  0  0
   19.3698   48.9431   15.6486 C   0  0  0  0  0  0
   23.0038   51.9634   13.5167 C   0  0  0  0  0  0
   19.7845   48.1838    9.6247 C   0  0  0  0  0  0
   21.2058   49.9677   14.1339 C   0  0  0  0  0  0
   24.1727   53.0731   11.5265 O   0  0  0  0  0  0
   25.3303   53.1507   13.7996 O   0  0  0  0  0  0
   18.0913   48.6666   15.3490 C   0  0  0  0  0  0
   16.8829   48.1143   13.3998 O   0  0  0  0  0  0
   22.1230   52.1339   14.5933 C   0  0  0  0  0  0
   22.9730   50.8396   12.7244 C   0  0  0  0  0  0
   21.2480   51.1165   14.9240 C   0  0  0  0  0  0
   22.0660   49.8732   13.0326 C   0  0  0  0  0  0
   23.1305   54.6934   13.4142 C   0  0  0  0  0  0
   20.1232   50.2515    8.3982 C   0  0  0  0  0  0
   19.7165   47.4732    8.4175 C   0  0  0  0  0  0
   20.1012   49.5207    7.2073 C   0  0  0  0  0  0
   19.8533   48.1569    7.2130 C   0  0  0  0  0  0
   19.7256   46.6725   11.1669 H   0  0  0  0  0  0
   19.7574   49.2522   16.5999 H   0  0  0  0  0  0
   20.9231   47.9635   14.7361 H   0  0  0  0  0  0
   17.2368   48.7305   16.0059 H   0  0  0  0  0  0
   19.5564   47.1541   13.3668 H   0  0  0  0  0  0
   22.1237   53.0301   15.1923 H   0  0  0  0  0  0
   23.6304   50.7091   11.8763 H   0  0  0  0  0  0
   20.5951   51.2466   15.7738 H   0  0  0  0  0  0
   22.0628   48.9988   12.4032 H   0  0  0  0  0  0
   23.6881   55.5203   13.0011 H   0  0  0  0  0  0
   23.0858   54.8257   14.4932 H   0  0  0  0  0  0
   22.1349   54.6277   12.9792 H   0  0  0  0  0  0
   20.2200   51.3209    8.3548 H   0  0  0  0  0  0
   19.5625   46.4085    8.4267 H   0  0  0  0  0  0
   20.2085   50.0375    6.2644 H   0  0  0  0  0  0
   19.8095   47.6212    6.2755 H   0  0  0  0  0  0
  1  5  1  0  0  0
  1  2  1  0  0  0
  1 30  1  0  0  0
  1  7  1  0  0  0
  2  3  1  0  0  0
  2  8  2  0  0  0
  3  6  1  0  0  0
  4 10  1  0  0  0
  4 13  2  0  0  0
  4 14  2  0  0  0
  4 21  1  0  0  0
  5  9  1  0  0  0
  5 12  1  0  0  0
  5 28  1  0  0  0
  6 22  1  0  0  0
  6 11  2  0  0  0
  7 16  2  0  0  0
  7 15  1  0  0  0
  8 11  1  0  0  0
  8 26  1  0  0  0
  9 27  1  0  0  0
  9 15  2  0  0  0
 10 18  1  0  0  0
 10 17  2  0  0  0
 11 23  1  0  0  0
 12 19  2  0  0  0
 12 20  1  0  0  0
 15 29  1  0  0  0
 17 19  1  0  0  0
 17 31  1  0  0  0
 18 20  2  0  0  0
 18 32  1  0  0  0
 19 33  1  0  0  0
 20 34  1  0  0  0
 21 35  1  0  0  0
 21 36  1  0  0  0
 21 37  1  0  0  0
 22 24  2  0  0  0
 22 38  1  0  0  0
 23 25  2  0  0  0
 23 39  1  0  0  0
 24 25  1  0  0  0
 24 40  1  0  0  0
 25 41  1  0  0  0
M  END
> <s_m_entry_id>
5563

> <s_m_entry_name>
dock_pv.554

> <s_m_Source_Path>
/home/csk/Desktop/cluster/DUD-E-result/pgh1

> <s_m_Source_File>
dock_pv.maegz

> <i_m_Source_File_Index>
554

> <chembl_id>
CHEMBL23378

> <chembl_pref_name>
None

> <i_lp_mmshare_version>
53161

> <r_lp_tautomer_probability>
0.499977396165832

> <s_lp_Force_Field>
OPLS_2005

> <r_lp_Energy>
16.889709

> <b_lp_Chiralities_Consistent>
1

> <s_lp_Variant>
CHEMBL221_lig457-3

> <s_i_glide_gridfile>
glide-grid_2oyu

> <i_i_glide_lignum>
562

> <i_i_glide_rotatable_bonds>
3

> <r_i_docking_score>
-7.18135069077362

> <r_i_glide_ligand_efficiency>
-0.287254027630945

> <r_i_glide_ligand_efficiency_sa>
-0.839935871264754

> <r_i_glide_ligand_efficiency_ln>
-1.70219532142735

> <r_i_glide_gscore>
-7.18135069077362

> <r_i_glide_lipo>
-4.42027424688572

> <r_i_glide_hbond>
0

> <r_i_glide_metal>
0

> <r_i_glide_rewards>
-2.36837212500182

> <r_i_glide_evdw>
-7.06920099258423

> <r_i_glide_ecoul>
-2.15405178070068

> <r_i_glide_erotb>
0.283863497848236

> <r_i_glide_esite>
0

> <r_i_glide_emodel>
-7.57079515438686

> <r_i_glide_energy>
-9.22325277328491

> <r_i_glide_einternal>
50.5797996520996

> <i_i_glide_confnum>
3

> <i_i_glide_posenum>
274

> <r_i_glide_eff_state_penalty>
0

> <s_user_duplicate_titles>
CHEMBL221_lig457

> <i_f3d_flags>
0

> <s_m_subgroup_title>
dock_pv

> <s_m_subgroupid>
dock_pv

> <b_m_subgroup_collapsed>
1

$$$$
CHEMBL221_lig399
                    3D
 Schrodinger Suite 2021-1.
 46 47  0  0  1  0            999 V2000
   20.1262   49.5721    8.9071 N   0  0  0  0  0  0
   19.8806   48.7035    9.8810 C   0  0  0  0  0  0
   19.4062   47.5163    9.5660 N   0  0  0  0  0  0
   19.9083   49.0555    7.7316 C   0  0  0  0  0  0
   19.7091   48.7799   13.7119 C   0  0  0  0  0  0
   21.2350   50.5582   12.9070 C   0  0  0  0  0  0
   20.6093   49.8504   13.9649 C   0  0  0  0  0  0
   20.1188   49.0733   11.3145 C   0  0  0  0  0  0
   19.3229   47.4729    7.8719 S   0  0  0  0  0  0
   19.4794   48.4296   12.3701 C   0  0  0  0  0  0
   20.9990   50.1015   11.6056 C   0  0  0  0  0  0
   19.0360   47.9372   14.8493 C   0  0  0  0  0  0
   22.1312   51.8236   13.1200 C   0  0  0  0  0  0
   20.1234   49.8727    6.1997 S   0  0  0  0  0  0
   20.8997   50.1848   15.2625 O   0  0  0  0  0  0
   23.3227   51.5288   14.0027 C   0  0  0  0  0  0
   18.0318   46.8880   14.3272 C   0  0  0  0  0  0
   18.2278   48.7623   15.8766 C   0  0  0  0  0  0
   21.3240   52.9639   13.7986 C   0  0  0  0  0  0
   20.1260   47.1470   15.5722 C   0  0  0  0  0  0
   22.8175   52.3147   11.8173 C   0  0  0  0  0  0
   19.1023   48.8799    5.0873 C   0  0  0  0  0  0
   18.8027   47.6325   12.1066 H   0  0  0  0  0  0
   21.4956   50.5275   10.7551 H   0  0  0  0  0  0
   20.3980   49.6518   15.8819 H   0  0  0  0  0  0
   23.8387   50.6729   13.5999 H   0  0  0  0  0  0
   24.0292   52.3581   14.0693 H   0  0  0  0  0  0
   22.9875   51.3398   15.0000 H   0  0  0  0  0  0
   17.5688   46.3176   15.1341 H   0  0  0  0  0  0
   18.5231   46.1576   13.6857 H   0  0  0  0  0  0
   17.2185   47.3639   13.7765 H   0  0  0  0  0  0
   18.8295   49.4731   16.4302 H   0  0  0  0  0  0
   17.4033   49.2950   15.4043 H   0  0  0  0  0  0
   17.7774   48.1190   16.6347 H   0  0  0  0  0  0
   20.3206   53.0744   13.4000 H   0  0  0  0  0  0
   21.1889   52.7802   14.8652 H   0  0  0  0  0  0
   21.8273   53.9283   13.7157 H   0  0  0  0  0  0
   20.7430   47.7921   16.1998 H   0  0  0  0  0  0
   19.7224   46.3539   16.2000 H   0  0  0  0  0  0
   20.7804   46.6730   14.8460 H   0  0  0  0  0  0
   22.1236   52.3661   11.0000 H   0  0  0  0  0  0
   23.2844   53.2931   11.9351 H   0  0  0  0  0  0
   23.5988   51.6312   11.4779 H   0  0  0  0  0  0
   18.9160   49.4722    4.2000 H   0  0  0  0  0  0
   19.6242   47.9673    4.7991 H   0  0  0  0  0  0
   18.1330   48.6445    5.5271 H   0  0  0  0  0  0
  1  2  1  0  0  0
  1  4  2  0  0  0
  2  3  2  0  0  0
  2  8  1  0  0  0
  3  9  1  0  0  0
  4  9  1  0  0  0
  4 14  1  0  0  0
  5 10  1  0  0  0
  5 12  1  0  0  0
  5  7  2  0  0  0
  6 11  2  0  0  0
  6  7  1  0  0  0
  6 13  1  0  0  0
  7 15  1  0  0  0
  8 10  2  0  0  0
  8 11  1  0  0  0
 10 23  1  0  0  0
 11 24  1  0  0  0
 12 17  1  0  0  0
 12 18  1  0  0  0
 12 20  1  0  0  0
 13 16  1  0  0  0
 13 19  1  0  0  0
 13 21  1  0  0  0
 14 22  1  0  0  0
 15 25  1  0  0  0
 16 26  1  0  0  0
 16 27  1  0  0  0
 16 28  1  0  0  0
 17 29  1  0  0  0
 17 30  1  0  0  0
 17 31  1  0  0  0
 18 32  1  0  0  0
 18 33  1  0  0  0
 18 34  1  0  0  0
 19 35  1  0  0  0
 19 36  1  0  0  0
 19 37  1  0  0  0
 20 38  1  0  0  0
 20 39  1  0  0  0
 20 40  1  0  0  0
 21 41  1  0  0  0
 21 42  1  0  0  0
 21 43  1  0  0  0
 22 44  1  0  0  0
 22 45  1  0  0  0
 22 46  1  0  0  0
M  END
> <s_m_entry_id>
5564

> <s_m_entry_name>
dock_pv.555

> <s_m_Source_Path>
/home/csk/Desktop/cluster/DUD-E-result/pgh1

> <s_m_Source_File>
dock_pv.maegz

> <i_m_Source_File_Index>
555

> <chembl_id>
CHEMBL16912

> <chembl_pref_name>
None

> <i_lp_mmshare_version>
53161

> <r_lp_tautomer_probability>
0.999999999997365

> <s_lp_Force_Field>
OPLS_2005

> <r_lp_Energy>
24.447654

> <b_lp_Chiralities_Consistent>
1

> <s_lp_Variant>
CHEMBL221_lig399-1

> <s_i_glide_gridfile>
glide-grid_2oyu

> <i_i_glide_lignum>
467

> <i_i_glide_rotatable_bonds>
5

> <r_i_docking_score>
-7.18131894920224

> <r_i_glide_ligand_efficiency>
-0.326423588600102

> <r_i_glide_ligand_efficiency_sa>
-0.91465173276875

> <r_i_glide_ligand_efficiency_ln>
-1.75537629615824

> <r_i_glide_gscore>
-7.18131894920224

> <r_i_glide_lipo>
-4.04176530231606

> <r_i_glide_hbond>
0

> <r_i_glide_metal>
0

> <r_i_glide_rewards>
-2.20186269593752

> <r_i_glide_evdw>
-21.7021541595459

> <r_i_glide_ecoul>
-0.129122465848923

> <r_i_glide_erotb>
0.16678512690598

> <r_i_glide_esite>
0

> <r_i_glide_emodel>
-22.1755184786713

> <r_i_glide_energy>
-21.8312766253948

> <r_i_glide_einternal>
3.23304915428162

> <i_i_glide_confnum>
2

> <i_i_glide_posenum>
344

> <r_i_glide_eff_state_penalty>
0

> <s_user_duplicate_titles>
CHEMBL221_lig399

> <i_f3d_flags>
0

> <s_m_subgroup_title>
dock_pv

> <s_m_subgroupid>
dock_pv

> <b_m_subgroup_collapsed>
1

$$$$
CHEMBL221_lig870
                    3D
 Schrodinger Suite 2021-1.
 32 33  0  0  1  0            999 V2000
   20.7037   49.4730   13.3170 C   0  0  0  0  0  0
   21.2679   50.1464   12.0714 C   0  0  0  0  0  0
   19.9113   48.2921   13.2881 C   0  0  0  0  0  0
   19.4523   47.7228   14.4954 C   0  0  0  0  0  0
   17.1223   46.7469   15.0000 C   0  0  0  0  0  0
   22.3047   51.2174   12.2025 C   0  0  0  0  0  0
   18.5774   46.4679   14.5982 C   0  0  0  0  0  0
   21.0150   49.7212   10.9411 O   0  0  0  0  0  0
   16.9230   48.0424   15.3611 O   0  0  0  0  0  0
   16.2578   45.8730   15.0000 O   0  0  0  0  0  0
   19.5776   47.6687   12.0827 N   0  0  0  0  0  0
   22.0820   52.3476   13.0000 C   0  0  0  0  0  0
   23.5072   51.1028   11.4958 C   0  0  0  0  0  0
   24.3213   53.0730   12.6000 C   0  0  0  0  0  0
   21.0110   50.0085   14.5836 C   0  0  0  0  0  0
   23.0991   53.2577   13.2267 C   0  0  0  0  0  0
   24.5187   52.0362   11.6925 C   0  0  0  0  0  0
   25.7230   54.2730   13.0000 Br  0  0  0  0  0  0
   19.7456   48.3407   15.7026 C   0  0  0  0  0  0
   20.5230   49.4730   15.7548 C   0  0  0  0  0  0
   18.6009   45.8926   13.6790 H   0  0  0  0  0  0
   18.9958   45.8121   15.3610 H   0  0  0  0  0  0
   17.7180   48.5601   15.2164 H   0  0  0  0  0  0
   19.8796   48.1289   11.2311 H   0  0  0  0  0  0
   18.9272   46.8948   12.0499 H   0  0  0  0  0  0
   21.1296   52.5126   13.4849 H   0  0  0  0  0  0
   23.6819   50.2730   10.8279 H   0  0  0  0  0  0
   21.6640   50.8430   14.7503 H   0  0  0  0  0  0
   22.9479   54.0936   13.8956 H   0  0  0  0  0  0
   25.4594   51.9307   11.1716 H   0  0  0  0  0  0
   19.3230   47.9345   16.6000 H   0  0  0  0  0  0
   20.7425   49.9568   16.6905 H   0  0  0  0  0  0
  1  2  1  0  0  0
  1  3  2  0  0  0
  1 15  1  0  0  0
  2  6  1  0  0  0
  2  8  2  0  0  0
  3  4  1  0  0  0
  3 11  1  0  0  0
  4  7  1  0  0  0
  4 19  2  0  0  0
  5  7  1  0  0  0
  5  9  1  0  0  0
  5 10  2  0  0  0
  6 12  2  0  0  0
  6 13  1  0  0  0
  7 21  1  0  0  0
  7 22  1  0  0  0
  9 23  1  0  0  0
 11 24  1  0  0  0
 11 25  1  0  0  0
 12 16  1  0  0  0
 12 26  1  0  0  0
 13 17  2  0  0  0
 13 27  1  0  0  0
 14 17  1  0  0  0
 14 18  1  0  0  0
 14 16  2  0  0  0
 15 20  2  0  0  0
 15 28  1  0  0  0
 16 29  1  0  0  0
 17 30  1  0  0  0
 19 20  1  0  0  0
 19 31  1  0  0  0
 20 32  1  0  0  0
M  END
> <s_m_entry_id>
5565

> <s_m_entry_name>
dock_pv.556

> <s_m_Source_Path>
/home/csk/Desktop/cluster/DUD-E-result/pgh1

> <s_m_Source_File>
dock_pv.maegz

> <i_m_Source_File_Index>
556

> <chembl_id>
CHEMBL1077

> <chembl_pref_name>
BROMFENAC

> <i_lp_mmshare_version>
53161

> <r_lp_tautomer_probability>
1

> <s_lp_Force_Field>
OPLS_2005

> <r_lp_Energy>
25.10586

> <b_lp_Chiralities_Consistent>
1

> <s_lp_Variant>
CHEMBL221_lig870-1

> <s_i_glide_gridfile>
glide-grid_2oyu

> <i_i_glide_lignum>
1074

> <i_i_glide_rotatable_bonds>
5

> <r_i_docking_score>
-7.17613303997684

> <r_i_glide_ligand_efficiency>
-0.358806651998842

> <r_i_glide_ligand_efficiency_sa>
-0.973951096164529

> <r_i_glide_ligand_efficiency_ln>
-1.79594941519794

> <r_i_glide_gscore>
-7.17613303997684

> <r_i_glide_lipo>
-3.49283049902755

> <r_i_glide_hbond>
-0.106494718961044

> <r_i_glide_metal>
0

> <r_i_glide_rewards>
-2.48088555645404

> <r_i_glide_evdw>
-31.3800449371338

> <r_i_glide_ecoul>
-1.34931838512421

> <r_i_glide_erotb>
0.675477739091113

> <r_i_glide_esite>
0

> <r_i_glide_emodel>
-39.1038825400466

> <r_i_glide_energy>
-32.729363322258

> <r_i_glide_einternal>
12.0371160507202

> <i_i_glide_confnum>
16

> <i_i_glide_posenum>
39

> <r_i_glide_eff_state_penalty>
0

> <s_user_duplicate_titles>
CHEMBL221_lig870,40536

> <i_f3d_flags>
0

> <s_m_subgroup_title>
dock_pv

> <s_m_subgroupid>
dock_pv

> <b_m_subgroup_collapsed>
1

$$$$
CHEMBL221_lig774
                    3D
 Schrodinger Suite 2021-1.
 31 32  0  0  1  0            999 V2000
   19.4362   48.0812   11.2580 C   0  0  0  0  0  0
   19.7230   48.2714    9.9066 C   0  0  0  0  0  0
   20.4449   49.3197    9.4462 N   0  0  0  0  0  0
   20.9055   50.2087   10.3572 C   0  0  0  0  0  0
   20.6818   50.0892   11.7322 C   0  0  0  0  0  0
   19.9270   48.9968   12.1983 C   0  0  0  0  0  0
   19.7193   48.8541   13.5840 N   0  0  0  0  0  0
   18.9740   47.4768   14.3883 S   0  0  0  0  0  0
   21.1482   51.0668   12.6245 N   0  0  0  0  0  0
   22.2846   51.8736   12.5919 C   0  0  0  0  0  0
   22.2733   53.0174   13.3860 C   0  0  0  0  0  0
   23.3852   53.8460   13.4047 C   0  0  0  0  0  0
   24.5414   53.4727   12.7371 C   0  0  0  0  0  0
   24.5443   52.3538   11.9056 C   0  0  0  0  0  0
   23.4111   51.5508   11.8289 C   0  0  0  0  0  0
   19.3321   47.6009   15.7999 O   0  0  0  0  0  0
   17.1473   47.8338   14.2354 C   0  0  0  0  0  0
   19.3228   46.2730   13.6332 O   0  0  0  0  0  0
   25.9709   54.3998   12.9998 Cl  0  0  0  0  0  0
   18.8384   47.2319   11.5427 H   0  0  0  0  0  0
   19.3565   47.5790    9.1625 H   0  0  0  0  0  0
   21.4358   51.0576    9.9549 H   0  0  0  0  0  0
   20.1318   49.5485   14.1861 H   0  0  0  0  0  0
   20.4936   51.3051   13.3540 H   0  0  0  0  0  0
   21.4051   53.2803   13.9719 H   0  0  0  0  0  0
   23.3821   54.7279   14.0308 H   0  0  0  0  0  0
   25.4319   52.0854   11.3532 H   0  0  0  0  0  0
   23.4386   50.6610   11.2197 H   0  0  0  0  0  0
   16.5977   46.9672   14.5998 H   0  0  0  0  0  0
   16.9008   48.0607   13.2001 H   0  0  0  0  0  0
   16.9236   48.6731   14.8792 H   0  0  0  0  0  0
  1  6  1  0  0  0
  1  2  2  0  0  0
  1 20  1  0  0  0
  2  3  1  0  0  0
  2 21  1  0  0  0
  3  4  2  0  0  0
  4  5  1  0  0  0
  4 22  1  0  0  0
  5  6  2  0  0  0
  5  9  1  0  0  0
  6  7  1  0  0  0
  7  8  1  0  0  0
  7 23  1  0  0  0
  8 16  2  0  0  0
  8 17  1  0  0  0
  8 18  2  0  0  0
  9 10  1  0  0  0
  9 24  1  0  0  0
 10 11  2  0  0  0
 10 15  1  0  0  0
 11 12  1  0  0  0
 11 25  1  0  0  0
 12 13  2  0  0  0
 12 26  1  0  0  0
 13 14  1  0  0  0
 13 19  1  0  0  0
 14 15  2  0  0  0
 14 27  1  0  0  0
 15 28  1  0  0  0
 17 29  1  0  0  0
 17 30  1  0  0  0
 17 31  1  0  0  0
M  END
> <s_m_entry_id>
5566

> <s_m_entry_name>
dock_pv.557

> <s_m_Source_Path>
/home/csk/Desktop/cluster/DUD-E-result/pgh1

> <s_m_Source_File>
dock_pv.maegz

> <i_m_Source_File_Index>
557

> <chembl_id>
CHEMBL1077398

> <chembl_pref_name>
None

> <i_lp_mmshare_version>
53161

> <r_lp_tautomer_probability>
1

> <s_lp_Force_Field>
OPLS_2005

> <r_lp_Energy>
7.575635

> <b_lp_Chiralities_Consistent>
1

> <s_lp_Variant>
CHEMBL221_lig774-1

> <s_i_glide_gridfile>
glide-grid_2oyu

> <i_i_glide_lignum>
944

> <i_i_glide_rotatable_bonds>
4

> <r_i_docking_score>
-7.17574844960958

> <r_i_glide_ligand_efficiency>
-0.377670971032083

> <r_i_glide_ligand_efficiency_sa>
-1.00777784078732

> <r_i_glide_ligand_efficiency_ln>
-1.81920635292119

> <r_i_glide_gscore>
-7.17574844960958

> <r_i_glide_lipo>
-3.71328380112966

> <r_i_glide_hbond>
0

> <r_i_glide_metal>
0

> <r_i_glide_rewards>
-1.90300396277379

> <r_i_glide_evdw>
-34.5215187072754

> <r_i_glide_ecoul>
-2.6845703125

> <r_i_glide_erotb>
0.620578337827352

> <r_i_glide_esite>
-0.051277541294712

> <r_i_glide_emodel>
-51.3185780853748

> <r_i_glide_energy>
-37.2060890197754

> <r_i_glide_einternal>
3.06992959976196

> <i_i_glide_confnum>
2

> <i_i_glide_posenum>
105

> <r_i_glide_eff_state_penalty>
0

> <s_user_duplicate_titles>
CHEMBL221_lig774

> <i_f3d_flags>
0

> <s_m_subgroup_title>
dock_pv

> <s_m_subgroupid>
dock_pv

> <b_m_subgroup_collapsed>
1

$$$$
CHEMBL221_lig883
                    3D
 Schrodinger Suite 2021-1.
 33 34  0  0  1  0            999 V2000
   19.4398   47.8411   12.4170 C   0  0  0  0  0  0
   19.2080   47.1732   13.6168 C   0  0  0  0  0  0
   19.5715   47.7563   14.8234 C   0  0  0  0  0  0
   20.2216   48.9844   14.8218 C   0  0  0  0  0  0
   20.5234   49.6389   13.6231 C   0  0  0  0  0  0
   20.0710   49.0954   12.3920 C   0  0  0  0  0  0
   20.1227   49.8497   11.0778 C   0  0  0  0  0  0
   20.1512   51.0730   11.0014 O   0  0  0  0  0  0
   20.1230   49.0677    9.9646 O   0  0  0  0  0  0
   21.2868   50.8081   13.7824 N   0  0  0  0  0  0
   22.3815   51.3275   13.0749 C   0  0  0  0  0  0
   23.0332   50.5533   12.1133 C   0  0  0  0  0  0
   24.0961   51.0746   11.3966 C   0  0  0  0  0  0
   24.6165   52.3152   11.7284 C   0  0  0  0  0  0
   24.0366   53.0748   12.7440 C   0  0  0  0  0  0
   22.8571   52.6210   13.3669 C   0  0  0  0  0  0
   22.0608   53.5306   14.3072 C   0  0  0  0  0  0
   24.7153   54.3777   13.1446 C   0  0  0  0  0  0
   19.0787   47.3821   11.5064 H   0  0  0  0  0  0
   18.7139   46.2146   13.6130 H   0  0  0  0  0  0
   19.3633   47.2542   15.7571 H   0  0  0  0  0  0
   20.5324   49.4063   15.7671 H   0  0  0  0  0  0
   20.1400   49.6330    9.1896 H   0  0  0  0  0  0
   21.0981   51.3057   14.6378 H   0  0  0  0  0  0
   22.7087   49.5492   11.8907 H   0  0  0  0  0  0
   24.5232   50.4952   10.5986 H   0  0  0  0  0  0
   25.4905   52.6725   11.2027 H   0  0  0  0  0  0
   22.5763   54.4437   14.6000 H   0  0  0  0  0  0
   21.1321   53.8150   13.8117 H   0  0  0  0  0  0
   21.7915   53.0116   15.2269 H   0  0  0  0  0  0
   24.0543   55.2294   13.0035 H   0  0  0  0  0  0
   24.9736   54.3505   14.1999 H   0  0  0  0  0  0
   25.6407   54.5625   12.6000 H   0  0  0  0  0  0
  1  6  1  0  0  0
  1  2  2  0  0  0
  1 19  1  0  0  0
  2  3  1  0  0  0
  2 20  1  0  0  0
  3  4  2  0  0  0
  3 21  1  0  0  0
  4  5  1  0  0  0
  4 22  1  0  0  0
  5 10  1  0  0  0
  5  6  2  0  0  0
  6  7  1  0  0  0
  7  9  1  0  0  0
  7  8  2  0  0  0
  9 23  1  0  0  0
 10 11  1  0  0  0
 10 24  1  0  0  0
 11 12  2  0  0  0
 11 16  1  0  0  0
 12 13  1  0  0  0
 12 25  1  0  0  0
 13 14  2  0  0  0
 13 26  1  0  0  0
 14 15  1  0  0  0
 14 27  1  0  0  0
 15 16  2  0  0  0
 15 18  1  0  0  0
 16 17  1  0  0  0
 17 28  1  0  0  0
 17 29  1  0  0  0
 17 30  1  0  0  0
 18 31  1  0  0  0
 18 32  1  0  0  0
 18 33  1  0  0  0
M  END
> <s_m_entry_id>
5567

> <s_m_entry_name>
dock_pv.558

> <s_m_Source_Path>
/home/csk/Desktop/cluster/DUD-E-result/pgh1

> <s_m_Source_File>
dock_pv.maegz

> <i_m_Source_File_Index>
558

> <chembl_id>
CHEMBL686

> <chembl_pref_name>
MEFENAMIC ACID

> <i_lp_mmshare_version>
53161

> <r_lp_tautomer_probability>
1

> <s_lp_Force_Field>
OPLS_2005

> <r_lp_Energy>
23.354628

> <b_lp_Chiralities_Consistent>
1

> <s_lp_Variant>
CHEMBL221_lig883-1

> <s_i_glide_gridfile>
glide-grid_2oyu

> <i_i_glide_lignum>
1089

> <i_i_glide_rotatable_bonds>
4

> <r_i_docking_score>
-7.17529125067394

> <r_i_glide_ligand_efficiency>
-0.398627291704108

> <r_i_glide_ligand_efficiency_sa>
-1.04469904322382

> <r_i_glide_ligand_efficiency_ln>
-1.84437161721382

> <r_i_glide_gscore>
-7.17529125067394

> <r_i_glide_lipo>
-3.32894094107271

> <r_i_glide_hbond>
0

> <r_i_glide_metal>
0

> <r_i_glide_rewards>
-2.76516025856033

> <r_i_glide_evdw>
-36.1595764160156

> <r_i_glide_ecoul>
-1.10517013072968

> <r_i_glide_erotb>
0.892564289369333

> <r_i_glide_esite>
0

> <r_i_glide_emodel>
-46.3744701394895

> <r_i_glide_energy>
-37.2647465467453

> <r_i_glide_einternal>
9.32069873809814

> <i_i_glide_confnum>
3

> <i_i_glide_posenum>
43

> <r_i_glide_eff_state_penalty>
0

> <s_user_duplicate_titles>
CHEMBL221_lig883

> <i_f3d_flags>
0

> <s_m_subgroup_title>
dock_pv

> <s_m_subgroupid>
dock_pv

> <b_m_subgroup_collapsed>
1

$$$$
CHEMBL221_lig811
                    3D
 Schrodinger Suite 2021-1.
 24 25  0  0  1  0            999 V2000
   18.8457   48.0413   15.5718 C   0  0  0  0  0  0
   18.6295   47.1060   14.5649 C   0  0  0  0  0  0
   19.3230   47.2029   13.3663 C   0  0  0  0  0  0
   19.7868   49.0730   15.3847 C   0  0  0  0  0  0
   20.4485   49.1958   14.1595 C   0  0  0  0  0  0
   20.2042   48.2552   13.1645 C   0  0  0  0  0  0
   20.9230   48.2622   11.9942 O   0  0  0  0  0  0
   21.3840   49.5299   11.4856 C   0  0  2  0  0  0
   21.8724   50.4684   12.6048 C   0  0  0  0  0  0
   21.3859   50.2840   13.8478 C   0  0  0  0  0  0
   22.8708   51.4730   12.2767 C   0  0  0  0  0  0
   23.0517   52.4116   13.2482 O   0  0  0  0  0  0
   23.5081   51.4896   11.2281 O   0  0  0  0  0  0
   20.2839   50.1558   10.6100 C   0  0  0  0  0  0
   19.3230   50.7358   11.3279 F   0  0  0  0  0  0
   20.7869   51.0730    9.8000 F   0  0  0  0  0  0
   19.7230   49.2220    9.8428 F   0  0  0  0  0  0
   20.1230   50.2570   16.6000 Cl  0  0  0  0  0  0
   17.8953   47.8730   17.0000 Cl  0  0  0  0  0  0
   17.9234   46.3036   14.7179 H   0  0  0  0  0  0
   19.1879   46.4650   12.6000 H   0  0  0  0  0  0
   22.2204   49.2744   10.8342 H   0  0  0  0  0  0
   21.7230   50.9273   14.6482 H   0  0  0  0  0  0
   23.7184   53.0454   12.9765 H   0  0  0  0  0  0
  1  2  2  0  0  0
  1  4  1  0  0  0
  1 19  1  0  0  0
  2  3  1  0  0  0
  2 20  1  0  0  0
  3  6  2  0  0  0
  3 21  1  0  0  0
  4  5  2  0  0  0
  4 18  1  0  0  0
  5  6  1  0  0  0
  5 10  1  0  0  0
  6  7  1  0  0  0
  7  8  1  0  0  0
  8  9  1  0  0  0
  8 14  1  0  0  0
  8 22  1  0  0  0
  9 10  2  0  0  0
  9 11  1  0  0  0
 10 23  1  0  0  0
 11 12  1  0  0  0
 11 13  2  0  0  0
 12 24  1  0  0  0
 14 15  1  0  0  0
 14 16  1  0  0  0
 14 17  1  0  0  0
M  END
> <s_m_entry_id>
5568

> <s_m_entry_name>
dock_pv.559

> <s_m_Source_Path>
/home/csk/Desktop/cluster/DUD-E-result/pgh1

> <s_m_Source_File>
dock_pv.maegz

> <i_m_Source_File_Index>
559

> <chembl_id>
CHEMBL1288533

> <chembl_pref_name>
None

> <i_lp_mmshare_version>
53161

> <r_lp_tautomer_probability>
1

> <s_lp_Force_Field>
OPLS_2005

> <r_lp_Energy>
14.57202

> <b_lp_Chiralities_Consistent>
1

> <s_lp_Variant>
CHEMBL221_lig811-1

> <s_i_glide_gridfile>
glide-grid_2oyu

> <i_i_glide_lignum>
976

> <i_i_glide_rotatable_bonds>
3

> <r_i_docking_score>
-7.17424894292238

> <r_i_glide_ligand_efficiency>
-0.377592049627494

> <r_i_glide_ligand_efficiency_sa>
-1.0075672467814

> <r_i_glide_ligand_efficiency_ln>
-1.81882619576954

> <r_i_glide_gscore>
-7.17424894292238

> <r_i_glide_lipo>
-2.72083299361407

> <r_i_glide_hbond>
0

> <r_i_glide_metal>
0

> <r_i_glide_rewards>
-3.3104625261514

> <r_i_glide_evdw>
-25.4600124359131

> <r_i_glide_ecoul>
-0.396135002374649

> <r_i_glide_erotb>
0.189467448994937

> <r_i_glide_esite>
0

> <r_i_glide_emodel>
-33.8857420946525

> <r_i_glide_energy>
-25.8561474382877

> <r_i_glide_einternal>
0.71106368303299

> <i_i_glide_confnum>
2

> <i_i_glide_posenum>
14

> <r_i_glide_eff_state_penalty>
0

> <s_user_duplicate_titles>
CHEMBL221_lig811

> <i_f3d_flags>
0

> <s_m_subgroup_title>
dock_pv

> <s_m_subgroupid>
dock_pv

> <b_m_subgroup_collapsed>
1

$$$$
CHEMBL221_lig598
                    3D
 Schrodinger Suite 2021-1.
 25 26  0  0  1  0            999 V2000
   21.2634   50.0509   10.2000 C   0  0  0  0  0  0
   20.9560   49.6840   11.6331 C   0  0  0  0  0  0
   21.4658   50.2968   12.7372 C   0  0  0  0  0  0
   20.8880   49.8775   14.0171 C   0  0  0  0  0  0
   19.9078   48.9415   14.0579 C   0  0  0  0  0  0
   19.2706   48.5917   15.2766 C   0  0  0  0  0  0
   18.6577   48.2730   16.2000 N   0  0  0  0  0  0
   19.4107   48.3088   12.8502 C   0  0  0  0  0  0
   18.5230   47.4730   12.8347 O   0  0  0  0  0  0
   19.9916   48.7186   11.7033 N   0  0  0  0  0  0
   22.5055   51.3521   12.6854 C   0  0  0  0  0  0
   22.4051   52.4923   13.4930 C   0  0  0  0  0  0
   23.3877   53.4784   13.4000 C   0  0  0  0  0  0
   24.4733   53.3681   12.6000 N   0  0  0  0  0  0
   24.5550   52.2730   11.8056 C   0  0  0  0  0  0
   23.6125   51.2479   11.8292 C   0  0  0  0  0  0
   21.6251   51.0730   10.1225 H   0  0  0  0  0  0
   22.0239   49.3829    9.8000 H   0  0  0  0  0  0
   20.3798   49.9963    9.5611 H   0  0  0  0  0  0
   21.2198   50.3433   14.9352 H   0  0  0  0  0  0
   19.6227   48.2792   10.8754 H   0  0  0  0  0  0
   21.5689   52.6328   14.1619 H   0  0  0  0  0  0
   23.3292   54.3710   14.0081 H   0  0  0  0  0  0
   25.4174   52.2108   11.1568 H   0  0  0  0  0  0
   23.7564   50.3823   11.2013 H   0  0  0  0  0  0
  1  2  1  0  0  0
  1 17  1  0  0  0
  1 18  1  0  0  0
  1 19  1  0  0  0
  2  3  2  0  0  0
  2 10  1  0  0  0
  3  4  1  0  0  0
  3 11  1  0  0  0
  4  5  2  0  0  0
  4 20  1  0  0  0
  5  6  1  0  0  0
  5  8  1  0  0  0
  6  7  3  0  0  0
  8  9  2  0  0  0
  8 10  1  0  0  0
 10 21  1  0  0  0
 11 12  2  0  0  0
 11 16  1  0  0  0
 12 13  1  0  0  0
 12 22  1  0  0  0
 13 14  2  0  0  0
 13 23  1  0  0  0
 14 15  1  0  0  0
 15 16  2  0  0  0
 15 24  1  0  0  0
 16 25  1  0  0  0
M  END
> <s_m_entry_id>
5569

> <s_m_entry_name>
dock_pv.560

> <s_m_Source_Path>
/home/csk/Desktop/cluster/DUD-E-result/pgh1

> <s_m_Source_File>
dock_pv.maegz

> <i_m_Source_File_Index>
560

> <chembl_id>
CHEMBL189

> <chembl_pref_name>
MILRINONE

> <i_lp_mmshare_version>
53161

> <r_lp_tautomer_probability>
1

> <s_lp_Force_Field>
OPLS_2005

> <r_lp_Energy>
25.73409

> <b_lp_Chiralities_Consistent>
1

> <s_lp_Variant>
CHEMBL221_lig598-1

> <s_i_glide_gridfile>
glide-grid_2oyu

> <i_i_glide_lignum>
737

> <i_i_glide_rotatable_bonds>
1

> <r_i_docking_score>
-7.16638265335713

> <r_i_glide_ligand_efficiency>
-0.44789891583482

> <r_i_glide_ligand_efficiency_sa>
-1.12863454352768

> <r_i_glide_ligand_efficiency_ln>
-1.89959287401529

> <r_i_glide_gscore>
-7.16638265335713

> <r_i_glide_lipo>
-3.17398083540218

> <r_i_glide_hbond>
0

> <r_i_glide_metal>
0

> <r_i_glide_rewards>
-2.7953523927518

> <r_i_glide_evdw>
-30.8309955596924

> <r_i_glide_ecoul>
-0.188034057617188

> <r_i_glide_erotb>
0.372705461424048

> <r_i_glide_esite>
0

> <r_i_glide_emodel>
-42.6942777696191

> <r_i_glide_energy>
-31.0190296173096

> <r_i_glide_einternal>
1.18760752677917

> <i_i_glide_confnum>
1

> <i_i_glide_posenum>
395

> <r_i_glide_eff_state_penalty>
0

> <s_user_duplicate_titles>
CHEMBL221_lig598

> <i_f3d_flags>
0

> <s_m_subgroup_title>
dock_pv

> <s_m_subgroupid>
dock_pv

> <b_m_subgroup_collapsed>
1

$$$$
CHEMBL221_lig654
                    3D
 Schrodinger Suite 2021-1.
 33 34  0  0  1  0            999 V2000
   19.7230   48.3209    9.9329 C   0  0  0  0  0  0
   20.4554   49.4731    9.6603 C   0  0  0  0  0  0
   21.1081   50.1495   10.6872 C   0  0  0  0  0  0
   21.0572   49.6692   12.0022 C   0  0  0  0  0  0
   20.2557   48.5494   12.2988 C   0  0  0  0  0  0
   19.5849   47.9062   11.2555 C   0  0  0  0  0  0
   21.8160   50.2730   13.0144 N   0  0  0  0  0  0
   22.5526   51.4651   12.9965 C   0  0  0  0  0  0
   22.1667   52.5102   13.8411 C   0  0  0  0  0  0
   22.8485   53.7262   13.8000 C   0  0  0  0  0  0
   23.9908   53.8635   13.0118 C   0  0  0  0  0  0
   24.4163   52.8049   12.2150 C   0  0  0  0  0  0
   23.6928   51.6175   12.1941 C   0  0  0  0  0  0
   20.9230   52.2730   15.0212 Cl  0  0  0  0  0  0
   20.1129   47.9672   13.7172 C   0  0  0  0  0  0
   18.7892   48.2730   14.4346 C   0  0  0  0  0  0
   17.7051   48.2730   13.6116 O   0  0  0  0  0  0
   18.7262   48.4443   15.6482 O   0  0  0  0  0  0
   19.1239   47.5054    8.8003 C   0  0  0  0  0  0
   24.1230   50.6179   11.4000 F   0  0  0  0  0  0
   20.5230   49.8376    8.6462 H   0  0  0  0  0  0
   21.6851   51.0269   10.4405 H   0  0  0  0  0  0
   18.9490   47.0730   11.4826 H   0  0  0  0  0  0
   21.6519   49.8987   13.9360 H   0  0  0  0  0  0
   22.5470   54.5374   14.4482 H   0  0  0  0  0  0
   24.5455   54.7913   13.0262 H   0  0  0  0  0  0
   25.3037   52.9004   11.6078 H   0  0  0  0  0  0
   20.2063   46.8845   13.6613 H   0  0  0  0  0  0
   20.9230   48.2944   14.3653 H   0  0  0  0  0  0
   16.9063   48.4611   14.1078 H   0  0  0  0  0  0
   19.3867   47.9063    7.8203 H   0  0  0  0  0  0
   18.0412   47.4730    8.8774 H   0  0  0  0  0  0
   19.4885   46.4800    8.8483 H   0  0  0  0  0  0
  1  6  1  0  0  0
  1  2  2  0  0  0
  1 19  1  0  0  0
  2  3  1  0  0  0
  2 21  1  0  0  0
  3  4  2  0  0  0
  3 22  1  0  0  0
  4  7  1  0  0  0
  4  5  1  0  0  0
  5  6  2  0  0  0
  5 15  1  0  0  0
  6 23  1  0  0  0
  7  8  1  0  0  0
  7 24  1  0  0  0
  8 13  1  0  0  0
  8  9  2  0  0  0
  9 10  1  0  0  0
  9 14  1  0  0  0
 10 11  2  0  0  0
 10 25  1  0  0  0
 11 12  1  0  0  0
 11 26  1  0  0  0
 12 13  2  0  0  0
 12 27  1  0  0  0
 13 20  1  0  0  0
 15 16  1  0  0  0
 15 28  1  0  0  0
 15 29  1  0  0  0
 16 17  1  0  0  0
 16 18  2  0  0  0
 17 30  1  0  0  0
 19 31  1  0  0  0
 19 32  1  0  0  0
 19 33  1  0  0  0
M  END
> <s_m_entry_id>
5570

> <s_m_entry_name>
dock_pv.561

> <s_m_Source_Path>
/home/csk/Desktop/cluster/DUD-E-result/pgh1

> <s_m_Source_File>
dock_pv.maegz

> <i_m_Source_File_Index>
561

> <chembl_id>
CHEMBL404108

> <chembl_pref_name>
LUMIRACOXIB

> <i_lp_mmshare_version>
53161

> <r_lp_tautomer_probability>
1

> <s_lp_Force_Field>
OPLS_2005

> <r_lp_Energy>
17.339915

> <b_lp_Chiralities_Consistent>
1

> <s_lp_Variant>
CHEMBL221_lig654-1

> <s_i_glide_gridfile>
glide-grid_2oyu

> <i_i_glide_lignum>
794

> <i_i_glide_rotatable_bonds>
5

> <r_i_docking_score>
-7.16347515719561

> <r_i_glide_ligand_efficiency>
-0.35817375785978

> <r_i_glide_ligand_efficiency_sa>
-0.972233157165736

> <r_i_glide_ligand_efficiency_ln>
-1.79278156462272

> <r_i_glide_gscore>
-7.16347515719561

> <r_i_glide_lipo>
-3.75853092287137

> <r_i_glide_hbond>
0

> <r_i_glide_metal>
0

> <r_i_glide_rewards>
-2.36207905469307

> <r_i_glide_evdw>
-33.7298774719238

> <r_i_glide_ecoul>
-1.35868072509766

> <r_i_glide_erotb>
0.847430802729678

> <r_i_glide_esite>
0

> <r_i_glide_emodel>
-44.0172290739519

> <r_i_glide_energy>
-35.0885581970215

> <r_i_glide_einternal>
4.05749797821045

> <i_i_glide_confnum>
20

> <i_i_glide_posenum>
368

> <r_i_glide_eff_state_penalty>
0

> <s_user_duplicate_titles>
CHEMBL221_lig654

> <i_f3d_flags>
0

> <s_m_subgroup_title>
dock_pv

> <s_m_subgroupid>
dock_pv

> <b_m_subgroup_collapsed>
1

$$$$
CHEMBL221_lig920
                    3D
 Schrodinger Suite 2021-1.
 38 40  0  0  1  0            999 V2000
   20.9237   50.6045   16.0358 C   0  0  0  0  0  0
   21.4200   51.3669   14.9795 C   0  0  0  0  0  0
   21.3229   50.8903   13.6743 C   0  0  0  0  0  0
   20.3429   49.3625   15.7948 C   0  0  0  0  0  0
   20.1900   48.9152   14.4873 C   0  0  0  0  0  0
   20.6718   49.6733   13.4352 C   0  0  0  0  0  0
   20.2860   49.0041   12.2006 C   0  0  0  0  0  0
   19.5930   47.8014   12.6143 C   0  0  0  0  0  0
   19.5364   47.7234   13.9540 C   0  0  0  0  0  0
   18.9001   46.6825   14.8499 C   0  0  0  0  0  0
   17.4750   47.0732   15.2310 C   0  0  0  0  0  0
   16.5248   46.3396   15.0012 O   0  0  0  0  0  0
   17.3885   48.2488   15.9081 O   0  0  0  0  0  0
   20.9904   51.0731   17.2944 F   0  0  0  0  0  0
   20.5216   49.5459   10.9993 C   0  0  0  0  0  0
   20.1227   49.1430    9.6494 C   0  0  0  0  0  0
   20.1230   50.1934    8.7456 C   0  0  0  0  0  0
   19.9096   49.9671    7.4041 C   0  0  0  0  0  0
   19.4610   48.7457    6.9896 C   0  0  0  0  0  0
   19.3271   47.6818    7.8852 C   0  0  0  0  0  0
   19.7127   47.8730    9.2197 C   0  0  0  0  0  0
   19.1153   48.6730    5.2973 S   0  0  0  0  0  0
   17.3343   48.6009    4.9932 C   0  0  0  0  0  0
   21.8721   52.3295   15.1690 H   0  0  0  0  0  0
   21.6989   51.5038   12.8695 H   0  0  0  0  0  0
   19.9506   48.7756   16.6011 H   0  0  0  0  0  0
   19.1512   47.0719   11.9555 H   0  0  0  0  0  0
   18.8847   45.7256   14.3277 H   0  0  0  0  0  0
   19.4987   46.5304   15.7473 H   0  0  0  0  0  0
   16.4713   48.4313   16.1214 H   0  0  0  0  0  0
   21.0934   50.4628   11.0183 H   0  0  0  0  0  0
   20.4265   51.1806    9.0484 H   0  0  0  0  0  0
   20.0143   50.7868    6.7073 H   0  0  0  0  0  0
   18.9441   46.7296    7.5606 H   0  0  0  0  0  0
   19.6706   47.0441    9.9036 H   0  0  0  0  0  0
   17.1561   48.6014    3.9179 H   0  0  0  0  0  0
   16.9048   47.6866    5.3987 H   0  0  0  0  0  0
   16.8279   49.4730    5.4004 H   0  0  0  0  0  0
  1 14  1  0  0  0
  1  2  2  0  0  0
  1  4  1  0  0  0
  2  3  1  0  0  0
  2 24  1  0  0  0
  3  6  2  0  0  0
  3 25  1  0  0  0
  4  5  2  0  0  0
  4 26  1  0  0  0
  5  9  1  0  0  0
  5  6  1  0  0  0
  6  7  1  0  0  0
  7 15  2  0  0  0
  7  8  1  0  0  0
  8  9  2  0  0  0
  8 27  1  0  0  0
  9 10  1  0  0  0
 10 11  1  0  0  0
 10 28  1  0  0  0
 10 29  1  0  0  0
 11 12  2  0  0  0
 11 13  1  0  0  0
 13 30  1  0  0  0
 15 16  1  0  0  0
 15 31  1  0  0  0
 16 17  2  0  0  0
 16 21  1  0  0  0
 17 18  1  0  0  0
 17 32  1  0  0  0
 18 19  2  0  0  0
 18 33  1  0  0  0
 19 20  1  0  0  0
 19 22  1  0  0  0
 20 21  2  0  0  0
 20 34  1  0  0  0
 21 35  1  0  0  0
 22 23  1  0  0  0
 23 36  1  0  0  0
 23 37  1  0  0  0
 23 38  1  0  0  0
M  END
> <s_m_entry_id>
5571

> <s_m_entry_name>
dock_pv.562

> <s_m_Source_Path>
/home/csk/Desktop/cluster/DUD-E-result/pgh1

> <s_m_Source_File>
dock_pv.maegz

> <i_m_Source_File_Index>
562

> <chembl_id>
CHEMBL496464

> <chembl_pref_name>
None

> <i_lp_mmshare_version>
53161

> <r_lp_tautomer_probability>
1

> <s_lp_Force_Field>
OPLS_2005

> <r_lp_Energy>
34.620136

> <b_lp_Chiralities_Consistent>
1

> <s_lp_Variant>
CHEMBL221_lig920-1

> <s_i_glide_gridfile>
glide-grid_2oyu

> <i_i_glide_lignum>
1135

> <i_i_glide_rotatable_bonds>
5

> <r_i_docking_score>
-7.16262372466832

> <r_i_glide_ligand_efficiency>
-0.311418422811666

> <r_i_glide_ligand_efficiency_sa>
-0.885632568625919

> <r_i_glide_ligand_efficiency_ln>
-1.73198736370595

> <r_i_glide_gscore>
-7.16262372466832

> <r_i_glide_lipo>
-4.09721942797493

> <r_i_glide_hbond>
0

> <r_i_glide_metal>
0

> <r_i_glide_rewards>
-2.16899601386816

> <r_i_glide_evdw>
-19.3812007904053

> <r_i_glide_ecoul>
-3.0366268157959

> <r_i_glide_erotb>
0.528145779064412

> <r_i_glide_esite>
0

> <r_i_glide_emodel>
-35.4783072658184

> <r_i_glide_energy>
-22.4178276062012

> <r_i_glide_einternal>
6.06341648101807

> <i_i_glide_confnum>
25

> <i_i_glide_posenum>
245

> <r_i_glide_eff_state_penalty>
0

> <s_user_duplicate_titles>
CHEMBL221_lig920,557800

> <i_f3d_flags>
0

> <s_m_subgroup_title>
dock_pv

> <s_m_subgroupid>
dock_pv

> <b_m_subgroup_collapsed>
1

$$$$
CHEMBL221_lig240
                    3D
 Schrodinger Suite 2021-1.
 43 45  0  0  1  0            999 V2000
   18.9625   47.5908   14.3837 S   0  0  0  0  0  0
   20.1048   48.8367   12.1142 C   0  0  0  0  0  0
   20.2989   49.2408    9.3475 C   0  0  0  0  0  0
   19.9640   48.7380   13.5096 N   0  0  0  0  0  0
   20.8053   49.9373   11.6206 C   0  0  0  0  0  0
   20.8389   50.1779   10.2343 C   0  0  0  0  0  0
   19.7230   48.0783    9.8407 C   0  0  0  0  0  0
   19.5795   47.9086   11.2189 C   0  0  0  0  0  0
   20.1230   49.2752    7.8635 C   0  0  0  0  0  0
   21.4035   50.7197   12.5850 O   0  0  0  0  0  0
   19.1962   46.2730   13.8000 O   0  0  0  0  0  0
   19.2249   47.8391   15.8000 O   0  0  0  0  0  0
   19.2805   47.1844    8.7160 C   0  0  0  0  0  0
   19.6895   47.8879    7.4345 C   0  0  0  0  0  0
   20.1230   50.2435    7.1113 O   0  0  0  0  0  0
   17.2164   48.1416   14.0019 C   0  0  0  0  0  0
   22.3978   51.6636   12.2657 C   0  0  0  0  0  0
   22.6587   52.4345   13.5705 C   0  0  0  0  0  0
   23.7151   51.1017   11.6930 C   0  0  0  0  0  0
   24.6799   52.2723   11.3999 C   0  0  0  0  0  0
   23.6022   53.6078   13.2994 C   0  0  0  0  0  0
   24.9230   53.1436   12.6561 C   0  0  0  0  0  0
   20.3619   49.4939   14.0471 H   0  0  0  0  0  0
   21.2921   51.0730    9.8533 H   0  0  0  0  0  0
   19.0443   47.0730   11.6085 H   0  0  0  0  0  0
   18.1979   47.0731    8.7025 H   0  0  0  0  0  0
   19.7315   46.1952    8.7628 H   0  0  0  0  0  0
   18.8665   47.9468    6.7213 H   0  0  0  0  0  0
   20.5230   47.3964    6.9428 H   0  0  0  0  0  0
   16.5278   47.3782   14.3597 H   0  0  0  0  0  0
   17.0268   49.0730   14.5264 H   0  0  0  0  0  0
   17.1020   48.2729   12.9284 H   0  0  0  0  0  0
   21.9726   52.3282   11.5271 H   0  0  0  0  0  0
   21.7247   52.8165   13.9855 H   0  0  0  0  0  0
   23.1173   51.7799   14.3132 H   0  0  0  0  0  0
   24.1797   50.4256   12.4103 H   0  0  0  0  0  0
   23.5403   50.5528   10.7690 H   0  0  0  0  0  0
   24.2539   52.8904   10.6077 H   0  0  0  0  0  0
   25.6230   51.8949   11.0001 H   0  0  0  0  0  0
   23.0754   54.2730   12.6269 H   0  0  0  0  0  0
   23.7907   54.1900   14.2000 H   0  0  0  0  0  0
   25.5390   54.0076   12.4096 H   0  0  0  0  0  0
   25.4933   52.5888   13.3991 H   0  0  0  0  0  0
  1  4  1  0  0  0
  1 11  2  0  0  0
  1 12  2  0  0  0
  1 16  1  0  0  0
  2  4  1  0  0  0
  2  5  1  0  0  0
  2  8  2  0  0  0
  3  7  2  0  0  0
  3  9  1  0  0  0
  3  6  1  0  0  0
  4 23  1  0  0  0
  5  6  2  0  0  0
  5 10  1  0  0  0
  6 24  1  0  0  0
  7  8  1  0  0  0
  7 13  1  0  0  0
  8 25  1  0  0  0
  9 15  2  0  0  0
  9 14  1  0  0  0
 10 17  1  0  0  0
 13 14  1  0  0  0
 13 26  1  0  0  0
 13 27  1  0  0  0
 14 28  1  0  0  0
 14 29  1  0  0  0
 16 30  1  0  0  0
 16 31  1  0  0  0
 16 32  1  0  0  0
 17 18  1  0  0  0
 17 19  1  0  0  0
 17 33  1  0  0  0
 18 21  1  0  0  0
 18 34  1  0  0  0
 18 35  1  0  0  0
 19 20  1  0  0  0
 19 36  1  0  0  0
 19 37  1  0  0  0
 20 22  1  0  0  0
 20 38  1  0  0  0
 20 39  1  0  0  0
 21 22  1  0  0  0
 21 40  1  0  0  0
 21 41  1  0  0  0
 22 42  1  0  0  0
 22 43  1  0  0  0
M  END
> <s_m_entry_id>
5572

> <s_m_entry_name>
dock_pv.563

> <s_m_Source_Path>
/home/csk/Desktop/cluster/DUD-E-result/pgh1

> <s_m_Source_File>
dock_pv.maegz

> <i_m_Source_File_Index>
563

> <chembl_id>
CHEMBL344959

> <chembl_pref_name>
None

> <i_lp_mmshare_version>
53161

> <r_lp_tautomer_probability>
0.99995

> <s_lp_Force_Field>
OPLS_2005

> <r_lp_Energy>
29.914259

> <b_lp_Chiralities_Consistent>
1

> <s_lp_Variant>
CHEMBL221_lig240-1

> <s_i_glide_gridfile>
glide-grid_2oyu

> <i_i_glide_lignum>
268

> <i_i_glide_rotatable_bonds>
4

> <r_i_docking_score>
-7.15886315599345

> <r_i_glide_ligand_efficiency>
-0.325402870726975

> <r_i_glide_ligand_efficiency_sa>
-0.911791641145693

> <r_i_glide_ligand_efficiency_ln>
-1.74988728120305

> <r_i_glide_gscore>
-7.15886315599345

> <r_i_glide_lipo>
-4.41141341990645

> <r_i_glide_hbond>
0

> <r_i_glide_metal>
0

> <r_i_glide_rewards>
-1.87125550393216

> <r_i_glide_evdw>
-27.8372325897217

> <r_i_glide_ecoul>
0.0843211859464645

> <r_i_glide_erotb>
0.536756055277093

> <r_i_glide_esite>
-0.0337368358378155

> <r_i_glide_emodel>
-27.2042081300627

> <r_i_glide_energy>
-27.7529114037752

> <r_i_glide_einternal>
1.94005846977234

> <i_i_glide_confnum>
11

> <i_i_glide_posenum>
73

> <r_i_glide_eff_state_penalty>
0

> <s_user_duplicate_titles>
CHEMBL221_lig240

> <i_f3d_flags>
0

> <s_m_subgroup_title>
dock_pv

> <s_m_subgroupid>
dock_pv

> <b_m_subgroup_collapsed>
1

$$$$
CHEMBL221_lig763
                    3D
 Schrodinger Suite 2021-1.
 34 35  0  0  1  0            999 V2000
   19.3230   47.9188   11.2717 C   0  0  0  0  0  0
   19.5524   48.0373    9.9024 C   0  0  0  0  0  0
   20.1898   49.0974    9.3571 N   0  0  0  0  0  0
   20.6480   50.0543   10.1987 C   0  0  0  0  0  0
   20.5130   49.9903   11.5880 C   0  0  0  0  0  0
   19.8097   48.9075   12.1391 C   0  0  0  0  0  0
   19.6685   48.8420   13.5352 N   0  0  0  0  0  0
   19.0189   47.4897   14.4512 S   0  0  0  0  0  0
   21.0672   50.9848   12.4106 N   0  0  0  0  0  0
   22.3089   51.6168   12.3142 C   0  0  0  0  0  0
   22.5520   52.7308   13.1189 C   0  0  0  0  0  0
   23.7769   53.3937   13.0373 C   0  0  0  0  0  0
   24.7745   52.9124   12.1999 C   0  0  0  0  0  0
   24.5249   51.8170   11.3826 C   0  0  0  0  0  0
   23.3069   51.1563   11.4495 C   0  0  0  0  0  0
   19.3230   46.2730   13.7006 O   0  0  0  0  0  0
   17.1508   47.7945   14.4896 C   0  0  0  0  0  0
   16.7635   48.2729   13.3080 F   0  0  0  0  0  0
   16.5398   46.6425   14.7608 F   0  0  0  0  0  0
   16.9230   48.6732   15.4586 F   0  0  0  0  0  0
   19.5524   47.6636   15.8000 O   0  0  0  0  0  0
   24.0260   54.6736   13.7898 C   0  0  0  0  0  0
   18.7566   47.0736   11.6187 H   0  0  0  0  0  0
   19.1811   47.2942    9.2120 H   0  0  0  0  0  0
   21.1374   50.8974    9.7373 H   0  0  0  0  0  0
   20.0965   49.5778   14.0747 H   0  0  0  0  0  0
   20.4785   51.3121   13.1603 H   0  0  0  0  0  0
   21.7818   53.1067   13.7766 H   0  0  0  0  0  0
   25.7288   53.4155   12.1522 H   0  0  0  0  0  0
   25.2936   51.4730   10.7082 H   0  0  0  0  0  0
   23.1610   50.2840   10.8325 H   0  0  0  0  0  0
   24.9750   54.6434   14.3223 H   0  0  0  0  0  0
   23.2238   54.9335   14.4821 H   0  0  0  0  0  0
   24.1229   55.4729   13.0572 H   0  0  0  0  0  0
  1  6  1  0  0  0
  1  2  2  0  0  0
  1 23  1  0  0  0
  2  3  1  0  0  0
  2 24  1  0  0  0
  3  4  2  0  0  0
  4  5  1  0  0  0
  4 25  1  0  0  0
  5  6  2  0  0  0
  5  9  1  0  0  0
  6  7  1  0  0  0
  7  8  1  0  0  0
  7 26  1  0  0  0
  8 16  2  0  0  0
  8 17  1  0  0  0
  8 21  2  0  0  0
  9 10  1  0  0  0
  9 27  1  0  0  0
 10 11  2  0  0  0
 10 15  1  0  0  0
 11 12  1  0  0  0
 11 28  1  0  0  0
 12 13  2  0  0  0
 12 22  1  0  0  0
 13 14  1  0  0  0
 13 29  1  0  0  0
 14 15  2  0  0  0
 14 30  1  0  0  0
 15 31  1  0  0  0
 17 18  1  0  0  0
 17 19  1  0  0  0
 17 20  1  0  0  0
 22 32  1  0  0  0
 22 33  1  0  0  0
 22 34  1  0  0  0
M  END
> <s_m_entry_id>
5573

> <s_m_entry_name>
dock_pv.564

> <s_m_Source_Path>
/home/csk/Desktop/cluster/DUD-E-result/pgh1

> <s_m_Source_File>
dock_pv.maegz

> <i_m_Source_File_Index>
564

> <chembl_id>
CHEMBL1077403

> <chembl_pref_name>
None

> <i_lp_mmshare_version>
53161

> <r_lp_tautomer_probability>
1

> <s_lp_Force_Field>
OPLS_2005

> <r_lp_Energy>
10.145058

> <b_lp_Chiralities_Consistent>
1

> <s_lp_Variant>
CHEMBL221_lig763-1

> <s_i_glide_gridfile>
glide-grid_2oyu

> <i_i_glide_lignum>
933

> <i_i_glide_rotatable_bonds>
5

> <r_i_docking_score>
-7.15633061934276

> <r_i_glide_ligand_efficiency>
-0.325287755424671

> <r_i_glide_ligand_efficiency_sa>
-0.911469083541409

> <r_i_glide_ligand_efficiency_ln>
-1.74926823686911

> <r_i_glide_gscore>
-7.15633061934276

> <r_i_glide_lipo>
-3.82169474088771

> <r_i_glide_hbond>
0

> <r_i_glide_metal>
0

> <r_i_glide_rewards>
-2.02435713300026

> <r_i_glide_evdw>
-31.4542179107666

> <r_i_glide_ecoul>
-2.50912547111511

> <r_i_glide_erotb>
0.685790712688168

> <r_i_glide_esite>
-0.046989741937362

> <r_i_glide_emodel>
-42.7284662120813

> <r_i_glide_energy>
-33.9633433818817

> <r_i_glide_einternal>
4.72303628921509

> <i_i_glide_confnum>
8

> <i_i_glide_posenum>
12

> <r_i_glide_eff_state_penalty>
0

> <s_user_duplicate_titles>
CHEMBL221_lig763,616773

> <i_f3d_flags>
0

> <s_m_subgroup_title>
dock_pv

> <s_m_subgroupid>
dock_pv

> <b_m_subgroup_collapsed>
1

$$$$
CHEMBL221_lig133
                    3D
 Schrodinger Suite 2021-1.
 32 34  0  0  1  0            999 V2000
   20.8316   49.6976   12.8943 C   0  0  0  0  0  0
   20.0031   49.0467   11.9916 N   0  0  0  0  0  0
   21.9563   50.5729   12.5776 C   0  0  0  0  0  0
   19.3598   48.4610   14.0707 N   0  0  0  0  0  0
   20.3580   49.3169   14.1542 C   0  0  0  0  0  0
   19.1608   48.3078   12.7911 C   0  0  0  0  0  0
   19.9261   49.0619    5.9729 S   0  0  0  0  0  0
   22.5051   51.6796   13.2113 C   0  0  0  0  0  0
   22.7092   50.2730   11.4871 O   0  0  0  0  0  0
   23.6434   52.0612   12.4988 C   0  0  0  0  0  0
   19.9698   49.0730   10.5755 C   0  0  0  0  0  0
   19.9222   49.0412    7.7696 C   0  0  0  0  0  0
   23.7174   51.1812   11.4314 C   0  0  0  0  0  0
   20.4480   47.8235    5.4507 O   0  0  0  0  0  0
   20.6102   50.2730    5.5735 O   0  0  0  0  0  0
   19.7230   47.8639    8.4792 C   0  0  0  0  0  0
   20.1230   50.2331    8.4757 C   0  0  0  0  0  0
   19.7230   47.8927    9.8718 C   0  0  0  0  0  0
   20.1458   50.2597    9.8689 C   0  0  0  0  0  0
   20.9230   49.8361   15.6936 Cl  0  0  0  0  0  0
   24.8467   53.4729   12.9240 Br  0  0  0  0  0  0
   18.1627   49.0383    5.4001 C   0  0  0  0  0  0
   18.3988   47.6886   12.3440 H   0  0  0  0  0  0
   22.1399   52.1437   14.1156 H   0  0  0  0  0  0
   24.4117   51.0730   10.6113 H   0  0  0  0  0  0
   19.5870   46.9372    7.9558 H   0  0  0  0  0  0
   20.1668   51.1561    7.9239 H   0  0  0  0  0  0
   19.7143   46.9820   10.4249 H   0  0  0  0  0  0
   20.2926   51.1913   10.3927 H   0  0  0  0  0  0
   18.1516   49.0730    4.3161 H   0  0  0  0  0  0
   17.6238   49.8730    5.8101 H   0  0  0  0  0  0
   17.7230   48.1038    5.7268 H   0  0  0  0  0  0
  1  2  1  0  0  0
  1  3  1  0  0  0
  1  5  2  0  0  0
  2  6  1  0  0  0
  2 11  1  0  0  0
  3  8  2  0  0  0
  3  9  1  0  0  0
  4  5  1  0  0  0
  4  6  2  0  0  0
  5 20  1  0  0  0
  6 23  1  0  0  0
  7 12  1  0  0  0
  7 14  2  0  0  0
  7 15  2  0  0  0
  7 22  1  0  0  0
  8 10  1  0  0  0
  8 24  1  0  0  0
  9 13  1  0  0  0
 10 21  1  0  0  0
 10 13  2  0  0  0
 11 18  2  0  0  0
 11 19  1  0  0  0
 12 17  1  0  0  0
 12 16  2  0  0  0
 13 25  1  0  0  0
 16 18  1  0  0  0
 16 26  1  0  0  0
 17 19  2  0  0  0
 17 27  1  0  0  0
 18 28  1  0  0  0
 19 29  1  0  0  0
 22 30  1  0  0  0
 22 31  1  0  0  0
 22 32  1  0  0  0
M  END
> <s_m_entry_id>
5574

> <s_m_entry_name>
dock_pv.565

> <s_m_Source_Path>
/home/csk/Desktop/cluster/DUD-E-result/pgh1

> <s_m_Source_File>
dock_pv.maegz

> <i_m_Source_File_Index>
565

> <chembl_id>
CHEMBL115905

> <chembl_pref_name>
None

> <i_lp_mmshare_version>
53161

> <r_lp_tautomer_probability>
1

> <s_lp_Force_Field>
OPLS_2005

> <r_lp_Energy>
6.210574

> <b_lp_Chiralities_Consistent>
1

> <s_lp_Variant>
CHEMBL221_lig133-1

> <s_i_glide_gridfile>
glide-grid_2oyu

> <i_i_glide_lignum>
155

> <i_i_glide_rotatable_bonds>
3

> <r_i_docking_score>
-7.15495296561533

> <r_i_glide_ligand_efficiency>
-0.325225134800697

> <r_i_glide_ligand_efficiency_sa>
-0.911293618090303

> <r_i_glide_ligand_efficiency_ln>
-1.74893148804698

> <r_i_glide_gscore>
-7.15495296561533

> <r_i_glide_lipo>
-3.76046337802717

> <r_i_glide_hbond>
0

> <r_i_glide_metal>
0

> <r_i_glide_rewards>
-2.25990118322522

> <r_i_glide_evdw>
-14.1451683044434

> <r_i_glide_ecoul>
-4.3485255241394

> <r_i_glide_erotb>
0.243176278546667

> <r_i_glide_esite>
-0.0182274390665237

> <r_i_glide_emodel>
-19.7572586970484

> <r_i_glide_energy>
-18.4936938285828

> <r_i_glide_einternal>
0.840214014053345

> <i_i_glide_confnum>
11

> <i_i_glide_posenum>
315

> <r_i_glide_eff_state_penalty>
0

> <s_user_duplicate_titles>
CHEMBL221_lig133

> <i_f3d_flags>
0

> <s_m_subgroup_title>
dock_pv

> <s_m_subgroupid>
dock_pv

> <b_m_subgroup_collapsed>
1

$$$$
CHEMBL221_lig571
                    3D
 Schrodinger Suite 2021-1.
 46 48  0  0  1  0            999 V2000
   19.6032   48.7028   12.9652 C   0  0  0  0  0  0
   19.6680   48.8948   14.3234 C   0  0  0  0  0  0
   20.2257   49.5713   12.0780 C   0  0  0  0  0  0
   18.8256   47.6370   12.6121 O   0  0  0  0  0  0
   18.6718   47.9622   14.9449 C   0  0  0  0  0  0
   23.8269   52.3907   12.9033 C   0  0  0  0  0  0
   23.7406   51.0681   11.8000 S   0  0  0  0  0  0
   20.1449   49.4866   10.5568 C   0  0  0  0  0  0
   22.8853   52.6520   13.9945 C   0  0  0  0  0  0
   21.8172   51.9924   14.5015 C   0  0  0  0  0  0
   18.2653   47.0729   13.7797 C   0  0  0  0  0  0
   20.5230   49.8728   14.8615 C   0  0  0  0  0  0
   20.8914   50.6634   12.6378 C   0  0  0  0  0  0
   21.1250   50.7932   14.0018 C   0  0  0  0  0  0
   24.7887   51.8355   10.7074 C   0  0  0  0  0  0
   24.9804   53.1069   12.6001 C   0  0  0  0  0  0
   25.5940   52.6730   11.4105 C   0  0  0  0  0  0
   17.4289   48.6731   15.5037 C   0  0  0  0  0  0
   19.3229   47.2091   16.0414 C   0  0  0  0  0  0
   19.5114   48.1784   10.0013 C   0  0  0  0  0  0
   21.5344   49.5508    9.9556 C   0  0  0  0  0  0
   19.4369   50.7399   10.0575 C   0  0  0  0  0  0
   23.0923   53.5912   14.4756 H   0  0  0  0  0  0
   21.3459   52.4422   15.3645 H   0  0  0  0  0  0
   18.6213   46.0485   13.8978 H   0  0  0  0  0  0
   17.1804   47.0731   13.6857 H   0  0  0  0  0  0
   20.6006   50.0172   15.9295 H   0  0  0  0  0  0
   21.2168   51.4618   11.9936 H   0  0  0  0  0  0
   24.9230   51.4143    9.7263 H   0  0  0  0  0  0
   25.3610   53.9145   13.2086 H   0  0  0  0  0  0
   26.5151   53.0730   11.0088 H   0  0  0  0  0  0
   16.7614   47.9835   16.0231 H   0  0  0  0  0  0
   16.8607   49.0730   14.6716 H   0  0  0  0  0  0
   17.6792   49.4728   16.2011 H   0  0  0  0  0  0
   18.6016   46.6731   16.6413 H   0  0  0  0  0  0
   20.1358   46.5551   15.7248 H   0  0  0  0  0  0
   19.7234   48.0376   16.6000 H   0  0  0  0  0  0
   18.5230   47.9926   10.3693 H   0  0  0  0  0  0
   19.4268   48.1847    8.9132 H   0  0  0  0  0  0
   20.1052   47.3054   10.2734 H   0  0  0  0  0  0
   21.8930   50.5663    9.8000 H   0  0  0  0  0  0
   22.2902   49.0730   10.5616 H   0  0  0  0  0  0
   21.4351   49.0737    9.0001 H   0  0  0  0  0  0
   20.0433   51.6121   10.2443 H   0  0  0  0  0  0
   19.3230   50.7156    8.9762 H   0  0  0  0  0  0
   18.5230   50.9463   10.6001 H   0  0  0  0  0  0
  1  2  2  0  0  0
  1  3  1  0  0  0
  1  4  1  0  0  0
  2  5  1  0  0  0
  2 12  1  0  0  0
  3  8  1  0  0  0
  3 13  2  0  0  0
  4 11  1  0  0  0
  5 18  1  0  0  0
  5 19  1  0  0  0
  5 11  1  0  0  0
  6  9  1  0  0  0
  6  7  1  0  0  0
  6 16  2  0  0  0
  7 15  1  0  0  0
  8 20  1  0  0  0
  8 21  1  0  0  0
  8 22  1  0  0  0
  9 10  2  0  0  0
  9 23  1  0  0  0
 10 14  1  0  0  0
 10 24  1  0  0  0
 11 25  1  0  0  0
 11 26  1  0  0  0
 12 14  2  0  0  0
 12 27  1  0  0  0
 13 14  1  0  0  0
 13 28  1  0  0  0
 15 17  2  0  0  0
 15 29  1  0  0  0
 16 17  1  0  0  0
 16 30  1  0  0  0
 17 31  1  0  0  0
 18 32  1  0  0  0
 18 33  1  0  0  0
 18 34  1  0  0  0
 19 35  1  0  0  0
 19 36  1  0  0  0
 19 37  1  0  0  0
 20 38  1  0  0  0
 20 39  1  0  0  0
 20 40  1  0  0  0
 21 41  1  0  0  0
 21 42  1  0  0  0
 21 43  1  0  0  0
 22 44  1  0  0  0
 22 45  1  0  0  0
 22 46  1  0  0  0
M  END
> <s_m_entry_id>
5575

> <s_m_entry_name>
dock_pv.566

> <s_m_Source_Path>
/home/csk/Desktop/cluster/DUD-E-result/pgh1

> <s_m_Source_File>
dock_pv.maegz

> <i_m_Source_File_Index>
566

> <chembl_id>
CHEMBL117911

> <chembl_pref_name>
None

> <i_lp_mmshare_version>
53161

> <r_lp_tautomer_probability>
1

> <s_lp_Force_Field>
OPLS_2005

> <r_lp_Energy>
28.53772

> <b_lp_Chiralities_Consistent>
1

> <s_lp_Variant>
CHEMBL221_lig571-1

> <s_i_glide_gridfile>
glide-grid_2oyu

> <i_i_glide_lignum>
709

> <i_i_glide_rotatable_bonds>
3

> <r_i_docking_score>
-7.14982682683668

> <r_i_glide_ligand_efficiency>
-0.324992128492576

> <r_i_glide_ligand_efficiency_sa>
-0.910640725251331

> <r_i_glide_ligand_efficiency_ln>
-1.74767847274902

> <r_i_glide_gscore>
-7.14982682683668

> <r_i_glide_lipo>
-5.04123187898075

> <r_i_glide_hbond>
0

> <r_i_glide_metal>
0

> <r_i_glide_rewards>
-2.11677611100446

> <r_i_glide_evdw>
-6.01302576065063

> <r_i_glide_ecoul>
-0.475686609745026

> <r_i_glide_erotb>
0.380185442642814

> <r_i_glide_esite>
0

> <r_i_glide_emodel>
-40.3665510513074

> <r_i_glide_energy>
-6.48871237039566

> <r_i_glide_einternal>
2.81573176383972

> <i_i_glide_confnum>
1

> <i_i_glide_posenum>
36

> <r_i_glide_eff_state_penalty>
0

> <s_user_duplicate_titles>
CHEMBL221_lig571

> <i_f3d_flags>
0

> <s_m_subgroup_title>
dock_pv

> <s_m_subgroupid>
dock_pv

> <b_m_subgroup_collapsed>
1

$$$$
CHEMBL221_lig843
                    3D
 Schrodinger Suite 2021-1.
 36 37  0  0  1  0            999 V2000
   20.7843   49.2588   11.7609 C   0  0  0  0  0  0
   21.7230   53.8648   15.2348 F   0  0  0  0  0  0
   22.1230   51.1084   14.6265 O   0  0  0  0  0  0
   18.9230   47.4731   11.3560 Cl  0  0  0  0  0  0
   20.4017   49.5052   14.5006 C   0  0  0  0  0  0
   22.6319   54.4906   13.4000 F   0  0  0  0  0  0
   25.2499   53.1978   12.7247 O   0  0  0  0  0  0
   21.5957   50.1125   12.4883 C   0  0  0  0  0  0
   20.9230   53.2003   13.4002 F   0  0  0  0  0  0
   24.7732   52.2730   10.7051 O   0  0  0  0  0  0
   19.7909   48.5190   12.3977 C   0  0  0  0  0  0
   19.5615   48.6283   13.7937 C   0  0  0  0  0  0
   21.3570   50.2730   13.8468 C   0  0  0  0  0  0
   22.6940   50.8393   11.8731 C   0  0  0  0  0  0
   18.4613   47.8224   14.5568 C   0  0  0  0  0  0
   18.2910   48.2502   16.0413 C   0  0  0  0  0  0
   18.8033   46.3177   14.5637 C   0  0  0  0  0  0
   17.0739   48.0343   13.9112 C   0  0  0  0  0  0
   23.3522   51.8013   12.5480 C   0  0  0  0  0  0
   24.5230   52.4914   12.0299 C   0  0  0  0  0  0
   22.8899   52.1595   13.9830 C   0  0  1  0  0  0
   22.0577   53.4589   14.0154 C   0  0  0  0  0  0
   20.9317   49.1458   10.6963 H   0  0  0  0  0  0
   20.3174   49.6496   15.5651 H   0  0  0  0  0  0
   24.1275   51.7236   10.2651 H   0  0  0  0  0  0
   22.9973   50.5375   10.8818 H   0  0  0  0  0  0
   17.5327   47.6536   16.5514 H   0  0  0  0  0  0
   17.9863   49.2915   16.1442 H   0  0  0  0  0  0
   19.2130   48.1141   16.6000 H   0  0  0  0  0  0
   18.9314   45.9071   13.5637 H   0  0  0  0  0  0
   19.7230   46.1478   15.1217 H   0  0  0  0  0  0
   18.0194   45.7297   15.0431 H   0  0  0  0  0  0
   16.9346   47.4731   13.0000 H   0  0  0  0  0  0
   16.2590   47.7337   14.5690 H   0  0  0  0  0  0
   16.9230   49.0730   13.6453 H   0  0  0  0  0  0
   23.7774   52.2730   14.6000 H   0  0  0  0  0  0
  1  8  2  0  0  0
  1 11  1  0  0  0
  1 23  1  0  0  0
  2 22  1  0  0  0
  3 13  1  0  0  0
  3 21  1  0  0  0
  4 11  1  0  0  0
  5 12  1  0  0  0
  5 13  2  0  0  0
  5 24  1  0  0  0
  6 22  1  0  0  0
  7 20  2  0  0  0
  8 13  1  0  0  0
  8 14  1  0  0  0
  9 22  1  0  0  0
 10 20  1  0  0  0
 10 25  1  0  0  0
 11 12  2  0  0  0
 12 15  1  0  0  0
 14 19  2  0  0  0
 14 26  1  0  0  0
 15 16  1  0  0  0
 15 17  1  0  0  0
 15 18  1  0  0  0
 16 27  1  0  0  0
 16 28  1  0  0  0
 16 29  1  0  0  0
 17 30  1  0  0  0
 17 31  1  0  0  0
 17 32  1  0  0  0
 18 33  1  0  0  0
 18 34  1  0  0  0
 18 35  1  0  0  0
 19 20  1  0  0  0
 19 21  1  0  0  0
 21 22  1  0  0  0
 21 36  1  0  0  0
M  END
> <s_m_entry_id>
5576

> <s_m_entry_name>
dock_pv.567

> <s_m_Source_Path>
/home/csk/Desktop/cluster/DUD-E-result/pgh1

> <s_m_Source_File>
dock_pv.maegz

> <i_m_Source_File_Index>
567

> <chembl_id>
CHEMBL1230209

> <chembl_pref_name>
None

> <i_lp_mmshare_version>
53161

> <r_lp_tautomer_probability>
1

> <s_lp_Force_Field>
OPLS_2005

> <r_lp_Energy>
20.359971

> <b_lp_Chiralities_Consistent>
1

> <s_lp_Variant>
CHEMBL221_lig843-1

> <s_i_glide_gridfile>
glide-grid_2oyu

> <i_i_glide_lignum>
1035

> <i_i_glide_rotatable_bonds>
4

> <r_i_docking_score>
-7.14752531588165

> <r_i_glide_ligand_efficiency>
-0.324887514358257

> <r_i_glide_ligand_efficiency_sa>
-0.910347592332728

> <r_i_glide_ligand_efficiency_ln>
-1.74711589952196

> <r_i_glide_gscore>
-7.14752531588165

> <r_i_glide_lipo>
-3.46687239289288

> <r_i_glide_hbond>
0

> <r_i_glide_metal>
0

> <r_i_glide_rewards>
-2.47733662725673

> <r_i_glide_evdw>
-24.0421333312988

> <r_i_glide_ecoul>
-0.858367085456848

> <r_i_glide_erotb>
0.168375897612338

> <r_i_glide_esite>
-0.0408304639609157

> <r_i_glide_emodel>
-32.0531925093682

> <r_i_glide_energy>
-24.9005004167557

> <r_i_glide_einternal>
2.72102427482605

> <i_i_glide_confnum>
2

> <i_i_glide_posenum>
369

> <r_i_glide_eff_state_penalty>
0

> <s_user_duplicate_titles>
CHEMBL221_lig843

> <i_f3d_flags>
0

> <s_m_subgroup_title>
dock_pv

> <s_m_subgroupid>
dock_pv

> <b_m_subgroup_collapsed>
1

$$$$
CHEMBL221_lig720
                    3D
 Schrodinger Suite 2021-1.
 34 35  0  0  1  0            999 V2000
   20.1574   49.0367   11.1755 C   0  0  0  0  0  0
   21.0866   49.8999   11.6547 C   0  0  0  0  0  0
   20.0178   48.9294    9.7331 C   0  0  0  0  0  0
   21.2636   50.3220   13.0264 C   0  0  0  0  0  0
   19.7230   47.7181    9.1084 C   0  0  0  0  0  0
   19.6183   47.6729    7.7295 C   0  0  0  0  0  0
   19.8417   48.8153    6.9680 C   0  0  0  0  0  0
   20.1230   50.0180    7.5982 C   0  0  0  0  0  0
   20.1317   50.0929    8.9751 C   0  0  0  0  0  0
   21.5915   51.6489   13.3006 C   0  0  0  0  0  0
   20.7725   49.9593   15.3298 C   0  0  0  0  0  0
   20.9241   49.4734   14.0605 C   0  0  0  0  0  0
   19.1499   48.2323   12.0001 C   0  0  0  0  0  0
   21.0730   51.2870   15.6318 C   0  0  0  0  0  0
   21.4887   52.1349   14.5999 C   0  0  0  0  0  0
   21.7215   53.4619   14.8232 O   0  0  0  0  0  0
   20.2013   49.1034   16.2001 O   0  0  0  0  0  0
   19.8068   48.7687    5.4603 C   0  0  0  0  0  0
   20.3711   49.8730    4.9989 F   0  0  0  0  0  0
   20.5213   47.7573    5.0001 F   0  0  0  0  0  0
   18.5486   48.6735    5.0273 F   0  0  0  0  0  0
   21.7725   50.3748   10.9656 H   0  0  0  0  0  0
   19.5961   46.8132    9.6811 H   0  0  0  0  0  0
   19.3835   46.7440    7.2621 H   0  0  0  0  0  0
   20.2390   50.9367    7.0379 H   0  0  0  0  0  0
   20.2938   51.0599    9.4308 H   0  0  0  0  0  0
   21.8500   52.3278   12.5009 H   0  0  0  0  0  0
   20.7095   48.4335   13.8848 H   0  0  0  0  0  0
   18.3206   47.8719   11.4007 H   0  0  0  0  0  0
   19.6195   47.3337   12.3985 H   0  0  0  0  0  0
   18.7161   48.8208   12.8077 H   0  0  0  0  0  0
   20.9229   51.6649   16.6320 H   0  0  0  0  0  0
   22.3971   53.6189   15.4973 H   0  0  0  0  0  0
   19.9184   48.2833   15.7952 H   0  0  0  0  0  0
  1  3  1  0  0  0
  1  2  2  0  0  0
  1 13  1  0  0  0
  2  4  1  0  0  0
  2 22  1  0  0  0
  3  9  1  0  0  0
  3  5  2  0  0  0
  4 12  1  0  0  0
  4 10  2  0  0  0
  5  6  1  0  0  0
  5 23  1  0  0  0
  6  7  2  0  0  0
  6 24  1  0  0  0
  7  8  1  0  0  0
  7 18  1  0  0  0
  8  9  2  0  0  0
  8 25  1  0  0  0
  9 26  1  0  0  0
 10 15  1  0  0  0
 10 27  1  0  0  0
 11 14  1  0  0  0
 11 12  2  0  0  0
 11 17  1  0  0  0
 12 28  1  0  0  0
 13 29  1  0  0  0
 13 30  1  0  0  0
 13 31  1  0  0  0
 14 15  2  0  0  0
 14 32  1  0  0  0
 15 16  1  0  0  0
 16 33  1  0  0  0
 17 34  1  0  0  0
 18 19  1  0  0  0
 18 20  1  0  0  0
 18 21  1  0  0  0
M  END
> <s_m_entry_id>
5577

> <s_m_entry_name>
dock_pv.568

> <s_m_Source_Path>
/home/csk/Desktop/cluster/DUD-E-result/pgh1

> <s_m_Source_File>
dock_pv.maegz

> <i_m_Source_File_Index>
568

> <chembl_id>
CHEMBL474128

> <chembl_pref_name>
None

> <i_lp_mmshare_version>
53161

> <r_lp_tautomer_probability>
1

> <s_lp_Force_Field>
OPLS_2005

> <r_lp_Energy>
20.956407

> <b_lp_Chiralities_Consistent>
1

> <s_lp_Variant>
CHEMBL221_lig720-1

> <s_i_glide_gridfile>
glide-grid_2oyu

> <i_i_glide_lignum>
889

> <i_i_glide_rotatable_bonds>
5

> <r_i_docking_score>
-7.14494311717311

> <r_i_glide_ligand_efficiency>
-0.340235386532053

> <r_i_glide_ligand_efficiency_sa>
-0.938683632611042

> <r_i_glide_ligand_efficiency_ln>
-1.76657274800405

> <r_i_glide_gscore>
-7.14494311717311

> <r_i_glide_lipo>
-4.05796306193386

> <r_i_glide_hbond>
-0.32

> <r_i_glide_metal>
0

> <r_i_glide_rewards>
-2.14119937753457

> <r_i_glide_evdw>
-8.9088249206543

> <r_i_glide_ecoul>
-3.36037969589233

> <r_i_glide_erotb>
0.422338241138813

> <r_i_glide_esite>
-0.0986207184269291

> <r_i_glide_emodel>
-16.8230094476381

> <r_i_glide_energy>
-12.2692046165466

> <r_i_glide_einternal>
4.26676750183105

> <i_i_glide_confnum>
3

> <i_i_glide_posenum>
194

> <r_i_glide_eff_state_penalty>
0

> <s_user_duplicate_titles>
CHEMBL221_lig720,454753

> <i_f3d_flags>
0

> <s_m_subgroup_title>
dock_pv

> <s_m_subgroupid>
dock_pv

> <b_m_subgroup_collapsed>
1

$$$$
CHEMBL221_lig1049 
                    3D
 Schrodinger Suite 2021-1.
 48 50  0  0  1  0            999 V2000
   20.5450   50.2728    5.5004 O   0  0  0  0  0  0
   19.8827   49.0284    5.8466 S   0  0  0  0  0  0
   20.3756   47.8035    5.2544 O   0  0  0  0  0  0
   20.1230   50.1059    8.3491 C   0  0  0  0  0  0
   19.9252   48.9311    7.6242 C   0  0  0  0  0  0
   19.7227   47.7394    8.3050 C   0  0  0  0  0  0
   19.7230   47.7324    9.6886 C   0  0  0  0  0  0
   19.9261   48.8993   10.4258 C   0  0  0  0  0  0
   20.1230   50.1003    9.7353 C   0  0  0  0  0  0
   18.2123   49.0730    5.4000 N   0  0  0  0  0  0
   19.9272   48.8453   11.8461 N   0  0  0  0  0  0
   20.5396   49.6942   12.7435 C   0  0  0  0  0  0
   20.2241   49.2407   14.0034 C   0  0  0  0  0  0
   19.4372   48.1101   13.7799 C   0  0  0  0  0  0
   19.2581   47.8729   12.5011 N   0  0  0  0  0  0
   20.6230   49.8728   15.2369 C   0  0  0  0  0  0
   20.9423   50.4088   16.2004 N   0  0  0  0  0  0
   21.2665   50.7991   12.3720 N   0  0  0  0  0  0
   22.5931   50.7595   12.1844 C   0  0  0  0  0  0
   23.1761   51.9144   11.3615 C   0  0  1  0  0  0
   23.3227   49.8729   12.5999 O   0  0  0  0  0  0
   23.7709   52.9734   12.2000 N   0  0  0  0  0  0
   22.9590   53.4584   13.3242 C   0  0  0  0  0  0
   23.5177   54.7927   13.7996 C   0  0  0  0  0  0
   24.9019   54.6730   14.1202 O   0  0  0  0  0  0
   25.7044   54.3045   13.0305 C   0  0  0  0  0  0
   25.2062   52.9388   12.5217 C   0  0  0  0  0  0
   24.1578   51.3403   10.3517 C   0  0  0  0  0  0
   20.1235   51.0552    7.8347 H   0  0  0  0  0  0
   19.5796   46.8121    7.7999 H   0  0  0  0  0  0
   19.7230   46.7879   10.1871 H   0  0  0  0  0  0
   20.1921   51.0552   10.2264 H   0  0  0  0  0  0
   17.8855   50.0370    5.2522 H   0  0  0  0  0  0
   18.0308   48.5513    4.5393 H   0  0  0  0  0  0
   18.9871   47.4863   14.5389 H   0  0  0  0  0  0
   20.7655   51.6512   12.1752 H   0  0  0  0  0  0
   22.3499   52.3340   10.8134 H   0  0  0  0  0  0
   21.9310   53.6197   13.0009 H   0  0  0  0  0  0
   22.9193   52.7241   14.1310 H   0  0  0  0  0  0
   22.9607   55.1414   14.6682 H   0  0  0  0  0  0
   23.3805   55.5165   13.0006 H   0  0  0  0  0  0
   26.7240   54.2718   13.4001 H   0  0  0  0  0  0
   25.6905   55.0849   12.2744 H   0  0  0  0  0  0
   25.3229   52.1731   13.2798 H   0  0  0  0  0  0
   25.8186   52.6724   11.6617 H   0  0  0  0  0  0
   23.6681   50.6435    9.6770 H   0  0  0  0  0  0
   24.6177   52.1417    9.7754 H   0  0  0  0  0  0
   24.9230   50.7963   10.8926 H   0  0  0  0  0  0
  1  2  2  0  0  0
  2  3  2  0  0  0
  2  5  1  0  0  0
  2 10  1  0  0  0
  4  5  2  0  0  0
  4  9  1  0  0  0
  4 29  1  0  0  0
  5  6  1  0  0  0
  6  7  2  0  0  0
  6 30  1  0  0  0
  7  8  1  0  0  0
  7 31  1  0  0  0
  8  9  2  0  0  0
  8 11  1  0  0  0
  9 32  1  0  0  0
 10 33  1  0  0  0
 10 34  1  0  0  0
 11 12  1  0  0  0
 11 15  1  0  0  0
 12 13  2  0  0  0
 12 18  1  0  0  0
 13 14  1  0  0  0
 13 16  1  0  0  0
 14 15  2  0  0  0
 14 35  1  0  0  0
 16 17  3  0  0  0
 18 19  1  0  0  0
 18 36  1  0  0  0
 19 20  1  0  0  0
 19 21  2  0  0  0
 20 22  1  0  0  0
 20 28  1  0  0  0
 20 37  1  0  0  0
 22 23  1  0  0  0
 22 27  1  0  0  0
 23 24  1  0  0  0
 23 38  1  0  0  0
 23 39  1  0  0  0
 24 25  1  0  0  0
 24 40  1  0  0  0
 24 41  1  0  0  0
 25 26  1  0  0  0
 26 27  1  0  0  0
 26 42  1  0  0  0
 26 43  1  0  0  0
 27 44  1  0  0  0
 27 45  1  0  0  0
 28 46  1  0  0  0
 28 47  1  0  0  0
 28 48  1  0  0  0
M  END
> <s_m_entry_id>
5578

> <s_m_entry_name>
dock_pv.569

> <s_m_Source_Path>
/home/csk/Desktop/cluster/DUD-E-result/pgh1

> <s_m_Source_File>
dock_pv.maegz

> <i_m_Source_File_Index>
569

> <chembl_id>
CHEMBL4452534

> <chembl_pref_name>
None

> <i_lp_mmshare_version>
53161

> <r_lp_tautomer_probability>
1

> <s_lp_Force_Field>
OPLS_2005

> <r_lp_Energy>
42.870142

> <b_lp_Chiralities_Consistent>
1

> <s_lp_Variant>
CHEMBL221_lig1049 -2

> <s_i_glide_gridfile>
glide-grid_2oyu

> <i_i_glide_lignum>
1307

> <i_i_glide_rotatable_bonds>
6

> <r_i_docking_score>
-7.13701451408028

> <r_i_glide_ligand_efficiency>
-0.254893375502867

> <r_i_glide_ligand_efficiency_sa>
-0.774006412196452

> <r_i_glide_ligand_efficiency_ln>
-1.64743250170146

> <r_i_glide_gscore>
-7.13701451408028

> <r_i_glide_lipo>
-3.27908439411344

> <r_i_glide_hbond>
-0.274693456220766

> <r_i_glide_metal>
0

> <r_i_glide_rewards>
-2.88626716589005

> <r_i_glide_evdw>
-6.41668367385864

> <r_i_glide_ecoul>
-5.10410165786743

> <r_i_glide_erotb>
0.480345526660858

> <r_i_glide_esite>
-0.0908655921438341

> <r_i_glide_emodel>
-11.7739525258348

> <r_i_glide_energy>
-11.5207853317261

> <r_i_glide_einternal>
14.1525249481201

> <i_i_glide_confnum>
4

> <i_i_glide_posenum>
58

> <r_i_glide_eff_state_penalty>
0

> <s_user_duplicate_titles>
CHEMBL221_lig1049 

> <i_f3d_flags>
0

> <s_m_subgroup_title>
dock_pv

> <s_m_subgroupid>
dock_pv

> <b_m_subgroup_collapsed>
1

$$$$
CHEMBL221_lig749
                    3D
 Schrodinger Suite 2021-1.
 51 53  0  0  1  0            999 V2000
   19.7255   47.8693   12.6745 C   0  0  0  0  0  0
   20.1618   48.9188   11.8532 C   0  0  0  0  0  0
   20.7672   50.0085   12.3842 N   0  0  0  0  0  0
   20.9252   50.0571   13.7255 C   0  0  0  0  0  0
   20.5230   49.1043   14.5883 N   0  0  0  0  0  0
   19.9221   48.0120   14.0457 C   0  0  0  0  0  0
   20.0114   48.9338   10.3713 C   0  0  0  0  0  0
   19.7230   47.7540    9.6811 C   0  0  0  0  0  0
   19.6569   47.7235    8.2998 C   0  0  0  0  0  0
   19.8656   48.8927    7.5796 C   0  0  0  0  0  0
   20.1230   50.0866    8.2437 C   0  0  0  0  0  0
   20.1846   50.1119    9.6306 C   0  0  0  0  0  0
   21.5408   51.1671   14.2989 N   0  0  0  0  0  0
   19.8106   48.8352    5.8148 S   0  0  0  0  0  0
   18.0226   49.0729    5.3708 C   0  0  0  0  0  0
   20.1230   47.4731    5.4592 O   0  0  0  0  0  0
   20.6560   49.8883    5.2757 O   0  0  0  0  0  0
   22.1651   52.2018   13.4842 C   0  0  0  0  0  0
   21.9614   53.5278   14.2146 C   0  0  0  0  0  0
   22.7867   54.6735   13.6378 C   0  0  0  0  0  0
   24.2519   54.2984   13.2898 C   0  0  0  0  0  0
   24.3693   52.9730   12.5164 C   0  0  0  0  0  0
   23.6451   51.8482   13.2684 C   0  0  0  0  0  0
   19.4752   47.0316   14.8988 O   0  0  0  0  0  0
   18.8296   47.4649   16.0967 C   0  0  0  0  0  0
   17.3525   47.7552   15.8239 C   0  0  0  0  0  0
   16.7540   48.1991   16.9296 F   0  0  0  0  0  0
   17.2284   48.6730   14.8768 F   0  0  0  0  0  0
   16.7091   46.6724   15.3980 F   0  0  0  0  0  0
   19.2193   46.9968   12.2922 H   0  0  0  0  0  0
   19.6282   46.8219   10.2060 H   0  0  0  0  0  0
   19.4590   46.7896    7.8012 H   0  0  0  0  0  0
   20.2401   51.0036    7.6817 H   0  0  0  0  0  0
   20.3844   51.0560   10.1165 H   0  0  0  0  0  0
   21.7691   51.1219   15.2793 H   0  0  0  0  0  0
   17.9405   49.0730    4.2849 H   0  0  0  0  0  0
   17.6639   50.0045    5.8009 H   0  0  0  0  0  0
   17.4710   48.2235    5.7618 H   0  0  0  0  0  0
   21.6903   52.2636   12.5047 H   0  0  0  0  0  0
   20.9230   53.8066   14.1092 H   0  0  0  0  0  0
   22.1224   53.4332   15.2868 H   0  0  0  0  0  0
   22.2322   55.0510   12.7785 H   0  0  0  0  0  0
   22.7814   55.4730   14.3745 H   0  0  0  0  0  0
   24.7291   55.0997   12.7279 H   0  0  0  0  0  0
   24.8416   54.2227   14.2000 H   0  0  0  0  0  0
   23.9448   53.0761   11.5165 H   0  0  0  0  0  0
   25.4196   52.7155   12.3764 H   0  0  0  0  0  0
   24.1230   51.7009   14.2341 H   0  0  0  0  0  0
   23.7380   50.9102   12.7181 H   0  0  0  0  0  0
   18.9191   46.6731   16.8216 H   0  0  0  0  0  0
   19.3031   48.3256   16.5692 H   0  0  0  0  0  0
  1  6  1  0  0  0
  1  2  2  0  0  0
  1 30  1  0  0  0
  2  7  1  0  0  0
  2  3  1  0  0  0
  3  4  2  0  0  0
  4  5  1  0  0  0
  4 13  1  0  0  0
  5  6  2  0  0  0
  6 24  1  0  0  0
  7  8  2  0  0  0
  7 12  1  0  0  0
  8  9  1  0  0  0
  8 31  1  0  0  0
  9 10  2  0  0  0
  9 32  1  0  0  0
 10 14  1  0  0  0
 10 11  1  0  0  0
 11 12  2  0  0  0
 11 33  1  0  0  0
 12 34  1  0  0  0
 13 18  1  0  0  0
 13 35  1  0  0  0
 14 15  1  0  0  0
 14 16  2  0  0  0
 14 17  2  0  0  0
 15 36  1  0  0  0
 15 37  1  0  0  0
 15 38  1  0  0  0
 18 19  1  0  0  0
 18 23  1  0  0  0
 18 39  1  0  0  0
 19 20  1  0  0  0
 19 40  1  0  0  0
 19 41  1  0  0  0
 20 21  1  0  0  0
 20 42  1  0  0  0
 20 43  1  0  0  0
 21 22  1  0  0  0
 21 44  1  0  0  0
 21 45  1  0  0  0
 22 23  1  0  0  0
 22 46  1  0  0  0
 22 47  1  0  0  0
 23 48  1  0  0  0
 23 49  1  0  0  0
 24 25  1  0  0  0
 25 26  1  0  0  0
 25 50  1  0  0  0
 25 51  1  0  0  0
 26 27  1  0  0  0
 26 28  1  0  0  0
 26 29  1  0  0  0
M  END
> <s_m_entry_id>
5579

> <s_m_entry_name>
dock_pv.570

> <s_m_Source_Path>
/home/csk/Desktop/cluster/DUD-E-result/pgh1

> <s_m_Source_File>
dock_pv.maegz

> <i_m_Source_File_Index>
570

> <chembl_id>
CHEMBL560284

> <chembl_pref_name>
None

> <i_lp_mmshare_version>
53161

> <r_lp_tautomer_probability>
0.999999917912647

> <s_lp_Force_Field>
OPLS_2005

> <r_lp_Energy>
-1.652863

> <b_lp_Chiralities_Consistent>
1

> <s_lp_Variant>
CHEMBL221_lig749-1

> <s_i_glide_gridfile>
glide-grid_2oyu

> <i_i_glide_lignum>
918

> <i_i_glide_rotatable_bonds>
7

> <r_i_docking_score>
-7.13585902175761

> <r_i_glide_ligand_efficiency>
-0.246064104198538

> <r_i_glide_ligand_efficiency_sa>
-0.755986886677941

> <r_i_glide_ligand_efficiency_ln>
-1.63393076621047

> <r_i_glide_gscore>
-7.13585902175761

> <r_i_glide_lipo>
-3.64253773165589

> <r_i_glide_hbond>
0

> <r_i_glide_metal>
0

> <r_i_glide_rewards>
-2.41686733988556

> <r_i_glide_evdw>
-17.01975440979

> <r_i_glide_ecoul>
-4.93553495407104

> <r_i_glide_erotb>
0.53874693519085

> <r_i_glide_esite>
-0.0238829218068499

> <r_i_glide_emodel>
-21.2993864499384

> <r_i_glide_energy>
-21.9552893638611

> <r_i_glide_einternal>
5.13199186325073

> <i_i_glide_confnum>
2

> <i_i_glide_posenum>
155

> <r_i_glide_eff_state_penalty>
0

> <s_user_duplicate_titles>
CHEMBL221_lig749

> <i_f3d_flags>
0

> <s_m_subgroup_title>
dock_pv

> <s_m_subgroupid>
dock_pv

> <b_m_subgroup_collapsed>
1

$$$$
CHEMBL221_lig825
                    3D
 Schrodinger Suite 2021-1.
 26 27  0  0  1  0            999 V2000
   23.1657   51.8545   12.7444 C   0  0  0  0  0  0
   22.6937   51.5564   11.4649 C   0  0  0  0  0  0
   21.4736   50.8929   11.3132 C   0  0  0  0  0  0
   22.4789   51.3655   13.8590 C   0  0  0  0  0  0
   21.3225   50.5974   13.7137 C   0  0  0  0  0  0
   20.7954   50.4322   12.4347 C   0  0  0  0  0  0
   19.5653   49.8327   12.2540 O   0  0  0  0  0  0
   19.2643   48.7095   13.1038 C   0  0  2  0  0  0
   19.7297   48.9360   14.5508 C   0  0  0  0  0  0
   20.6692   49.8707   14.8165 C   0  0  0  0  0  0
   19.8336   47.4369   12.4658 C   0  0  0  0  0  0
   19.5698   47.4726   11.1595 F   0  0  0  0  0  0
   21.1433   47.3161   12.6000 F   0  0  0  0  0  0
   19.3209   46.3333   13.0010 F   0  0  0  0  0  0
   19.0767   48.1560   15.5702 C   0  0  0  0  0  0
   19.3230   46.9762   15.7947 O   0  0  0  0  0  0
   18.0864   48.8372   16.1998 O   0  0  0  0  0  0
   24.3468   52.6907   12.9147 C   0  0  0  0  0  0
   20.7729   50.6607    9.7626 Cl  0  0  0  0  0  0
   25.2927   53.4512   13.0559 C   0  0  0  0  0  0
   23.2560   51.8794   10.6020 H   0  0  0  0  0  0
   22.8526   51.5625   14.8409 H   0  0  0  0  0  0
   18.1747   48.6340   13.0833 H   0  0  0  0  0  0
   20.9755   50.0606   15.8365 H   0  0  0  0  0  0
   17.6437   48.2652   16.8294 H   0  0  0  0  0  0
   26.0911   54.1491   13.1788 H   0  0  0  0  0  0
  1  2  2  0  0  0
  1  4  1  0  0  0
  1 18  1  0  0  0
  2  3  1  0  0  0
  2 21  1  0  0  0
  3  6  2  0  0  0
  3 19  1  0  0  0
  4  5  2  0  0  0
  4 22  1  0  0  0
  5  6  1  0  0  0
  5 10  1  0  0  0
  6  7  1  0  0  0
  7  8  1  0  0  0
  8  9  1  0  0  0
  8 11  1  0  0  0
  8 23  1  0  0  0
  9 10  2  0  0  0
  9 15  1  0  0  0
 10 24  1  0  0  0
 11 12  1  0  0  0
 11 13  1  0  0  0
 11 14  1  0  0  0
 15 16  2  0  0  0
 15 17  1  0  0  0
 17 25  1  0  0  0
 18 20  3  0  0  0
 20 26  1  0  0  0
M  END
> <s_m_entry_id>
5580

> <s_m_entry_name>
dock_pv.571

> <s_m_Source_Path>
/home/csk/Desktop/cluster/DUD-E-result/pgh1

> <s_m_Source_File>
dock_pv.maegz

> <i_m_Source_File_Index>
571

> <chembl_id>
CHEMBL1288640

> <chembl_pref_name>
None

> <i_lp_mmshare_version>
53161

> <r_lp_tautomer_probability>
1

> <s_lp_Force_Field>
OPLS_2005

> <r_lp_Energy>
12.047466

> <b_lp_Chiralities_Consistent>
1

> <s_lp_Variant>
CHEMBL221_lig825-1

> <s_i_glide_gridfile>
glide-grid_2oyu

> <i_i_glide_lignum>
1004

> <i_i_glide_rotatable_bonds>
4

> <r_i_docking_score>
-7.13387683424118

> <r_i_glide_ligand_efficiency>
-0.356693841712059

> <r_i_glide_ligand_efficiency_sa>
-0.968216046707289

> <r_i_glide_ligand_efficiency_ln>
-1.78537408060525

> <r_i_glide_gscore>
-7.13387683424118

> <r_i_glide_lipo>
-3.63980626052767

> <r_i_glide_hbond>
0

> <r_i_glide_metal>
0

> <r_i_glide_rewards>
-2.52254531320574

> <r_i_glide_evdw>
-24.5603141784668

> <r_i_glide_ecoul>
-0.527057588100433

> <r_i_glide_erotb>
0.402134014607802

> <r_i_glide_esite>
-0.0665849279771623

> <r_i_glide_emodel>
-28.3055386178082

> <r_i_glide_energy>
-25.0873717665672

> <r_i_glide_einternal>
3.34679961204529

> <i_i_glide_confnum>
1

> <i_i_glide_posenum>
223

> <r_i_glide_eff_state_penalty>
0

> <s_user_duplicate_titles>
CHEMBL221_lig825

> <i_f3d_flags>
0

> <s_m_subgroup_title>
dock_pv

> <s_m_subgroupid>
dock_pv

> <b_m_subgroup_collapsed>
1

$$$$
CHEMBL221_lig1054 
                    3D
 Schrodinger Suite 2021-1.
 38 40  0  0  1  0            999 V2000
   25.3667   53.0730   13.8000 O   0  0  0  0  0  0
   24.1717   53.1853   12.9652 S   0  0  0  0  0  0
   24.2470   53.0730   11.5078 O   0  0  0  0  0  0
   21.1771   51.2117   14.8006 C   0  0  0  0  0  0
   22.1019   52.1889   14.4736 C   0  0  0  0  0  0
   22.9905   51.9695   13.4258 C   0  0  0  0  0  0
   22.9230   50.8207   12.6572 C   0  0  0  0  0  0
   21.9732   49.8730   12.9641 C   0  0  0  0  0  0
   21.0935   50.0312   14.0467 C   0  0  0  0  0  0
   20.1830   48.9897   14.4223 N   0  0  0  0  0  0
   19.6779   47.8901   13.7023 C   0  0  0  0  0  0
   19.0460   47.1068   14.6691 C   0  0  0  0  0  0
   19.0081   47.9029   15.8000 C   0  0  0  0  0  0
   19.7411   48.9726   15.6922 N   0  0  0  0  0  0
   18.5230   45.7590   14.6118 C   0  0  0  0  0  0
   18.1230   44.6730   14.6000 N   0  0  0  0  0  0
   19.8497   47.6417   12.3629 N   0  0  0  0  0  0
   19.6048   48.6296   11.5945 C   0  0  0  0  0  0
   19.8211   48.7309   10.1601 C   0  0  0  0  0  0
   23.4141   54.6730   13.4000 N   0  0  0  0  0  0
   20.1230   49.9995    9.6534 C   0  0  0  0  0  0
   20.1230   50.2086    8.2811 C   0  0  0  0  0  0
   19.9468   49.1481    7.4000 C   0  0  0  0  0  0
   19.7230   47.8730    7.8973 C   0  0  0  0  0  0
   19.6669   47.6590    9.2742 C   0  0  0  0  0  0
   19.9945   49.4215    5.6965 Cl  0  0  0  0  0  0
   20.5230   51.3930   15.6408 H   0  0  0  0  0  0
   22.1231   53.1061   15.0421 H   0  0  0  0  0  0
   23.6046   50.6516   11.8346 H   0  0  0  0  0  0
   22.0103   48.9791   12.3659 H   0  0  0  0  0  0
   18.5285   47.6468   16.7358 H   0  0  0  0  0  0
   19.2176   49.5639   12.0013 H   0  0  0  0  0  0
   23.5415   54.8628   14.3992 H   0  0  0  0  0  0
   23.7894   55.4743   12.8866 H   0  0  0  0  0  0
   20.2564   50.8534   10.3048 H   0  0  0  0  0  0
   20.2645   51.2053    7.8889 H   0  0  0  0  0  0
   19.5704   47.0730    7.1985 H   0  0  0  0  0  0
   19.4523   46.6730    9.6482 H   0  0  0  0  0  0
  1  2  2  0  0  0
  2  3  2  0  0  0
  2  6  1  0  0  0
  2 20  1  0  0  0
  4  5  2  0  0  0
  4  9  1  0  0  0
  4 27  1  0  0  0
  5  6  1  0  0  0
  5 28  1  0  0  0
  6  7  2  0  0  0
  7  8  1  0  0  0
  7 29  1  0  0  0
  8  9  2  0  0  0
  8 30  1  0  0  0
  9 10  1  0  0  0
 10 11  1  0  0  0
 10 14  1  0  0  0
 11 12  2  0  0  0
 11 17  1  0  0  0
 12 13  1  0  0  0
 12 15  1  0  0  0
 13 14  2  0  0  0
 13 31  1  0  0  0
 15 16  3  0  0  0
 17 18  2  0  0  0
 18 19  1  0  0  0
 18 32  1  0  0  0
 19 21  2  0  0  0
 19 25  1  0  0  0
 20 33  1  0  0  0
 20 34  1  0  0  0
 21 22  1  0  0  0
 21 35  1  0  0  0
 22 23  2  0  0  0
 22 36  1  0  0  0
 23 24  1  0  0  0
 23 26  1  0  0  0
 24 25  2  0  0  0
 24 37  1  0  0  0
 25 38  1  0  0  0
M  END
> <s_m_entry_id>
5581

> <s_m_entry_name>
dock_pv.572

> <s_m_Source_Path>
/home/csk/Desktop/cluster/DUD-E-result/pgh1

> <s_m_Source_File>
dock_pv.maegz

> <i_m_Source_File_Index>
572

> <chembl_id>
CHEMBL4466770

> <chembl_pref_name>
None

> <i_lp_mmshare_version>
53161

> <r_lp_tautomer_probability>
1

> <s_lp_Force_Field>
OPLS_2005

> <r_lp_Energy>
28.516685

> <b_lp_Chiralities_Consistent>
1

> <s_lp_Variant>
CHEMBL221_lig1054 -1

> <s_i_glide_gridfile>
glide-grid_2oyu

> <i_i_glide_lignum>
1312

> <i_i_glide_rotatable_bonds>
4

> <r_i_docking_score>
-7.13268303662509

> <r_i_glide_ligand_efficiency>
-0.274333962947119

> <r_i_glide_ligand_efficiency_sa>
-0.81271328577882

> <r_i_glide_ligand_efficiency_ln>
-1.67508720690942

> <r_i_glide_gscore>
-7.13268303662509

> <r_i_glide_lipo>
-3.61217060683475

> <r_i_glide_hbond>
-0.139485739551296

> <r_i_glide_metal>
0

> <r_i_glide_rewards>
-2.28573631453354

> <r_i_glide_evdw>
-18.1739597320557

> <r_i_glide_ecoul>
-3.57921457290649

> <r_i_glide_erotb>
0.39211250495733

> <r_i_glide_esite>
-0.0418227081240652

> <r_i_glide_emodel>
-32.3355547449518

> <r_i_glide_energy>
-21.7531743049622

> <r_i_glide_einternal>
2.73662495613098

> <i_i_glide_confnum>
2

> <i_i_glide_posenum>
283

> <r_i_glide_eff_state_penalty>
0

> <s_user_duplicate_titles>
CHEMBL221_lig1054 

> <i_f3d_flags>
0

> <s_m_subgroup_title>
dock_pv

> <s_m_subgroupid>
dock_pv

> <b_m_subgroup_collapsed>
1

$$$$
CHEMBL221_lig923
                    3D
 Schrodinger Suite 2021-1.
 37 38  0  0  1  0            999 V2000
   17.8123   46.2301   15.0000 C   0  0  0  0  0  0
   24.0633   51.0730   11.1758 C   0  0  0  0  0  0
   18.3596   47.5844   15.4618 C   0  0  1  0  0  0
   22.9806   51.0623   12.2683 C   0  0  2  0  0  0
   19.2169   48.3181   14.4159 C   0  0  0  0  0  0
   21.6930   50.5321   11.7915 N   0  0  0  0  0  0
   18.5230   45.3125   14.6094 O   0  0  0  0  0  0
   18.9791   48.3002   13.0298 C   0  0  0  0  0  0
   20.2544   49.1146   14.8901 C   0  0  0  0  0  0
   20.8415   49.8288   12.6623 C   0  0  0  0  0  0
   16.4548   46.1456   15.0000 O   0  0  0  0  0  0
   21.0292   49.8730   14.0402 C   0  0  0  0  0  0
   19.7954   49.0434   12.1618 C   0  0  0  0  0  0
   24.7128   52.4612   11.2127 C   0  0  0  0  0  0
   24.3283   53.0625   12.5679 C   0  0  0  0  0  0
   22.9266   52.5109   12.8211 C   0  0  2  0  0  0
   17.2902   48.5114   16.0557 C   0  0  0  0  0  0
   20.5230   49.1823   16.2000 F   0  0  0  0  0  0
   22.4874   52.7225   14.1503 O   0  0  0  0  0  0
   24.8054   50.3071   11.4000 H   0  0  0  0  0  0
   23.6754   50.8506   10.1810 H   0  0  0  0  0  0
   19.0174   47.3085   16.2828 H   0  0  0  0  0  0
   23.3729   50.4229   13.0606 H   0  0  0  0  0  0
   21.5737   50.4046   10.7976 H   0  0  0  0  0  0
   18.1688   47.7153   12.6184 H   0  0  0  0  0  0
   16.1749   45.2798   14.6980 H   0  0  0  0  0  0
   21.8020   50.4594   14.4982 H   0  0  0  0  0  0
   19.6138   49.0000   11.0981 H   0  0  0  0  0  0
   24.2925   53.0714   10.4108 H   0  0  0  0  0  0
   25.7925   52.4190   11.0602 H   0  0  0  0  0  0
   24.3615   54.1521   12.5999 H   0  0  0  0  0  0
   25.0124   52.7204   13.3466 H   0  0  0  0  0  0
   22.2319   53.0730   12.2001 H   0  0  0  0  0  0
   16.5230   48.6730   15.3006 H   0  0  0  0  0  0
   16.8066   48.0688   16.9282 H   0  0  0  0  0  0
   17.6984   49.4730   16.3641 H   0  0  0  0  0  0
   23.2312   52.9709   14.7142 H   0  0  0  0  0  0
  1  3  1  0  0  0
  1  7  2  0  0  0
  1 11  1  0  0  0
  2 14  1  0  0  0
  2  4  1  0  0  0
  2 20  1  0  0  0
  2 21  1  0  0  0
  3  5  1  0  0  0
  3 17  1  0  0  0
  3 22  1  0  0  0
  4  6  1  0  0  0
  4 16  1  0  0  0
  4 23  1  0  0  0
  5  8  2  0  0  0
  5  9  1  0  0  0
  6 10  1  0  0  0
  6 24  1  0  0  0
  8 13  1  0  0  0
  8 25  1  0  0  0
  9 12  2  0  0  0
  9 18  1  0  0  0
 10 12  1  0  0  0
 10 13  2  0  0  0
 11 26  1  0  0  0
 12 27  1  0  0  0
 13 28  1  0  0  0
 14 15  1  0  0  0
 14 29  1  0  0  0
 14 30  1  0  0  0
 15 16  1  0  0  0
 15 31  1  0  0  0
 15 32  1  0  0  0
 16 19  1  0  0  0
 16 33  1  0  0  0
 17 34  1  0  0  0
 17 35  1  0  0  0
 17 36  1  0  0  0
 19 37  1  0  0  0
M  END
> <s_m_entry_id>
5582

> <s_m_entry_name>
dock_pv.573

> <s_m_Source_Path>
/home/csk/Desktop/cluster/DUD-E-result/pgh1

> <s_m_Source_File>
dock_pv.maegz

> <i_m_Source_File_Index>
573

> <chembl_id>
CHEMBL2063728

> <chembl_pref_name>
None

> <i_lp_mmshare_version>
53161

> <r_lp_tautomer_probability>
1

> <s_lp_Force_Field>
OPLS_2005

> <r_lp_Energy>
32.305003

> <b_lp_Chiralities_Consistent>
1

> <s_lp_Variant>
CHEMBL221_lig923-2

> <s_i_glide_gridfile>
glide-grid_2oyu

> <i_i_glide_lignum>
1139

> <i_i_glide_rotatable_bonds>
6

> <r_i_docking_score>
-7.12050877551213

> <r_i_glide_ligand_efficiency>
-0.374763619763796

> <r_i_glide_ligand_efficiency_sa>
-1.00001985987722

> <r_i_glide_ligand_efficiency_ln>
-1.80520190909808

> <r_i_glide_gscore>
-7.12050877551213

> <r_i_glide_lipo>
-3.58096415812144

> <r_i_glide_hbond>
-0.32

> <r_i_glide_metal>
0

> <r_i_glide_rewards>
-2.62757460299977

> <r_i_glide_evdw>
-24.0982608795166

> <r_i_glide_ecoul>
-2.5683765411377

> <r_i_glide_erotb>
0.998199510755573

> <r_i_glide_esite>
0

> <r_i_glide_emodel>
-31.0179583716176

> <r_i_glide_energy>
-26.6666374206543

> <r_i_glide_einternal>
8.17420291900635

> <i_i_glide_confnum>
28

> <i_i_glide_posenum>
105

> <r_i_glide_eff_state_penalty>
0

> <s_user_duplicate_titles>
CHEMBL221_lig923

> <i_f3d_flags>
0

> <s_m_subgroup_title>
dock_pv

> <s_m_subgroupid>
dock_pv

> <b_m_subgroup_collapsed>
1

$$$$
CHEMBL221_lig901
                    3D
 Schrodinger Suite 2021-1.
 39 41  0  0  1  0            999 V2000
   22.7674   52.8443   12.8755 C   0  0  0  0  0  0
   22.3119   52.8112   14.1883 C   0  0  0  0  0  0
   21.6136   51.7068   14.6550 C   0  0  0  0  0  0
   22.3906   51.8400   11.9837 C   0  0  0  0  0  0
   21.5765   50.7845   12.4123 C   0  0  0  0  0  0
   21.2746   50.6823   13.7804 C   0  0  0  0  0  0
   20.5809   49.6466   14.3749 O   0  0  0  0  0  0
   20.0974   48.6069   13.5617 C   0  0  2  0  0  0
   20.9144   49.8410   11.4843 C   0  0  0  0  0  0
   20.2251   48.7731   12.0466 C   0  0  0  0  0  0
   19.5955   47.8838   11.1778 C   0  0  0  0  0  0
   19.6027   48.0441    9.8333 N   0  0  0  0  0  0
   20.2353   49.1538    9.3728 C   0  0  0  0  0  0
   20.9227   50.0479   10.1368 N   0  0  0  0  0  0
   20.1230   49.4595    8.0083 N   0  0  0  0  0  0
   19.5866   48.5602    6.9998 N   0  0  0  0  0  0
   18.7317   48.4506   13.7904 O   0  0  0  0  0  0
   18.2674   47.6240   14.8541 C   0  0  0  0  0  0
   18.4798   48.3203   16.1997 C   0  0  0  0  0  0
   18.9227   46.2390   14.8411 C   0  0  0  0  0  0
   16.7794   47.4714   14.5650 C   0  0  0  0  0  0
   23.3601   53.6805   12.5393 H   0  0  0  0  0  0
   22.5227   53.6363   14.8490 H   0  0  0  0  0  0
   21.3113   51.6569   15.6905 H   0  0  0  0  0  0
   22.6807   51.9181   10.9476 H   0  0  0  0  0  0
   20.6959   47.7513   13.8664 H   0  0  0  0  0  0
   19.0060   47.0729   11.5667 H   0  0  0  0  0  0
   20.5221   50.3025    7.6136 H   0  0  0  0  0  0
   20.1034   47.6914    7.0230 H   0  0  0  0  0  0
   18.5951   48.4270    7.1627 H   0  0  0  0  0  0
   17.9727   49.2840   16.2317 H   0  0  0  0  0  0
   18.0967   47.7181   17.0241 H   0  0  0  0  0  0
   19.5358   48.5084   16.3894 H   0  0  0  0  0  0
   19.0070   45.8602   13.8227 H   0  0  0  0  0  0
   19.9136   46.2732   15.2918 H   0  0  0  0  0  0
   18.3431   45.5059   15.3991 H   0  0  0  0  0  0
   16.5724   47.4731   13.4909 H   0  0  0  0  0  0
   16.3668   46.5504   14.9770 H   0  0  0  0  0  0
   16.1917   48.2721   14.9934 H   0  0  0  0  0  0
  1  2  2  0  0  0
  1  4  1  0  0  0
  1 22  1  0  0  0
  2  3  1  0  0  0
  2 23  1  0  0  0
  3  6  2  0  0  0
  3 24  1  0  0  0
  4  5  2  0  0  0
  4 25  1  0  0  0
  5  6  1  0  0  0
  5  9  1  0  0  0
  6  7  1  0  0  0
  7  8  1  0  0  0
  8 17  1  0  0  0
  8 10  1  0  0  0
  8 26  1  0  0  0
  9 10  2  0  0  0
  9 14  1  0  0  0
 10 11  1  0  0  0
 11 12  2  0  0  0
 11 27  1  0  0  0
 12 13  1  0  0  0
 13 14  2  0  0  0
 13 15  1  0  0  0
 15 16  1  0  0  0
 15 28  1  0  0  0
 16 29  1  0  0  0
 16 30  1  0  0  0
 17 18  1  0  0  0
 18 19  1  0  0  0
 18 20  1  0  0  0
 18 21  1  0  0  0
 19 31  1  0  0  0
 19 32  1  0  0  0
 19 33  1  0  0  0
 20 34  1  0  0  0
 20 35  1  0  0  0
 20 36  1  0  0  0
 21 37  1  0  0  0
 21 38  1  0  0  0
 21 39  1  0  0  0
M  END
> <s_m_entry_id>
5583

> <s_m_entry_name>
dock_pv.574

> <s_m_Source_Path>
/home/csk/Desktop/cluster/DUD-E-result/pgh1

> <s_m_Source_File>
dock_pv.maegz

> <i_m_Source_File_Index>
574

> <chembl_id>
CHEMBL1938840

> <chembl_pref_name>
None

> <i_lp_mmshare_version>
53161

> <r_lp_tautomer_probability>
1

> <s_lp_Force_Field>
OPLS_2005

> <r_lp_Energy>
15.311239

> <b_lp_Chiralities_Consistent>
1

> <s_lp_Variant>
CHEMBL221_lig901-1

> <s_i_glide_gridfile>
glide-grid_2oyu

> <i_i_glide_lignum>
1108

> <i_i_glide_rotatable_bonds>
3

> <r_i_docking_score>
-7.11364193624633

> <r_i_glide_ligand_efficiency>
-0.338744854106968

> <r_i_glide_ligand_efficiency_sa>
-0.934571366671969

> <r_i_glide_ligand_efficiency_ln>
-1.7588335942699

> <r_i_glide_gscore>
-7.11364193624633

> <r_i_glide_lipo>
-3.17749075156266

> <r_i_glide_hbond>
0

> <r_i_glide_metal>
0

> <r_i_glide_rewards>
-2.4978051619853

> <r_i_glide_evdw>
-27.834342956543

> <r_i_glide_ecoul>
-1.78742265701294

> <r_i_glide_erotb>
0.221484523680707

> <r_i_glide_esite>
0

> <r_i_glide_emodel>
-38.7852345399362

> <r_i_glide_energy>
-29.6217656135559

> <r_i_glide_einternal>
6.31157064437866

> <i_i_glide_confnum>
1

> <i_i_glide_posenum>
149

> <r_i_glide_eff_state_penalty>
0

> <s_user_duplicate_titles>
CHEMBL221_lig901

> <i_f3d_flags>
0

> <s_m_subgroup_title>
dock_pv

> <s_m_subgroupid>
dock_pv

> <b_m_subgroup_collapsed>
1

$$$$
CHEMBL221_lig172
                    3D
 Schrodinger Suite 2021-1.
 34 35  0  0  1  0            999 V2000
   19.7334   48.6591   12.0107 C   0  0  0  0  0  0
   20.3735   49.5487   12.8745 C   0  0  0  0  0  0
   21.0680   50.6500   12.3844 C   0  0  0  0  0  0
   21.7232   51.5658   13.3579 C   0  0  0  0  0  0
   19.1090   47.3791   12.5535 C   0  0  2  0  0  0
   18.5473   47.4733   13.9936 C   0  0  0  0  0  0
   19.8225   48.8680   10.6238 C   0  0  0  0  0  0
   21.0787   50.8882   11.0059 C   0  0  0  0  0  0
   21.3230   51.6254   14.5250 O   0  0  0  0  0  0
   19.1571   47.0752   14.9856 O   0  0  0  0  0  0
   22.8759   52.4009   12.9358 C   0  0  0  0  0  0
   20.4687   49.9970   10.1288 C   0  0  0  0  0  0
   17.3228   48.0725   14.0243 O   0  0  0  0  0  0
   19.3231   47.9503    9.7326 O   0  0  0  0  0  0
   20.1558   46.2728   12.3948 C   0  0  0  0  0  0
   23.8473   51.9265   12.0429 C   0  0  0  0  0  0
   23.0565   53.6308   13.5620 C   0  0  0  0  0  0
   24.2491   54.3123   13.4000 C   0  0  0  0  0  0
   25.0154   52.6555   11.8473 C   0  0  0  0  0  0
   25.2492   53.7978   12.6000 C   0  0  0  0  0  0
   20.3664   49.3644   13.9403 H   0  0  0  0  0  0
   18.2673   47.1433   11.9098 H   0  0  0  0  0  0
   21.5644   51.7663   10.6112 H   0  0  0  0  0  0
   20.5150   50.1818    9.0659 H   0  0  0  0  0  0
   17.0101   48.3263   13.1541 H   0  0  0  0  0  0
   19.4768   48.2026    8.8194 H   0  0  0  0  0  0
   21.0373   46.4772   13.0001 H   0  0  0  0  0  0
   19.7233   45.2961   12.6068 H   0  0  0  0  0  0
   20.5200   46.2106   11.3714 H   0  0  0  0  0  0
   23.7421   50.9752   11.5403 H   0  0  0  0  0  0
   22.3260   54.0270   14.2549 H   0  0  0  0  0  0
   24.4055   55.2211   13.9524 H   0  0  0  0  0  0
   25.7745   52.2814   11.1750 H   0  0  0  0  0  0
   26.1780   54.3388   12.5079 H   0  0  0  0  0  0
  1  2  2  0  0  0
  1  5  1  0  0  0
  1  7  1  0  0  0
  2  3  1  0  0  0
  2 21  1  0  0  0
  3  4  1  0  0  0
  3  8  2  0  0  0
  4  9  2  0  0  0
  4 11  1  0  0  0
  5  6  1  0  0  0
  5 15  1  0  0  0
  5 22  1  0  0  0
  6 10  2  0  0  0
  6 13  1  0  0  0
  7 12  2  0  0  0
  7 14  1  0  0  0
  8 12  1  0  0  0
  8 23  1  0  0  0
 11 16  2  0  0  0
 11 17  1  0  0  0
 12 24  1  0  0  0
 13 25  1  0  0  0
 14 26  1  0  0  0
 15 27  1  0  0  0
 15 28  1  0  0  0
 15 29  1  0  0  0
 16 19  1  0  0  0
 16 30  1  0  0  0
 17 18  2  0  0  0
 17 31  1  0  0  0
 18 20  1  0  0  0
 18 32  1  0  0  0
 19 20  2  0  0  0
 19 33  1  0  0  0
 20 34  1  0  0  0
M  END
> <s_m_entry_id>
5584

> <s_m_entry_name>
dock_pv.575

> <s_m_Source_Path>
/home/csk/Desktop/cluster/DUD-E-result/pgh1

> <s_m_Source_File>
dock_pv.maegz

> <i_m_Source_File_Index>
575

> <chembl_id>
CHEMBL274587

> <chembl_pref_name>
None

> <i_lp_mmshare_version>
53161

> <r_lp_tautomer_probability>
1

> <s_lp_Force_Field>
OPLS_2005

> <r_lp_Energy>
20.854961

> <b_lp_Chiralities_Consistent>
1

> <s_lp_Variant>
CHEMBL221_lig172-1

> <s_i_glide_gridfile>
glide-grid_2oyu

> <i_i_glide_lignum>
196

> <i_i_glide_rotatable_bonds>
6

> <r_i_docking_score>
-7.11289712597555

> <r_i_glide_ligand_efficiency>
-0.355644856298778

> <r_i_glide_ligand_efficiency_sa>
-0.965368662224771

> <r_i_glide_ligand_efficiency_ln>
-1.78012355158345

> <r_i_glide_gscore>
-7.11289712597555

> <r_i_glide_lipo>
-3.39344598092184

> <r_i_glide_hbond>
0

> <r_i_glide_metal>
0

> <r_i_glide_rewards>
-2.93707172747633

> <r_i_glide_evdw>
-27.1299705505371

> <r_i_glide_ecoul>
-2.70069885253906

> <r_i_glide_erotb>
0.979223937830329

> <r_i_glide_esite>
0

> <r_i_glide_emodel>
-25.7797451179902

> <r_i_glide_energy>
-29.8306694030762

> <r_i_glide_einternal>
17.7730464935303

> <i_i_glide_confnum>
46

> <i_i_glide_posenum>
344

> <r_i_glide_eff_state_penalty>
0

> <s_user_duplicate_titles>
CHEMBL221_lig172

> <i_f3d_flags>
0

> <s_m_subgroup_title>
dock_pv

> <s_m_subgroupid>
dock_pv

> <b_m_subgroup_collapsed>
1

$$$$
CHEMBL221_lig70
                    3D
 Schrodinger Suite 2021-1.
 46 49  0  0  1  0            999 V2000
   19.8970   48.8942   13.0418 N   0  0  0  0  0  0
   19.7274   48.4215   11.8145 N   0  0  0  0  0  0
   21.2000   50.0934   11.7208 C   0  0  0  0  0  0
   20.7885   49.9462   13.0532 C   0  0  0  0  0  0
   20.3750   49.2011   11.0055 C   0  0  0  0  0  0
   20.1230   49.0073    9.5496 C   0  0  0  0  0  0
   19.0518   48.3727   14.0484 C   0  0  0  0  0  0
   19.7228   47.7560    9.0686 C   0  0  0  0  0  0
   20.1231   50.0861    8.6697 C   0  0  0  0  0  0
   22.2849   51.0181   11.2078 C   0  0  0  0  0  0
   21.1471   50.7409   14.2996 C   0  0  0  0  0  0
   19.6223   48.6183    6.8256 C   0  0  0  0  0  0
   19.9930   49.8718    7.2955 C   0  0  0  0  0  0
   19.4179   47.5872    7.7299 C   0  0  0  0  0  0
   19.3850   48.4046    5.4923 O   0  0  0  0  0  0
   17.7970   47.8857   13.6619 C   0  0  0  0  0  0
   19.4131   48.3382   15.4006 C   0  0  0  0  0  0
   18.1784   49.0020    5.0429 C   0  0  0  0  0  0
   23.4606   51.1726   12.1942 C   0  0  0  0  0  0
   21.8060   52.1085   14.0340 C   0  0  0  0  0  0
   16.9228   47.3978   14.6011 C   0  0  0  0  0  0
   18.4828   47.8991   16.3376 C   0  0  0  0  0  0
   17.2309   47.4731   15.9417 C   0  0  0  0  0  0
   23.2164   52.1047   13.4036 C   0  0  0  0  0  0
   19.6079   46.9194    9.7398 H   0  0  0  0  0  0
   20.3534   51.0730    9.0324 H   0  0  0  0  0  0
   21.8703   51.9932   10.9684 H   0  0  0  0  0  0
   22.6855   50.6219   10.2731 H   0  0  0  0  0  0
   21.7274   50.1423   14.9848 H   0  0  0  0  0  0
   20.2494   50.9352   14.8762 H   0  0  0  0  0  0
   20.1059   50.6957    6.6070 H   0  0  0  0  0  0
   18.9866   46.6733    7.3937 H   0  0  0  0  0  0
   17.4769   47.8705   12.6295 H   0  0  0  0  0  0
   20.3844   48.6523   15.7442 H   0  0  0  0  0  0
   18.1205   49.0710    3.9592 H   0  0  0  0  0  0
   17.3192   48.4326    5.3970 H   0  0  0  0  0  0
   18.1020   50.0050    5.4217 H   0  0  0  0  0  0
   24.3350   51.5390   11.6525 H   0  0  0  0  0  0
   23.7455   50.1825   12.5519 H   0  0  0  0  0  0
   21.8577   52.6576   14.9761 H   0  0  0  0  0  0
   21.1376   52.6957   13.4031 H   0  0  0  0  0  0
   16.0115   46.9432   14.2728 H   0  0  0  0  0  0
   18.7015   47.8728   17.3892 H   0  0  0  0  0  0
   16.5150   47.1295   16.6738 H   0  0  0  0  0  0
   23.9481   51.8744   14.1781 H   0  0  0  0  0  0
   23.4443   53.1285   13.1014 H   0  0  0  0  0  0
  1  2  1  0  0  0
  1  4  1  0  0  0
  1  7  1  0  0  0
  2  5  2  0  0  0
  3  4  2  0  0  0
  3 10  1  0  0  0
  3  5  1  0  0  0
  4 11  1  0  0  0
  5  6  1  0  0  0
  6  8  1  0  0  0
  6  9  2  0  0  0
  7 16  1  0  0  0
  7 17  2  0  0  0
  8 14  2  0  0  0
  8 25  1  0  0  0
  9 13  1  0  0  0
  9 26  1  0  0  0
 10 19  1  0  0  0
 10 27  1  0  0  0
 10 28  1  0  0  0
 11 20  1  0  0  0
 11 29  1  0  0  0
 11 30  1  0  0  0
 12 13  2  0  0  0
 12 15  1  0  0  0
 12 14  1  0  0  0
 13 31  1  0  0  0
 14 32  1  0  0  0
 15 18  1  0  0  0
 16 21  2  0  0  0
 16 33  1  0  0  0
 17 22  1  0  0  0
 17 34  1  0  0  0
 18 35  1  0  0  0
 18 36  1  0  0  0
 18 37  1  0  0  0
 19 24  1  0  0  0
 19 38  1  0  0  0
 19 39  1  0  0  0
 20 24  1  0  0  0
 20 40  1  0  0  0
 20 41  1  0  0  0
 21 23  1  0  0  0
 21 42  1  0  0  0
 22 23  2  0  0  0
 22 43  1  0  0  0
 23 44  1  0  0  0
 24 45  1  0  0  0
 24 46  1  0  0  0
M  END
> <s_m_entry_id>
5585

> <s_m_entry_name>
dock_pv.576

> <s_m_Source_Path>
/home/csk/Desktop/cluster/DUD-E-result/pgh1

> <s_m_Source_File>
dock_pv.maegz

> <i_m_Source_File_Index>
576

> <chembl_id>
CHEMBL155887

> <chembl_pref_name>
None

> <i_lp_mmshare_version>
53161

> <r_lp_tautomer_probability>
1

> <s_lp_Force_Field>
OPLS_2005

> <r_lp_Energy>
26.968544

> <b_lp_Chiralities_Consistent>
1

> <s_lp_Variant>
CHEMBL221_lig70-1

> <s_i_glide_gridfile>
glide-grid_2oyu

> <i_i_glide_lignum>
87

> <i_i_glide_rotatable_bonds>
3

> <r_i_docking_score>
-7.11224542951206

> <r_i_glide_ligand_efficiency>
-0.296343559563003

> <r_i_glide_ligand_efficiency_sa>
-0.854802741980681

> <r_i_glide_ligand_efficiency_ln>
-1.70228669095912

> <r_i_glide_gscore>
-7.11224542951206

> <r_i_glide_lipo>
-5.10894517738042

> <r_i_glide_hbond>
-0.32

> <r_i_glide_metal>
0

> <r_i_glide_rewards>
-0.674366990619631

> <r_i_glide_evdw>
-21.4881992340088

> <r_i_glide_ecoul>
-2.01543426513672

> <r_i_glide_erotb>
0.367791839958936

> <r_i_glide_esite>
0

> <r_i_glide_emodel>
-25.3415896441895

> <r_i_glide_energy>
-23.5036334991455

> <r_i_glide_einternal>
8.3607120513916

> <i_i_glide_confnum>
4

> <i_i_glide_posenum>
240

> <r_i_glide_eff_state_penalty>
0

> <s_user_duplicate_titles>
CHEMBL221_lig70

> <i_f3d_flags>
0

> <s_m_subgroup_title>
dock_pv

> <s_m_subgroupid>
dock_pv

> <b_m_subgroup_collapsed>
1

$$$$
CHEMBL221_lig422
                    3D
 Schrodinger Suite 2021-1.
 49 50  0  0  1  0            999 V2000
   20.1230   49.4730    8.4590 S   0  0  0  0  0  0
   19.8159   48.5150    9.8755 C   0  0  0  0  0  0
   19.3230   47.3539    9.5584 N   0  0  0  0  0  0
   19.1213   47.1356    8.2066 N   0  0  0  0  0  0
   19.4473   48.1712    7.4963 C   0  0  0  0  0  0
   21.1936   50.4765   12.8630 C   0  0  0  0  0  0
   19.6806   48.7024   13.6959 C   0  0  0  0  0  0
   20.5858   49.7722   13.9292 C   0  0  0  0  0  0
   20.0700   48.9617   11.2893 C   0  0  0  0  0  0
   19.4354   48.3375   12.3613 C   0  0  0  0  0  0
   20.9524   49.9959   11.5621 C   0  0  0  0  0  0
   19.0274   47.8757   14.8529 C   0  0  0  0  0  0
   22.0876   51.7519   13.0852 C   0  0  0  0  0  0
   20.9193   50.1292   15.2106 O   0  0  0  0  0  0
   19.1799   48.2730    6.1518 O   0  0  0  0  0  0
   22.6893   52.2690   11.7556 C   0  0  0  0  0  0
   23.3220   51.4730   13.9408 C   0  0  0  0  0  0
   18.0298   46.8017   14.3704 C   0  0  0  0  0  0
   18.2301   48.7229   15.8683 C   0  0  0  0  0  0
   21.3048   52.8911   13.8000 C   0  0  0  0  0  0
   20.1369   47.1166   15.5758 C   0  0  0  0  0  0
   19.6488   49.4088    5.4462 C   0  0  0  0  0  0
   21.1407   49.2098    5.1606 C   0  0  0  0  0  0
   18.7592   47.5319   12.1226 H   0  0  0  0  0  0
   21.4506   50.3979   10.7005 H   0  0  0  0  0  0
   21.4782   50.9084   15.2093 H   0  0  0  0  0  0
   21.9418   52.2730   10.9773 H   0  0  0  0  0  0
   23.1168   53.2676   11.8450 H   0  0  0  0  0  0
   23.4844   51.6169   11.3877 H   0  0  0  0  0  0
   23.0907   51.4730   15.0000 H   0  0  0  0  0  0
   23.7230   50.5185   13.6301 H   0  0  0  0  0  0
   24.1065   52.2239   13.8219 H   0  0  0  0  0  0
   17.5681   46.2647   15.2005 H   0  0  0  0  0  0
   18.5243   46.0466   13.7612 H   0  0  0  0  0  0
   17.2142   47.2488   13.8001 H   0  0  0  0  0  0
   18.8404   49.4730   16.3598 H   0  0  0  0  0  0
   17.3810   49.2185   15.4001 H   0  0  0  0  0  0
   17.8220   48.1048   16.6698 H   0  0  0  0  0  0
   21.1490   52.6859   14.8588 H   0  0  0  0  0  0
   21.8439   53.8389   13.7565 H   0  0  0  0  0  0
   20.3117   53.0678   13.4000 H   0  0  0  0  0  0
   20.7293   47.7868   16.2000 H   0  0  0  0  0  0
   19.7554   46.3096   16.2000 H   0  0  0  0  0  0
   20.8111   46.6730   14.8492 H   0  0  0  0  0  0
   19.0765   49.4725    4.5239 H   0  0  0  0  0  0
   19.4456   50.3433    5.9677 H   0  0  0  0  0  0
   21.5464   50.0484    4.6000 H   0  0  0  0  0  0
   21.7181   49.0943    6.0752 H   0  0  0  0  0  0
   21.3091   48.2927    4.5996 H   0  0  0  0  0  0
  1  2  1  0  0  0
  1  5  1  0  0  0
  2  3  2  0  0  0
  2  9  1  0  0  0
  3  4  1  0  0  0
  4  5  2  0  0  0
  5 15  1  0  0  0
  6 11  2  0  0  0
  6  8  1  0  0  0
  6 13  1  0  0  0
  7 10  1  0  0  0
  7 12  1  0  0  0
  7  8  2  0  0  0
  8 14  1  0  0  0
  9 10  2  0  0  0
  9 11  1  0  0  0
 10 24  1  0  0  0
 11 25  1  0  0  0
 12 18  1  0  0  0
 12 19  1  0  0  0
 12 21  1  0  0  0
 13 16  1  0  0  0
 13 17  1  0  0  0
 13 20  1  0  0  0
 14 26  1  0  0  0
 15 22  1  0  0  0
 16 27  1  0  0  0
 16 28  1  0  0  0
 16 29  1  0  0  0
 17 30  1  0  0  0
 17 31  1  0  0  0
 17 32  1  0  0  0
 18 33  1  0  0  0
 18 34  1  0  0  0
 18 35  1  0  0  0
 19 36  1  0  0  0
 19 37  1  0  0  0
 19 38  1  0  0  0
 20 39  1  0  0  0
 20 40  1  0  0  0
 20 41  1  0  0  0
 21 42  1  0  0  0
 21 43  1  0  0  0
 21 44  1  0  0  0
 22 23  1  0  0  0
 22 45  1  0  0  0
 22 46  1  0  0  0
 23 47  1  0  0  0
 23 48  1  0  0  0
 23 49  1  0  0  0
M  END
> <s_m_entry_id>
5586

> <s_m_entry_name>
dock_pv.577

> <s_m_Source_Path>
/home/csk/Desktop/cluster/DUD-E-result/pgh1

> <s_m_Source_File>
dock_pv.maegz

> <i_m_Source_File_Index>
577

> <chembl_id>
CHEMBL16733

> <chembl_pref_name>
None

> <i_lp_mmshare_version>
53161

> <r_lp_tautomer_probability>
0.999999999997365

> <s_lp_Force_Field>
OPLS_2005

> <r_lp_Energy>
25.657961

> <b_lp_Chiralities_Consistent>
1

> <s_lp_Variant>
CHEMBL221_lig422-1

> <s_i_glide_gridfile>
glide-grid_2oyu

> <i_i_glide_lignum>
492

> <i_i_glide_rotatable_bonds>
6

> <r_i_docking_score>
-7.10787520262627

> <r_i_glide_ligand_efficiency>
-0.309038052288099

> <r_i_glide_ligand_efficiency_sa>
-0.878863111501209

> <r_i_glide_ligand_efficiency_ln>
-1.71874867464403

> <r_i_glide_gscore>
-7.10787520262627

> <r_i_glide_lipo>
-4.36967804267208

> <r_i_glide_hbond>
-0.284617559395943

> <r_i_glide_metal>
0

> <r_i_glide_rewards>
-1.79161654555488

> <r_i_glide_evdw>
-14.4440984725952

> <r_i_glide_ecoul>
-1.84625768661499

> <r_i_glide_erotb>
0.337180521618638

> <r_i_glide_esite>
0

> <r_i_glide_emodel>
-19.5364900715071

> <r_i_glide_energy>
-16.2903561592102

> <r_i_glide_einternal>
6.82401847839355

> <i_i_glide_confnum>
4

> <i_i_glide_posenum>
30

> <r_i_glide_eff_state_penalty>
0

> <s_user_duplicate_titles>
CHEMBL221_lig422

> <i_f3d_flags>
0

> <s_m_subgroup_title>
dock_pv

> <s_m_subgroupid>
dock_pv

> <b_m_subgroup_collapsed>
1

$$$$
CHEMBL221_lig489
                    3D
 Schrodinger Suite 2021-1.
 51 53  0  0  1  0            999 V2000
   20.7029   49.9389   13.9503 C   0  0  0  0  0  0
   19.8347   48.8785   13.7338 C   0  0  0  0  0  0
   21.3223   50.6678   12.9143 C   0  0  0  0  0  0
   20.8592   50.2005   15.2783 O   0  0  0  0  0  0
   20.1799   49.1487   11.3774 C   0  0  0  0  0  0
   19.5791   48.4717   12.4395 C   0  0  0  0  0  0
   21.0465   50.2264   11.6197 C   0  0  0  0  0  0
   19.3260   48.3310   15.0336 C   0  0  0  0  0  0
   19.9209   48.6731   10.0100 C   0  0  0  0  0  0
   22.2594   51.8874   13.1464 C   0  0  0  0  0  0
   20.0939   49.2511   15.9995 C   0  0  0  0  0  0
   20.0295   47.8730    4.9915 C   0  0  0  0  0  0
   18.5737   48.2730    5.2367 C   0  0  0  0  0  0
   19.6495   49.3214    5.1851 C   0  0  0  0  0  0
   20.1230   49.1592    7.6660 C   0  0  0  0  0  0
   20.1230   49.6112    8.9177 C   0  0  0  0  0  0
   19.4438   47.5526    9.8001 O   0  0  0  0  0  0
   20.2063   50.0024    6.4234 C   0  0  0  0  0  0
   17.7890   48.4556   15.2044 C   0  0  0  0  0  0
   19.7052   46.8456   15.1954 C   0  0  0  0  0  0
   23.3547   51.4730   14.0973 C   0  0  0  0  0  0
   21.4823   53.0563   13.8000 C   0  0  0  0  0  0
   23.0778   52.3506   11.8989 C   0  0  0  0  0  0
   18.9128   47.6367   12.2646 H   0  0  0  0  0  0
   21.5275   50.7187   10.7910 H   0  0  0  0  0  0
   20.7858   48.6731   16.6000 H   0  0  0  0  0  0
   19.4018   49.8268   16.6000 H   0  0  0  0  0  0
   20.5228   47.3035    5.7664 H   0  0  0  0  0  0
   20.3889   47.4730    4.0479 H   0  0  0  0  0  0
   17.8442   48.2732    4.4249 H   0  0  0  0  0  0
   18.1190   48.0459    6.1999 H   0  0  0  0  0  0
   19.5733   50.0212    4.3556 H   0  0  0  0  0  0
   20.0261   48.0959    7.5272 H   0  0  0  0  0  0
   20.2265   50.6648    9.1276 H   0  0  0  0  0  0
   21.2523   50.1715    6.1993 H   0  0  0  0  0  0
   19.7464   50.9720    6.6000 H   0  0  0  0  0  0
   17.4397   47.8726   16.0579 H   0  0  0  0  0  0
   17.4566   49.4727   15.4000 H   0  0  0  0  0  0
   17.2528   48.0912   14.3268 H   0  0  0  0  0  0
   19.4758   46.4854   16.1973 H   0  0  0  0  0  0
   19.1498   46.2222   14.4930 H   0  0  0  0  0  0
   20.7614   46.6730   15.0140 H   0  0  0  0  0  0
   23.9045   50.6733   13.6162 H   0  0  0  0  0  0
   24.0509   52.2730   14.3466 H   0  0  0  0  0  0
   22.9240   51.0776   15.0000 H   0  0  0  0  0  0
   20.4815   53.1760   13.4000 H   0  0  0  0  0  0
   21.3391   52.8906   14.8692 H   0  0  0  0  0  0
   22.0076   54.0072   13.6998 H   0  0  0  0  0  0
   22.4982   52.6720   11.0527 H   0  0  0  0  0  0
   23.7368   53.1859   12.1425 H   0  0  0  0  0  0
   23.7182   51.5526   11.5176 H   0  0  0  0  0  0
  1  2  2  0  0  0
  1  3  1  0  0  0
  1  4  1  0  0  0
  2  6  1  0  0  0
  2  8  1  0  0  0
  3  7  2  0  0  0
  3 10  1  0  0  0
  4 11  1  0  0  0
  5  7  1  0  0  0
  5  9  1  0  0  0
  5  6  2  0  0  0
  6 24  1  0  0  0
  7 25  1  0  0  0
  8 19  1  0  0  0
  8 20  1  0  0  0
  8 11  1  0  0  0
  9 16  1  0  0  0
  9 17  2  0  0  0
 10 21  1  0  0  0
 10 22  1  0  0  0
 10 23  1  0  0  0
 11 26  1  0  0  0
 11 27  1  0  0  0
 12 14  1  0  0  0
 12 13  1  0  0  0
 12 28  1  0  0  0
 12 29  1  0  0  0
 13 14  1  0  0  0
 13 30  1  0  0  0
 13 31  1  0  0  0
 14 18  1  0  0  0
 14 32  1  0  0  0
 15 16  2  0  0  0
 15 18  1  0  0  0
 15 33  1  0  0  0
 16 34  1  0  0  0
 18 35  1  0  0  0
 18 36  1  0  0  0
 19 37  1  0  0  0
 19 38  1  0  0  0
 19 39  1  0  0  0
 20 40  1  0  0  0
 20 41  1  0  0  0
 20 42  1  0  0  0
 21 43  1  0  0  0
 21 44  1  0  0  0
 21 45  1  0  0  0
 22 46  1  0  0  0
 22 47  1  0  0  0
 22 48  1  0  0  0
 23 49  1  0  0  0
 23 50  1  0  0  0
 23 51  1  0  0  0
M  END
> <s_m_entry_id>
5587

> <s_m_entry_name>
dock_pv.578

> <s_m_Source_Path>
/home/csk/Desktop/cluster/DUD-E-result/pgh1

> <s_m_Source_File>
dock_pv.maegz

> <i_m_Source_File_Index>
578

> <chembl_id>
CHEMBL13988

> <chembl_pref_name>
None

> <i_lp_mmshare_version>
53161

> <r_lp_tautomer_probability>
1

> <s_lp_Force_Field>
OPLS_2005

> <r_lp_Energy>
34.271272

> <b_lp_Chiralities_Consistent>
1

> <s_lp_Variant>
CHEMBL221_lig489-1

> <s_i_glide_gridfile>
glide-grid_2oyu

> <i_i_glide_lignum>
623

> <i_i_glide_rotatable_bonds>
5

> <r_i_docking_score>
-7.10387579841639

> <r_i_glide_ligand_efficiency>
-0.308864165148539

> <r_i_glide_ligand_efficiency_sa>
-0.87836859960731

> <r_i_glide_ligand_efficiency_ln>
-1.71778158244149

> <r_i_glide_gscore>
-7.10387579841639

> <r_i_glide_lipo>
-4.1866945573078

> <r_i_glide_hbond>
0

> <r_i_glide_metal>
0

> <r_i_glide_rewards>
-2.28525058457157

> <r_i_glide_evdw>
-18.1594562530518

> <r_i_glide_ecoul>
-1.96208965778351

> <r_i_glide_erotb>
0.570355604783092

> <r_i_glide_esite>
0

> <r_i_glide_emodel>
-23.2957767091661

> <r_i_glide_energy>
-20.1215459108353

> <r_i_glide_einternal>
8.3997220993042

> <i_i_glide_confnum>
7

> <i_i_glide_posenum>
28

> <r_i_glide_eff_state_penalty>
0

> <s_user_duplicate_titles>
CHEMBL221_lig489,13277

> <i_f3d_flags>
0

> <s_m_subgroup_title>
dock_pv

> <s_m_subgroupid>
dock_pv

> <b_m_subgroup_collapsed>
1

$$$$
CHEMBL221_lig815
                    3D
 Schrodinger Suite 2021-1.
 28 29  0  0  1  0            999 V2000
   18.4298   48.0755   15.9911 C   0  0  0  0  0  0
   18.3666   47.0529   15.0582 C   0  0  0  0  0  0
   19.2351   47.0449   13.9632 C   0  0  0  0  0  0
   19.3908   49.0730   15.8462 C   0  0  0  0  0  0
   20.1979   49.1300   14.7111 C   0  0  0  0  0  0
   20.0876   48.1356   13.7422 C   0  0  0  0  0  0
   20.8854   48.1569   12.6027 O   0  0  0  0  0  0
   21.3381   49.4440   12.1057 C   0  0  2  0  0  0
   21.6505   50.4447   13.2422 C   0  0  0  0  0  0
   21.0998   50.2503   14.4585 C   0  0  0  0  0  0
   22.5739   51.5298   12.9639 C   0  0  0  0  0  0
   22.4288   52.5954   13.8001 O   0  0  0  0  0  0
   23.4062   51.5101   12.0616 O   0  0  0  0  0  0
   20.3774   50.0150   11.0295 C   0  0  0  0  0  0
   19.9200   49.0459   10.2361 F   0  0  0  0  0  0
   19.3230   50.6338   11.5571 F   0  0  0  0  0  0
   20.9914   50.8914   10.2392 F   0  0  0  0  0  0
   17.3230   48.0914   17.3172 Cl  0  0  0  0  0  0
   19.3230   45.8730   13.1012 C   0  0  0  0  0  0
   18.9230   44.6187   13.4000 C   0  0  0  0  0  0
   17.6538   46.2562   15.2099 H   0  0  0  0  0  0
   19.4561   49.8492   16.5983 H   0  0  0  0  0  0
   22.2716   49.1964   11.5961 H   0  0  0  0  0  0
   21.3244   50.9247   15.2746 H   0  0  0  0  0  0
   23.0705   53.2785   13.5948 H   0  0  0  0  0  0
   19.7732   46.0723   12.1505 H   0  0  0  0  0  0
   19.0386   43.8146   12.6865 H   0  0  0  0  0  0
   18.4767   44.3643   14.3500 H   0  0  0  0  0  0
  1  2  2  0  0  0
  1  4  1  0  0  0
  1 18  1  0  0  0
  2  3  1  0  0  0
  2 21  1  0  0  0
  3  6  2  0  0  0
  3 19  1  0  0  0
  4  5  2  0  0  0
  4 22  1  0  0  0
  5  6  1  0  0  0
  5 10  1  0  0  0
  6  7  1  0  0  0
  7  8  1  0  0  0
  8  9  1  0  0  0
  8 14  1  0  0  0
  8 23  1  0  0  0
  9 10  2  0  0  0
  9 11  1  0  0  0
 10 24  1  0  0  0
 11 12  1  0  0  0
 11 13  2  0  0  0
 12 25  1  0  0  0
 14 15  1  0  0  0
 14 16  1  0  0  0
 14 17  1  0  0  0
 19 20  2  0  0  0
 19 26  1  0  0  0
 20 27  1  0  0  0
 20 28  1  0  0  0
M  END
> <s_m_entry_id>
5588

> <s_m_entry_name>
dock_pv.579

> <s_m_Source_Path>
/home/csk/Desktop/cluster/DUD-E-result/pgh1

> <s_m_Source_File>
dock_pv.maegz

> <i_m_Source_File_Index>
579

> <chembl_id>
CHEMBL1288618

> <chembl_pref_name>
None

> <i_lp_mmshare_version>
53161

> <r_lp_tautomer_probability>
1

> <s_lp_Force_Field>
OPLS_2005

> <r_lp_Energy>
14.661872

> <b_lp_Chiralities_Consistent>
1

> <s_lp_Variant>
CHEMBL221_lig815-1

> <s_i_glide_gridfile>
glide-grid_2oyu

> <i_i_glide_lignum>
984

> <i_i_glide_rotatable_bonds>
4

> <r_i_docking_score>
-7.10329347586226

> <r_i_glide_ligand_efficiency>
-0.355164673793113

> <r_i_glide_ligand_efficiency_sa>
-0.964065246373516

> <r_i_glide_ligand_efficiency_ln>
-1.77772007470968

> <r_i_glide_gscore>
-7.10329347586226

> <r_i_glide_lipo>
-2.53140598122708

> <r_i_glide_hbond>
0

> <r_i_glide_metal>
0

> <r_i_glide_rewards>
-3.68629353102534

> <r_i_glide_evdw>
-21.1559085845947

> <r_i_glide_ecoul>
-1.5018767118454

> <r_i_glide_erotb>
0.397482972396704

> <r_i_glide_esite>
0

> <r_i_glide_emodel>
-27.288788169483

> <r_i_glide_energy>
-22.6577852964401

> <r_i_glide_einternal>
1.71477508544922

> <i_i_glide_confnum>
1

> <i_i_glide_posenum>
77

> <r_i_glide_eff_state_penalty>
0

> <s_user_duplicate_titles>
CHEMBL221_lig815

> <i_f3d_flags>
0

> <s_m_subgroup_title>
dock_pv

> <s_m_subgroupid>
dock_pv

> <b_m_subgroup_collapsed>
1

$$$$
CHEMBL221_lig564
                    3D
 Schrodinger Suite 2021-1.
 51 52  0  0  1  0            999 V2000
   20.5375   49.8559   13.7548 C   0  0  0  0  0  0
   19.7753   48.7459   13.4213 C   0  0  0  0  0  0
   21.2200   50.6413   12.8013 C   0  0  0  0  0  0
   20.5231   50.0911   15.1051 O   0  0  0  0  0  0
   20.2751   49.1395   11.0951 C   0  0  0  0  0  0
   19.6542   48.3767   12.0883 C   0  0  0  0  0  0
   21.0631   50.2465   11.4630 C   0  0  0  0  0  0
   20.0631   48.7766    9.6512 C   0  0  0  0  0  0
   19.1988   48.1193   14.6600 C   0  0  0  0  0  0
   22.1049   51.8741   13.1650 C   0  0  0  0  0  0
   19.7742   49.0591   15.7439 C   0  0  0  0  0  0
   19.7230   47.6421    9.3123 O   0  0  0  0  0  0
   20.1261   49.8195    8.8116 N   0  0  0  0  0  0
   19.7089   46.6857   14.8413 C   0  0  0  0  0  0
   17.6537   48.0893   14.6485 C   0  0  0  0  0  0
   23.1189   51.4690   14.2123 C   0  0  0  0  0  0
   21.2623   53.0091   13.8001 C   0  0  0  0  0  0
   23.0228   52.3849   12.0086 C   0  0  0  0  0  0
   19.9663   49.8725    7.3632 C   0  0  0  0  0  0
   20.4571   48.7223    6.4781 C   0  0  0  0  0  0
   19.7073   48.6768    5.1418 C   0  0  0  0  0  0
   18.1719   48.5361    5.2105 C   0  0  0  0  0  0
   19.0509   47.5187   11.8226 H   0  0  0  0  0  0
   21.5581   50.8058   10.6855 H   0  0  0  0  0  0
   18.9824   49.4730   16.3649 H   0  0  0  0  0  0
   20.4661   48.5336   16.3989 H   0  0  0  0  0  0
   20.2751   50.7184    9.2430 H   0  0  0  0  0  0
   19.4022   46.2734   15.8009 H   0  0  0  0  0  0
   20.7939   46.6730   14.7968 H   0  0  0  0  0  0
   19.3230   46.0294   14.0595 H   0  0  0  0  0  0
   17.2555   47.6843   15.5802 H   0  0  0  0  0  0
   17.2197   49.0729   14.5205 H   0  0  0  0  0  0
   17.2706   47.4729   13.8341 H   0  0  0  0  0  0
   23.7230   50.6729   13.8000 H   0  0  0  0  0  0
   23.7842   52.2731   14.5219 H   0  0  0  0  0  0
   22.6108   51.0835   15.0891 H   0  0  0  0  0  0
   20.2566   53.0732   13.4000 H   0  0  0  0  0  0
   21.1163   52.8493   14.8700 H   0  0  0  0  0  0
   21.7343   53.9863   13.6952 H   0  0  0  0  0  0
   22.5228   52.6729   11.0985 H   0  0  0  0  0  0
   23.6083   53.2523   12.3177 H   0  0  0  0  0  0
   23.7407   51.6213   11.7017 H   0  0  0  0  0  0
   18.9190   49.8735    7.2307 H   0  0  0  0  0  0
   20.2786   50.8393    6.9684 H   0  0  0  0  0  0
   21.5136   48.8657    6.2574 H   0  0  0  0  0  0
   20.3644   47.7540    6.9647 H   0  0  0  0  0  0
   19.9351   49.5944    4.6000 H   0  0  0  0  0  0
   20.1240   47.8335    4.5976 H   0  0  0  0  0  0
   17.7453   48.2660    4.2437 H   0  0  0  0  0  0
   17.8619   47.7908    5.9409 H   0  0  0  0  0  0
   17.6929   49.4730    5.4912 H   0  0  0  0  0  0
  1  2  2  0  0  0
  1  3  1  0  0  0
  1  4  1  0  0  0
  2  6  1  0  0  0
  2  9  1  0  0  0
  3  7  2  0  0  0
  3 10  1  0  0  0
  4 11  1  0  0  0
  5  7  1  0  0  0
  5  8  1  0  0  0
  5  6  2  0  0  0
  6 23  1  0  0  0
  7 24  1  0  0  0
  8 12  2  0  0  0
  8 13  1  0  0  0
  9 14  1  0  0  0
  9 15  1  0  0  0
  9 11  1  0  0  0
 10 16  1  0  0  0
 10 17  1  0  0  0
 10 18  1  0  0  0
 11 25  1  0  0  0
 11 26  1  0  0  0
 13 19  1  0  0  0
 13 27  1  0  0  0
 14 28  1  0  0  0
 14 29  1  0  0  0
 14 30  1  0  0  0
 15 31  1  0  0  0
 15 32  1  0  0  0
 15 33  1  0  0  0
 16 34  1  0  0  0
 16 35  1  0  0  0
 16 36  1  0  0  0
 17 37  1  0  0  0
 17 38  1  0  0  0
 17 39  1  0  0  0
 18 40  1  0  0  0
 18 41  1  0  0  0
 18 42  1  0  0  0
 19 20  1  0  0  0
 19 43  1  0  0  0
 19 44  1  0  0  0
 20 21  1  0  0  0
 20 45  1  0  0  0
 20 46  1  0  0  0
 21 22  1  0  0  0
 21 47  1  0  0  0
 21 48  1  0  0  0
 22 49  1  0  0  0
 22 50  1  0  0  0
 22 51  1  0  0  0
M  END
> <s_m_entry_id>
5589

> <s_m_entry_name>
dock_pv.580

> <s_m_Source_Path>
/home/csk/Desktop/cluster/DUD-E-result/pgh1

> <s_m_Source_File>
dock_pv.maegz

> <i_m_Source_File_Index>
580

> <chembl_id>
CHEMBL119472

> <chembl_pref_name>
None

> <i_lp_mmshare_version>
53161

> <r_lp_tautomer_probability>
1

> <s_lp_Force_Field>
OPLS_2005

> <r_lp_Energy>
24.510791

> <b_lp_Chiralities_Consistent>
1

> <s_lp_Variant>
CHEMBL221_lig564-1

> <s_i_glide_gridfile>
glide-grid_2oyu

> <i_i_glide_lignum>
702

> <i_i_glide_rotatable_bonds>
6

> <r_i_docking_score>
-7.09365452536075

> <r_i_glide_ligand_efficiency>
-0.322438842061852

> <r_i_glide_ligand_efficiency_sa>
-0.903486316257385

> <r_i_glide_ligand_efficiency_ln>
-1.73394791333383

> <r_i_glide_gscore>
-7.09365452536075

> <r_i_glide_lipo>
-4.08177003056495

> <r_i_glide_hbond>
0

> <r_i_glide_metal>
0

> <r_i_glide_rewards>
-2.31027839526608

> <r_i_glide_evdw>
-23.7469539642334

> <r_i_glide_ecoul>
-2.09857749938965

> <r_i_glide_erotb>
0.800528223590395

> <r_i_glide_esite>
0

> <r_i_glide_emodel>
-25.9844387461579

> <r_i_glide_energy>
-25.845531463623

> <r_i_glide_einternal>
4.68832349777222

> <i_i_glide_confnum>
2

> <i_i_glide_posenum>
106

> <r_i_glide_eff_state_penalty>
0

> <s_user_duplicate_titles>
CHEMBL221_lig564

> <i_f3d_flags>
0

> <s_m_subgroup_title>
dock_pv

> <s_m_subgroupid>
dock_pv

> <b_m_subgroup_collapsed>
1

$$$$
CHEMBL221_lig408
                    3D
 Schrodinger Suite 2021-1.
 43 44  0  0  1  0            999 V2000
   20.1230   49.6038    8.5108 S   0  0  0  0  0  0
   19.8040   48.6187    9.9001 C   0  0  0  0  0  0
   19.3230   47.4730    9.4898 N   0  3  0  0  0  0
   19.6892   48.2462    7.3951 C   0  0  0  0  0  0
   21.1399   50.4960   12.8760 C   0  0  0  0  0  0
   19.6716   48.6729   13.6855 C   0  0  0  0  0  0
   20.5517   49.7610   13.9333 C   0  0  0  0  0  0
   20.0161   49.0008   11.2906 C   0  0  0  0  0  0
   19.3037   47.2382    8.2182 N   0  5  0  0  0  0
   19.4202   48.3203   12.3487 C   0  0  0  0  0  0
   20.8698   50.0544   11.5730 C   0  0  0  0  0  0
   22.0424   51.7621   13.1003 C   0  0  0  0  0  0
   19.0476   47.8211   14.8364 C   0  0  0  0  0  0
   19.7243   48.2730    6.1682 O   0  0  0  0  0  0
   20.8598   50.0960   15.2267 O   0  0  0  0  0  0
   23.2483   51.4730   13.9807 C   0  0  0  0  0  0
   21.2529   52.9026   13.8000 C   0  0  0  0  0  0
   18.1209   46.6839   14.3511 C   0  0  0  0  0  0
   18.1888   48.6573   15.8135 C   0  0  0  0  0  0
   20.1795   47.1100   15.5763 C   0  0  0  0  0  0
   22.7046   52.2653   11.7926 C   0  0  0  0  0  0
   18.7619   47.5002   12.1090 H   0  0  0  0  0  0
   21.3474   50.4903   10.7188 H   0  0  0  0  0  0
   19.0344   46.7222   10.1390 H   0  0  0  0  0  0
   20.3838   49.5488   15.8539 H   0  0  0  0  0  0
   23.9872   52.2765   13.9892 H   0  0  0  0  0  0
   23.7230   50.5720   13.6189 H   0  0  0  0  0  0
   22.9290   51.3428   15.0000 H   0  0  0  0  0  0
   20.2594   53.0730   13.4000 H   0  0  0  0  0  0
   21.0909   52.6848   14.8563 H   0  0  0  0  0  0
   21.7904   53.8514   13.7642 H   0  0  0  0  0  0
   18.6558   45.9695   13.7259 H   0  0  0  0  0  0
   17.7052   46.1107   15.1813 H   0  0  0  0  0  0
   17.2670   47.0771   13.8000 H   0  0  0  0  0  0
   18.7240   49.4730   16.2889 H   0  0  0  0  0  0
   17.3231   49.0730   15.3013 H   0  0  0  0  0  0
   17.8001   48.0412   16.6262 H   0  0  0  0  0  0
   20.7542   47.7927   16.1999 H   0  0  0  0  0  0
   19.8209   46.2929   16.2000 H   0  0  0  0  0  0
   20.8677   46.6730   14.8575 H   0  0  0  0  0  0
   22.0031   52.2730   10.9769 H   0  0  0  0  0  0
   23.1369   53.2607   11.8963 H   0  0  0  0  0  0
   23.5089   51.6051   11.4607 H   0  0  0  0  0  0
  1  4  1  0  0  0
  1  2  1  0  0  0
  2  8  1  0  0  0
  2  3  2  0  0  0
  3 24  1  0  0  0
  3  9  1  0  0  0
  4  9  1  0  0  0
  4 14  2  0  0  0
  5 11  2  0  0  0
  5  7  1  0  0  0
  5 12  1  0  0  0
  6 10  1  0  0  0
  6 13  1  0  0  0
  6  7  2  0  0  0
  7 15  1  0  0  0
  8 10  2  0  0  0
  8 11  1  0  0  0
 10 22  1  0  0  0
 11 23  1  0  0  0
 12 16  1  0  0  0
 12 17  1  0  0  0
 12 21  1  0  0  0
 13 18  1  0  0  0
 13 19  1  0  0  0
 13 20  1  0  0  0
 15 25  1  0  0  0
 16 26  1  0  0  0
 16 27  1  0  0  0
 16 28  1  0  0  0
 17 29  1  0  0  0
 17 30  1  0  0  0
 17 31  1  0  0  0
 18 32  1  0  0  0
 18 33  1  0  0  0
 18 34  1  0  0  0
 19 35  1  0  0  0
 19 36  1  0  0  0
 19 37  1  0  0  0
 20 38  1  0  0  0
 20 39  1  0  0  0
 20 40  1  0  0  0
 21 41  1  0  0  0
 21 42  1  0  0  0
 21 43  1  0  0  0
M  CHG  2   3   1   9  -1
M  END
> <s_m_entry_id>
5590

> <s_m_entry_name>
dock_pv.581

> <s_m_Source_Path>
/home/csk/Desktop/cluster/DUD-E-result/pgh1

> <s_m_Source_File>
dock_pv.maegz

> <i_m_Source_File_Index>
581

> <chembl_id>
CHEMBL16827

> <chembl_pref_name>
None

> <i_lp_mmshare_version>
53161

> <r_lp_tautomer_probability>
0.418399999381605

> <s_lp_Force_Field>
OPLS_2005

> <r_lp_Energy>
25.148111

> <b_lp_Chiralities_Consistent>
1

> <s_lp_Variant>
CHEMBL221_lig408-2

> <s_i_glide_gridfile>
glide-grid_2oyu

> <i_i_glide_lignum>
477

> <i_i_glide_rotatable_bonds>
4

> <r_i_docking_score>
-7.08789856601926

> <r_i_glide_ligand_efficiency>
-0.337518979334251

> <r_i_glide_ligand_efficiency_sa>
-0.931189271127735

> <r_i_glide_ligand_efficiency_ln>
-1.75246859800063

> <r_i_glide_gscore>
-7.08789856601926

> <r_i_glide_lipo>
-3.87208243503785

> <r_i_glide_hbond>
-0.455929548270224

> <r_i_glide_metal>
0

> <r_i_glide_rewards>
-1.97865330770214

> <r_i_glide_evdw>
-15.4207897186279

> <r_i_glide_ecoul>
-1.37947130203247

> <r_i_glide_erotb>
0.196726906227219

> <r_i_glide_esite>
0

> <r_i_glide_emodel>
-19.595236372359

> <r_i_glide_energy>
-16.8002610206604

> <r_i_glide_einternal>
2.85342383384705

> <i_i_glide_confnum>
2

> <i_i_glide_posenum>
211

> <r_i_glide_eff_state_penalty>
0

> <s_user_duplicate_titles>
CHEMBL221_lig408

> <i_f3d_flags>
0

> <s_m_subgroup_title>
dock_pv

> <s_m_subgroupid>
dock_pv

> <b_m_subgroup_collapsed>
1

$$$$
CHEMBL221_lig396
                    3D
 Schrodinger Suite 2021-1.
 45 46  0  0  1  0            999 V2000
   20.4312   49.5146    9.0000 N   0  0  0  0  0  0
   20.0456   48.7377    9.9968 C   0  0  0  0  0  0
   20.0963   48.9924    7.8592 C   0  0  0  0  0  0
   19.4562   47.5877    9.7384 N   0  0  0  0  0  0
   19.7660   48.8551   13.7843 C   0  0  0  0  0  0
   21.2958   50.6535   13.0104 C   0  0  0  0  0  0
   20.6647   49.9210   14.0579 C   0  0  0  0  0  0
   20.2339   49.1634   11.4078 C   0  0  0  0  0  0
   19.3230   47.4730    8.0632 S   0  0  0  0  0  0
   21.0714   50.2253   11.7036 C   0  0  0  0  0  0
   19.5778   48.5106   12.4436 C   0  0  0  0  0  0
   19.2781   49.1735    5.6806 C   0  0  0  0  0  0
   20.1230   49.5964    6.6324 N   0  0  0  0  0  0
   18.4937   48.6730    5.0000 N   0  0  0  0  0  0
   22.2181   51.8979   13.2275 C   0  0  0  0  0  0
   19.0548   47.9945   14.8829 C   0  0  0  0  0  0
   20.9230   50.2643   15.3589 O   0  0  0  0  0  0
   18.0292   46.9816   14.3169 C   0  0  0  0  0  0
   18.2650   48.8058   15.9331 C   0  0  0  0  0  0
   20.1233   47.1585   15.5799 C   0  0  0  0  0  0
   21.4459   53.0423   13.9250 C   0  0  0  0  0  0
   22.8930   52.4465   11.9461 C   0  0  0  0  0  0
   23.4238   51.5104   14.0355 C   0  0  0  0  0  0
   21.5565   50.7050   10.8716 H   0  0  0  0  0  0
   18.9225   47.7013   12.1684 H   0  0  0  0  0  0
   20.4893   50.5324    6.5449 H   0  0  0  0  0  0
   21.4406   51.0701   15.4041 H   0  0  0  0  0  0
   18.5230   46.2357   13.6940 H   0  0  0  0  0  0
   17.5198   46.4238   15.1045 H   0  0  0  0  0  0
   17.2520   47.4732   13.7290 H   0  0  0  0  0  0
   18.8988   49.4738   16.5036 H   0  0  0  0  0  0
   17.4607   49.3844   15.4809 H   0  0  0  0  0  0
   17.7956   48.1528   16.6708 H   0  0  0  0  0  0
   20.7647   47.7869   16.2000 H   0  0  0  0  0  0
   19.6998   46.3710   16.2000 H   0  0  0  0  0  0
   20.7538   46.6730   14.8401 H   0  0  0  0  0  0
   22.0372   53.9580   13.9777 H   0  0  0  0  0  0
   21.1720   52.7979   14.9503 H   0  0  0  0  0  0
   20.5237   53.2783   13.4000 H   0  0  0  0  0  0
   23.5725   51.7292   11.4804 H   0  0  0  0  0  0
   22.1476   52.6729   11.2161 H   0  0  0  0  0  0
   23.4627   53.3595   12.1289 H   0  0  0  0  0  0
   23.9076   50.6730   13.5419 H   0  0  0  0  0  0
   24.1480   52.3156   14.1679 H   0  0  0  0  0  0
   23.0861   51.2294   15.0000 H   0  0  0  0  0  0
  1  2  1  0  0  0
  1  3  2  0  0  0
  2  8  1  0  0  0
  2  4  2  0  0  0
  3  9  1  0  0  0
  3 13  1  0  0  0
  4  9  1  0  0  0
  5  7  1  0  0  0
  5 16  1  0  0  0
  5 11  2  0  0  0
  6 15  1  0  0  0
  6  7  2  0  0  0
  6 10  1  0  0  0
  7 17  1  0  0  0
  8 10  2  0  0  0
  8 11  1  0  0  0
 10 24  1  0  0  0
 11 25  1  0  0  0
 12 13  1  0  0  0
 12 14  3  0  0  0
 13 26  1  0  0  0
 15 21  1  0  0  0
 15 22  1  0  0  0
 15 23  1  0  0  0
 16 18  1  0  0  0
 16 19  1  0  0  0
 16 20  1  0  0  0
 17 27  1  0  0  0
 18 28  1  0  0  0
 18 29  1  0  0  0
 18 30  1  0  0  0
 19 31  1  0  0  0
 19 32  1  0  0  0
 19 33  1  0  0  0
 20 34  1  0  0  0
 20 35  1  0  0  0
 20 36  1  0  0  0
 21 37  1  0  0  0
 21 38  1  0  0  0
 21 39  1  0  0  0
 22 40  1  0  0  0
 22 41  1  0  0  0
 22 42  1  0  0  0
 23 43  1  0  0  0
 23 44  1  0  0  0
 23 45  1  0  0  0
M  END
> <s_m_entry_id>
5591

> <s_m_entry_name>
dock_pv.582

> <s_m_Source_Path>
/home/csk/Desktop/cluster/DUD-E-result/pgh1

> <s_m_Source_File>
dock_pv.maegz

> <i_m_Source_File_Index>
582

> <chembl_id>
CHEMBL17229

> <chembl_pref_name>
None

> <i_lp_mmshare_version>
53161

> <r_lp_tautomer_probability>
0.999999999997365

> <s_lp_Force_Field>
OPLS_2005

> <r_lp_Energy>
25.339717

> <b_lp_Chiralities_Consistent>
1

> <s_lp_Variant>
CHEMBL221_lig396-1

> <s_i_glide_gridfile>
glide-grid_2oyu

> <i_i_glide_lignum>
464

> <i_i_glide_rotatable_bonds>
5

> <r_i_docking_score>
-7.08531129730241

> <r_i_glide_ligand_efficiency>
-0.308057012926192

> <r_i_glide_ligand_efficiency_sa>
-0.876073166056863

> <r_i_glide_ligand_efficiency_ln>
-1.71329251773854

> <r_i_glide_gscore>
-7.08531129730241

> <r_i_glide_lipo>
-3.63219364960941

> <r_i_glide_hbond>
-0.32

> <r_i_glide_metal>
0

> <r_i_glide_rewards>
-2.4999163649189

> <r_i_glide_evdw>
-18.6437492370605

> <r_i_glide_ecoul>
-0.303326159715652

> <r_i_glide_erotb>
0.344485103036276

> <r_i_glide_esite>
0

> <r_i_glide_emodel>
-27.993091223535

> <r_i_glide_energy>
-18.9470753967762

> <r_i_glide_einternal>
5.20078706741333

> <i_i_glide_confnum>
1

> <i_i_glide_posenum>
221

> <r_i_glide_eff_state_penalty>
0

> <s_user_duplicate_titles>
CHEMBL221_lig396,201930

> <i_f3d_flags>
0

> <s_m_subgroup_title>
dock_pv

> <s_m_subgroupid>
dock_pv

> <b_m_subgroup_collapsed>
1

$$$$
CHEMBL221_lig402
                    3D
 Schrodinger Suite 2021-1.
 44 45  0  0  1  0            999 V2000
   19.7230   47.8391    8.1096 S   0  0  0  0  0  0
   20.1230   49.3285    8.9318 C   0  0  0  0  0  0
   20.1230   50.3535    8.1234 N   0  0  0  0  0  0
   19.7230   48.7785    6.6312 C   0  0  0  0  0  0
   19.9668   50.0326    6.7911 N   0  0  0  0  0  0
   21.7179   50.7412   12.0508 C   0  0  0  0  0  0
   20.0503   49.0330   12.7488 C   0  0  0  0  0  0
   21.0204   50.0307   13.0635 C   0  0  0  0  0  0
   20.4343   49.4953   10.3808 C   0  0  0  0  0  0
   19.8002   48.7811   11.3888 C   0  0  0  0  0  0
   21.3755   50.4609   10.7289 C   0  0  0  0  0  0
   22.8506   51.7915   12.3418 C   0  0  0  0  0  0
   19.2789   48.1278   13.7749 C   0  0  0  0  0  0
   19.5063   48.2730    5.4000 N   0  0  0  0  0  0
   21.3212   50.3361   14.3626 O   0  0  0  0  0  0
   24.0364   51.1268   13.0000 C   0  0  0  0  0  0
   22.3476   52.9506   13.2462 C   0  0  0  0  0  0
   19.4925   48.4480   15.2789 C   0  0  0  0  0  0
   19.7610   46.6838   13.5787 C   0  0  0  0  0  0
   17.7453   48.1233   13.5307 C   0  0  0  0  0  0
   23.5601   52.3877   11.0999 C   0  0  0  0  0  0
   19.0890   48.0238   11.0955 H   0  0  0  0  0  0
   21.8508   50.9997    9.9293 H   0  0  0  0  0  0
   19.2996   48.9300    4.6599 H   0  0  0  0  0  0
   20.1244   47.5376    5.0875 H   0  0  0  0  0  0
   21.9215   51.0832   14.4037 H   0  0  0  0  0  0
   24.7968   51.8724   13.2619 H   0  0  0  0  0  0
   24.4865   50.3539   12.3715 H   0  0  0  0  0  0
   23.7230   50.6730   13.9189 H   0  0  0  0  0  0
   21.3343   53.2540   13.0000 H   0  0  0  0  0  0
   22.3426   52.6915   14.3046 H   0  0  0  0  0  0
   22.9809   53.8359   13.1673 H   0  0  0  0  0  0
   19.2316   49.4730   15.5264 H   0  0  0  0  0  0
   18.8798   47.8108   15.9186 H   0  0  0  0  0  0
   20.5232   48.2836   15.5914 H   0  0  0  0  0  0
   19.5051   46.2831   12.5999 H   0  0  0  0  0  0
   20.8465   46.6730   13.6688 H   0  0  0  0  0  0
   19.3230   46.0086   14.3172 H   0  0  0  0  0  0
   17.4697   47.8730   12.5098 H   0  0  0  0  0  0
   17.2426   47.3954   14.1695 H   0  0  0  0  0  0
   17.2821   49.0730   13.7522 H   0  0  0  0  0  0
   22.9230   53.0730   10.6000 H   0  0  0  0  0  0
   24.4358   52.9863   11.3595 H   0  0  0  0  0  0
   23.9019   51.6321   10.3897 H   0  0  0  0  0  0
  1  2  1  0  0  0
  1  4  1  0  0  0
  2  3  2  0  0  0
  2  9  1  0  0  0
  3  5  1  0  0  0
  4  5  2  0  0  0
  4 14  1  0  0  0
  6 11  1  0  0  0
  6  8  2  0  0  0
  6 12  1  0  0  0
  7 10  2  0  0  0
  7 13  1  0  0  0
  7  8  1  0  0  0
  8 15  1  0  0  0
  9 10  1  0  0  0
  9 11  2  0  0  0
 10 22  1  0  0  0
 11 23  1  0  0  0
 12 16  1  0  0  0
 12 17  1  0  0  0
 12 21  1  0  0  0
 13 18  1  0  0  0
 13 19  1  0  0  0
 13 20  1  0  0  0
 14 24  1  0  0  0
 14 25  1  0  0  0
 15 26  1  0  0  0
 16 27  1  0  0  0
 16 28  1  0  0  0
 16 29  1  0  0  0
 17 30  1  0  0  0
 17 31  1  0  0  0
 17 32  1  0  0  0
 18 33  1  0  0  0
 18 34  1  0  0  0
 18 35  1  0  0  0
 19 36  1  0  0  0
 19 37  1  0  0  0
 19 38  1  0  0  0
 20 39  1  0  0  0
 20 40  1  0  0  0
 20 41  1  0  0  0
 21 42  1  0  0  0
 21 43  1  0  0  0
 21 44  1  0  0  0
M  END
> <s_m_entry_id>
5592

> <s_m_entry_name>
dock_pv.583

> <s_m_Source_Path>
/home/csk/Desktop/cluster/DUD-E-result/pgh1

> <s_m_Source_File>
dock_pv.maegz

> <i_m_Source_File_Index>
583

> <chembl_id>
CHEMBL417073

> <chembl_pref_name>
None

> <i_lp_mmshare_version>
53161

> <r_lp_tautomer_probability>
0.999999999997365

> <s_lp_Force_Field>
OPLS_2005

> <r_lp_Energy>
24.232904

> <b_lp_Chiralities_Consistent>
1

> <s_lp_Variant>
CHEMBL221_lig402-1

> <s_i_glide_gridfile>
glide-grid_2oyu

> <i_i_glide_lignum>
470

> <i_i_glide_rotatable_bonds>
4

> <r_i_docking_score>
-7.08530511948465

> <r_i_glide_ligand_efficiency>
-0.337395481880221

> <r_i_glide_ligand_efficiency_sa>
-0.930848551016438

> <r_i_glide_ligand_efficiency_ln>
-1.7518273735855

> <r_i_glide_gscore>
-7.08530511948465

> <r_i_glide_lipo>
-4.4459361725773

> <r_i_glide_hbond>
0

> <r_i_glide_metal>
0

> <r_i_glide_rewards>
-1.88449039546698

> <r_i_glide_evdw>
-14.8910188674927

> <r_i_glide_ecoul>
-1.36703765392303

> <r_i_glide_erotb>
0.197840533908001

> <r_i_glide_esite>
-0.00311249388527422

> <r_i_glide_emodel>
-16.3069664328684

> <r_i_glide_energy>
-16.2580565214157

> <r_i_glide_einternal>
11.2445297241211

> <i_i_glide_confnum>
1

> <i_i_glide_posenum>
211

> <r_i_glide_eff_state_penalty>
0

> <s_user_duplicate_titles>
CHEMBL221_lig402,10436

> <i_f3d_flags>
0

> <s_m_subgroup_title>
dock_pv

> <s_m_subgroupid>
dock_pv

> <b_m_subgroup_collapsed>
1

$$$$
CHEMBL221_lig476
                    3D
 Schrodinger Suite 2021-1.
 37 39  0  0  1  0            999 V2000
   20.1751   48.7191   13.0991 C   0  0  2  0  0  0
   25.3230   53.2831   12.6464 S   0  0  0  0  0  0
   20.1841   50.0284   12.3161 C   0  0  2  0  0  0
   20.2427   47.6414   12.0432 C   0  0  0  0  0  0
   19.8721   49.6070   10.9027 C   0  0  0  0  0  0
   23.8550   52.2567   12.7100 C   0  0  0  0  0  0
   19.0122   48.4511   14.0404 C   0  0  0  0  0  0
   21.4821   50.8130   12.4912 C   0  0  0  0  0  0
   26.1638   53.0730   13.8000 O   0  0  0  0  0  0
   24.9230   54.6730   12.6000 O   0  0  0  0  0  0
   19.1904   48.8798   15.3084 N   0  0  0  0  0  0
   19.8760   48.2730   10.7840 C   0  0  0  0  0  0
   20.5230   46.4547   12.2000 O   0  0  0  0  0  0
   22.7276   52.6749   13.4143 C   0  0  0  0  0  0
   23.8107   51.0799   11.9543 C   0  0  0  0  0  0
   21.5475   51.9365   13.3247 C   0  0  0  0  0  0
   22.6298   50.3697   11.8390 C   0  0  0  0  0  0
   26.1522   52.6730   11.0000 C   0  0  0  0  0  0
   18.1629   48.6729   16.1663 C   0  0  0  0  0  0
   17.8502   47.7851   13.6396 C   0  0  0  0  0  0
   17.0637   47.8731   15.8998 C   0  0  0  0  0  0
   16.9230   47.4124   14.6006 C   0  0  0  0  0  0
   19.6794   50.3240   10.1164 H   0  0  0  0  0  0
   19.3545   50.6496   12.5999 H   0  0  0  0  0  0
   19.7220   47.6973    9.8836 H   0  0  0  0  0  0
   21.0721   48.6613   13.7094 H   0  0  0  0  0  0
   22.7617   53.5782   14.0087 H   0  0  0  0  0  0
   24.6669   50.7053   11.4160 H   0  0  0  0  0  0
   20.6777   52.2736   13.8678 H   0  0  0  0  0  0
   22.6032   49.4799   11.2280 H   0  0  0  0  0  0
   26.9230   53.3959   10.7295 H   0  0  0  0  0  0
   25.3992   52.6729   10.2127 H   0  0  0  0  0  0
   26.6585   51.7294   11.0000 H   0  0  0  0  0  0
   18.1230   49.3220   17.0000 H   0  0  0  0  0  0
   17.7030   47.4735   12.6178 H   0  0  0  0  0  0
   16.3023   47.7116   16.6475 H   0  0  0  0  0  0
   16.0918   46.7940   14.3195 H   0  0  0  0  0  0
  1  3  1  0  0  0
  1  7  1  0  0  0
  1 26  1  0  0  0
  1  4  1  0  0  0
  2  6  1  0  0  0
  2  9  2  0  0  0
  2 10  2  0  0  0
  2 18  1  0  0  0
  3  5  1  0  0  0
  3  8  1  0  0  0
  3 24  1  0  0  0
  4 13  2  0  0  0
  4 12  1  0  0  0
  5 23  1  0  0  0
  5 12  2  0  0  0
  6 15  1  0  0  0
  6 14  2  0  0  0
  7 11  2  0  0  0
  7 20  1  0  0  0
  8 16  2  0  0  0
  8 17  1  0  0  0
 11 19  1  0  0  0
 12 25  1  0  0  0
 14 16  1  0  0  0
 14 27  1  0  0  0
 15 17  2  0  0  0
 15 28  1  0  0  0
 16 29  1  0  0  0
 17 30  1  0  0  0
 18 31  1  0  0  0
 18 32  1  0  0  0
 18 33  1  0  0  0
 19 21  2  0  0  0
 19 34  1  0  0  0
 20 22  2  0  0  0
 20 35  1  0  0  0
 21 22  1  0  0  0
 21 36  1  0  0  0
 22 37  1  0  0  0
M  END
> <s_m_entry_id>
5593

> <s_m_entry_name>
dock_pv.584

> <s_m_Source_Path>
/home/csk/Desktop/cluster/DUD-E-result/pgh1

> <s_m_Source_File>
dock_pv.maegz

> <i_m_Source_File_Index>
584

> <chembl_id>
CHEMBL23128

> <chembl_pref_name>
None

> <i_lp_mmshare_version>
53161

> <r_lp_tautomer_probability>
0.499977396165832

> <s_lp_Force_Field>
OPLS_2005

> <r_lp_Energy>
17.055428

> <b_lp_Chiralities_Consistent>
1

> <s_lp_Variant>
CHEMBL221_lig476-2

> <s_i_glide_gridfile>
glide-grid_2oyu

> <i_i_glide_lignum>
596

> <i_i_glide_rotatable_bonds>
3

> <r_i_docking_score>
-7.08320120406902

> <r_i_glide_ligand_efficiency>
-0.321963691094046

> <r_i_glide_ligand_efficiency_sa>
-0.902154924558966

> <r_i_glide_ligand_efficiency_ln>
-1.73139274031597

> <r_i_glide_gscore>
-7.08320120406902

> <r_i_glide_lipo>
-4.19058650291479

> <r_i_glide_hbond>
-0.16

> <r_i_glide_metal>
0

> <r_i_glide_rewards>
-2.79197329909278

> <r_i_glide_evdw>
2.44503808021545

> <r_i_glide_ecoul>
-2.94104909896851

> <r_i_glide_erotb>
0.378264058773064

> <r_i_glide_esite>
0

> <r_i_glide_emodel>
-19.4703618982495

> <r_i_glide_energy>
-0.496011018753052

> <r_i_glide_einternal>
6.10055017471313

> <i_i_glide_confnum>
5

> <i_i_glide_posenum>
54

> <r_i_glide_eff_state_penalty>
0

> <s_user_duplicate_titles>
CHEMBL221_lig476

> <i_f3d_flags>
0

> <s_m_subgroup_title>
dock_pv

> <s_m_subgroupid>
dock_pv

> <b_m_subgroup_collapsed>
1

$$$$
CHEMBL221_lig437
                    3D
 Schrodinger Suite 2021-1.
 47 50  0  0  1  0            999 V2000
   20.5231   50.1642   12.6144 C   0  0  0  0  0  0
   19.9654   49.1784   11.9182 C   0  0  0  0  0  0
   20.6321   49.8572   14.0213 C   0  0  0  0  0  0
   19.6251   48.1249   12.9333 C   0  0  0  0  0  0
   19.8524   48.8473    5.8919 S   0  0  0  0  0  0
   20.0873   48.6500   14.1758 O   0  0  0  0  0  0
   22.3020   51.4812   11.9315 C   0  0  0  0  0  0
   20.9700   51.3488   12.1999 O   0  0  0  0  0  0
   22.9582   52.5431   12.5337 C   0  0  0  0  0  0
   22.8560   50.7069   10.9683 N   0  0  0  0  0  0
   19.8309   49.1132   10.4385 C   0  0  0  0  0  0
   19.8422   48.9396    7.6476 C   0  0  0  0  0  0
   24.8976   51.9999   11.1648 N   0  0  0  0  0  0
   20.1230   47.4730    5.5776 O   0  0  0  0  0  0
   20.7210   49.8762    5.3387 O   0  0  0  0  0  0
   24.1068   51.0729   10.5996 C   0  0  0  0  0  0
   21.1133   50.5421   14.9232 O   0  0  0  0  0  0
   24.3173   52.7200   12.1482 C   0  0  0  0  0  0
   19.5036   47.8224    8.4049 C   0  0  0  0  0  0
   20.1230   50.1456    8.2666 C   0  0  0  0  0  0
   19.4730   47.9242    9.7900 C   0  0  0  0  0  0
   20.1230   50.2303    9.6459 C   0  0  0  0  0  0
   18.1018   49.0730    5.4000 C   0  0  0  0  0  0
   18.1229   47.8917   13.1126 C   0  0  0  0  0  0
   20.4178   46.8512   12.7171 C   0  0  0  0  0  0
   22.3203   53.4516   13.4001 C   0  0  0  0  0  0
   25.0547   53.7405   12.7287 C   0  0  0  0  0  0
   23.0240   54.5642   13.8000 C   0  0  0  0  0  0
   24.3725   54.6639   13.4864 C   0  0  0  0  0  0
   24.5230   50.5642    9.7450 H   0  0  0  0  0  0
   19.2278   46.8960    7.9259 H   0  0  0  0  0  0
   20.3175   51.0305    7.6755 H   0  0  0  0  0  0
   19.1418   47.0730   10.3418 H   0  0  0  0  0  0
   20.3386   51.1972   10.0603 H   0  0  0  0  0  0
   18.0529   49.0730    4.3121 H   0  0  0  0  0  0
   17.7298   50.0120    5.8006 H   0  0  0  0  0  0
   17.5364   48.2302    5.7838 H   0  0  0  0  0  0
   17.7152   47.4731   12.1999 H   0  0  0  0  0  0
   17.9137   47.1950   13.9250 H   0  0  0  0  0  0
   17.5861   48.8167   13.3258 H   0  0  0  0  0  0
   20.1230   46.2429   11.8748 H   0  0  0  0  0  0
   21.4858   47.0362   12.6000 H   0  0  0  0  0  0
   20.2256   46.2730   13.6080 H   0  0  0  0  0  0
   21.2840   53.3214   13.6766 H   0  0  0  0  0  0
   26.0962   53.8837   12.4786 H   0  0  0  0  0  0
   22.5533   55.3110   14.4233 H   0  0  0  0  0  0
   24.9230   55.4730   13.8421 H   0  0  0  0  0  0
  1  2  2  0  0  0
  1  3  1  0  0  0
  1  8  1  0  0  0
  2  4  1  0  0  0
  2 11  1  0  0  0
  3  6  1  0  0  0
  3 17  2  0  0  0
  4 24  1  0  0  0
  4 25  1  0  0  0
  4  6  1  0  0  0
  5 12  1  0  0  0
  5 14  2  0  0  0
  5 15  2  0  0  0
  5 23  1  0  0  0
  7  8  1  0  0  0
  7  9  1  0  0  0
  7 10  2  0  0  0
  9 18  1  0  0  0
  9 26  2  0  0  0
 10 16  1  0  0  0
 11 21  1  0  0  0
 11 22  2  0  0  0
 12 20  2  0  0  0
 12 19  1  0  0  0
 13 16  2  0  0  0
 13 18  1  0  0  0
 16 30  1  0  0  0
 18 27  2  0  0  0
 19 21  2  0  0  0
 19 31  1  0  0  0
 20 22  1  0  0  0
 20 32  1  0  0  0
 21 33  1  0  0  0
 22 34  1  0  0  0
 23 35  1  0  0  0
 23 36  1  0  0  0
 23 37  1  0  0  0
 24 38  1  0  0  0
 24 39  1  0  0  0
 24 40  1  0  0  0
 25 41  1  0  0  0
 25 42  1  0  0  0
 25 43  1  0  0  0
 26 28  1  0  0  0
 26 44  1  0  0  0
 27 29  1  0  0  0
 27 45  1  0  0  0
 28 29  2  0  0  0
 28 46  1  0  0  0
 29 47  1  0  0  0
M  END
> <s_m_entry_id>
5594

> <s_m_entry_name>
dock_pv.585

> <s_m_Source_Path>
/home/csk/Desktop/cluster/DUD-E-result/pgh1

> <s_m_Source_File>
dock_pv.maegz

> <i_m_Source_File_Index>
585

> <chembl_id>
CHEMBL319446

> <chembl_pref_name>
None

> <i_lp_mmshare_version>
53161

> <r_lp_tautomer_probability>
1

> <s_lp_Force_Field>
OPLS_2005

> <r_lp_Energy>
15.571068

> <b_lp_Chiralities_Consistent>
1

> <s_lp_Variant>
CHEMBL221_lig437-1

> <s_i_glide_gridfile>
glide-grid_2oyu

> <i_i_glide_lignum>
507

> <i_i_glide_rotatable_bonds>
4

> <r_i_docking_score>
-7.08180493243108

> <r_i_glide_ligand_efficiency>
-0.24420017008383

> <r_i_glide_ligand_efficiency_sa>
-0.750260290541781

> <r_i_glide_ligand_efficiency_ln>
-1.62155375044814

> <r_i_glide_gscore>
-7.08180493243108

> <r_i_glide_lipo>
-3.82753773054136

> <r_i_glide_hbond>
0

> <r_i_glide_metal>
0

> <r_i_glide_rewards>
-2.32239756860252

> <r_i_glide_evdw>
-3.92842125892639

> <r_i_glide_ecoul>
-7.09647083282471

> <r_i_glide_erotb>
0.350820760950896

> <r_i_glide_esite>
-0.0217987063680706

> <r_i_glide_emodel>
-18.5180468752627

> <r_i_glide_energy>
-11.0248920917511

> <r_i_glide_einternal>
9.46551895141602

> <i_i_glide_confnum>
14

> <i_i_glide_posenum>
277

> <r_i_glide_eff_state_penalty>
0

> <s_user_duplicate_titles>
CHEMBL221_lig437

> <i_f3d_flags>
0

> <s_m_subgroup_title>
dock_pv

> <s_m_subgroupid>
dock_pv

> <b_m_subgroup_collapsed>
1

$$$$
CHEMBL221_lig771
                    3D
 Schrodinger Suite 2021-1.
 31 32  0  0  1  0            999 V2000
   19.4489   48.1242   11.2839 C   0  0  0  0  0  0
   19.7230   48.3181    9.9315 C   0  0  0  0  0  0
   20.4535   49.3615    9.4739 N   0  0  0  0  0  0
   20.9430   50.2323   10.3873 C   0  0  0  0  0  0
   20.7535   50.0984   11.7670 C   0  0  0  0  0  0
   19.9743   49.0186   12.2277 C   0  0  0  0  0  0
   19.7732   48.8550   13.6107 N   0  0  0  0  0  0
   19.0094   47.4730   14.3927 S   0  0  0  0  0  0
   21.2869   51.0451   12.6612 N   0  0  0  0  0  0
   22.4458   51.8259   12.5864 C   0  0  0  0  0  0
   22.5243   52.9497   13.4070 C   0  0  0  0  0  0
   23.6701   53.7375   13.4000 C   0  0  0  0  0  0
   24.7484   53.3779   12.6000 C   0  0  0  0  0  0
   24.6635   52.2744   11.7518 C   0  0  0  0  0  0
   23.5167   51.4904   11.7527 C   0  0  0  0  0  0
   19.3887   47.5644   15.8000 O   0  0  0  0  0  0
   17.1848   47.8629   14.2736 C   0  0  0  0  0  0
   19.3230   46.2730   13.6148 O   0  0  0  0  0  0
   18.8312   47.2879   11.5628 H   0  0  0  0  0  0
   19.3328   47.6415    9.1849 H   0  0  0  0  0  0
   21.4840   51.0730    9.9840 H   0  0  0  0  0  0
   20.2071   49.5264   14.2241 H   0  0  0  0  0  0
   20.6773   51.2844   13.4276 H   0  0  0  0  0  0
   21.7022   53.2206   14.0533 H   0  0  0  0  0  0
   23.7290   54.6128   14.0324 H   0  0  0  0  0  0
   25.6436   53.9831   12.6069 H   0  0  0  0  0  0
   25.4915   52.0149   11.1071 H   0  0  0  0  0  0
   23.4848   50.6137   11.1245 H   0  0  0  0  0  0
   16.6258   46.9875   14.6000 H   0  0  0  0  0  0
   16.9301   48.1408   13.2527 H   0  0  0  0  0  0
   16.9740   48.6730   14.9597 H   0  0  0  0  0  0
  1  6  1  0  0  0
  1  2  2  0  0  0
  1 19  1  0  0  0
  2  3  1  0  0  0
  2 20  1  0  0  0
  3  4  2  0  0  0
  4  5  1  0  0  0
  4 21  1  0  0  0
  5  9  1  0  0  0
  5  6  2  0  0  0
  6  7  1  0  0  0
  7  8  1  0  0  0
  7 22  1  0  0  0
  8 16  2  0  0  0
  8 17  1  0  0  0
  8 18  2  0  0  0
  9 10  1  0  0  0
  9 23  1  0  0  0
 10 11  2  0  0  0
 10 15  1  0  0  0
 11 12  1  0  0  0
 11 24  1  0  0  0
 12 13  2  0  0  0
 12 25  1  0  0  0
 13 14  1  0  0  0
 13 26  1  0  0  0
 14 15  2  0  0  0
 14 27  1  0  0  0
 15 28  1  0  0  0
 17 29  1  0  0  0
 17 30  1  0  0  0
 17 31  1  0  0  0
M  END
> <s_m_entry_id>
5595

> <s_m_entry_name>
dock_pv.586

> <s_m_Source_Path>
/home/csk/Desktop/cluster/DUD-E-result/pgh1

> <s_m_Source_File>
dock_pv.maegz

> <i_m_Source_File_Index>
586

> <chembl_id>
CHEMBL1079877

> <chembl_pref_name>
None

> <i_lp_mmshare_version>
53161

> <r_lp_tautomer_probability>
1

> <s_lp_Force_Field>
OPLS_2005

> <r_lp_Energy>
7.755041

> <b_lp_Chiralities_Consistent>
1

> <s_lp_Variant>
CHEMBL221_lig771-1

> <s_i_glide_gridfile>
glide-grid_2oyu

> <i_i_glide_lignum>
941

> <i_i_glide_rotatable_bonds>
4

> <r_i_docking_score>
-7.07959730535833

> <r_i_glide_ligand_efficiency>
-0.393310961408796

> <r_i_glide_ligand_efficiency_sa>
-1.03076631636703

> <r_i_glide_ligand_efficiency_ln>
-1.81977398200804

> <r_i_glide_gscore>
-7.07959730535833

> <r_i_glide_lipo>
-3.69403617080237

> <r_i_glide_hbond>
0

> <r_i_glide_metal>
0

> <r_i_glide_rewards>
-2.02658156594567

> <r_i_glide_evdw>
-33.0799865722656

> <r_i_glide_ecoul>
-2.80537509918213

> <r_i_glide_erotb>
0.768288064860423

> <r_i_glide_esite>
-0.0524620399801138

> <r_i_glide_emodel>
-50.2495335182508

> <r_i_glide_energy>
-35.8853616714478

> <r_i_glide_einternal>
2.61993622779846

> <i_i_glide_confnum>
9

> <i_i_glide_posenum>
318

> <r_i_glide_eff_state_penalty>
0

> <s_user_duplicate_titles>
CHEMBL221_lig771

> <i_f3d_flags>
0

> <s_m_subgroup_title>
dock_pv

> <s_m_subgroupid>
dock_pv

> <b_m_subgroup_collapsed>
1

$$$$
CHEMBL221_lig475
                    3D
 Schrodinger Suite 2021-1.
 38 40  0  0  1  0            999 V2000
   23.9659   53.1037   12.9275 S   0  0  0  0  0  0
   19.1714   48.0227   12.9854 C   0  0  1  0  0  0
   20.2626   48.3691   14.0023 C   0  0  2  0  0  0
   17.8653   48.2454   13.7572 C   0  0  0  0  0  0
   19.5371   48.3282   15.3259 C   0  0  0  0  0  0
   22.9100   51.7344   13.3007 C   0  0  0  0  0  0
   21.1507   49.6163   13.7455 C   0  0  0  0  0  0
   19.3446   48.6590   11.5986 C   0  0  0  0  0  0
   24.1230   53.0729   11.4712 O   0  0  0  0  0  0
   25.1451   53.0731   13.7959 O   0  0  0  0  0  0
   18.2078   48.2738   15.1613 C   0  0  0  0  0  0
   16.7107   48.2730   13.3551 O   0  0  0  0  0  0
   22.0892   51.7402   14.4259 C   0  0  0  0  0  0
   22.8529   50.6947   12.3824 C   0  0  0  0  0  0
   21.2227   50.6771   14.6540 C   0  0  0  0  0  0
   21.9704   49.6537   12.6001 C   0  0  0  0  0  0
   19.3402   50.0457   11.4341 C   0  0  0  0  0  0
   19.7226   47.8719   10.5148 C   0  0  0  0  0  0
   22.9124   54.5778   13.4277 C   0  0  0  0  0  0
   20.1230   49.8303    9.1807 C   0  0  0  0  0  0
   20.1215   48.4468    9.3109 C   0  0  0  0  0  0
   19.7530   50.6311   10.2577 C   0  0  0  0  0  0
   20.1226   50.3614    7.9428 F   0  0  0  0  0  0
   20.0635   48.3630   16.2656 H   0  0  0  0  0  0
   20.9231   47.5114   13.9953 H   0  0  0  0  0  0
   17.4507   48.2782   15.9292 H   0  0  0  0  0  0
   19.1949   46.9452   12.8177 H   0  0  0  0  0  0
   22.1223   52.5617   15.1247 H   0  0  0  0  0  0
   23.4857   50.6831   11.5051 H   0  0  0  0  0  0
   20.6074   50.6965   15.5395 H   0  0  0  0  0  0
   21.9619   48.8425   11.8901 H   0  0  0  0  0  0
   18.9805   50.6783   12.2017 H   0  0  0  0  0  0
   19.7510   46.7980   10.6124 H   0  0  0  0  0  0
   23.4139   55.4730   13.0736 H   0  0  0  0  0  0
   22.8592   54.6258   14.5145 H   0  0  0  0  0  0
   21.9166   54.4881   13.0000 H   0  0  0  0  0  0
   20.3413   47.8221    8.4596 H   0  0  0  0  0  0
   19.6485   51.6936   10.2000 H   0  0  0  0  0  0
  1  6  1  0  0  0
  1  9  2  0  0  0
  1 10  2  0  0  0
  1 19  1  0  0  0
  2  3  1  0  0  0
  2  8  1  0  0  0
  2 27  1  0  0  0
  2  4  1  0  0  0
  3  5  1  0  0  0
  3  7  1  0  0  0
  3 25  1  0  0  0
  4 12  2  0  0  0
  4 11  1  0  0  0
  5 24  1  0  0  0
  5 11  2  0  0  0
  6 13  1  0  0  0
  6 14  2  0  0  0
  7 16  2  0  0  0
  7 15  1  0  0  0
  8 17  2  0  0  0
  8 18  1  0  0  0
 11 26  1  0  0  0
 13 15  2  0  0  0
 13 28  1  0  0  0
 14 16  1  0  0  0
 14 29  1  0  0  0
 15 30  1  0  0  0
 16 31  1  0  0  0
 17 22  1  0  0  0
 17 32  1  0  0  0
 18 21  2  0  0  0
 18 33  1  0  0  0
 19 34  1  0  0  0
 19 35  1  0  0  0
 19 36  1  0  0  0
 20 21  1  0  0  0
 20 23  1  0  0  0
 20 22  2  0  0  0
 21 37  1  0  0  0
 22 38  1  0  0  0
M  END
> <s_m_entry_id>
5596

> <s_m_entry_name>
dock_pv.587

> <s_m_Source_Path>
/home/csk/Desktop/cluster/DUD-E-result/pgh1

> <s_m_Source_File>
dock_pv.maegz

> <i_m_Source_File_Index>
587

> <chembl_id>
CHEMBL22812

> <chembl_pref_name>
None

> <i_lp_mmshare_version>
53161

> <r_lp_tautomer_probability>
0.499977396165832

> <s_lp_Force_Field>
OPLS_2005

> <r_lp_Energy>
17.680354

> <b_lp_Chiralities_Consistent>
1

> <s_lp_Variant>
CHEMBL221_lig475-3

> <s_i_glide_gridfile>
glide-grid_2oyu

> <i_i_glide_lignum>
592

> <i_i_glide_rotatable_bonds>
3

> <r_i_docking_score>
-7.06788545350375

> <r_i_glide_ligand_efficiency>
-0.307299367543641

> <r_i_glide_ligand_efficiency_sa>
-0.873918523373242

> <r_i_glide_ligand_efficiency_ln>
-1.7090787906992

> <r_i_glide_gscore>
-7.06788545350375

> <r_i_glide_lipo>
-4.10614780549028

> <r_i_glide_hbond>
0

> <r_i_glide_metal>
0

> <r_i_glide_rewards>
-2.69353115605904

> <r_i_glide_evdw>
-8.64510345458984

> <r_i_glide_ecoul>
-1.17941057682037

> <r_i_glide_erotb>
0.344622388232458

> <r_i_glide_esite>
-0.00366212093433419

> <r_i_glide_emodel>
-7.43257102229754

> <r_i_glide_energy>
-9.82451403141022

> <r_i_glide_einternal>
22.5738430023193

> <i_i_glide_confnum>
3

> <i_i_glide_posenum>
245

> <r_i_glide_eff_state_penalty>
0

> <s_user_duplicate_titles>
CHEMBL221_lig475

> <i_f3d_flags>
0

> <s_m_subgroup_title>
dock_pv

> <s_m_subgroupid>
dock_pv

> <b_m_subgroup_collapsed>
1

$$$$
CHEMBL221_lig759
                    3D
 Schrodinger Suite 2021-1.
 31 32  0  0  1  0            999 V2000
   19.5364   47.9447   10.7597 C   0  0  0  0  0  0
   19.7232   48.5663    9.5354 C   0  0  0  0  0  0
   20.4126   49.7195    9.4051 N   0  0  0  0  0  0
   20.9507   50.2547   10.5246 C   0  0  0  0  0  0
   20.8820   49.6536   11.7911 C   0  0  0  0  0  0
   20.1525   48.4486   11.9024 C   0  0  0  0  0  0
   20.1180   47.5805   13.0055 N   0  0  0  0  0  0
   19.5655   47.9708   14.6405 S   0  0  0  0  0  0
   21.5199   50.2632   12.8798 N   0  0  0  0  0  0
   22.4437   51.3126   12.8466 C   0  0  0  0  0  0
   22.1994   52.4431   13.6200 C   0  0  0  0  0  0
   23.1047   53.4976   13.5952 C   0  0  0  0  0  0
   24.2872   53.3823   12.8685 C   0  0  0  0  0  0
   24.5135   52.2743   12.0549 C   0  0  0  0  0  0
   23.5866   51.2360   12.0434 C   0  0  0  0  0  0
   20.2258   49.2062   15.0747 O   0  0  0  0  0  0
   17.7111   48.2619   14.4357 C   0  0  0  0  0  0
   17.1221   47.0873   14.2199 F   0  0  0  0  0  0
   17.5192   49.0728   13.4000 F   0  0  0  0  0  0
   17.2735   48.8048   15.5686 F   0  0  0  0  0  0
   19.7318   46.7290   15.4004 O   0  0  0  0  0  0
   25.4905   54.6105   13.0001 Cl  0  0  0  0  0  0
   18.9231   47.0731   10.8063 H   0  0  0  0  0  0
   19.2986   48.1585    8.6299 H   0  0  0  0  0  0
   21.4651   51.1902   10.3739 H   0  0  0  0  0  0
   19.8579   46.6418   12.7516 H   0  0  0  0  0  0
   21.0886   50.0783   13.7800 H   0  0  0  0  0  0
   21.3092   52.5135   14.2279 H   0  0  0  0  0  0
   22.9271   54.3746   14.2013 H   0  0  0  0  0  0
   25.4082   52.2093   11.4522 H   0  0  0  0  0  0
   23.7721   50.3620   11.4363 H   0  0  0  0  0  0
  1  6  1  0  0  0
  1  2  2  0  0  0
  1 23  1  0  0  0
  2  3  1  0  0  0
  2 24  1  0  0  0
  3  4  2  0  0  0
  4  5  1  0  0  0
  4 25  1  0  0  0
  5  6  2  0  0  0
  5  9  1  0  0  0
  6  7  1  0  0  0
  7  8  1  0  0  0
  7 26  1  0  0  0
  8 16  2  0  0  0
  8 17  1  0  0  0
  8 21  2  0  0  0
  9 10  1  0  0  0
  9 27  1  0  0  0
 10 11  2  0  0  0
 10 15  1  0  0  0
 11 12  1  0  0  0
 11 28  1  0  0  0
 12 13  2  0  0  0
 12 29  1  0  0  0
 13 14  1  0  0  0
 13 22  1  0  0  0
 14 15  2  0  0  0
 14 30  1  0  0  0
 15 31  1  0  0  0
 17 18  1  0  0  0
 17 19  1  0  0  0
 17 20  1  0  0  0
M  END
> <s_m_entry_id>
5597

> <s_m_entry_name>
dock_pv.588

> <s_m_Source_Path>
/home/csk/Desktop/cluster/DUD-E-result/pgh1

> <s_m_Source_File>
dock_pv.maegz

> <i_m_Source_File_Index>
588

> <chembl_id>
CHEMBL1079333

> <chembl_pref_name>
None

> <i_lp_mmshare_version>
53161

> <r_lp_tautomer_probability>
1

> <s_lp_Force_Field>
OPLS_2005

> <r_lp_Energy>
10.81927

> <b_lp_Chiralities_Consistent>
1

> <s_lp_Variant>
CHEMBL221_lig759-1

> <s_i_glide_gridfile>
glide-grid_2oyu

> <i_i_glide_lignum>
929

> <i_i_glide_rotatable_bonds>
5

> <r_i_docking_score>
-7.06371442182661

> <r_i_glide_ligand_efficiency>
-0.321077928264846

> <r_i_glide_ligand_efficiency_sa>
-0.899672982276472

> <r_i_glide_ligand_efficiency_ln>
-1.72662945993827

> <r_i_glide_gscore>
-7.06371442182661

> <r_i_glide_lipo>
-3.44991740139586

> <r_i_glide_hbond>
0

> <r_i_glide_metal>
0

> <r_i_glide_rewards>
-2.18572710920273

> <r_i_glide_evdw>
-33.1515312194824

> <r_i_glide_ecoul>
-2.36489367485046

> <r_i_glide_erotb>
0.616782252326945

> <r_i_glide_esite>
-0.0325415513532777

> <r_i_glide_emodel>
-35.8194067188729

> <r_i_glide_energy>
-35.5164248943329

> <r_i_glide_einternal>
16.1266307830811

> <i_i_glide_confnum>
16

> <i_i_glide_posenum>
106

> <r_i_glide_eff_state_penalty>
0

> <s_user_duplicate_titles>
CHEMBL221_lig759

> <i_f3d_flags>
0

> <s_m_subgroup_title>
dock_pv

> <s_m_subgroupid>
dock_pv

> <b_m_subgroup_collapsed>
1

$$$$
CHEMBL221_lig988
                    3D
 Schrodinger Suite 2021-1.
 45 48  0  0  1  0            999 V2000
   20.3307   49.5838   11.9296 N   0  0  0  0  0  0
   20.4013   49.4173   10.5916 N   0  0  0  0  0  0
   19.7229   48.3366   10.2699 C   0  0  0  0  0  0
   19.0784   47.8732   11.3754 C   0  0  0  0  0  0
   19.3904   48.6811   12.4107 C   0  0  0  0  0  0
   19.6235   47.7533    9.0345 N   0  0  0  0  0  0
   19.5881   48.3957    7.7982 C   0  0  0  0  0  0
   18.8885   48.4544   13.7588 C   0  0  0  0  0  0
   17.5547   48.2570   14.1444 C   0  0  0  0  0  0
   17.2490   48.0169   15.4780 C   0  0  0  0  0  0
   18.2565   48.0340   16.4260 C   0  0  0  0  0  0
   19.5660   48.2558   16.0030 C   0  0  0  0  0  0
   19.8856   48.3416   14.6899 C   0  0  0  0  0  0
   16.5232   48.2730   13.2608 O   0  0  0  0  0  0
   20.1230   49.6466    7.5981 C   0  0  0  0  0  0
   20.1230   50.2076    6.3472 C   0  0  0  0  0  0
   19.3801   49.6494    5.3331 C   0  0  0  0  0  0
   18.6419   48.5159    5.5695 C   0  0  0  0  0  0
   18.8002   47.8730    6.7923 C   0  0  0  0  0  0
   21.1375   50.5387   12.6908 C   0  0  0  0  0  0
   20.9229   50.7374   13.8836 O   0  0  0  0  0  0
   22.3553   51.2206   12.1125 C   0  0  0  0  0  0
   22.9528   52.3482   12.7336 C   0  0  0  0  0  0
   24.1691   52.8441   12.2656 C   0  0  0  0  0  0
   24.7704   52.2740   11.1497 C   0  0  0  0  0  0
   24.1431   51.2284   10.4989 C   0  0  0  0  0  0
   22.9908   50.6766   10.9988 C   0  0  0  0  0  0
   22.3932   53.0076   13.7999 O   0  0  0  0  0  0
   18.3882   47.0731   11.4325 H   0  0  0  0  0  0
   19.1613   46.8609    8.9880 H   0  0  0  0  0  0
   16.2277   47.8556   15.7763 H   0  0  0  0  0  0
   18.0243   47.8730   17.4673 H   0  0  0  0  0  0
   20.4431   48.2751   16.6000 H   0  0  0  0  0  0
   20.9230   48.3918   14.4175 H   0  0  0  0  0  0
   16.7577   48.5278   12.3666 H   0  0  0  0  0  0
   20.5228   50.2282    8.3979 H   0  0  0  0  0  0
   20.7170   51.0765    6.2000 H   0  0  0  0  0  0
   19.3230   50.1367    4.3736 H   0  0  0  0  0  0
   17.9789   48.1409    4.8029 H   0  0  0  0  0  0
   18.2245   46.9831    6.9982 H   0  0  0  0  0  0
   24.6402   53.6888   12.7474 H   0  0  0  0  0  0
   25.6992   52.6722   10.7672 H   0  0  0  0  0  0
   24.5655   50.8057    9.6016 H   0  0  0  0  0  0
   22.6547   49.8046   10.4750 H   0  0  0  0  0  0
   22.9519   53.6975   14.1670 H   0  0  0  0  0  0
  1  2  1  0  0  0
  1  5  1  0  0  0
  1 20  1  0  0  0
  2  3  2  0  0  0
  3  4  1  0  0  0
  3  6  1  0  0  0
  4  5  2  0  0  0
  4 29  1  0  0  0
  5  8  1  0  0  0
  6  7  1  0  0  0
  6 30  1  0  0  0
  7 15  2  0  0  0
  7 19  1  0  0  0
  8  9  2  0  0  0
  8 13  1  0  0  0
  9 10  1  0  0  0
  9 14  1  0  0  0
 10 11  2  0  0  0
 10 31  1  0  0  0
 11 12  1  0  0  0
 11 32  1  0  0  0
 12 13  2  0  0  0
 12 33  1  0  0  0
 13 34  1  0  0  0
 14 35  1  0  0  0
 15 16  1  0  0  0
 15 36  1  0  0  0
 16 17  2  0  0  0
 16 37  1  0  0  0
 17 18  1  0  0  0
 17 38  1  0  0  0
 18 19  2  0  0  0
 18 39  1  0  0  0
 19 40  1  0  0  0
 20 21  2  0  0  0
 20 22  1  0  0  0
 22 23  2  0  0  0
 22 27  1  0  0  0
 23 24  1  0  0  0
 23 28  1  0  0  0
 24 25  2  0  0  0
 24 41  1  0  0  0
 25 26  1  0  0  0
 25 42  1  0  0  0
 26 27  2  0  0  0
 26 43  1  0  0  0
 27 44  1  0  0  0
 28 45  1  0  0  0
M  END
> <s_m_entry_id>
5598

> <s_m_entry_name>
dock_pv.589

> <s_m_Source_Path>
/home/csk/Desktop/cluster/DUD-E-result/pgh1

> <s_m_Source_File>
dock_pv.maegz

> <i_m_Source_File_Index>
589

> <chembl_id>
CHEMBL4065530

> <chembl_pref_name>
None

> <i_lp_mmshare_version>
53161

> <r_lp_tautomer_probability>
0.999999999997365

> <s_lp_Force_Field>
OPLS_2005

> <r_lp_Energy>
31.76872

> <b_lp_Chiralities_Consistent>
1

> <s_lp_Variant>
CHEMBL221_lig988-1

> <s_i_glide_gridfile>
glide-grid_2oyu

> <i_i_glide_lignum>
1228

> <i_i_glide_rotatable_bonds>
7

> <r_i_docking_score>
-7.06337095206223

> <r_i_glide_ligand_efficiency>
-0.252263248287937

> <r_i_glide_ligand_efficiency_sa>
-0.766019796909836

> <r_i_glide_ligand_efficiency_ln>
-1.63043340531876

> <r_i_glide_gscore>
-7.06337095206223

> <r_i_glide_lipo>
-4.54969962587893

> <r_i_glide_hbond>
-0.0406389988835761

> <r_i_glide_metal>
0

> <r_i_glide_rewards>
-2.42735956673388

> <r_i_glide_evdw>
-10.9099073410034

> <r_i_glide_ecoul>
-1.33269214630127

> <r_i_glide_erotb>
0.699726428429522

> <r_i_glide_esite>
0

> <r_i_glide_emodel>
-19.7592023195506

> <r_i_glide_energy>
-12.2425994873047

> <r_i_glide_einternal>
23.067943572998

> <i_i_glide_confnum>
129

> <i_i_glide_posenum>
211

> <r_i_glide_eff_state_penalty>
0

> <s_user_duplicate_titles>
CHEMBL221_lig988

> <i_f3d_flags>
0

> <s_m_subgroup_title>
dock_pv

> <s_m_subgroupid>
dock_pv

> <b_m_subgroup_collapsed>
1

$$$$
CHEMBL221_lig454
                    3D
 Schrodinger Suite 2021-1.
 38 40  0  0  1  0            999 V2000
   20.3980   48.6731   13.4864 C   0  0  1  0  0  0
   20.0209   48.8881    6.3867 S   0  0  0  0  0  0
   19.3230   49.0794   12.4746 C   0  0  2  0  0  0
   20.9668   49.9068   14.1882 C   0  0  0  0  0  0
   19.7006   47.6580   14.4172 C   0  0  0  0  0  0
   18.1252   48.2427   12.9129 C   0  0  0  0  0  0
   20.0283   48.9870    8.1871 C   0  0  0  0  0  0
   19.7230   49.0627   10.9866 C   0  0  0  0  0  0
   20.1230   47.4730    6.0650 O   0  0  0  0  0  0
   20.9230   49.8730    5.8000 O   0  0  0  0  0  0
   21.5570   50.8866   13.3798 C   0  0  0  0  0  0
   18.3606   47.4876   13.9805 C   0  0  0  0  0  0
   20.1230   47.0724   15.4000 O   0  0  0  0  0  0
   20.1230   50.2003    8.8793 C   0  0  0  0  0  0
   19.7469   47.8243    8.9064 C   0  0  0  0  0  0
   20.0080   50.2370   10.2742 C   0  0  0  0  0  0
   19.6233   47.8730   10.2888 C   0  0  0  0  0  0
   21.7230   52.1807   13.8565 C   0  0  0  0  0  0
   18.3497   49.3214    5.8000 C   0  0  0  0  0  0
   22.2372   53.1395   13.0557 F   0  0  0  0  0  0
   20.7603   50.1833   15.5489 C   0  0  0  0  0  0
   20.9230   51.4767   16.0231 C   0  0  0  0  0  0
   21.3230   52.4882   15.1513 C   0  0  0  0  0  0
   17.1567   48.2730   12.4445 H   0  0  0  0  0  0
   19.0069   50.1113   12.6163 H   0  0  0  0  0  0
   21.7941   50.6799   12.3474 H   0  0  0  0  0  0
   17.6698   46.8323   14.4903 H   0  0  0  0  0  0
   21.2084   48.1621   12.9691 H   0  0  0  0  0  0
   20.2644   51.1144    8.3226 H   0  0  0  0  0  0
   19.6154   46.8795    8.4008 H   0  0  0  0  0  0
   20.0486   51.1907   10.7801 H   0  0  0  0  0  0
   19.3881   46.9901   10.8437 H   0  0  0  0  0  0
   18.3971   49.3660    4.7143 H   0  0  0  0  0  0
   18.0208   50.2729    6.2000 H   0  0  0  0  0  0
   17.7230   48.4938    6.0884 H   0  0  0  0  0  0
   20.3485   49.4546   16.2297 H   0  0  0  0  0  0
   20.6804   51.7085   17.0499 H   0  0  0  0  0  0
   21.4227   53.5036   15.5060 H   0  0  0  0  0  0
  1  3  1  0  0  0
  1  4  1  0  0  0
  1 28  1  0  0  0
  1  5  1  0  0  0
  2  7  1  0  0  0
  2  9  2  0  0  0
  2 10  2  0  0  0
  2 19  1  0  0  0
  3  6  1  0  0  0
  3  8  1  0  0  0
  3 25  1  0  0  0
  4 11  1  0  0  0
  4 21  2  0  0  0
  5 13  2  0  0  0
  5 12  1  0  0  0
  6 24  1  0  0  0
  6 12  2  0  0  0
  7 15  1  0  0  0
  7 14  2  0  0  0
  8 16  2  0  0  0
  8 17  1  0  0  0
 11 18  2  0  0  0
 11 26  1  0  0  0
 12 27  1  0  0  0
 14 16  1  0  0  0
 14 29  1  0  0  0
 15 17  2  0  0  0
 15 30  1  0  0  0
 16 31  1  0  0  0
 17 32  1  0  0  0
 18 20  1  0  0  0
 18 23  1  0  0  0
 19 33  1  0  0  0
 19 34  1  0  0  0
 19 35  1  0  0  0
 21 22  1  0  0  0
 21 36  1  0  0  0
 22 23  2  0  0  0
 22 37  1  0  0  0
 23 38  1  0  0  0
M  END
> <s_m_entry_id>
5599

> <s_m_entry_name>
dock_pv.590

> <s_m_Source_Path>
/home/csk/Desktop/cluster/DUD-E-result/pgh1

> <s_m_Source_File>
dock_pv.maegz

> <i_m_Source_File_Index>
590

> <chembl_id>
CHEMBL23245

> <chembl_pref_name>
None

> <i_lp_mmshare_version>
53161

> <r_lp_tautomer_probability>
0.499977396165832

> <s_lp_Force_Field>
OPLS_2005

> <r_lp_Energy>
20.946199

> <b_lp_Chiralities_Consistent>
1

> <s_lp_Variant>
CHEMBL221_lig454-2

> <s_i_glide_gridfile>
glide-grid_2oyu

> <i_i_glide_lignum>
546

> <i_i_glide_rotatable_bonds>
3

> <r_i_docking_score>
-7.05861523061578

> <r_i_glide_ligand_efficiency>
-0.306896314374599

> <r_i_glide_ligand_efficiency_sa>
-0.872772293775876

> <r_i_glide_ligand_efficiency_ln>
-1.70683716674716

> <r_i_glide_gscore>
-7.05861523061578

> <r_i_glide_lipo>
-3.6313687945984

> <r_i_glide_hbond>
0

> <r_i_glide_metal>
0

> <r_i_glide_rewards>
-2.65767960578325

> <r_i_glide_evdw>
-5.36774730682373

> <r_i_glide_ecoul>
-5.55037212371826

> <r_i_glide_erotb>
0.344622388232458

> <r_i_glide_esite>
-0.0132460345676528

> <r_i_glide_emodel>
-37.5370313377322

> <r_i_glide_energy>
-10.918119430542

> <r_i_glide_einternal>
4.5673623085022

> <i_i_glide_confnum>
2

> <i_i_glide_posenum>
238

> <r_i_glide_eff_state_penalty>
0

> <s_user_duplicate_titles>
CHEMBL221_lig454

> <i_f3d_flags>
0

> <s_m_subgroup_title>
dock_pv

> <s_m_subgroupid>
dock_pv

> <b_m_subgroup_collapsed>
1

$$$$
CHEMBL221_lig250
                    3D
 Schrodinger Suite 2021-1.
 46 47  0  0  1  0            999 V2000
   20.9231   50.3139   12.7359 C   0  0  0  0  0  0
   20.6882   49.8818   11.4128 C   0  0  0  0  0  0
   19.8997   48.7556   11.1097 C   0  0  0  0  0  0
   19.3206   48.0385   12.1618 C   0  0  0  0  0  0
   19.7248   48.2727    9.6986 C   0  0  0  0  0  0
   20.1232   49.2232    8.5659 C   0  0  0  0  0  0
   19.3229   47.1530    9.3982 O   0  0  0  0  0  0
   19.7574   48.7235    7.1411 C   0  0  0  0  0  0
   20.2375   49.6508    6.0246 C   0  0  0  0  0  0
   21.7968   51.5692   13.0588 C   0  0  0  0  0  0
   22.5137   52.1336   11.8087 C   0  0  0  0  0  0
   22.9244   51.1910   14.0018 C   0  0  0  0  0  0
   21.0251   52.6743   13.8410 C   0  0  0  0  0  0
   20.3243   49.5395   13.7405 C   0  0  0  0  0  0
   19.5088   48.4542   13.4765 C   0  0  0  0  0  0
   18.9290   47.9398   14.7616 C   0  0  0  0  0  0
   19.5932   48.8974   15.7808 C   0  0  0  0  0  0
   20.4570   49.7863   15.0799 O   0  0  0  0  0  0
   19.3228   46.4801   15.0169 C   0  0  0  0  0  0
   17.3871   48.0594   14.7634 C   0  0  0  0  0  0
   21.1449   50.4034   10.5913 H   0  0  0  0  0  0
   18.7008   47.1762   11.9575 H   0  0  0  0  0  0
   19.7224   50.2204    8.7378 H   0  0  0  0  0  0
   21.1837   49.3286    8.7042 H   0  0  0  0  0  0
   20.1676   47.7272    6.9682 H   0  0  0  0  0  0
   18.6754   48.6162    7.0472 H   0  0  0  0  0  0
   19.8453   49.3333    5.0583 H   0  0  0  0  0  0
   19.8997   50.6706    6.2001 H   0  0  0  0  0  0
   21.3233   49.6513    5.9495 H   0  0  0  0  0  0
   21.8136   52.2721   10.9982 H   0  0  0  0  0  0
   23.0046   53.0867   12.0062 H   0  0  0  0  0  0
   23.2773   51.4489   11.4345 H   0  0  0  0  0  0
   22.5267   51.0719   15.0083 H   0  0  0  0  0  0
   23.3790   50.2727   13.6510 H   0  0  0  0  0  0
   23.7051   51.9514   14.0711 H   0  0  0  0  0  0
   20.7072   52.3148   14.8207 H   0  0  0  0  0  0
   21.6646   53.5381   14.0300 H   0  0  0  0  0  0
   20.1230   53.0651   13.3998 H   0  0  0  0  0  0
   18.8388   49.4712   16.3167 H   0  0  0  0  0  0
   20.1957   48.3768   16.5181 H   0  0  0  0  0  0
   18.7081   46.0488   15.7998 H   0  0  0  0  0  0
   20.3599   46.4018   15.3392 H   0  0  0  0  0  0
   19.1754   45.8687   14.1265 H   0  0  0  0  0  0
   16.9616   47.7790   15.7277 H   0  0  0  0  0  0
   17.0564   49.0714   14.5499 H   0  0  0  0  0  0
   16.9335   47.4179   14.0079 H   0  0  0  0  0  0
  1 10  1  0  0  0
  1  2  2  0  0  0
  1 14  1  0  0  0
  2  3  1  0  0  0
  2 21  1  0  0  0
  3  5  1  0  0  0
  3  4  2  0  0  0
  4 15  1  0  0  0
  4 22  1  0  0  0
  5  6  1  0  0  0
  5  7  2  0  0  0
  6  8  1  0  0  0
  6 23  1  0  0  0
  6 24  1  0  0  0
  8  9  1  0  0  0
  8 25  1  0  0  0
  8 26  1  0  0  0
  9 27  1  0  0  0
  9 28  1  0  0  0
  9 29  1  0  0  0
 10 11  1  0  0  0
 10 12  1  0  0  0
 10 13  1  0  0  0
 11 30  1  0  0  0
 11 31  1  0  0  0
 11 32  1  0  0  0
 12 33  1  0  0  0
 12 34  1  0  0  0
 12 35  1  0  0  0
 13 36  1  0  0  0
 13 37  1  0  0  0
 13 38  1  0  0  0
 14 15  2  0  0  0
 14 18  1  0  0  0
 15 16  1  0  0  0
 16 17  1  0  0  0
 16 19  1  0  0  0
 16 20  1  0  0  0
 17 18  1  0  0  0
 17 39  1  0  0  0
 17 40  1  0  0  0
 19 41  1  0  0  0
 19 42  1  0  0  0
 19 43  1  0  0  0
 20 44  1  0  0  0
 20 45  1  0  0  0
 20 46  1  0  0  0
M  END
> <s_m_entry_id>
5600

> <s_m_entry_name>
dock_pv.591

> <s_m_Source_Path>
/home/csk/Desktop/cluster/DUD-E-result/pgh1

> <s_m_Source_File>
dock_pv.maegz

> <i_m_Source_File_Index>
591

> <chembl_id>
CHEMBL13980

> <chembl_pref_name>
None

> <i_lp_mmshare_version>
53161

> <r_lp_tautomer_probability>
0.99990000499975

> <s_lp_Force_Field>
OPLS_2005

> <r_lp_Energy>
29.977741

> <b_lp_Chiralities_Consistent>
1

> <s_lp_Variant>
CHEMBL221_lig250-1

> <s_i_glide_gridfile>
glide-grid_2oyu

> <i_i_glide_lignum>
280

> <i_i_glide_rotatable_bonds>
4

> <r_i_docking_score>
-7.04699392559171

> <r_i_glide_ligand_efficiency>
-0.352349696279586

> <r_i_glide_ligand_efficiency_sa>
-0.956424221828109

> <r_i_glide_ligand_efficiency_ln>
-1.7636301541604

> <r_i_glide_gscore>
-7.04699392559171

> <r_i_glide_lipo>
-4.0112550044536

> <r_i_glide_hbond>
0

> <r_i_glide_metal>
0

> <r_i_glide_rewards>
-2.45905750583865

> <r_i_glide_evdw>
-20.1242866516113

> <r_i_glide_ecoul>
-0.316181272268295

> <r_i_glide_erotb>
0.47696010812135

> <r_i_glide_esite>
0

> <r_i_glide_emodel>
-19.7054362303742

> <r_i_glide_energy>
-20.4404679238796

> <r_i_glide_einternal>
2.14020848274231

> <i_i_glide_confnum>
6

> <i_i_glide_posenum>
313

> <r_i_glide_eff_state_penalty>
0

> <s_user_duplicate_titles>
CHEMBL221_lig250,13315

> <i_f3d_flags>
0

> <s_m_subgroup_title>
dock_pv

> <s_m_subgroupid>
dock_pv

> <b_m_subgroup_collapsed>
1

$$$$
CHEMBL221_lig394
                    3D
 Schrodinger Suite 2021-1.
 49 50  0  0  1  0            999 V2000
   20.1416   49.4457    8.8644 O   0  0  0  0  0  0
   19.8097   48.5932    9.8642 C   0  0  0  0  0  0
   19.3231   47.4723    9.3980 N   0  0  0  0  0  0
   19.3746   47.5499    8.0080 N   0  0  0  0  0  0
   19.8485   48.7414    7.7426 C   0  0  0  0  0  0
   19.7055   48.7010   13.6851 C   0  0  0  0  0  0
   21.1905   50.5056   12.8498 C   0  0  0  0  0  0
   20.5989   49.7841   13.9173 C   0  0  0  0  0  0
   20.0489   49.0008   11.2837 C   0  0  0  0  0  0
   20.9068   50.0580   11.5477 C   0  0  0  0  0  0
   19.4500   48.3409   12.3502 C   0  0  0  0  0  0
   22.1106   51.7641   13.0686 C   0  0  0  0  0  0
   19.0734   47.8552   14.8419 C   0  0  0  0  0  0
   20.1291   49.5822    6.2205 S   0  0  0  0  0  0
   20.9228   50.1277   15.2053 O   0  0  0  0  0  0
   18.0975   46.7608   14.3544 C   0  0  0  0  0  0
   18.2515   48.6833   15.8547 C   0  0  0  0  0  0
   23.3193   51.4733   13.9562 C   0  0  0  0  0  0
   21.3284   52.9224   13.7579 C   0  0  0  0  0  0
   20.1946   47.1157   15.5708 C   0  0  0  0  0  0
   22.7989   52.2365   11.7581 C   0  0  0  0  0  0
   19.1361   48.7072    5.0000 C   0  0  0  0  0  0
   17.7299   48.3229    5.3927 C   0  0  0  0  0  0
   21.3519   50.4995   10.6761 H   0  0  0  0  0  0
   18.7933   47.5217   12.1022 H   0  0  0  0  0  0
   20.4450   49.5932   15.8417 H   0  0  0  0  0  0
   18.5910   46.0217   13.7264 H   0  0  0  0  0  0
   17.6563   46.2037   15.1821 H   0  0  0  0  0  0
   17.2650   47.1974   13.8002 H   0  0  0  0  0  0
   18.8201   49.4712   16.3367 H   0  0  0  0  0  0
   17.3791   49.1335   15.3839 H   0  0  0  0  0  0
   17.8699   48.0573   16.6638 H   0  0  0  0  0  0
   24.1119   52.2206   13.8755 H   0  0  0  0  0  0
   23.7239   50.5166   13.6605 H   0  0  0  0  0  0
   23.0422   51.4726   14.9990 H   0  0  0  0  0  0
   20.3150   53.0671   13.4000 H   0  0  0  0  0  0
   21.2120   52.7450   14.8281 H   0  0  0  0  0  0
   21.8508   53.8758   13.6641 H   0  0  0  0  0  0
   20.7816   47.7874   16.1977 H   0  0  0  0  0  0
   19.8219   46.3070   16.1998 H   0  0  0  0  0  0
   20.8715   46.6732   14.8453 H   0  0  0  0  0  0
   22.1216   52.2742   10.9259 H   0  0  0  0  0  0
   23.2683   53.2148   11.8593 H   0  0  0  0  0  0
   23.5815   51.5446   11.4408 H   0  0  0  0  0  0
   18.9882   49.4286    4.2001 H   0  0  0  0  0  0
   19.7116   47.8724    4.6042 H   0  0  0  0  0  0
   17.1384   47.9971    4.5363 H   0  0  0  0  0  0
   17.7223   47.5342    6.1429 H   0  0  0  0  0  0
   17.2829   49.2288    5.7962 H   0  0  0  0  0  0
  1  2  1  0  0  0
  1  5  1  0  0  0
  2  3  2  0  0  0
  2  9  1  0  0  0
  3  4  1  0  0  0
  4  5  2  0  0  0
  5 14  1  0  0  0
  6 11  2  0  0  0
  6  8  1  0  0  0
  6 13  1  0  0  0
  7 10  1  0  0  0
  7 12  1  0  0  0
  7  8  2  0  0  0
  8 15  1  0  0  0
  9 10  2  0  0  0
  9 11  1  0  0  0
 10 24  1  0  0  0
 11 25  1  0  0  0
 12 18  1  0  0  0
 12 19  1  0  0  0
 12 21  1  0  0  0
 13 16  1  0  0  0
 13 17  1  0  0  0
 13 20  1  0  0  0
 14 22  1  0  0  0
 15 26  1  0  0  0
 16 27  1  0  0  0
 16 28  1  0  0  0
 16 29  1  0  0  0
 17 30  1  0  0  0
 17 31  1  0  0  0
 17 32  1  0  0  0
 18 33  1  0  0  0
 18 34  1  0  0  0
 18 35  1  0  0  0
 19 36  1  0  0  0
 19 37  1  0  0  0
 19 38  1  0  0  0
 20 39  1  0  0  0
 20 40  1  0  0  0
 20 41  1  0  0  0
 21 42  1  0  0  0
 21 43  1  0  0  0
 21 44  1  0  0  0
 22 23  1  0  0  0
 22 45  1  0  0  0
 22 46  1  0  0  0
 23 47  1  0  0  0
 23 48  1  0  0  0
 23 49  1  0  0  0
M  END
> <s_m_entry_id>
5601

> <s_m_entry_name>
dock_pv.592

> <s_m_Source_Path>
/home/csk/Desktop/cluster/DUD-E-result/pgh1

> <s_m_Source_File>
dock_pv.maegz

> <i_m_Source_File_Index>
592

> <chembl_id>
CHEMBL16819

> <chembl_pref_name>
None

> <i_lp_mmshare_version>
53161

> <r_lp_tautomer_probability>
0.999999999997365

> <s_lp_Force_Field>
OPLS_2005

> <r_lp_Energy>
22.222443

> <b_lp_Chiralities_Consistent>
1

> <s_lp_Variant>
CHEMBL221_lig394-1

> <s_i_glide_gridfile>
glide-grid_2oyu

> <i_i_glide_lignum>
461

> <i_i_glide_rotatable_bonds>
6

> <r_i_docking_score>
-7.0385821997497

> <r_i_glide_ligand_efficiency>
-0.306025313032596

> <r_i_glide_ligand_efficiency_sa>
-0.870295281822536

> <r_i_glide_ligand_efficiency_ln>
-1.70199299823426

> <r_i_glide_gscore>
-7.0385821997497

> <r_i_glide_lipo>
-4.03869165592529

> <r_i_glide_hbond>
0

> <r_i_glide_metal>
0

> <r_i_glide_rewards>
-1.77293898298074

> <r_i_glide_evdw>
-27.3709831237793

> <r_i_glide_ecoul>
-1.30388617515564

> <r_i_glide_erotb>
0.337180521618638

> <r_i_glide_esite>
0

> <r_i_glide_emodel>
-30.6894296760135

> <r_i_glide_energy>
-28.6748692989349

> <r_i_glide_einternal>
2.2469220161438

> <i_i_glide_confnum>
1

> <i_i_glide_posenum>
236

> <r_i_glide_eff_state_penalty>
0

> <s_user_duplicate_titles>
CHEMBL221_lig394

> <i_f3d_flags>
0

> <s_m_subgroup_title>
dock_pv

> <s_m_subgroupid>
dock_pv

> <b_m_subgroup_collapsed>
1

$$$$
CHEMBL221_lig618
                    3D
 Schrodinger Suite 2021-1.
 33 34  0  0  1  0            999 V2000
   19.5404   47.9820   11.4017 C   0  0  0  0  0  0
   19.7230   48.2733   10.0508 C   0  0  0  0  0  0
   20.2967   49.4225    9.6199 N   0  0  0  0  0  0
   20.7272   50.3006   10.5577 C   0  0  0  0  0  0
   20.6365   50.0646   11.9361 C   0  0  0  0  0  0
   19.9876   48.8974   12.3619 C   0  0  0  0  0  0
   19.7892   48.6865   13.7332 N   0  0  0  0  0  0
   18.4968   47.6487   14.3397 S   0  0  0  0  0  0
   18.5553   47.9251   16.1964 C   0  0  0  0  0  0
   18.9230   46.2727   14.0740 O   0  0  0  0  0  0
   17.2410   48.1691   13.7921 O   0  0  0  0  0  0
   21.1056   50.9629   12.8738 O   0  0  0  0  0  0
   22.3035   51.6320   12.7247 C   0  0  0  0  0  0
   22.4658   52.7961   13.4736 C   0  0  0  0  0  0
   23.6509   53.5200   13.3996 C   0  0  0  0  0  0
   24.6778   53.0742   12.5721 C   0  0  0  0  0  0
   24.5228   51.9261   11.8002 C   0  0  0  0  0  0
   23.3490   51.1868   11.9018 C   0  0  0  0  0  0
   17.3231   48.6717   16.7053 C   0  0  0  0  0  0
   19.0365   47.0730   11.6844 H   0  0  0  0  0  0
   19.3769   47.5919    9.2868 H   0  0  0  0  0  0
   21.1675   51.2124   10.1853 H   0  0  0  0  0  0
   20.0321   49.4749   14.3131 H   0  0  0  0  0  0
   19.4815   48.4476   16.4303 H   0  0  0  0  0  0
   18.5985   46.9334   16.6339 H   0  0  0  0  0  0
   21.6695   53.1384   14.1181 H   0  0  0  0  0  0
   23.7715   54.4246   13.9794 H   0  0  0  0  0  0
   25.5976   53.6379   12.5152 H   0  0  0  0  0  0
   25.3179   51.5949   11.1472 H   0  0  0  0  0  0
   23.2624   50.2733   11.3341 H   0  0  0  0  0  0
   17.3170   48.7078   17.7944 H   0  0  0  0  0  0
   16.4021   48.1893   16.3839 H   0  0  0  0  0  0
   17.3230   49.6976   16.3424 H   0  0  0  0  0  0
  1  6  1  0  0  0
  1  2  2  0  0  0
  1 20  1  0  0  0
  2  3  1  0  0  0
  2 21  1  0  0  0
  3  4  2  0  0  0
  4  5  1  0  0  0
  4 22  1  0  0  0
  5  6  2  0  0  0
  5 12  1  0  0  0
  6  7  1  0  0  0
  7  8  1  0  0  0
  7 23  1  0  0  0
  8 10  2  0  0  0
  8 11  2  0  0  0
  8  9  1  0  0  0
  9 19  1  0  0  0
  9 24  1  0  0  0
  9 25  1  0  0  0
 12 13  1  0  0  0
 13 14  2  0  0  0
 13 18  1  0  0  0
 14 15  1  0  0  0
 14 26  1  0  0  0
 15 16  2  0  0  0
 15 27  1  0  0  0
 16 17  1  0  0  0
 16 28  1  0  0  0
 17 18  2  0  0  0
 17 29  1  0  0  0
 18 30  1  0  0  0
 19 31  1  0  0  0
 19 32  1  0  0  0
 19 33  1  0  0  0
M  END
> <s_m_entry_id>
5602

> <s_m_entry_name>
dock_pv.593

> <s_m_Source_Path>
/home/csk/Desktop/cluster/DUD-E-result/pgh1

> <s_m_Source_File>
dock_pv.maegz

> <i_m_Source_File_Index>
593

> <chembl_id>
CHEMBL376143

> <chembl_pref_name>
None

> <i_lp_mmshare_version>
53161

> <r_lp_tautomer_probability>
1

> <s_lp_Force_Field>
OPLS_2005

> <r_lp_Energy>
6.002282

> <b_lp_Chiralities_Consistent>
1

> <s_lp_Variant>
CHEMBL221_lig618-1

> <s_i_glide_gridfile>
glide-grid_2oyu

> <i_i_glide_lignum>
757

> <i_i_glide_rotatable_bonds>
5

> <r_i_docking_score>
-7.0384134802316

> <r_i_glide_ligand_efficiency>
-0.370442814749032

> <r_i_glide_ligand_efficiency_sa>
-0.988490216663331

> <r_i_glide_ligand_efficiency_ln>
-1.7843889884992

> <r_i_glide_gscore>
-7.0384134802316

> <r_i_glide_lipo>
-3.90720603328967

> <r_i_glide_hbond>
0

> <r_i_glide_metal>
0

> <r_i_glide_rewards>
-2.12824155595544

> <r_i_glide_evdw>
-35.4405517578125

> <r_i_glide_ecoul>
-1.02040016651154

> <r_i_glide_erotb>
0.930681479200351

> <r_i_glide_esite>
-0.00855975731949534

> <r_i_glide_emodel>
-48.3754495274373

> <r_i_glide_energy>
-36.460951924324

> <r_i_glide_einternal>
7.30431461334229

> <i_i_glide_confnum>
3

> <i_i_glide_posenum>
46

> <r_i_glide_eff_state_penalty>
0

> <s_user_duplicate_titles>
CHEMBL221_lig618

> <i_f3d_flags>
0

> <s_m_subgroup_title>
dock_pv

> <s_m_subgroupid>
dock_pv

> <b_m_subgroup_collapsed>
1

$$$$
CHEMBL221_lig558
                    3D
 Schrodinger Suite 2021-1.
 46 48  0  0  1  0            999 V2000
   20.4218   49.6973   13.7207 C   0  0  0  0  0  0
   21.0923   50.5685   12.8721 C   0  0  0  0  0  0
   19.5809   48.6731   13.2687 C   0  0  0  0  0  0
   20.6652   49.9530   15.0369 O   0  0  0  0  0  0
   20.2392   49.3051   10.9857 C   0  0  0  0  0  0
   20.1230   49.0423    9.5052 C   0  0  0  0  0  0
   21.0012   50.3734   11.4934 C   0  0  0  0  0  0
   19.5523   48.4705   11.8801 C   0  0  0  0  0  0
   20.1230   50.1383    8.7306 N   0  0  0  0  0  0
   21.8777   51.5578   13.7044 C   0  0  0  0  0  0
   20.0125   50.2684    7.2680 C   0  0  0  0  0  0
   18.6502   47.8163   14.1712 C   0  0  0  0  0  0
   21.3624   51.1756   15.1125 C   0  0  0  0  0  0
   20.5180   49.2179    6.2949 C   0  0  0  0  0  0
   19.0395   49.4089    6.4853 C   0  0  0  0  0  0
   19.9355   47.9036    9.0727 O   0  0  0  0  0  0
   21.5962   53.0544   13.4739 C   0  0  0  0  0  0
   23.3819   51.3292   13.4867 C   0  0  0  0  0  0
   18.7204   48.1208   15.6922 C   0  0  0  0  0  0
   19.0340   46.3425   14.0247 C   0  0  0  0  0  0
   17.1844   48.0419   13.7472 C   0  0  0  0  0  0
   21.5467   51.0280   10.8282 H   0  0  0  0  0  0
   18.9389   47.6741   11.4800 H   0  0  0  0  0  0
   20.1861   51.0175    9.2191 H   0  0  0  0  0  0
   20.1230   51.3075    6.9583 H   0  0  0  0  0  0
   22.1230   51.0730   15.8629 H   0  0  0  0  0  0
   20.6543   51.9182   15.4863 H   0  0  0  0  0  0
   20.9845   49.5547    5.3692 H   0  0  0  0  0  0
   20.9230   48.2729    6.6353 H   0  0  0  0  0  0
   18.4925   48.6215    6.9994 H   0  0  0  0  0  0
   18.4496   49.8736    5.6969 H   0  0  0  0  0  0
   21.9696   53.6487   14.3101 H   0  0  0  0  0  0
   20.5288   53.2570   13.4000 H   0  0  0  0  0  0
   22.1205   53.4384   12.5998 H   0  0  0  0  0  0
   23.9758   51.7782   14.2824 H   0  0  0  0  0  0
   23.6204   50.2730   13.4000 H   0  0  0  0  0  0
   23.7212   51.7735   12.5498 H   0  0  0  0  0  0
   18.4184   49.1389   15.9234 H   0  0  0  0  0  0
   18.0526   47.4732   16.2622 H   0  0  0  0  0  0
   19.7205   47.9652   16.0963 H   0  0  0  0  0  0
   18.9689   45.9798   13.0000 H   0  0  0  0  0  0
   20.0656   46.2730   14.3534 H   0  0  0  0  0  0
   18.4267   45.6844   14.6483 H   0  0  0  0  0  0
   17.0094   47.8730   12.6859 H   0  0  0  0  0  0
   16.4995   47.4008   14.3017 H   0  0  0  0  0  0
   16.9035   49.0730   13.9398 H   0  0  0  0  0  0
  1  2  2  0  0  0
  1  3  1  0  0  0
  1  4  1  0  0  0
  2  7  1  0  0  0
  2 10  1  0  0  0
  3  8  2  0  0  0
  3 12  1  0  0  0
  4 13  1  0  0  0
  5  8  1  0  0  0
  5  6  1  0  0  0
  5  7  2  0  0  0
  6  9  1  0  0  0
  6 16  2  0  0  0
  7 22  1  0  0  0
  8 23  1  0  0  0
  9 11  1  0  0  0
  9 24  1  0  0  0
 10 17  1  0  0  0
 10 18  1  0  0  0
 10 13  1  0  0  0
 11 14  1  0  0  0
 11 15  1  0  0  0
 11 25  1  0  0  0
 12 19  1  0  0  0
 12 20  1  0  0  0
 12 21  1  0  0  0
 13 26  1  0  0  0
 13 27  1  0  0  0
 14 15  1  0  0  0
 14 28  1  0  0  0
 14 29  1  0  0  0
 15 30  1  0  0  0
 15 31  1  0  0  0
 17 32  1  0  0  0
 17 33  1  0  0  0
 17 34  1  0  0  0
 18 35  1  0  0  0
 18 36  1  0  0  0
 18 37  1  0  0  0
 19 38  1  0  0  0
 19 39  1  0  0  0
 19 40  1  0  0  0
 20 41  1  0  0  0
 20 42  1  0  0  0
 20 43  1  0  0  0
 21 44  1  0  0  0
 21 45  1  0  0  0
 21 46  1  0  0  0
M  END
> <s_m_entry_id>
5603

> <s_m_entry_name>
dock_pv.594

> <s_m_Source_Path>
/home/csk/Desktop/cluster/DUD-E-result/pgh1

> <s_m_Source_File>
dock_pv.maegz

> <i_m_Source_File_Index>
594

> <chembl_id>
CHEMBL119170

> <chembl_pref_name>
None

> <i_lp_mmshare_version>
53161

> <r_lp_tautomer_probability>
1

> <s_lp_Force_Field>
OPLS_2005

> <r_lp_Energy>
37.927338

> <b_lp_Chiralities_Consistent>
1

> <s_lp_Variant>
CHEMBL221_lig558-1

> <s_i_glide_gridfile>
glide-grid_2oyu

> <i_i_glide_lignum>
696

> <i_i_glide_rotatable_bonds>
4

> <r_i_docking_score>
-7.03144908496225

> <r_i_glide_ligand_efficiency>
-0.334830908807726

> <r_i_glide_ligand_efficiency_sa>
-0.923773088371816

> <r_i_glide_ligand_efficiency_ln>
-1.7385115778762

> <r_i_glide_gscore>
-7.03144908496225

> <r_i_glide_lipo>
-3.84836285668492

> <r_i_glide_hbond>
0

> <r_i_glide_metal>
0

> <r_i_glide_rewards>
-2.2666619668156

> <r_i_glide_evdw>
-25.5261726379395

> <r_i_glide_ecoul>
-2.00184464454651

> <r_i_glide_erotb>
0.660161067117219

> <r_i_glide_esite>
0

> <r_i_glide_emodel>
-24.9142751630228

> <r_i_glide_energy>
-27.528017282486

> <r_i_glide_einternal>
6.48298788070679

> <i_i_glide_confnum>
4

> <i_i_glide_posenum>
179

> <r_i_glide_eff_state_penalty>
0

> <s_user_duplicate_titles>
CHEMBL221_lig558,193720

> <i_f3d_flags>
0

> <s_m_subgroup_title>
dock_pv

> <s_m_subgroupid>
dock_pv

> <b_m_subgroup_collapsed>
1

$$$$
CHEMBL221_lig835
                    3D
 Schrodinger Suite 2021-1.
 27 28  0  0  1  0            999 V2000
   18.7979   48.2822   15.5858 C   0  0  0  0  0  0
   18.5131   47.3547   14.5846 C   0  0  0  0  0  0
   19.2231   47.3655   13.3911 C   0  0  0  0  0  0
   19.8464   49.2218   15.4048 C   0  0  0  0  0  0
   20.5242   49.2526   14.1760 C   0  0  0  0  0  0
   20.2092   48.3168   13.1949 C   0  0  0  0  0  0
   20.9218   48.2548   12.0208 O   0  0  0  0  0  0
   21.3944   49.4950   11.4582 C   0  0  2  0  0  0
   21.9517   50.4374   12.5396 C   0  0  0  0  0  0
   21.5177   50.2799   13.8060 C   0  0  0  0  0  0
   20.2821   50.1345   10.6049 C   0  0  0  0  0  0
   19.3232   50.6928   11.3436 F   0  0  0  0  0  0
   20.7636   51.0728    9.8023 F   0  0  0  0  0  0
   19.7234   49.2059    9.8303 F   0  0  0  0  0  0
   22.9692   51.4021   12.1565 C   0  0  0  0  0  0
   23.1915   52.3706   13.0893 O   0  0  0  0  0  0
   23.5833   51.3671   11.0945 O   0  0  0  0  0  0
   17.7230   48.2729   16.9484 Cl  0  0  0  0  0  0
   20.1230   50.3578   16.3991 C   0  0  0  0  0  0
   17.7071   46.6497   14.7209 H   0  0  0  0  0  0
   18.9917   46.6729   12.6002 H   0  0  0  0  0  0
   22.1985   49.2018   10.7833 H   0  0  0  0  0  0
   21.9307   50.9127   14.5783 H   0  0  0  0  0  0
   23.8654   52.9775   12.7779 H   0  0  0  0  0  0
   19.2475   50.5536   17.0001 H   0  0  0  0  0  0
   21.0185   50.2729   16.9998 H   0  0  0  0  0  0
   20.2541   51.3062   15.8795 H   0  0  0  0  0  0
  1  2  2  0  0  0
  1  4  1  0  0  0
  1 18  1  0  0  0
  2  3  1  0  0  0
  2 20  1  0  0  0
  3  6  2  0  0  0
  3 21  1  0  0  0
  4  5  2  0  0  0
  4 19  1  0  0  0
  5  6  1  0  0  0
  5 10  1  0  0  0
  6  7  1  0  0  0
  7  8  1  0  0  0
  8  9  1  0  0  0
  8 11  1  0  0  0
  8 22  1  0  0  0
  9 10  2  0  0  0
  9 15  1  0  0  0
 10 23  1  0  0  0
 11 12  1  0  0  0
 11 13  1  0  0  0
 11 14  1  0  0  0
 15 16  1  0  0  0
 15 17  2  0  0  0
 16 24  1  0  0  0
 19 25  1  0  0  0
 19 26  1  0  0  0
 19 27  1  0  0  0
M  END
> <s_m_entry_id>
5604

> <s_m_entry_name>
dock_pv.595

> <s_m_Source_Path>
/home/csk/Desktop/cluster/DUD-E-result/pgh1

> <s_m_Source_File>
dock_pv.maegz

> <i_m_Source_File_Index>
595

> <chembl_id>
CHEMBL1630232

> <chembl_pref_name>
None

> <i_lp_mmshare_version>
53161

> <r_lp_tautomer_probability>
1

> <s_lp_Force_Field>
OPLS_2005

> <r_lp_Energy>
14.000037

> <b_lp_Chiralities_Consistent>
1

> <s_lp_Variant>
CHEMBL221_lig835-1

> <s_i_glide_gridfile>
glide-grid_2oyu

> <i_i_glide_lignum>
1021

> <i_i_glide_rotatable_bonds>
3

> <r_i_docking_score>
-7.02817751144528

> <r_i_glide_ligand_efficiency>
-0.369904079549752

> <r_i_glide_ligand_efficiency_sa>
-0.987052654770758

> <r_i_glide_ligand_efficiency_ln>
-1.78179395056341

> <r_i_glide_gscore>
-7.02817751144528

> <r_i_glide_lipo>
-2.81913425967098

> <r_i_glide_hbond>
0

> <r_i_glide_metal>
0

> <r_i_glide_rewards>
-3.45386175530591

> <r_i_glide_evdw>
-19.9635372161865

> <r_i_glide_ecoul>
0.198453262448311

> <r_i_glide_erotb>
0.213227374973688

> <r_i_glide_esite>
0

> <r_i_glide_emodel>
-23.7432031156522

> <r_i_glide_energy>
-19.7650839537382

> <r_i_glide_einternal>
0.178060501813889

> <i_i_glide_confnum>
1

> <i_i_glide_posenum>
386

> <r_i_glide_eff_state_penalty>
0

> <s_user_duplicate_titles>
CHEMBL221_lig835

> <i_f3d_flags>
0

> <s_m_subgroup_title>
dock_pv

> <s_m_subgroupid>
dock_pv

> <b_m_subgroup_collapsed>
1

$$$$
CHEMBL221_lig628
                    3D
 Schrodinger Suite 2021-1.
 30 31  0  0  1  0            999 V2000
   19.4906   48.2659   11.3276 C   0  0  0  0  0  0
   19.7230   48.5892    9.9949 C   0  0  0  0  0  0
   20.3614   49.7222    9.6203 N   0  0  0  0  0  0
   20.7957   50.5501   10.5999 C   0  0  0  0  0  0
   20.6632   50.2654   11.9645 C   0  0  0  0  0  0
   19.9792   49.1031   12.3345 C   0  0  0  0  0  0
   19.8179   48.8341   13.7013 N   0  0  0  0  0  0
   18.9994   47.4308   14.3767 S   0  0  0  0  0  0
   17.1903   47.8727   14.2070 C   0  0  0  0  0  0
   19.3235   47.4259   15.7999 O   0  0  0  0  0  0
   19.3229   46.2734   13.5409 O   0  0  0  0  0  0
   21.1220   51.1082   12.9527 O   0  0  0  0  0  0
   22.2516   51.8739   12.7996 C   0  0  0  0  0  0
   22.2621   53.0991   13.4557 C   0  0  0  0  0  0
   23.3892   53.9046   13.4002 C   0  0  0  0  0  0
   24.5212   53.4717   12.7252 C   0  0  0  0  0  0
   24.4929   52.2819   11.9987 C   0  0  0  0  0  0
   23.3698   51.4643   12.0620 C   0  0  0  0  0  0
   25.9603   54.4125   12.8390 Cl  0  0  0  0  0  0
   18.9231   47.3862   11.5485 H   0  0  0  0  0  0
   19.3721   47.9430    9.2023 H   0  0  0  0  0  0
   21.2664   51.4631   10.2775 H   0  0  0  0  0  0
   20.1814   49.5159   14.3500 H   0  0  0  0  0  0
   16.5902   47.0145   14.4971 H   0  0  0  0  0  0
   16.9767   48.1802   13.1853 H   0  0  0  0  0  0
   16.9825   48.6741   14.9036 H   0  0  0  0  0  0
   21.4010   53.4166   14.0240 H   0  0  0  0  0  0
   23.4037   54.8407   13.9377 H   0  0  0  0  0  0
   25.3320   51.9740   11.3996 H   0  0  0  0  0  0
   23.3765   50.5155   11.5468 H   0  0  0  0  0  0
  1  6  1  0  0  0
  1  2  2  0  0  0
  1 20  1  0  0  0
  2  3  1  0  0  0
  2 21  1  0  0  0
  3  4  2  0  0  0
  4  5  1  0  0  0
  4 22  1  0  0  0
  5  6  2  0  0  0
  5 12  1  0  0  0
  6  7  1  0  0  0
  7  8  1  0  0  0
  7 23  1  0  0  0
  8 10  2  0  0  0
  8 11  2  0  0  0
  8  9  1  0  0  0
  9 24  1  0  0  0
  9 25  1  0  0  0
  9 26  1  0  0  0
 12 13  1  0  0  0
 13 14  2  0  0  0
 13 18  1  0  0  0
 14 15  1  0  0  0
 14 27  1  0  0  0
 15 16  2  0  0  0
 15 28  1  0  0  0
 16 17  1  0  0  0
 16 19  1  0  0  0
 17 18  2  0  0  0
 17 29  1  0  0  0
 18 30  1  0  0  0
M  END
> <s_m_entry_id>
5605

> <s_m_entry_name>
dock_pv.596

> <s_m_Source_Path>
/home/csk/Desktop/cluster/DUD-E-result/pgh1

> <s_m_Source_File>
dock_pv.maegz

> <i_m_Source_File_Index>
596

> <chembl_id>
CHEMBL388625

> <chembl_pref_name>
None

> <i_lp_mmshare_version>
53161

> <r_lp_tautomer_probability>
1

> <s_lp_Force_Field>
OPLS_2005

> <r_lp_Energy>
4.860844

> <b_lp_Chiralities_Consistent>
1

> <s_lp_Variant>
CHEMBL221_lig628-1

> <s_i_glide_gridfile>
glide-grid_2oyu

> <i_i_glide_lignum>
767

> <i_i_glide_rotatable_bonds>
4

> <r_i_docking_score>
-7.02544072759762

> <r_i_glide_ligand_efficiency>
-0.369760038294611

> <r_i_glide_ligand_efficiency_sa>
-0.986668294848436

> <r_i_glide_ligand_efficiency_ln>
-1.7811001170773

> <r_i_glide_gscore>
-7.02544072759762

> <r_i_glide_lipo>
-3.63671206050612

> <r_i_glide_hbond>
0

> <r_i_glide_metal>
0

> <r_i_glide_rewards>
-1.87821177374961

> <r_i_glide_evdw>
-32.944694519043

> <r_i_glide_ecoul>
-2.82093811035156

> <r_i_glide_erotb>
0.617005163901103

> <r_i_glide_esite>
-0.0571466147381055

> <r_i_glide_emodel>
-49.8035876589791

> <r_i_glide_energy>
-35.7656326293945

> <r_i_glide_einternal>
0.294856607913971

> <i_i_glide_confnum>
8

> <i_i_glide_posenum>
270

> <r_i_glide_eff_state_penalty>
0

> <s_user_duplicate_titles>
CHEMBL221_lig628

> <i_f3d_flags>
0

> <s_m_subgroup_title>
dock_pv

> <s_m_subgroupid>
dock_pv

> <b_m_subgroup_collapsed>
1

$$$$
CHEMBL221_lig613
                    3D
 Schrodinger Suite 2021-1.
 34 35  0  0  1  0            999 V2000
   19.6349   48.2713   11.3903 C   0  0  0  0  0  0
   19.7233   48.7603   10.0950 C   0  0  0  0  0  0
   20.2622   49.9618    9.7999 N   0  0  0  0  0  0
   20.7885   50.6727   10.8215 C   0  0  0  0  0  0
   20.8421   50.2305   12.1542 C   0  0  0  0  0  0
   20.1904   49.0048   12.4506 C   0  0  0  0  0  0
   20.1541   48.5149   13.7683 N   0  0  0  0  0  0
   19.1665   47.1756   14.3631 S   0  0  0  0  0  0
   17.3886   47.8450   14.3440 C   0  0  0  0  0  0
   19.5686   46.9673   15.7555 O   0  0  0  0  0  0
   19.3228   46.0857   13.3998 O   0  0  0  0  0  0
   21.5949   50.9959   13.0916 N   0  0  0  0  0  0
   22.7688   51.7394   12.7756 C   0  0  0  0  0  0
   23.5958   51.3192   11.7217 C   0  0  0  0  0  0
   24.7551   52.0111   11.4004 C   0  0  0  0  0  0
   25.1623   53.0730   12.2003 C   0  0  0  0  0  0
   24.3516   53.5327   13.2257 C   0  0  0  0  0  0
   23.1544   52.8806   13.4966 C   0  0  0  0  0  0
   17.1001   48.2731   13.1165 F   0  0  0  0  0  0
   17.3232   48.8442   15.2221 F   0  0  0  0  0  0
   16.5693   46.8566   14.7019 F   0  0  0  0  0  0
   20.9432   51.3363   14.3667 C   0  0  0  0  0  0
   19.1325   47.3291   11.5133 H   0  0  0  0  0  0
   19.3221   48.1996    9.2633 H   0  0  0  0  0  0
   21.2220   51.6184   10.5388 H   0  0  0  0  0  0
   20.6211   49.0753   14.4644 H   0  0  0  0  0  0
   23.3583   50.4397   11.1434 H   0  0  0  0  0  0
   25.3671   51.6801   10.5782 H   0  0  0  0  0  0
   26.1137   53.5492   12.0102 H   0  0  0  0  0  0
   24.6486   54.3906   13.8111 H   0  0  0  0  0  0
   22.5534   53.2726   14.3023 H   0  0  0  0  0  0
   21.6619   51.3148   15.1870 H   0  0  0  0  0  0
   20.5239   52.3405   14.3102 H   0  0  0  0  0  0
   20.1233   50.6851   14.6534 H   0  0  0  0  0  0
  1  6  1  0  0  0
  1  2  2  0  0  0
  1 23  1  0  0  0
  2  3  1  0  0  0
  2 24  1  0  0  0
  3  4  2  0  0  0
  4  5  1  0  0  0
  4 25  1  0  0  0
  5  6  2  0  0  0
  5 12  1  0  0  0
  6  7  1  0  0  0
  7  8  1  0  0  0
  7 26  1  0  0  0
  8 11  2  0  0  0
  8  9  1  0  0  0
  8 10  2  0  0  0
  9 19  1  0  0  0
  9 20  1  0  0  0
  9 21  1  0  0  0
 12 13  1  0  0  0
 12 22  1  0  0  0
 13 14  2  0  0  0
 13 18  1  0  0  0
 14 15  1  0  0  0
 14 27  1  0  0  0
 15 16  2  0  0  0
 15 28  1  0  0  0
 16 17  1  0  0  0
 16 29  1  0  0  0
 17 18  2  0  0  0
 17 30  1  0  0  0
 18 31  1  0  0  0
 22 32  1  0  0  0
 22 33  1  0  0  0
 22 34  1  0  0  0
M  END
> <s_m_entry_id>
5606

> <s_m_entry_name>
dock_pv.597

> <s_m_Source_Path>
/home/csk/Desktop/cluster/DUD-E-result/pgh1

> <s_m_Source_File>
dock_pv.maegz

> <i_m_Source_File_Index>
597

> <chembl_id>
CHEMBL224401

> <chembl_pref_name>
None

> <i_lp_mmshare_version>
53161

> <r_lp_tautomer_probability>
1

> <s_lp_Force_Field>
OPLS_2005

> <r_lp_Energy>
12.826725

> <b_lp_Chiralities_Consistent>
1

> <s_lp_Variant>
CHEMBL221_lig613-1

> <s_i_glide_gridfile>
glide-grid_2oyu

> <i_i_glide_lignum>
752

> <i_i_glide_rotatable_bonds>
5

> <r_i_docking_score>
-7.0195292246652

> <r_i_glide_ligand_efficiency>
-0.319069510212054

> <r_i_glide_ligand_efficiency_sa>
-0.89404531590595

> <r_i_glide_ligand_efficiency_ln>
-1.7158289860578

> <r_i_glide_gscore>
-7.0195292246652

> <r_i_glide_lipo>
-3.89263847919196

> <r_i_glide_hbond>
0

> <r_i_glide_metal>
0

> <r_i_glide_rewards>
-1.89551399465819

> <r_i_glide_evdw>
-29.5092754364014

> <r_i_glide_ecoul>
-2.36228609085083

> <r_i_glide_erotb>
0.685790712688168

> <r_i_glide_esite>
-0.0873607780555274

> <r_i_glide_emodel>
-40.1221532646765

> <r_i_glide_energy>
-31.8715615272522

> <r_i_glide_einternal>
10.3358497619629

> <i_i_glide_confnum>
63

> <i_i_glide_posenum>
177

> <r_i_glide_eff_state_penalty>
0

> <s_user_duplicate_titles>
CHEMBL221_lig613

> <i_f3d_flags>
0

> <s_m_subgroup_title>
dock_pv

> <s_m_subgroupid>
dock_pv

> <b_m_subgroup_collapsed>
1

$$$$
CHEMBL221_lig844
                    3D
 Schrodinger Suite 2021-1.
 33 34  0  0  1  0            999 V2000
   18.4500   48.1518   15.8914 C   0  0  0  0  0  0
   18.2745   47.1996   14.8754 C   0  0  0  0  0  0
   19.1046   47.2403   13.7479 C   0  0  0  0  0  0
   19.5012   49.0730   15.8000 C   0  0  0  0  0  0
   20.2868   49.1406   14.6495 C   0  0  0  0  0  0
   20.0830   48.2194   13.6264 C   0  0  0  0  0  0
   20.8649   48.2166   12.4867 O   0  0  0  0  0  0
   21.4028   49.4846   12.0288 C   0  0  2  0  0  0
   21.7464   50.4552   13.1869 C   0  0  0  0  0  0
   21.2186   50.2400   14.4102 C   0  0  0  0  0  0
   20.4809   50.1083   10.9499 C   0  0  0  0  0  0
   19.3684   50.6344   11.4610 F   0  0  0  0  0  0
   21.0949   51.0730   10.2748 F   0  0  0  0  0  0
   20.1230   49.1905   10.0518 F   0  0  0  0  0  0
   22.6955   51.5237   12.9292 C   0  0  0  0  0  0
   22.5890   52.5664   13.8000 O   0  0  0  0  0  0
   23.5175   51.5087   12.0176 O   0  0  0  0  0  0
   17.3230   48.2730   17.2103 Cl  0  0  0  0  0  0
   17.1279   46.1973   14.9140 C   0  0  0  0  0  0
   17.5233   44.7055   14.6277 C   0  0  0  0  0  0
   16.2817   43.8250   14.3768 C   0  0  0  0  0  0
   18.9609   46.5526   12.9323 H   0  0  0  0  0  0
   19.6508   49.8097   16.5788 H   0  0  0  0  0  0
   22.3328   49.2059   11.5292 H   0  0  0  0  0  0
   21.4704   50.8892   15.2387 H   0  0  0  0  0  0
   23.2447   53.2399   13.6076 H   0  0  0  0  0  0
   16.4070   46.5889   14.2000 H   0  0  0  0  0  0
   16.5230   46.2729   15.8000 H   0  0  0  0  0  0
   18.1196   44.3001   15.4271 H   0  0  0  0  0  0
   18.2191   44.5959   13.8000 H   0  0  0  0  0  0
   16.4903   42.7738   14.5754 H   0  0  0  0  0  0
   15.9089   43.8730   13.3616 H   0  0  0  0  0  0
   15.4468   44.1383   15.0000 H   0  0  0  0  0  0
  1  2  2  0  0  0
  1  4  1  0  0  0
  1 18  1  0  0  0
  2  3  1  0  0  0
  2 19  1  0  0  0
  3  6  2  0  0  0
  3 22  1  0  0  0
  4  5  2  0  0  0
  4 23  1  0  0  0
  5  6  1  0  0  0
  5 10  1  0  0  0
  6  7  1  0  0  0
  7  8  1  0  0  0
  8 11  1  0  0  0
  8  9  1  0  0  0
  8 24  1  0  0  0
  9 10  2  0  0  0
  9 15  1  0  0  0
 10 25  1  0  0  0
 11 12  1  0  0  0
 11 13  1  0  0  0
 11 14  1  0  0  0
 15 16  1  0  0  0
 15 17  2  0  0  0
 16 26  1  0  0  0
 19 20  1  0  0  0
 19 27  1  0  0  0
 19 28  1  0  0  0
 20 21  1  0  0  0
 20 29  1  0  0  0
 20 30  1  0  0  0
 21 31  1  0  0  0
 21 32  1  0  0  0
 21 33  1  0  0  0
M  END
> <s_m_entry_id>
5607

> <s_m_entry_name>
dock_pv.598

> <s_m_Source_Path>
/home/csk/Desktop/cluster/DUD-E-result/pgh1

> <s_m_Source_File>
dock_pv.maegz

> <i_m_Source_File_Index>
598

> <chembl_id>
CHEMBL1630249

> <chembl_pref_name>
None

> <i_lp_mmshare_version>
53161

> <r_lp_tautomer_probability>
1

> <s_lp_Force_Field>
OPLS_2005

> <r_lp_Energy>
12.524995

> <b_lp_Chiralities_Consistent>
1

> <s_lp_Variant>
CHEMBL221_lig844-1

> <s_i_glide_gridfile>
glide-grid_2oyu

> <i_i_glide_lignum>
1036

> <i_i_glide_rotatable_bonds>
5

> <r_i_docking_score>
-7.01845787630956

> <r_i_glide_ligand_efficiency>
-0.334212279824265

> <r_i_glide_ligand_efficiency_sa>
-0.922066337914866

> <r_i_glide_ligand_efficiency_ln>
-1.73529952778803

> <r_i_glide_gscore>
-7.01845787630956

> <r_i_glide_lipo>
-2.68168830995616

> <r_i_glide_hbond>
0

> <r_i_glide_metal>
0

> <r_i_glide_rewards>
-3.69187257276719

> <r_i_glide_evdw>
-17.8062973022461

> <r_i_glide_ecoul>
-0.785213053226471

> <r_i_glide_erotb>
0.363199829510062

> <r_i_glide_esite>
0

> <r_i_glide_emodel>
-17.9610310601272

> <r_i_glide_energy>
-18.5915103554726

> <r_i_glide_einternal>
3.17885065078735

> <i_i_glide_confnum>
3

> <i_i_glide_posenum>
108

> <r_i_glide_eff_state_penalty>
0

> <s_user_duplicate_titles>
CHEMBL221_lig844

> <i_f3d_flags>
0

> <s_m_subgroup_title>
dock_pv

> <s_m_subgroupid>
dock_pv

> <b_m_subgroup_collapsed>
1

$$$$
CHEMBL221_lig851
                    3D
 Schrodinger Suite 2021-1.
 38 40  0  0  1  0            999 V2000
   22.0122   50.7709   13.6433 C   0  0  0  0  0  0
   21.6374   50.3197   12.3874 C   0  0  0  0  0  0
   20.5378   49.4687   12.1979 C   0  0  0  0  0  0
   21.3201   50.3255   14.7627 C   0  0  0  0  0  0
   23.3230   51.8742   13.8099 Cl  0  0  0  0  0  0
   20.2849   49.4058   14.6263 C   0  0  0  0  0  0
   19.8487   49.0171   13.3477 C   0  0  0  0  0  0
   18.6337   48.3552   13.2181 O   0  0  0  0  0  0
   18.0822   47.6653   14.3851 C   0  0  2  0  0  0
   18.3262   48.4428   15.6846 C   0  0  0  0  0  0
   19.4982   49.0730   15.7994 C   0  0  0  0  0  0
   18.7163   46.2742   14.5596 C   0  0  0  0  0  0
   17.8424   45.3602   14.9979 F   0  0  0  0  0  0
   19.2207   45.8733   13.4002 F   0  0  0  0  0  0
   19.7186   46.2739   15.4327 F   0  0  0  0  0  0
   17.3120   48.5619   16.6972 C   0  0  0  0  0  0
   16.5238   47.4729   16.8033 O   0  0  0  0  0  0
   17.1125   49.5564   17.3973 O   0  0  0  0  0  0
   20.1627   49.1403   10.7878 C   0  0  0  0  0  0
   20.3352   50.1127    9.7967 C   0  0  0  0  0  0
   20.1228   49.8189    8.4577 C   0  0  0  0  0  0
   19.7236   48.5438    8.0604 C   0  0  0  0  0  0
   19.5144   47.5705    9.0450 C   0  0  0  0  0  0
   19.7231   47.8727   10.3957 C   0  0  0  0  0  0
   19.4225   48.2412    6.5963 C   0  0  0  0  0  0
   19.5065   49.3402    5.7076 O   0  0  0  0  0  0
   22.2127   50.6713   11.5415 H   0  0  0  0  0  0
   21.6166   50.6869   15.7372 H   0  0  0  0  0  0
   17.0171   47.5619   14.1710 H   0  0  0  0  0  0
   19.7193   49.6482   16.6757 H   0  0  0  0  0  0
   15.8495   47.6145   17.4724 H   0  0  0  0  0  0
   20.6402   51.1141   10.0502 H   0  0  0  0  0  0
   20.2500   50.6071    7.7345 H   0  0  0  0  0  0
   19.1714   46.5880    8.7624 H   0  0  0  0  0  0
   19.5685   47.1080   11.1414 H   0  0  0  0  0  0
   20.1073   47.4644    6.2510 H   0  0  0  0  0  0
   18.4193   47.8253    6.5209 H   0  0  0  0  0  0
   18.8474   49.9980    5.9546 H   0  0  0  0  0  0
  1  2  2  0  0  0
  1  4  1  0  0  0
  1  5  1  0  0  0
  2  3  1  0  0  0
  2 27  1  0  0  0
  3  7  2  0  0  0
  3 19  1  0  0  0
  4  6  2  0  0  0
  4 28  1  0  0  0
  6 11  1  0  0  0
  6  7  1  0  0  0
  7  8  1  0  0  0
  8  9  1  0  0  0
  9 12  1  0  0  0
  9 10  1  0  0  0
  9 29  1  0  0  0
 10 16  1  0  0  0
 10 11  2  0  0  0
 11 30  1  0  0  0
 12 13  1  0  0  0
 12 14  1  0  0  0
 12 15  1  0  0  0
 16 17  1  0  0  0
 16 18  2  0  0  0
 17 31  1  0  0  0
 19 20  2  0  0  0
 19 24  1  0  0  0
 20 21  1  0  0  0
 20 32  1  0  0  0
 21 22  2  0  0  0
 21 33  1  0  0  0
 22 23  1  0  0  0
 22 25  1  0  0  0
 23 24  2  0  0  0
 23 34  1  0  0  0
 24 35  1  0  0  0
 25 26  1  0  0  0
 25 36  1  0  0  0
 25 37  1  0  0  0
 26 38  1  0  0  0
M  END
> <s_m_entry_id>
5608

> <s_m_entry_name>
dock_pv.599

> <s_m_Source_Path>
/home/csk/Desktop/cluster/DUD-E-result/pgh1

> <s_m_Source_File>
dock_pv.maegz

> <i_m_Source_File_Index>
599

> <chembl_id>
CHEMBL1669029

> <chembl_pref_name>
None

> <i_lp_mmshare_version>
53161

> <r_lp_tautomer_probability>
1

> <s_lp_Force_Field>
OPLS_2005

> <r_lp_Energy>
18.264128

> <b_lp_Chiralities_Consistent>
1

> <s_lp_Variant>
CHEMBL221_lig851-1

> <s_i_glide_gridfile>
glide-grid_2oyu

> <i_i_glide_lignum>
1045

> <i_i_glide_rotatable_bonds>
6

> <r_i_docking_score>
-7.01711245789102

> <r_i_glide_ligand_efficiency>
-0.269888940688116

> <r_i_glide_ligand_efficiency_sa>
-0.799544924826842

> <r_i_glide_ligand_efficiency_ln>
-1.64794583571173

> <r_i_glide_gscore>
-7.01711245789102

> <r_i_glide_lipo>
-4.24431463510811

> <r_i_glide_hbond>
0

> <r_i_glide_metal>
0

> <r_i_glide_rewards>
-1.92812747270328

> <r_i_glide_evdw>
-15.434552192688

> <r_i_glide_ecoul>
-2.33145809173584

> <r_i_glide_erotb>
0.394116416694381

> <r_i_glide_esite>
-0.117340443379234

> <r_i_glide_emodel>
-31.4965157365206

> <r_i_glide_energy>
-17.7660102844238

> <r_i_glide_einternal>
2.62232542037964

> <i_i_glide_confnum>
16

> <i_i_glide_posenum>
133

> <r_i_glide_eff_state_penalty>
0

> <s_user_duplicate_titles>
CHEMBL221_lig851

> <i_f3d_flags>
0

> <s_m_subgroup_title>
dock_pv

> <s_m_subgroupid>
dock_pv

> <b_m_subgroup_collapsed>
1

$$$$
CHEMBL221_lig990
                    3D
 Schrodinger Suite 2021-1.
 39 41  0  0  1  0            999 V2000
   23.3233   53.9065   13.3737 C   0  0  0  0  0  0
   23.8692   53.0729   12.4635 C   0  0  0  0  0  0
   23.3237   51.7733   12.1592 C   0  0  0  0  0  0
   22.1835   53.5621   14.1832 C   0  0  0  0  0  0
   21.7230   54.3821   14.9735 O   0  0  0  0  0  0
   23.7453   51.0720   11.2426 O   0  0  0  0  0  0
   21.8317   52.2378   14.0669 N   0  0  0  0  0  0
   22.2831   51.4213   12.9796 N   0  0  0  0  0  0
   21.5872   50.1377   13.0502 C   0  0  1  0  0  0
   20.9229   50.2168   14.4151 C   0  0  0  0  0  0
   21.1815   51.4203   14.9407 C   0  0  0  0  0  0
   20.9208   51.8726   16.2002 N   0  0  0  0  0  0
   20.2687   49.1237   15.1359 C   0  0  0  0  0  0
   20.7262   48.6882   16.1878 O   0  0  0  0  0  0
   19.0639   48.7897   14.6478 O   0  0  0  0  0  0
   18.1235   48.0967   15.4612 C   0  0  0  0  0  0
   17.4028   47.0751   14.6001 C   0  0  0  0  0  0
   20.7645   49.6674   11.8326 C   0  0  0  0  0  0
   20.6079   50.5047   10.7173 C   0  0  0  0  0  0
   20.1231   50.0045    9.5125 C   0  0  0  0  0  0
   19.7231   48.6736    9.4178 C   0  0  0  0  0  0
   19.7229   47.8811   10.5468 C   0  0  0  0  0  0
   20.3016   48.3391   11.7275 C   0  0  0  0  0  0
   20.5092   47.3837   12.6808 O   0  0  0  0  0  0
   23.7713   54.8760   13.5458 H   0  0  0  0  0  0
   24.7410   53.3844   11.9091 H   0  0  0  0  0  0
   22.4331   49.4731   13.0699 H   0  0  0  0  0  0
   20.4792   51.2768   16.8859 H   0  0  0  0  0  0
   21.0787   52.8446   16.4341 H   0  0  0  0  0  0
   18.5858   47.5817   16.3058 H   0  0  0  0  0  0
   17.4136   48.8150   15.8741 H   0  0  0  0  0  0
   16.6579   46.5288   15.1790 H   0  0  0  0  0  0
   16.8915   47.5550   13.7645 H   0  0  0  0  0  0
   18.1195   46.3558   14.2002 H   0  0  0  0  0  0
   20.9403   51.5294   10.7370 H   0  0  0  0  0  0
   20.0760   50.6468    8.6437 H   0  0  0  0  0  0
   19.3700   48.2737    8.4779 H   0  0  0  0  0  0
   19.4234   46.8608   10.4351 H   0  0  0  0  0  0
   19.9244   46.6458   12.4987 H   0  0  0  0  0  0
  1  2  2  0  0  0
  1  4  1  0  0  0
  1 25  1  0  0  0
  2  3  1  0  0  0
  2 26  1  0  0  0
  3  8  1  0  0  0
  3  6  2  0  0  0
  4  7  1  0  0  0
  4  5  2  0  0  0
  7  8  1  0  0  0
  7 11  1  0  0  0
  8  9  1  0  0  0
  9 10  1  0  0  0
  9 18  1  0  0  0
  9 27  1  0  0  0
 10 11  2  0  0  0
 10 13  1  0  0  0
 11 12  1  0  0  0
 12 28  1  0  0  0
 12 29  1  0  0  0
 13 14  2  0  0  0
 13 15  1  0  0  0
 15 16  1  0  0  0
 16 17  1  0  0  0
 16 30  1  0  0  0
 16 31  1  0  0  0
 17 32  1  0  0  0
 17 33  1  0  0  0
 17 34  1  0  0  0
 18 19  2  0  0  0
 18 23  1  0  0  0
 19 20  1  0  0  0
 19 35  1  0  0  0
 20 21  2  0  0  0
 20 36  1  0  0  0
 21 22  1  0  0  0
 21 37  1  0  0  0
 22 23  2  0  0  0
 22 38  1  0  0  0
 23 24  1  0  0  0
 24 39  1  0  0  0
M  END
> <s_m_entry_id>
5609

> <s_m_entry_name>
dock_pv.600

> <s_m_Source_Path>
/home/csk/Desktop/cluster/DUD-E-result/pgh1

> <s_m_Source_File>
dock_pv.maegz

> <i_m_Source_File_Index>
600

> <chembl_id>
CHEMBL4074153

> <chembl_pref_name>
None

> <i_lp_mmshare_version>
53161

> <r_lp_tautomer_probability>
0.999999999997365

> <s_lp_Force_Field>
OPLS_2005

> <r_lp_Energy>
39.334136

> <b_lp_Chiralities_Consistent>
1

> <s_lp_Variant>
CHEMBL221_lig990-2

> <s_i_glide_gridfile>
glide-grid_2oyu

> <i_i_glide_lignum>
1232

> <i_i_glide_rotatable_bonds>
5

> <r_i_docking_score>
-7.01509854636716

> <r_i_glide_ligand_efficiency>
-0.292295772765298

> <r_i_glide_ligand_efficiency_sa>
-0.84312690445368

> <r_i_glide_ligand_efficiency_ln>
-1.67903498404255

> <r_i_glide_gscore>
-7.01509854636716

> <r_i_glide_lipo>
-3.58972516150278

> <r_i_glide_hbond>
0

> <r_i_glide_metal>
0

> <r_i_glide_rewards>
-2.73558868777674

> <r_i_glide_evdw>
-23.2165927886963

> <r_i_glide_ecoul>
-0.325681686401367

> <r_i_glide_erotb>
0.519897195307376

> <r_i_glide_esite>
0

> <r_i_glide_emodel>
-18.6948517473181

> <r_i_glide_energy>
-23.5422744750977

> <r_i_glide_einternal>
21.7145748138428

> <i_i_glide_confnum>
3

> <i_i_glide_posenum>
230

> <r_i_glide_eff_state_penalty>
0

> <s_user_duplicate_titles>
CHEMBL221_lig990

> <i_f3d_flags>
0

> <s_m_subgroup_title>
dock_pv

> <s_m_subgroupid>
dock_pv

> <b_m_subgroup_collapsed>
1

$$$$
CHEMBL221_lig816
                    3D
 Schrodinger Suite 2021-1.
 26 27  0  0  1  0            999 V2000
   23.0050   51.7323   12.7066 C   0  0  0  0  0  0
   22.4987   51.4729   11.4360 C   0  0  0  0  0  0
   21.2571   50.8424   11.2791 C   0  0  0  0  0  0
   22.3224   51.2739   13.8293 C   0  0  0  0  0  0
   21.1476   50.5369   13.6939 C   0  0  0  0  0  0
   20.5913   50.3834   12.4200 C   0  0  0  0  0  0
   19.3440   49.7991   12.2913 O   0  0  0  0  0  0
   19.1004   48.6482   13.1214 C   0  0  2  0  0  0
   19.5925   48.8653   14.5569 C   0  0  0  0  0  0
   20.5231   49.8077   14.8103 C   0  0  0  0  0  0
   18.9927   48.0506   15.5759 C   0  0  0  0  0  0
   19.3230   46.8912   15.7999 O   0  0  0  0  0  0
   19.7478   47.4279   12.4657 C   0  0  0  0  0  0
   21.0616   47.4042   12.6000 F   0  0  0  0  0  0
   19.3228   46.2855   13.0000 F   0  0  0  0  0  0
   19.4813   47.4730   11.1599 F   0  0  0  0  0  0
   24.4849   52.6039   12.8877 Cl  0  0  0  0  0  0
   20.6645   50.6548    9.9594 C   0  0  0  0  0  0
   20.1230   50.4511    8.8836 C   0  0  0  0  0  0
   17.9610   48.6730   16.2001 O   0  0  0  0  0  0
   23.0908   51.7955   10.6000 H   0  0  0  0  0  0
   22.7288   51.4730   14.8009 H   0  0  0  0  0  0
   18.0166   48.5125   13.1129 H   0  0  0  0  0  0
   20.8604   49.9869   15.8227 H   0  0  0  0  0  0
   19.7230   50.2728    7.9097 H   0  0  0  0  0  0
   17.5540   48.0806   16.8347 H   0  0  0  0  0  0
  1  2  2  0  0  0
  1  4  1  0  0  0
  1 17  1  0  0  0
  2  3  1  0  0  0
  2 21  1  0  0  0
  3  6  2  0  0  0
  3 18  1  0  0  0
  4  5  2  0  0  0
  4 22  1  0  0  0
  5  6  1  0  0  0
  5 10  1  0  0  0
  6  7  1  0  0  0
  7  8  1  0  0  0
  8  9  1  0  0  0
  8 13  1  0  0  0
  8 23  1  0  0  0
  9 10  2  0  0  0
  9 11  1  0  0  0
 10 24  1  0  0  0
 11 12  2  0  0  0
 11 20  1  0  0  0
 13 14  1  0  0  0
 13 15  1  0  0  0
 13 16  1  0  0  0
 18 19  3  0  0  0
 19 25  1  0  0  0
 20 26  1  0  0  0
M  END
> <s_m_entry_id>
5610

> <s_m_entry_name>
dock_pv.601

> <s_m_Source_Path>
/home/csk/Desktop/cluster/DUD-E-result/pgh1

> <s_m_Source_File>
dock_pv.maegz

> <i_m_Source_File_Index>
601

> <chembl_id>
CHEMBL1288619

> <chembl_pref_name>
None

> <i_lp_mmshare_version>
53161

> <r_lp_tautomer_probability>
1

> <s_lp_Force_Field>
OPLS_2005

> <r_lp_Energy>
12.165211

> <b_lp_Chiralities_Consistent>
1

> <s_lp_Variant>
CHEMBL221_lig816-1

> <s_i_glide_gridfile>
glide-grid_2oyu

> <i_i_glide_lignum>
986

> <i_i_glide_rotatable_bonds>
4

> <r_i_docking_score>
-7.01296069154541

> <r_i_glide_ligand_efficiency>
-0.35064803457727

> <r_i_glide_ligand_efficiency_sa>
-0.951805201330471

> <r_i_glide_ligand_efficiency_ln>
-1.75511275816979

> <r_i_glide_gscore>
-7.01296069154541

> <r_i_glide_lipo>
-3.43203626276569

> <r_i_glide_hbond>
0

> <r_i_glide_metal>
0

> <r_i_glide_rewards>
-2.56541118053256

> <r_i_glide_evdw>
-22.7795009613037

> <r_i_glide_ecoul>
-1.42180824279785

> <r_i_glide_erotb>
0.402134014607802

> <r_i_glide_esite>
-0.0654009783700984

> <r_i_glide_emodel>
-24.8802260881575

> <r_i_glide_energy>
-24.2013092041016

> <r_i_glide_einternal>
4.43780183792114

> <i_i_glide_confnum>
2

> <i_i_glide_posenum>
319

> <r_i_glide_eff_state_penalty>
0

> <s_user_duplicate_titles>
CHEMBL221_lig816

> <i_f3d_flags>
0

> <s_m_subgroup_title>
dock_pv

> <s_m_subgroupid>
dock_pv

> <b_m_subgroup_collapsed>
1

$$$$
CHEMBL221_lig413
                    3D
 Schrodinger Suite 2021-1.
 45 46  0  0  1  0            999 V2000
   20.1230   49.5766    8.6191 S   0  0  0  0  0  0
   19.8125   48.5848    9.9946 C   0  0  0  0  0  0
   19.3230   47.4339    9.6568 N   0  0  0  0  0  0
   19.5483   48.2730    7.6169 C   0  0  0  0  0  0
   19.1778   47.2309    8.2949 N   0  0  0  0  0  0
   21.2096   50.5087   12.9467 C   0  0  0  0  0  0
   19.6779   48.7534   13.7869 C   0  0  0  0  0  0
   20.5923   49.8204   14.0201 C   0  0  0  0  0  0
   20.0677   49.0068   11.3964 C   0  0  0  0  0  0
   19.4155   48.3988   12.4574 C   0  0  0  0  0  0
   20.9796   50.0088   11.6591 C   0  0  0  0  0  0
   20.1641   49.2064    5.5506 C   0  0  0  0  0  0
   19.3499   48.4402    6.2816 N   0  0  0  0  0  0
   20.9229   49.8730    5.0000 N   0  0  0  0  0  0
   19.0329   47.9018   14.9241 C   0  0  0  0  0  0
   22.0863   51.7972   13.1181 C   0  0  0  0  0  0
   20.9227   50.1869   15.2990 O   0  0  0  0  0  0
   18.0270   46.8361   14.4278 C   0  0  0  0  0  0
   18.2536   48.7296   15.9658 C   0  0  0  0  0  0
   21.2875   52.9423   13.7998 C   0  0  0  0  0  0
   20.1573   47.1174   15.5896 C   0  0  0  0  0  0
   22.6880   52.2733   11.7718 C   0  0  0  0  0  0
   23.3232   51.5651   13.9638 C   0  0  0  0  0  0
   18.7238   47.6099   12.2089 H   0  0  0  0  0  0
   21.5012   50.3792   10.7980 H   0  0  0  0  0  0
   18.4230   48.2735    5.9179 H   0  0  0  0  0  0
   21.4748   50.9708   15.2951 H   0  0  0  0  0  0
   17.5723   46.2825   15.2507 H   0  0  0  0  0  0
   18.5234   46.0945   13.8004 H   0  0  0  0  0  0
   17.2077   47.2901   13.8667 H   0  0  0  0  0  0
   18.8741   49.4731   16.4506 H   0  0  0  0  0  0
   17.4006   49.2365   15.5157 H   0  0  0  0  0  0
   17.8582   48.1000   16.7644 H   0  0  0  0  0  0
   21.1509   52.7694   14.8673 H   0  0  0  0  0  0
   21.8015   53.9009   13.7133 H   0  0  0  0  0  0
   20.2868   53.0730   13.4001 H   0  0  0  0  0  0
   20.7831   47.7690   16.1999 H   0  0  0  0  0  0
   19.7853   46.2993   16.2000 H   0  0  0  0  0  0
   20.7964   46.6731   14.8311 H   0  0  0  0  0  0
   23.4769   51.6074   11.4149 H   0  0  0  0  0  0
   21.9397   52.2730   10.9934 H   0  0  0  0  0  0
   23.1256   53.2696   11.8370 H   0  0  0  0  0  0
   23.8121   50.6730   13.6079 H   0  0  0  0  0  0
   24.0409   52.3869   13.9167 H   0  0  0  0  0  0
   23.0668   51.4728   15.0000 H   0  0  0  0  0  0
  1  2  1  0  0  0
  1  4  1  0  0  0
  2  3  2  0  0  0
  2  9  1  0  0  0
  3  5  1  0  0  0
  4  5  2  0  0  0
  4 13  1  0  0  0
  6 11  2  0  0  0
  6  8  1  0  0  0
  6 16  1  0  0  0
  7 10  1  0  0  0
  7 15  1  0  0  0
  7  8  2  0  0  0
  8 17  1  0  0  0
  9 10  2  0  0  0
  9 11  1  0  0  0
 10 24  1  0  0  0
 11 25  1  0  0  0
 12 13  1  0  0  0
 12 14  3  0  0  0
 13 26  1  0  0  0
 15 18  1  0  0  0
 15 19  1  0  0  0
 15 21  1  0  0  0
 16 20  1  0  0  0
 16 22  1  0  0  0
 16 23  1  0  0  0
 17 27  1  0  0  0
 18 28  1  0  0  0
 18 29  1  0  0  0
 18 30  1  0  0  0
 19 31  1  0  0  0
 19 32  1  0  0  0
 19 33  1  0  0  0
 20 34  1  0  0  0
 20 35  1  0  0  0
 20 36  1  0  0  0
 21 37  1  0  0  0
 21 38  1  0  0  0
 21 39  1  0  0  0
 22 40  1  0  0  0
 22 41  1  0  0  0
 22 42  1  0  0  0
 23 43  1  0  0  0
 23 44  1  0  0  0
 23 45  1  0  0  0
M  END
> <s_m_entry_id>
5611

> <s_m_entry_name>
dock_pv.602

> <s_m_Source_Path>
/home/csk/Desktop/cluster/DUD-E-result/pgh1

> <s_m_Source_File>
dock_pv.maegz

> <i_m_Source_File_Index>
602

> <chembl_id>
CHEMBL17307

> <chembl_pref_name>
None

> <i_lp_mmshare_version>
53161

> <r_lp_tautomer_probability>
0.999999999997365

> <s_lp_Force_Field>
OPLS_2005

> <r_lp_Energy>
22.737566

> <b_lp_Chiralities_Consistent>
1

> <s_lp_Variant>
CHEMBL221_lig413-1

> <s_i_glide_gridfile>
glide-grid_2oyu

> <i_i_glide_lignum>
482

> <i_i_glide_rotatable_bonds>
5

> <r_i_docking_score>
-7.01203489276315

> <r_i_glide_ligand_efficiency>
-0.30487108229405

> <r_i_glide_ligand_efficiency_sa>
-0.867012803141487

> <r_i_glide_ligand_efficiency_ln>
-1.69557361868724

> <r_i_glide_gscore>
-7.01203489276315

> <r_i_glide_lipo>
-3.96546883212315

> <r_i_glide_hbond>
-0.179713020653015

> <r_i_glide_metal>
0

> <r_i_glide_rewards>
-2.34987908450008

> <r_i_glide_evdw>
-12.3518133163452

> <r_i_glide_ecoul>
-1.62578928470612

> <r_i_glide_erotb>
0.344485103036276

> <r_i_glide_esite>
0

> <r_i_glide_emodel>
-17.1589686731863

> <r_i_glide_energy>
-13.9776026010513

> <r_i_glide_einternal>
6.07429981231689

> <i_i_glide_confnum>
3

> <i_i_glide_posenum>
89

> <r_i_glide_eff_state_penalty>
0

> <s_user_duplicate_titles>
CHEMBL221_lig413

> <i_f3d_flags>
0

> <s_m_subgroup_title>
dock_pv

> <s_m_subgroupid>
dock_pv

> <b_m_subgroup_collapsed>
1

$$$$
CHEMBL221_lig873
                    3D
 Schrodinger Suite 2021-1.
 32 33  0  0  1  0            999 V2000
   17.6665   47.8727   14.7787 C   0  0  0  0  0  0
   19.6013   48.2348   13.1779 C   0  0  0  0  0  0
   19.0076   47.3205   14.2574 C   0  0  1  0  0  0
   20.2975   49.4002   13.5151 C   0  0  0  0  0  0
   16.8568   48.2709   13.7639 O   0  0  0  0  0  0
   17.3559   47.9293   15.9663 O   0  0  0  0  0  0
   20.6947   50.3033   12.5323 C   0  0  0  0  0  0
   21.3195   51.4547   12.9480 O   0  0  0  0  0  0
   22.5894   51.7966   12.5386 C   0  0  0  0  0  0
   19.3521   47.9641   11.8289 C   0  0  0  0  0  0
   19.7231   48.8728   10.8404 C   0  0  0  0  0  0
   20.3582   50.0604   11.1954 C   0  0  0  0  0  0
   19.9948   47.0375   15.4004 C   0  0  0  0  0  0
   23.2493   52.7492   13.3150 C   0  0  0  0  0  0
   23.2193   51.2789   11.3975 C   0  0  0  0  0  0
   24.4683   51.7430   11.0190 C   0  0  0  0  0  0
   24.5227   53.1817   12.9621 C   0  0  0  0  0  0
   25.1216   52.6730   11.8130 C   0  0  0  0  0  0
   18.7724   46.3649   13.7876 H   0  0  0  0  0  0
   20.4938   49.6450   14.5477 H   0  0  0  0  0  0
   16.0282   48.6081   14.1092 H   0  0  0  0  0  0
   18.8162   47.0732   11.5472 H   0  0  0  0  0  0
   19.4885   48.6718    9.8055 H   0  0  0  0  0  0
   20.5944   50.7868   10.4314 H   0  0  0  0  0  0
   20.2206   47.9299   15.9848 H   0  0  0  0  0  0
   19.6161   46.2757   16.0824 H   0  0  0  0  0  0
   20.9230   46.6729   14.9834 H   0  0  0  0  0  0
   22.7736   53.1523   14.1983 H   0  0  0  0  0  0
   22.7633   50.5333   10.7704 H   0  0  0  0  0  0
   24.9228   51.3704   10.1156 H   0  0  0  0  0  0
   25.0335   53.9180   13.5655 H   0  0  0  0  0  0
   26.1066   53.0135   11.5294 H   0  0  0  0  0  0
  1  3  1  0  0  0
  1  5  1  0  0  0
  1  6  2  0  0  0
  2  3  1  0  0  0
  2  4  2  0  0  0
  2 10  1  0  0  0
  3 13  1  0  0  0
  3 19  1  0  0  0
  4  7  1  0  0  0
  4 20  1  0  0  0
  5 21  1  0  0  0
  7  8  1  0  0  0
  7 12  2  0  0  0
  8  9  1  0  0  0
  9 14  1  0  0  0
  9 15  2  0  0  0
 10 11  2  0  0  0
 10 22  1  0  0  0
 11 12  1  0  0  0
 11 23  1  0  0  0
 12 24  1  0  0  0
 13 25  1  0  0  0
 13 26  1  0  0  0
 13 27  1  0  0  0
 14 17  2  0  0  0
 14 28  1  0  0  0
 15 16  1  0  0  0
 15 29  1  0  0  0
 16 18  2  0  0  0
 16 30  1  0  0  0
 17 18  1  0  0  0
 17 31  1  0  0  0
 18 32  1  0  0  0
M  END
> <s_m_entry_id>
5612

> <s_m_entry_name>
dock_pv.603

> <s_m_Source_Path>
/home/csk/Desktop/cluster/DUD-E-result/pgh1

> <s_m_Source_File>
dock_pv.maegz

> <i_m_Source_File_Index>
603

> <chembl_id>
CHEMBL1297

> <chembl_pref_name>
FENOPROFEN

> <i_lp_mmshare_version>
53161

> <r_lp_tautomer_probability>
1

> <s_lp_Force_Field>
OPLS_2005

> <r_lp_Energy>
16.027036

> <b_lp_Chiralities_Consistent>
1

> <s_lp_Variant>
CHEMBL221_lig873-1

> <s_i_glide_gridfile>
glide-grid_2oyu

> <i_i_glide_lignum>
1077

> <i_i_glide_rotatable_bonds>
5

> <r_i_docking_score>
-7.00563956741576

> <r_i_glide_ligand_efficiency>
-0.389202198189765

> <r_i_glide_ligand_efficiency_sa>
-1.01999831053029

> <r_i_glide_ligand_efficiency_ln>
-1.80076352682662

> <r_i_glide_gscore>
-7.00563956741576

> <r_i_glide_lipo>
-3.72476783645996

> <r_i_glide_hbond>
0

> <r_i_glide_metal>
0

> <r_i_glide_rewards>
-2.66867002643301

> <r_i_glide_evdw>
-30.9949855804443

> <r_i_glide_ecoul>
-1.62860429286957

> <r_i_glide_erotb>
1.18183821842985

> <r_i_glide_esite>
0

> <r_i_glide_emodel>
-43.1372433325523

> <r_i_glide_energy>
-32.6235898733139

> <r_i_glide_einternal>
3.67437124252319

> <i_i_glide_confnum>
19

> <i_i_glide_posenum>
225

> <r_i_glide_eff_state_penalty>
0

> <s_user_duplicate_titles>
CHEMBL221_lig873

> <i_f3d_flags>
0

> <s_m_subgroup_title>
dock_pv

> <s_m_subgroupid>
dock_pv

> <b_m_subgroup_collapsed>
1

$$$$
CHEMBL221_lig226
                    3D
 Schrodinger Suite 2021-1.
 34 36  0  0  1  0            999 V2000
   19.0821   47.6007   14.3594 S   0  0  0  0  0  0
   22.7270   51.8120   12.2320 C   0  0  0  0  0  0
   23.3272   52.7606   12.9052 N   0  0  0  0  0  0
   20.0822   48.8802   12.0238 C   0  0  0  0  0  0
   20.1442   49.2493    9.2358 C   0  0  0  0  0  0
   20.5709   50.0796   11.4784 C   0  0  0  0  0  0
   20.0228   49.1346    7.7452 C   0  0  0  0  0  0
   20.0455   48.7427   13.4263 N   0  0  0  0  0  0
   23.7044   51.0905   11.0005 S   0  0  0  0  0  0
   20.5483   50.2875   10.0870 C   0  0  0  0  0  0
   19.7230   48.0520    9.7690 C   0  0  0  0  0  0
   21.0764   51.3661   12.6019 S   0  0  0  0  0  0
   19.6711   47.8735    7.4596 O   0  0  0  0  0  0
   19.6647   47.8724   11.1524 C   0  0  0  0  0  0
   24.5361   53.0216   12.4576 C   0  0  0  0  0  0
   24.9231   52.2696   11.3582 C   0  0  0  0  0  0
   19.2763   46.2733   13.7796 O   0  0  0  0  0  0
   19.4098   47.8594   15.7629 O   0  0  0  0  0  0
   19.4577   47.1205    8.6294 C   0  0  0  0  0  0
   20.1233   49.9765    6.8611 O   0  0  0  0  0  0
   17.3222   48.1631   14.0636 C   0  0  0  0  0  0
   25.3164   54.0865   13.1870 C   0  0  0  0  0  0
   20.4178   49.5187   13.9527 H   0  0  0  0  0  0
   20.8742   51.2344    9.6845 H   0  0  0  0  0  0
   19.3243   46.9362   11.5457 H   0  0  0  0  0  0
   25.8561   52.2857   10.8127 H   0  0  0  0  0  0
   20.1219   46.2576    8.6341 H   0  0  0  0  0  0
   18.4417   46.7571    8.6251 H   0  0  0  0  0  0
   16.6492   47.3851   14.4195 H   0  0  0  0  0  0
   17.1532   49.0730   14.6310 H   0  0  0  0  0  0
   17.1677   48.3310   13.0007 H   0  0  0  0  0  0
   26.1533   54.4559   12.5966 H   0  0  0  0  0  0
   25.7213   53.7089   14.1248 H   0  0  0  0  0  0
   24.7011   54.9560   13.4240 H   0  0  0  0  0  0
  1  8  1  0  0  0
  1 17  2  0  0  0
  1 18  2  0  0  0
  1 21  1  0  0  0
  2 12  1  0  0  0
  2  3  2  0  0  0
  2  9  1  0  0  0
  3 15  1  0  0  0
  4  8  1  0  0  0
  4  6  2  0  0  0
  4 14  1  0  0  0
  5 11  1  0  0  0
  5  7  1  0  0  0
  5 10  2  0  0  0
  6 10  1  0  0  0
  6 12  1  0  0  0
  7 20  2  0  0  0
  7 13  1  0  0  0
  8 23  1  0  0  0
  9 16  1  0  0  0
 10 24  1  0  0  0
 11 14  2  0  0  0
 11 19  1  0  0  0
 13 19  1  0  0  0
 14 25  1  0  0  0
 15 22  1  0  0  0
 15 16  2  0  0  0
 16 26  1  0  0  0
 19 27  1  0  0  0
 19 28  1  0  0  0
 21 29  1  0  0  0
 21 30  1  0  0  0
 21 31  1  0  0  0
 22 32  1  0  0  0
 22 33  1  0  0  0
 22 34  1  0  0  0
M  END
> <s_m_entry_id>
5613

> <s_m_entry_name>
dock_pv.604

> <s_m_Source_Path>
/home/csk/Desktop/cluster/DUD-E-result/pgh1

> <s_m_Source_File>
dock_pv.maegz

> <i_m_Source_File_Index>
604

> <chembl_id>
CHEMBL43520

> <chembl_pref_name>
None

> <i_lp_mmshare_version>
53161

> <r_lp_tautomer_probability>
1

> <s_lp_Force_Field>
OPLS_2005

> <r_lp_Energy>
12.293857

> <b_lp_Chiralities_Consistent>
1

> <s_lp_Variant>
CHEMBL221_lig226-1

> <s_i_glide_gridfile>
glide-grid_2oyu

> <i_i_glide_lignum>
254

> <i_i_glide_rotatable_bonds>
4

> <r_i_docking_score>
-7.00450462532454

> <r_i_glide_ligand_efficiency>
-0.318386573878388

> <r_i_glide_ligand_efficiency_sa>
-0.892131701440655

> <r_i_glide_ligand_efficiency_ln>
-1.71215642594336

> <r_i_glide_gscore>
-7.00450462532454

> <r_i_glide_lipo>
-3.97259888270368

> <r_i_glide_hbond>
0

> <r_i_glide_metal>
0

> <r_i_glide_rewards>
-1.88676651235844

> <r_i_glide_evdw>
-32.1474533081055

> <r_i_glide_ecoul>
0.332088023424149

> <r_i_glide_erotb>
0.451762182811376

> <r_i_glide_esite>
-0.0393419511821485

> <r_i_glide_emodel>
-38.884682048632

> <r_i_glide_energy>
-31.8153652846813

> <r_i_glide_einternal>
3.6220486164093

> <i_i_glide_confnum>
5

> <i_i_glide_posenum>
229

> <r_i_glide_eff_state_penalty>
0

> <s_user_duplicate_titles>
CHEMBL221_lig226,57749

> <i_f3d_flags>
0

> <s_m_subgroup_title>
dock_pv

> <s_m_subgroupid>
dock_pv

> <b_m_subgroup_collapsed>
1

$$$$
CHEMBL221_lig403
                    3D
 Schrodinger Suite 2021-1.
 45 46  0  0  1  0            999 V2000
   20.1230   49.4035    8.8856 O   0  0  0  0  0  0
   19.8102   48.5547    9.8983 C   0  0  0  0  0  0
   19.3230   47.4310    9.4536 N   0  0  0  0  0  0
   19.7681   48.6906    7.7869 C   0  0  0  0  0  0
   19.3230   47.4941    8.0700 N   0  0  0  0  0  0
   19.6416   48.6903   13.7093 C   0  0  0  0  0  0
   21.1446   50.4782   12.8803 C   0  0  0  0  0  0
   20.5398   49.7664   13.9457 C   0  0  0  0  0  0
   20.0310   48.9636   11.3146 C   0  0  0  0  0  0
   20.8979   50.0077   11.5804 C   0  0  0  0  0  0
   19.4006   48.3226   12.3748 C   0  0  0  0  0  0
   18.8316   49.0363    5.6924 C   0  0  0  0  0  0
   19.7576   49.3546    6.6000 N   0  0  0  0  0  0
   17.9871   48.6730    5.0000 N   0  0  0  0  0  0
   22.0385   51.7516   13.0949 C   0  0  0  0  0  0
   19.0000   47.8563   14.8654 C   0  0  0  0  0  0
   20.8586   50.1079   15.2351 O   0  0  0  0  0  0
   23.2588   51.4730   13.9641 C   0  0  0  0  0  0
   21.2517   52.8919   13.8000 C   0  0  0  0  0  0
   18.0175   46.7685   14.3825 C   0  0  0  0  0  0
   22.6645   52.2593   11.7715 C   0  0  0  0  0  0
   18.1848   48.6946   15.8768 C   0  0  0  0  0  0
   20.1231   47.1076   15.5793 C   0  0  0  0  0  0
   21.3770   50.4206   10.7122 H   0  0  0  0  0  0
   18.7377   47.5085   12.1255 H   0  0  0  0  0  0
   20.1039   50.3015    6.5826 H   0  0  0  0  0  0
   20.3733   49.5756   15.8677 H   0  0  0  0  0  0
   24.0019   52.2726   13.9333 H   0  0  0  0  0  0
   23.7230   50.5620   13.6130 H   0  0  0  0  0  0
   22.9678   51.3780   15.0000 H   0  0  0  0  0  0
   20.2598   53.0725   13.4000 H   0  0  0  0  0  0
   21.0896   52.6727   14.8558 H   0  0  0  0  0  0
   21.7943   53.8379   13.7682 H   0  0  0  0  0  0
   18.5231   46.0128   13.7832 H   0  0  0  0  0  0
   17.5535   46.2327   15.2121 H   0  0  0  0  0  0
   17.2029   47.2022   13.8002 H   0  0  0  0  0  0
   21.9351   52.2730   10.9761 H   0  0  0  0  0  0
   23.1016   53.2531   11.8682 H   0  0  0  0  0  0
   23.4591   51.5990   11.4179 H   0  0  0  0  0  0
   18.7596   49.4728   16.3675 H   0  0  0  0  0  0
   17.3232   49.1606   15.4000 H   0  0  0  0  0  0
   17.7893   48.0715   16.6810 H   0  0  0  0  0  0
   20.7206   47.7736   16.2000 H   0  0  0  0  0  0
   19.7543   46.2923   16.2000 H   0  0  0  0  0  0
   20.7949   46.6730   14.8448 H   0  0  0  0  0  0
  1  2  1  0  0  0
  1  4  1  0  0  0
  2  3  2  0  0  0
  2  9  1  0  0  0
  3  5  1  0  0  0
  4  5  2  0  0  0
  4 13  1  0  0  0
  6 11  2  0  0  0
  6  8  1  0  0  0
  6 16  1  0  0  0
  7 10  1  0  0  0
  7 15  1  0  0  0
  7  8  2  0  0  0
  8 17  1  0  0  0
  9 10  2  0  0  0
  9 11  1  0  0  0
 10 24  1  0  0  0
 11 25  1  0  0  0
 12 13  1  0  0  0
 12 14  3  0  0  0
 13 26  1  0  0  0
 15 18  1  0  0  0
 15 19  1  0  0  0
 15 21  1  0  0  0
 16 20  1  0  0  0
 16 22  1  0  0  0
 16 23  1  0  0  0
 17 27  1  0  0  0
 18 28  1  0  0  0
 18 29  1  0  0  0
 18 30  1  0  0  0
 19 31  1  0  0  0
 19 32  1  0  0  0
 19 33  1  0  0  0
 20 34  1  0  0  0
 20 35  1  0  0  0
 20 36  1  0  0  0
 21 37  1  0  0  0
 21 38  1  0  0  0
 21 39  1  0  0  0
 22 40  1  0  0  0
 22 41  1  0  0  0
 22 42  1  0  0  0
 23 43  1  0  0  0
 23 44  1  0  0  0
 23 45  1  0  0  0
M  END
> <s_m_entry_id>
5614

> <s_m_entry_name>
dock_pv.605

> <s_m_Source_Path>
/home/csk/Desktop/cluster/DUD-E-result/pgh1

> <s_m_Source_File>
dock_pv.maegz

> <i_m_Source_File_Index>
605

> <chembl_id>
CHEMBL16814

> <chembl_pref_name>
None

> <i_lp_mmshare_version>
53161

> <r_lp_tautomer_probability>
0.999999999997365

> <s_lp_Force_Field>
OPLS_2005

> <r_lp_Energy>
20.641448

> <b_lp_Chiralities_Consistent>
1

> <s_lp_Variant>
CHEMBL221_lig403-1

> <s_i_glide_gridfile>
glide-grid_2oyu

> <i_i_glide_lignum>
471

> <i_i_glide_rotatable_bonds>
5

> <r_i_docking_score>
-7.003106098984

> <r_i_glide_ligand_efficiency>
-0.304482873868869

> <r_i_glide_ligand_efficiency_sa>
-0.86590879002097

> <r_i_glide_ligand_efficiency_ln>
-1.69341455538962

> <r_i_glide_gscore>
-7.003106098984

> <r_i_glide_lipo>
-3.67450141867615

> <r_i_glide_hbond>
-0.32

> <r_i_glide_metal>
0

> <r_i_glide_rewards>
-1.92980634482258

> <r_i_glide_evdw>
-27.4975490570068

> <r_i_glide_ecoul>
-0.453474521636963

> <r_i_glide_erotb>
0.376129232737149

> <r_i_glide_esite>
-0.0120289371265353

> <r_i_glide_emodel>
-30.5466492751838

> <r_i_glide_energy>
-27.9510235786438

> <r_i_glide_einternal>
3.85566830635071

> <i_i_glide_confnum>
2

> <i_i_glide_posenum>
353

> <r_i_glide_eff_state_penalty>
0

> <s_user_duplicate_titles>
CHEMBL221_lig403,18345

> <i_f3d_flags>
0

> <s_m_subgroup_title>
dock_pv

> <s_m_subgroupid>
dock_pv

> <b_m_subgroup_collapsed>
1

$$$$
CHEMBL221_lig882
                    3D
 Schrodinger Suite 2021-1.
 29 30  0  0  1  0            999 V2000
   22.9768   54.6818   13.8000 O   0  0  0  0  0  0
   22.5230   53.4106   13.8000 C   0  0  0  0  0  0
   21.7071   52.9970   14.6174 O   0  0  0  0  0  0
   23.1189   52.5630   12.7114 C   0  0  0  0  0  0
   24.3240   52.9578   12.1164 C   0  0  0  0  0  0
   24.8257   52.2518   11.0329 C   0  0  0  0  0  0
   24.1230   51.1353   10.5999 C   0  0  0  0  0  0
   23.0065   50.6742   11.2054 N   0  0  0  0  0  0
   22.5141   51.3755   12.2557 C   0  0  0  0  0  0
   21.3866   50.8790   12.9166 N   0  0  0  0  0  0
   20.6591   49.7004   12.8076 C   0  0  0  0  0  0
   20.4199   49.0736   11.5845 C   0  0  0  0  0  0
   19.6535   47.9159   11.5464 C   0  0  0  0  0  0
   19.1148   47.4060   12.7243 C   0  0  0  0  0  0
   19.3297   48.0307   13.9529 C   0  0  0  0  0  0
   20.1227   49.1775   13.9836 C   0  0  0  0  0  0
   18.7153   47.4765   15.2350 C   0  0  0  0  0  0
   18.4130   48.4500   16.0945 F   0  0  0  0  0  0
   17.6070   46.7732   14.9997 F   0  0  0  0  0  0
   19.6116   46.6729   15.8000 F   0  0  0  0  0  0
   22.6601   55.1695   14.5641 H   0  0  0  0  0  0
   24.8574   53.8365   12.4525 H   0  0  0  0  0  0
   25.7344   52.5588   10.5356 H   0  0  0  0  0  0
   24.4697   50.5980    9.7307 H   0  0  0  0  0  0
   21.2032   51.4117   13.7598 H   0  0  0  0  0  0
   20.8066   49.4827   10.6636 H   0  0  0  0  0  0
   19.4615   47.4242   10.6040 H   0  0  0  0  0  0
   18.5231   46.5110   12.6737 H   0  0  0  0  0  0
   20.3053   49.6760   14.9250 H   0  0  0  0  0  0
  1  2  1  0  0  0
  1 21  1  0  0  0
  2  3  2  0  0  0
  2  4  1  0  0  0
  4  5  2  0  0  0
  4  9  1  0  0  0
  5  6  1  0  0  0
  5 22  1  0  0  0
  6  7  2  0  0  0
  6 23  1  0  0  0
  7  8  1  0  0  0
  7 24  1  0  0  0
  8  9  2  0  0  0
  9 10  1  0  0  0
 10 11  1  0  0  0
 10 25  1  0  0  0
 11 12  2  0  0  0
 11 16  1  0  0  0
 12 13  1  0  0  0
 12 26  1  0  0  0
 13 14  2  0  0  0
 13 27  1  0  0  0
 14 15  1  0  0  0
 14 28  1  0  0  0
 15 16  2  0  0  0
 15 17  1  0  0  0
 16 29  1  0  0  0
 17 18  1  0  0  0
 17 19  1  0  0  0
 17 20  1  0  0  0
M  END
> <s_m_entry_id>
5615

> <s_m_entry_name>
dock_pv.606

> <s_m_Source_Path>
/home/csk/Desktop/cluster/DUD-E-result/pgh1

> <s_m_Source_File>
dock_pv.maegz

> <i_m_Source_File_Index>
606

> <chembl_id>
CHEMBL63323

> <chembl_pref_name>
NIFLUMIC ACID

> <i_lp_mmshare_version>
53161

> <r_lp_tautomer_probability>
1

> <s_lp_Force_Field>
OPLS_2005

> <r_lp_Energy>
18.407159

> <b_lp_Chiralities_Consistent>
1

> <s_lp_Variant>
CHEMBL221_lig882-1

> <s_i_glide_gridfile>
glide-grid_2oyu

> <i_i_glide_lignum>
1088

> <i_i_glide_rotatable_bonds>
5

> <r_i_docking_score>
-6.99871103264683

> <r_i_glide_ligand_efficiency>
-0.349935551632341

> <r_i_glide_ligand_efficiency_sa>
-0.949871225075164

> <r_i_glide_ligand_efficiency_ln>
-1.75154653853268

> <r_i_glide_gscore>
-6.99871103264683

> <r_i_glide_lipo>
-2.96866795388636

> <r_i_glide_hbond>
0

> <r_i_glide_metal>
0

> <r_i_glide_rewards>
-2.7127865834751

> <r_i_glide_evdw>
-29.3209362030029

> <r_i_glide_ecoul>
-3.43019032478333

> <r_i_glide_erotb>
0.681383443211978

> <r_i_glide_esite>
-0.0180645796297046

> <r_i_glide_emodel>
-42.3909479733851

> <r_i_glide_energy>
-32.7511265277863

> <r_i_glide_einternal>
4.21047782897949

> <i_i_glide_confnum>
6

> <i_i_glide_posenum>
283

> <r_i_glide_eff_state_penalty>
0

> <s_user_duplicate_titles>
CHEMBL221_lig882

> <i_f3d_flags>
0

> <s_m_subgroup_title>
dock_pv

> <s_m_subgroupid>
dock_pv

> <b_m_subgroup_collapsed>
1

$$$$
CHEMBL221_lig836
                    3D
 Schrodinger Suite 2021-1.
 37 39  0  0  1  0            999 V2000
   19.1915   48.9232   13.6929 C   0  0  0  0  0  0
   19.5023   48.9955   15.0520 C   0  0  0  0  0  0
   20.5233   49.8348   15.4784 C   0  0  0  0  0  0
   20.0476   49.5007   12.7281 C   0  0  0  0  0  0
   21.1527   50.2445   13.1767 C   0  0  0  0  0  0
   21.2674   50.5214   14.5286 C   0  0  0  0  0  0
   22.1230   51.4698   15.0049 O   0  0  0  0  0  0
   22.8429   52.3483   14.1348 C   0  0  1  0  0  0
   23.0160   51.7871   12.7111 C   0  0  0  0  0  0
   22.1942   50.8031   12.3053 C   0  0  0  0  0  0
   22.2214   53.7692   14.1993 C   0  0  0  0  0  0
   21.1915   53.8566   13.4005 F   0  0  0  0  0  0
   21.7230   54.1367   15.3840 F   0  0  0  0  0  0
   23.0962   54.6826   13.7955 F   0  0  0  0  0  0
   24.1278   52.2727   11.9129 C   0  0  0  0  0  0
   24.1882   51.7429   10.6592 O   0  0  0  0  0  0
   24.9701   53.0651   12.3251 O   0  0  0  0  0  0
   17.6514   48.2571   13.2751 Cl  0  0  0  0  0  0
   19.8483   49.3136   11.2670 C   0  0  0  0  0  0
   19.7855   48.0281   10.7129 C   0  0  0  0  0  0
   19.8154   47.8733    9.3196 C   0  0  0  0  0  0
   20.1226   48.9637    8.5034 C   0  0  0  0  0  0
   20.1230   50.2444    9.0475 C   0  0  0  0  0  0
   19.9232   50.4202   10.4108 C   0  0  0  0  0  0
   20.1229   46.8205   11.5952 C   0  0  0  0  0  0
   18.8550   48.5328   15.7824 H   0  0  0  0  0  0
   20.6775   50.0153   16.5317 H   0  0  0  0  0  0
   23.8317   52.3615   14.5907 H   0  0  0  0  0  0
   22.3478   50.3456   11.3376 H   0  0  0  0  0  0
   24.9749   52.0513   10.2061 H   0  0  0  0  0  0
   19.8146   46.8862    8.8833 H   0  0  0  0  0  0
   20.2559   48.8268    7.4397 H   0  0  0  0  0  0
   20.2535   51.0965    8.3990 H   0  0  0  0  0  0
   19.9444   51.4224   10.8138 H   0  0  0  0  0  0
   20.5227   45.9802   11.0267 H   0  0  0  0  0  0
   20.9231   47.0726   12.2918 H   0  0  0  0  0  0
   19.2849   46.4938   12.2004 H   0  0  0  0  0  0
  1  2  2  0  0  0
  1  4  1  0  0  0
  1 18  1  0  0  0
  2  3  1  0  0  0
  2 26  1  0  0  0
  3  6  2  0  0  0
  3 27  1  0  0  0
  4  5  2  0  0  0
  4 19  1  0  0  0
  5 10  1  0  0  0
  5  6  1  0  0  0
  6  7  1  0  0  0
  7  8  1  0  0  0
  8  9  1  0  0  0
  8 11  1  0  0  0
  8 28  1  0  0  0
  9 15  1  0  0  0
  9 10  2  0  0  0
 10 29  1  0  0  0
 11 12  1  0  0  0
 11 13  1  0  0  0
 11 14  1  0  0  0
 15 16  1  0  0  0
 15 17  2  0  0  0
 16 30  1  0  0  0
 19 20  2  0  0  0
 19 24  1  0  0  0
 20 21  1  0  0  0
 20 25  1  0  0  0
 21 22  2  0  0  0
 21 31  1  0  0  0
 22 23  1  0  0  0
 22 32  1  0  0  0
 23 24  2  0  0  0
 23 33  1  0  0  0
 24 34  1  0  0  0
 25 35  1  0  0  0
 25 36  1  0  0  0
 25 37  1  0  0  0
M  END
> <s_m_entry_id>
5616

> <s_m_entry_name>
dock_pv.607

> <s_m_Source_Path>
/home/csk/Desktop/cluster/DUD-E-result/pgh1

> <s_m_Source_File>
dock_pv.maegz

> <i_m_Source_File_Index>
607

> <chembl_id>
CHEMBL1630238

> <chembl_pref_name>
None

> <i_lp_mmshare_version>
53161

> <r_lp_tautomer_probability>
1

> <s_lp_Force_Field>
OPLS_2005

> <r_lp_Energy>
21.883575

> <b_lp_Chiralities_Consistent>
1

> <s_lp_Variant>
CHEMBL221_lig836-2

> <s_i_glide_gridfile>
glide-grid_2oyu

> <i_i_glide_lignum>
1024

> <i_i_glide_rotatable_bonds>
4

> <r_i_docking_score>
-6.99607057131074

> <r_i_glide_ligand_efficiency>
-0.27984282285243

> <r_i_glide_ligand_efficiency_sa>
-0.8182653770541

> <r_i_glide_ligand_efficiency_ln>
-1.65827838071752

> <r_i_glide_gscore>
-6.99607057131074

> <r_i_glide_lipo>
-3.92314759827265

> <r_i_glide_hbond>
0

> <r_i_glide_metal>
0

> <r_i_glide_rewards>
-2.23429275514255

> <r_i_glide_evdw>
-15.3896532058716

> <r_i_glide_ecoul>
-1.98567342758179

> <r_i_glide_erotb>
0.283502218667059

> <r_i_glide_esite>
-0.0547987621317534

> <r_i_glide_emodel>
-26.5714408959156

> <r_i_glide_energy>
-17.3753266334534

> <r_i_glide_einternal>
4.3375506401062

> <i_i_glide_confnum>
1

> <i_i_glide_posenum>
55

> <r_i_glide_eff_state_penalty>
0

> <s_user_duplicate_titles>
CHEMBL221_lig836

> <i_f3d_flags>
0

> <s_m_subgroup_title>
dock_pv

> <s_m_subgroupid>
dock_pv

> <b_m_subgroup_collapsed>
1

$$$$
CHEMBL221_lig810
                    3D
 Schrodinger Suite 2021-1.
 38 39  0  0  1  0            999 V2000
   21.1989   49.6837   12.8722 C   0  0  0  0  0  0
   22.1307   49.8251   11.8435 C   0  0  0  0  0  0
   22.9371   50.9581   11.7756 C   0  0  0  0  0  0
   22.8331   51.9665   12.7505 C   0  0  0  0  0  0
   21.9268   51.8017   13.7952 C   0  0  0  0  0  0
   21.1173   50.6857   13.8392 C   0  0  0  0  0  0
   20.2944   48.4553   12.8994 C   0  0  0  0  0  0
   19.1387   48.4847   13.9335 C   0  0  2  0  0  0
   19.5041   48.0843   15.3786 C   0  0  2  0  0  0
   18.1640   47.7316   16.0151 C   0  0  0  0  0  0
   17.3111   47.1473   14.8841 C   0  0  0  0  0  0
   18.0519   47.4730   13.5777 C   0  0  0  0  0  0
   20.2469   48.9851   16.1623 O   0  0  0  0  0  0
   23.5810   53.2860   12.5925 C   0  0  1  0  0  0
   23.0083   54.4932   13.4000 C   0  0  0  0  0  0
   25.1007   53.1484   12.7427 C   0  0  0  0  0  0
   25.6743   52.6730   11.6010 O   0  0  0  0  0  0
   25.7212   53.4730   13.7512 O   0  0  0  0  0  0
   23.7767   51.0963   10.7241 F   0  0  0  0  0  0
   22.2120   49.0731   11.0741 H   0  0  0  0  0  0
   21.7869   52.5468   14.5619 H   0  0  0  0  0  0
   20.3814   50.6797   14.6164 H   0  0  0  0  0  0
   19.8598   48.3784   11.9005 H   0  0  0  0  0  0
   20.9064   47.5622   13.0309 H   0  0  0  0  0  0
   18.6722   49.4683   13.9147 H   0  0  0  0  0  0
   20.0985   47.1689   15.3398 H   0  0  0  0  0  0
   18.2828   47.0730   16.8706 H   0  0  0  0  0  0
   17.6931   48.6370   16.4036 H   0  0  0  0  0  0
   17.1805   46.0705   15.0000 H   0  0  0  0  0  0
   16.3185   47.5968   14.8885 H   0  0  0  0  0  0
   17.3704   47.8730   12.8239 H   0  0  0  0  0  0
   18.5230   46.5799   13.1644 H   0  0  0  0  0  0
   21.1220   49.0733   15.7772 H   0  0  0  0  0  0
   23.3995   53.4730   11.5371 H   0  0  0  0  0  0
   22.9230   54.3184   14.4699 H   0  0  0  0  0  0
   23.6328   55.3789   13.2887 H   0  0  0  0  0  0
   22.0123   54.7578   13.0447 H   0  0  0  0  0  0
   25.0259   52.3109   10.9895 H   0  0  0  0  0  0
  1  6  1  0  0  0
  1  2  2  0  0  0
  1  7  1  0  0  0
  2  3  1  0  0  0
  2 20  1  0  0  0
  3  4  2  0  0  0
  3 19  1  0  0  0
  4  5  1  0  0  0
  4 14  1  0  0  0
  5  6  2  0  0  0
  5 21  1  0  0  0
  6 22  1  0  0  0
  7  8  1  0  0  0
  7 23  1  0  0  0
  7 24  1  0  0  0
  8 12  1  0  0  0
  8  9  1  0  0  0
  8 25  1  0  0  0
  9 10  1  0  0  0
  9 13  1  0  0  0
  9 26  1  0  0  0
 10 11  1  0  0  0
 10 27  1  0  0  0
 10 28  1  0  0  0
 11 12  1  0  0  0
 11 29  1  0  0  0
 11 30  1  0  0  0
 12 31  1  0  0  0
 12 32  1  0  0  0
 13 33  1  0  0  0
 14 15  1  0  0  0
 14 16  1  0  0  0
 14 34  1  0  0  0
 15 35  1  0  0  0
 15 36  1  0  0  0
 15 37  1  0  0  0
 16 17  1  0  0  0
 16 18  2  0  0  0
 17 38  1  0  0  0
M  END
> <s_m_entry_id>
5617

> <s_m_entry_name>
dock_pv.608

> <s_m_Source_Path>
/home/csk/Desktop/cluster/DUD-E-result/pgh1

> <s_m_Source_File>
dock_pv.maegz

> <i_m_Source_File_Index>
608

> <chembl_id>
CHEMBL1275972

> <chembl_pref_name>
None

> <i_lp_mmshare_version>
53161

> <r_lp_tautomer_probability>
1

> <s_lp_Force_Field>
OPLS_2005

> <r_lp_Energy>
29.063118

> <b_lp_Chiralities_Consistent>
1

> <s_lp_Variant>
CHEMBL221_lig810-2

> <s_i_glide_gridfile>
glide-grid_2oyu

> <i_i_glide_lignum>
975

> <i_i_glide_rotatable_bonds>
6

> <r_i_docking_score>
-6.98748326754187

> <r_i_glide_ligand_efficiency>
-0.367762277239046

> <r_i_glide_ligand_efficiency_sa>
-0.981337465959244

> <r_i_glide_ligand_efficiency_ln>
-1.77147708570168

> <r_i_glide_gscore>
-6.98748326754187

> <r_i_glide_lipo>
-3.49306531362975

> <r_i_glide_hbond>
-0.0351690492105921

> <r_i_glide_metal>
0

> <r_i_glide_rewards>
-3.03531803482743

> <r_i_glide_evdw>
-24.1594142913818

> <r_i_glide_ecoul>
-1.47043788433075

> <r_i_glide_erotb>
1.00460552734461

> <r_i_glide_esite>
0

> <r_i_glide_emodel>
-31.5916512059397

> <r_i_glide_energy>
-25.6298521757126

> <r_i_glide_einternal>
5.49454212188721

> <i_i_glide_confnum>
10

> <i_i_glide_posenum>
168

> <r_i_glide_eff_state_penalty>
0

> <s_user_duplicate_titles>
CHEMBL221_lig810

> <i_f3d_flags>
0

> <s_m_subgroup_title>
dock_pv

> <s_m_subgroupid>
dock_pv

> <b_m_subgroup_collapsed>
1

$$$$
CHEMBL221_lig822
                    3D
 Schrodinger Suite 2021-1.
 27 28  0  0  1  0            999 V2000
   18.8563   48.0705   15.8203 C   0  0  0  0  0  0
   18.8583   47.1445   14.7877 C   0  0  0  0  0  0
   19.6900   47.3375   13.6880 C   0  0  0  0  0  0
   19.7405   49.1534   15.7893 C   0  0  0  0  0  0
   20.5228   49.3936   14.6511 C   0  0  0  0  0  0
   20.4718   48.4856   13.5938 C   0  0  0  0  0  0
   21.2535   48.6417   12.4630 O   0  0  0  0  0  0
   21.5686   49.9760   12.0398 C   0  0  2  0  0  0
   21.7767   50.9479   13.2290 C   0  0  0  0  0  0
   21.3010   50.6182   14.4504 C   0  0  0  0  0  0
   22.5542   52.1493   12.9980 C   0  0  0  0  0  0
   22.2205   53.1754   13.8295 O   0  0  0  0  0  0
   23.4153   52.2560   12.1293 O   0  0  0  0  0  0
   20.5029   50.4184   11.0136 C   0  0  0  0  0  0
   19.3335   50.7257   11.5704 F   0  0  0  0  0  0
   20.9231   51.4729   10.3398 F   0  0  0  0  0  0
   20.2732   49.4637   10.1110 F   0  0  0  0  0  0
   19.7232   46.3073   12.6001 C   0  0  0  0  0  0
   17.7228   47.8730   17.1076 Cl  0  0  0  0  0  0
   18.1988   46.2902   14.8388 H   0  0  0  0  0  0
   19.7471   49.8712   16.5990 H   0  0  0  0  0  0
   22.5134   49.8681   11.5030 H   0  0  0  0  0  0
   21.4682   51.2696   15.2980 H   0  0  0  0  0  0
   22.7855   53.9347   13.6706 H   0  0  0  0  0  0
   19.3230   45.3586   12.9667 H   0  0  0  0  0  0
   19.1143   46.7096   11.7998 H   0  0  0  0  0  0
   20.7277   46.1443   12.2061 H   0  0  0  0  0  0
  1  2  2  0  0  0
  1  4  1  0  0  0
  1 19  1  0  0  0
  2  3  1  0  0  0
  2 20  1  0  0  0
  3  6  2  0  0  0
  3 18  1  0  0  0
  4  5  2  0  0  0
  4 21  1  0  0  0
  5  6  1  0  0  0
  5 10  1  0  0  0
  6  7  1  0  0  0
  7  8  1  0  0  0
  8  9  1  0  0  0
  8 14  1  0  0  0
  8 22  1  0  0  0
  9 10  2  0  0  0
  9 11  1  0  0  0
 10 23  1  0  0  0
 11 12  1  0  0  0
 11 13  2  0  0  0
 12 24  1  0  0  0
 14 15  1  0  0  0
 14 16  1  0  0  0
 14 17  1  0  0  0
 18 25  1  0  0  0
 18 26  1  0  0  0
 18 27  1  0  0  0
M  END
> <s_m_entry_id>
5618

> <s_m_entry_name>
dock_pv.609

> <s_m_Source_Path>
/home/csk/Desktop/cluster/DUD-E-result/pgh1

> <s_m_Source_File>
dock_pv.maegz

> <i_m_Source_File_Index>
609

> <chembl_id>
CHEMBL1288565

> <chembl_pref_name>
None

> <i_lp_mmshare_version>
53161

> <r_lp_tautomer_probability>
1

> <s_lp_Force_Field>
OPLS_2005

> <r_lp_Energy>
11.402411

> <b_lp_Chiralities_Consistent>
1

> <s_lp_Variant>
CHEMBL221_lig822-1

> <s_i_glide_gridfile>
glide-grid_2oyu

> <i_i_glide_lignum>
998

> <i_i_glide_rotatable_bonds>
3

> <r_i_docking_score>
-6.9822858982066

> <r_i_glide_ligand_efficiency>
-0.367488731484558

> <r_i_glide_ligand_efficiency_sa>
-0.980607536017684

> <r_i_glide_ligand_efficiency_ln>
-1.77015944094593

> <r_i_glide_gscore>
-6.9822858982066

> <r_i_glide_lipo>
-2.62592752366754

> <r_i_glide_hbond>
0

> <r_i_glide_metal>
0

> <r_i_glide_rewards>
-3.53371810913666

> <r_i_glide_evdw>
-18.3003540039062

> <r_i_glide_ecoul>
-0.805666267871857

> <r_i_glide_erotb>
0.213227374973688

> <r_i_glide_esite>
0

> <r_i_glide_emodel>
-21.6919289099947

> <r_i_glide_energy>
-19.1060202717781

> <r_i_glide_einternal>
1.47773051261902

> <i_i_glide_confnum>
2

> <i_i_glide_posenum>
222

> <r_i_glide_eff_state_penalty>
0

> <s_user_duplicate_titles>
CHEMBL221_lig822

> <i_f3d_flags>
0

> <s_m_subgroup_title>
dock_pv

> <s_m_subgroupid>
dock_pv

> <b_m_subgroup_collapsed>
1

$$$$
CHEMBL221_lig762
                    3D
 Schrodinger Suite 2021-1.
 34 35  0  0  1  0            999 V2000
   19.3271   48.0220   11.4860 C   0  0  0  0  0  0
   19.5619   48.1427   10.1175 C   0  0  0  0  0  0
   20.2926   49.1438    9.5821 N   0  0  0  0  0  0
   20.8469   50.0353   10.4358 C   0  0  0  0  0  0
   20.7205   49.9607   11.8290 C   0  0  0  0  0  0
   19.9083   48.9431   12.3701 C   0  0  0  0  0  0
   19.7100   48.8593   13.7635 N   0  0  0  0  0  0
   18.3020   48.1061   14.5458 S   0  0  0  0  0  0
   21.3441   50.9066   12.6617 N   0  0  0  0  0  0
   22.5273   51.6467   12.5006 C   0  0  0  0  0  0
   22.7796   52.7481   13.3406 C   0  0  0  0  0  0
   23.9805   53.4508   13.2195 C   0  0  0  0  0  0
   24.9219   53.0729   12.2703 C   0  0  0  0  0  0
   24.6550   52.0217   11.4003 C   0  0  0  0  0  0
   23.4840   51.2880   11.5411 C   0  0  0  0  0  0
   18.2347   48.6729   15.8961 O   0  0  0  0  0  0
   18.8079   46.2838   14.7009 C   0  0  0  0  0  0
   19.7230   46.1981   15.6684 F   0  0  0  0  0  0
   17.7254   45.5690   15.0000 F   0  0  0  0  0  0
   19.3230   45.8726   13.5459 F   0  0  0  0  0  0
   17.1676   48.2439   13.6278 O   0  0  0  0  0  0
   21.7563   53.2285   14.3563 C   0  0  0  0  0  0
   18.6782   47.2311   11.8189 H   0  0  0  0  0  0
   19.1149   47.4529    9.4171 H   0  0  0  0  0  0
   21.3822   50.8444    9.9661 H   0  0  0  0  0  0
   20.3023   49.4207   14.3544 H   0  0  0  0  0  0
   20.8511   51.1105   13.5173 H   0  0  0  0  0  0
   24.1809   54.3035   13.8515 H   0  0  0  0  0  0
   25.8491   53.6209   12.2000 H   0  0  0  0  0  0
   25.3752   51.7483   10.6445 H   0  0  0  0  0  0
   23.3486   50.4306   10.9018 H   0  0  0  0  0  0
   21.4188   52.4129   14.9978 H   0  0  0  0  0  0
   22.1232   54.0315   14.9952 H   0  0  0  0  0  0
   20.9069   53.6119   13.7997 H   0  0  0  0  0  0
  1  6  1  0  0  0
  1  2  2  0  0  0
  1 23  1  0  0  0
  2  3  1  0  0  0
  2 24  1  0  0  0
  3  4  2  0  0  0
  4  5  1  0  0  0
  4 25  1  0  0  0
  5  6  2  0  0  0
  5  9  1  0  0  0
  6  7  1  0  0  0
  7  8  1  0  0  0
  7 26  1  0  0  0
  8 16  2  0  0  0
  8 17  1  0  0  0
  8 21  2  0  0  0
  9 10  1  0  0  0
  9 27  1  0  0  0
 10 11  2  0  0  0
 10 15  1  0  0  0
 11 12  1  0  0  0
 11 22  1  0  0  0
 12 13  2  0  0  0
 12 28  1  0  0  0
 13 14  1  0  0  0
 13 29  1  0  0  0
 14 15  2  0  0  0
 14 30  1  0  0  0
 15 31  1  0  0  0
 17 18  1  0  0  0
 17 19  1  0  0  0
 17 20  1  0  0  0
 22 32  1  0  0  0
 22 33  1  0  0  0
 22 34  1  0  0  0
M  END
> <s_m_entry_id>
5619

> <s_m_entry_name>
dock_pv.610

> <s_m_Source_Path>
/home/csk/Desktop/cluster/DUD-E-result/pgh1

> <s_m_Source_File>
dock_pv.maegz

> <i_m_Source_File_Index>
610

> <chembl_id>
CHEMBL1081856

> <chembl_pref_name>
None

> <i_lp_mmshare_version>
53161

> <r_lp_tautomer_probability>
1

> <s_lp_Force_Field>
OPLS_2005

> <r_lp_Energy>
10.324357

> <b_lp_Chiralities_Consistent>
1

> <s_lp_Variant>
CHEMBL221_lig762-1

> <s_i_glide_gridfile>
glide-grid_2oyu

> <i_i_glide_lignum>
932

> <i_i_glide_rotatable_bonds>
5

> <r_i_docking_score>
-6.9797420388177

> <r_i_glide_ligand_efficiency>
-0.317261001764441

> <r_i_glide_ligand_efficiency_sa>
-0.888977804111136

> <r_i_glide_ligand_efficiency_ln>
-1.7061035465638

> <r_i_glide_gscore>
-6.9797420388177

> <r_i_glide_lipo>
-3.67671671817548

> <r_i_glide_hbond>
0

> <r_i_glide_metal>
0

> <r_i_glide_rewards>
-1.80677060877045

> <r_i_glide_evdw>
-36.2957801818848

> <r_i_glide_ecoul>
-1.75394225120544

> <r_i_glide_erotb>
0.685790712688168

> <r_i_glide_esite>
-0.104165077784879

> <r_i_glide_emodel>
-52.9422567372428

> <r_i_glide_energy>
-38.0497224330902

> <r_i_glide_einternal>
1.47140395641327

> <i_i_glide_confnum>
7

> <i_i_glide_posenum>
119

> <r_i_glide_eff_state_penalty>
0

> <s_user_duplicate_titles>
CHEMBL221_lig762,616705

> <i_f3d_flags>
0

> <s_m_subgroup_title>
dock_pv

> <s_m_subgroupid>
dock_pv

> <b_m_subgroup_collapsed>
1

$$$$
CHEMBL221_lig788
                    3D
 Schrodinger Suite 2021-1.
 40 41  0  0  1  0            999 V2000
   16.9498   47.8722   14.1540 C   0  0  0  0  0  0
   18.7779   47.7676   14.5229 S   0  0  0  0  0  0
   18.9912   48.2221   15.8977 O   0  0  0  0  0  0
   19.3063   46.4814   14.0648 O   0  0  0  0  0  0
   19.4446   49.0267   13.4942 N   0  0  0  0  0  0
   19.7053   48.9516   12.1122 C   0  0  0  0  0  0
   19.3230   47.8730   11.3272 C   0  0  0  0  0  0
   19.5558   47.8911    9.9489 C   0  0  0  0  0  0
   20.1230   48.9486    9.3204 N   0  0  0  0  0  0
   20.4809   50.0072   10.0849 C   0  0  0  0  0  0
   20.3380   50.0231   11.4717 C   0  0  0  0  0  0
   20.8893   51.0730   12.2000 N   0  0  0  0  0  0
   22.0050   50.6674   13.0483 C   0  0  0  0  0  0
   23.2674   50.3513   12.2001 C   0  0  0  0  0  0
   24.2752   51.4862   12.0237 C   0  0  0  0  0  0
   23.6509   52.8532   11.8345 C   0  0  0  0  0  0
   23.3547   53.6044   13.1563 C   0  0  0  0  0  0
   22.1230   53.1314   13.9276 C   0  0  0  0  0  0
   22.1547   51.6325   14.2401 C   0  0  0  0  0  0
   16.4661   47.0064   14.6015 H   0  0  0  0  0  0
   16.7955   47.8756   13.0761 H   0  0  0  0  0  0
   16.5619   48.7784   14.6000 H   0  0  0  0  0  0
   19.6756   49.9002   13.9437 H   0  0  0  0  0  0
   18.8096   47.0730   11.8000 H   0  0  0  0  0  0
   19.2549   47.0730    9.3139 H   0  0  0  0  0  0
   20.9230   50.8439    9.5719 H   0  0  0  0  0  0
   21.1087   51.9015   11.6671 H   0  0  0  0  0  0
   21.7662   49.7197   13.5272 H   0  0  0  0  0  0
   23.7682   49.4733   12.6000 H   0  0  0  0  0  0
   22.9767   50.0290   11.2006 H   0  0  0  0  0  0
   24.9230   51.5342   12.8929 H   0  0  0  0  0  0
   24.9230   51.2553   11.1768 H   0  0  0  0  0  0
   24.3162   53.4699   11.2442 H   0  0  0  0  0  0
   22.7669   52.6756   11.2249 H   0  0  0  0  0  0
   24.2324   53.5405   13.8000 H   0  0  0  0  0  0
   23.2315   54.6734   13.0000 H   0  0  0  0  0  0
   22.0750   53.6839   14.8674 H   0  0  0  0  0  0
   21.2096   53.4004   13.4000 H   0  0  0  0  0  0
   21.3841   51.4079   14.9792 H   0  0  0  0  0  0
   23.1057   51.4459   14.7296 H   0  0  0  0  0  0
  1  2  1  0  0  0
  1 20  1  0  0  0
  1 21  1  0  0  0
  1 22  1  0  0  0
  2  3  2  0  0  0
  2  4  2  0  0  0
  2  5  1  0  0  0
  5  6  1  0  0  0
  5 23  1  0  0  0
  6  7  2  0  0  0
  6 11  1  0  0  0
  7  8  1  0  0  0
  7 24  1  0  0  0
  8  9  2  0  0  0
  8 25  1  0  0  0
  9 10  1  0  0  0
 10 11  2  0  0  0
 10 26  1  0  0  0
 11 12  1  0  0  0
 12 13  1  0  0  0
 12 27  1  0  0  0
 13 14  1  0  0  0
 13 19  1  0  0  0
 13 28  1  0  0  0
 14 15  1  0  0  0
 14 29  1  0  0  0
 14 30  1  0  0  0
 15 16  1  0  0  0
 15 31  1  0  0  0
 15 32  1  0  0  0
 16 17  1  0  0  0
 16 33  1  0  0  0
 16 34  1  0  0  0
 17 18  1  0  0  0
 17 35  1  0  0  0
 17 36  1  0  0  0
 18 19  1  0  0  0
 18 37  1  0  0  0
 18 38  1  0  0  0
 19 39  1  0  0  0
 19 40  1  0  0  0
M  END
> <s_m_entry_id>
5620

> <s_m_entry_name>
dock_pv.611

> <s_m_Source_Path>
/home/csk/Desktop/cluster/DUD-E-result/pgh1

> <s_m_Source_File>
dock_pv.maegz

> <i_m_Source_File_Index>
611

> <chembl_id>
CHEMBL1204025

> <chembl_pref_name>
None

> <i_lp_mmshare_version>
53161

> <r_lp_tautomer_probability>
1

> <s_lp_Force_Field>
OPLS_2005

> <r_lp_Energy>
12.939973

> <b_lp_Chiralities_Consistent>
1

> <s_lp_Variant>
CHEMBL221_lig788-1

> <s_i_glide_gridfile>
glide-grid_2oyu

> <i_i_glide_lignum>
958

> <i_i_glide_rotatable_bonds>
4

> <r_i_docking_score>
-6.97570475041703

> <r_i_glide_ligand_efficiency>
-0.367142355285107

> <r_i_glide_ligand_efficiency_sa>
-0.979683265196898

> <r_i_glide_ligand_efficiency_ln>
-1.76849097863118

> <r_i_glide_gscore>
-6.97570475041703

> <r_i_glide_lipo>
-3.81477279862734

> <r_i_glide_hbond>
0

> <r_i_glide_metal>
0

> <r_i_glide_rewards>
-2.2336476089523

> <r_i_glide_evdw>
-26.6655426025391

> <r_i_glide_ecoul>
-1.63955450057983

> <r_i_glide_erotb>
0.676487949285217

> <r_i_glide_esite>
-0.0245619869086724

> <r_i_glide_emodel>
-29.1973338084167

> <r_i_glide_energy>
-28.3050971031189

> <r_i_glide_einternal>
8.92185497283936

> <i_i_glide_confnum>
129

> <i_i_glide_posenum>
237

> <r_i_glide_eff_state_penalty>
0

> <s_user_duplicate_titles>
CHEMBL221_lig788,677976

> <i_f3d_flags>
0

> <s_m_subgroup_title>
dock_pv

> <s_m_subgroupid>
dock_pv

> <b_m_subgroup_collapsed>
1

$$$$
CHEMBL221_lig611
                    3D
 Schrodinger Suite 2021-1.
 36 37  0  0  1  0            999 V2000
   19.6910   48.0543   11.2848 C   0  0  0  0  0  0
   19.7232   48.4524    9.9524 C   0  0  0  0  0  0
   20.1785   49.6652    9.5664 N   0  0  0  0  0  0
   20.6047   50.5079   10.5345 C   0  0  0  0  0  0
   20.6330   50.1778   11.8931 C   0  0  0  0  0  0
   20.1444   48.9246   12.2829 C   0  0  0  0  0  0
   20.1975   48.5914   13.6468 N   0  0  0  0  0  0
   19.3237   47.2862   14.4582 S   0  0  0  0  0  0
   17.6657   48.0659   14.8891 C   0  0  0  0  0  0
   20.0692   47.0190   15.6867 O   0  0  0  0  0  0
   19.1134   46.1943   13.5158 O   0  0  0  0  0  0
   21.0561   51.0670   12.8543 O   0  0  0  0  0  0
   22.1840   51.8421   12.7076 C   0  0  0  0  0  0
   22.1883   53.0445   13.4054 C   0  0  0  0  0  0
   23.3156   53.8510   13.4000 C   0  0  0  0  0  0
   24.4609   53.4352   12.7360 C   0  0  0  0  0  0
   24.4478   52.2727   11.9658 C   0  0  0  0  0  0
   23.3122   51.4615   11.9655 C   0  0  0  0  0  0
   25.8982   54.3672   12.9194 Cl  0  0  0  0  0  0
   17.7912   48.9127   16.1714 C   0  0  0  0  0  0
   17.1505   48.2738   17.4008 C   0  0  0  0  0  0
   19.3291   47.0733   11.4912 H   0  0  0  0  0  0
   19.3859   47.7917    9.1663 H   0  0  0  0  0  0
   20.9249   51.4732   10.2010 H   0  0  0  0  0  0
   20.6985   49.2325   14.2432 H   0  0  0  0  0  0
   16.9603   47.2440   15.0083 H   0  0  0  0  0  0
   17.3484   48.6509   14.0267 H   0  0  0  0  0  0
   21.3231   53.3416   13.9770 H   0  0  0  0  0  0
   23.3223   54.7661   13.9733 H   0  0  0  0  0  0
   25.3205   51.9817   11.3980 H   0  0  0  0  0  0
   23.3224   50.5325   11.4156 H   0  0  0  0  0  0
   17.3229   49.8730   16.0342 H   0  0  0  0  0  0
   18.8327   49.1593   16.3791 H   0  0  0  0  0  0
   17.0444   49.0169   18.1929 H   0  0  0  0  0  0
   17.7722   47.4729   17.7914 H   0  0  0  0  0  0
   16.1552   47.8791   17.1951 H   0  0  0  0  0  0
  1  6  1  0  0  0
  1  2  2  0  0  0
  1 22  1  0  0  0
  2  3  1  0  0  0
  2 23  1  0  0  0
  3  4  2  0  0  0
  4  5  1  0  0  0
  4 24  1  0  0  0
  5  6  2  0  0  0
  5 12  1  0  0  0
  6  7  1  0  0  0
  7  8  1  0  0  0
  7 25  1  0  0  0
  8 11  2  0  0  0
  8  9  1  0  0  0
  8 10  2  0  0  0
  9 20  1  0  0  0
  9 26  1  0  0  0
  9 27  1  0  0  0
 12 13  1  0  0  0
 13 14  2  0  0  0
 13 18  1  0  0  0
 14 15  1  0  0  0
 14 28  1  0  0  0
 15 16  2  0  0  0
 15 29  1  0  0  0
 16 17  1  0  0  0
 16 19  1  0  0  0
 17 18  2  0  0  0
 17 30  1  0  0  0
 18 31  1  0  0  0
 20 21  1  0  0  0
 20 32  1  0  0  0
 20 33  1  0  0  0
 21 34  1  0  0  0
 21 35  1  0  0  0
 21 36  1  0  0  0
M  END
> <s_m_entry_id>
5621

> <s_m_entry_name>
dock_pv.612

> <s_m_Source_Path>
/home/csk/Desktop/cluster/DUD-E-result/pgh1

> <s_m_Source_File>
dock_pv.maegz

> <i_m_Source_File_Index>
612

> <chembl_id>
CHEMBL374169

> <chembl_pref_name>
None

> <i_lp_mmshare_version>
53161

> <r_lp_tautomer_probability>
1

> <s_lp_Force_Field>
OPLS_2005

> <r_lp_Energy>
5.532363

> <b_lp_Chiralities_Consistent>
1

> <s_lp_Variant>
CHEMBL221_lig611-1

> <s_i_glide_gridfile>
glide-grid_2oyu

> <i_i_glide_lignum>
750

> <i_i_glide_rotatable_bonds>
6

> <r_i_docking_score>
-6.97507758793096

> <r_i_glide_ligand_efficiency>
-0.332146551806236

> <r_i_glide_ligand_efficiency_sa>
-0.916367150949882

> <r_i_glide_ligand_efficiency_ln>
-1.72457383914455

> <r_i_glide_gscore>
-6.97507758793096

> <r_i_glide_lipo>
-4.14741650075301

> <r_i_glide_hbond>
0

> <r_i_glide_metal>
0

> <r_i_glide_rewards>
-1.78315963557974

> <r_i_glide_evdw>
-29.799747467041

> <r_i_glide_ecoul>
-2.49697589874268

> <r_i_glide_erotb>
0.878276994999883

> <r_i_glide_esite>
-0.0582446884346466

> <r_i_glide_emodel>
-37.5070789959314

> <r_i_glide_energy>
-32.2967233657837

> <r_i_glide_einternal>
10.1204271316528

> <i_i_glide_confnum>
96

> <i_i_glide_posenum>
14

> <r_i_glide_eff_state_penalty>
0

> <s_user_duplicate_titles>
CHEMBL221_lig611

> <i_f3d_flags>
0

> <s_m_subgroup_title>
dock_pv

> <s_m_subgroupid>
dock_pv

> <b_m_subgroup_collapsed>
1

$$$$
CHEMBL221_lig392
                    3D
 Schrodinger Suite 2021-1.
 46 47  0  0  1  0            999 V2000
   20.1230   49.6832    8.6420 S   0  0  0  0  0  0
   19.8024   48.6100    9.9572 C   0  0  0  0  0  0
   19.3230   47.4730    9.5498 N   0  0  0  0  0  0
   19.6468   48.4309    7.5351 C   0  0  0  0  0  0
   19.2547   47.3577    8.1689 N   0  0  0  0  0  0
   19.6531   48.7325   13.7687 C   0  0  0  0  0  0
   21.1958   50.4808   12.9386 C   0  0  0  0  0  0
   20.5740   49.7919   14.0078 C   0  0  0  0  0  0
   20.0484   48.9912   11.3768 C   0  0  0  0  0  0
   19.3905   48.3803   12.4347 C   0  0  0  0  0  0
   20.9702   49.9846   11.6522 C   0  0  0  0  0  0
   19.0081   47.8883   14.9121 C   0  0  0  0  0  0
   22.0861   51.7584   13.1171 C   0  0  0  0  0  0
   19.4428   48.6730    5.8001 S   0  0  0  0  0  0
   20.9073   50.1355   15.2938 O   0  0  0  0  0  0
   23.3230   51.4769   13.9512 C   0  0  0  0  0  0
   18.0145   46.8143   14.4160 C   0  0  0  0  0  0
   18.2141   48.7191   15.9450 C   0  0  0  0  0  0
   20.1316   47.1099   15.5890 C   0  0  0  0  0  0
   21.3023   52.9004   13.8163 C   0  0  0  0  0  0
   22.6714   52.2713   11.7751 C   0  0  0  0  0  0
   20.8134   49.7900    5.4284 C   0  0  0  0  0  0
   18.6950   47.5962   12.1802 H   0  0  0  0  0  0
   21.5119   50.3597   10.8063 H   0  0  0  0  0  0
   20.4160   49.6174   15.9335 H   0  0  0  0  0  0
   23.7230   50.5236   13.6379 H   0  0  0  0  0  0
   24.1037   52.2325   13.8395 H   0  0  0  0  0  0
   23.0746   51.4730   15.0000 H   0  0  0  0  0  0
   17.5550   46.2640   15.2385 H   0  0  0  0  0  0
   18.5230   46.0714   13.7998 H   0  0  0  0  0  0
   17.1977   47.2592   13.8447 H   0  0  0  0  0  0
   18.8091   49.4730   16.4486 H   0  0  0  0  0  0
   17.3611   49.2135   15.4806 H   0  0  0  0  0  0
   17.8089   48.0860   16.7364 H   0  0  0  0  0  0
   20.7567   47.7585   16.1998 H   0  0  0  0  0  0
   19.7632   46.2884   16.2000 H   0  0  0  0  0  0
   20.7779   46.6730   14.8327 H   0  0  0  0  0  0
   20.3153   53.0730   13.4000 H   0  0  0  0  0  0
   21.1329   52.6832   14.8712 H   0  0  0  0  0  0
   21.8445   53.8466   13.7844 H   0  0  0  0  0  0
   21.9177   52.2730   11.0000 H   0  0  0  0  0  0
   23.0982   53.2708   11.8579 H   0  0  0  0  0  0
   23.4664   51.6215   11.4027 H   0  0  0  0  0  0
   20.6640   50.2730    4.4671 H   0  0  0  0  0  0
   20.9228   50.5794    6.1669 H   0  0  0  0  0  0
   21.7230   49.1984    5.3808 H   0  0  0  0  0  0
  1  2  1  0  0  0
  1  4  1  0  0  0
  2  3  2  0  0  0
  2  9  1  0  0  0
  3  5  1  0  0  0
  4  5  2  0  0  0
  4 14  1  0  0  0
  6 10  2  0  0  0
  6 12  1  0  0  0
  6  8  1  0  0  0
  7 11  1  0  0  0
  7  8  2  0  0  0
  7 13  1  0  0  0
  8 15  1  0  0  0
  9 10  1  0  0  0
  9 11  2  0  0  0
 10 23  1  0  0  0
 11 24  1  0  0  0
 12 17  1  0  0  0
 12 18  1  0  0  0
 12 19  1  0  0  0
 13 16  1  0  0  0
 13 20  1  0  0  0
 13 21  1  0  0  0
 14 22  1  0  0  0
 15 25  1  0  0  0
 16 26  1  0  0  0
 16 27  1  0  0  0
 16 28  1  0  0  0
 17 29  1  0  0  0
 17 30  1  0  0  0
 17 31  1  0  0  0
 18 32  1  0  0  0
 18 33  1  0  0  0
 18 34  1  0  0  0
 19 35  1  0  0  0
 19 36  1  0  0  0
 19 37  1  0  0  0
 20 38  1  0  0  0
 20 39  1  0  0  0
 20 40  1  0  0  0
 21 41  1  0  0  0
 21 42  1  0  0  0
 21 43  1  0  0  0
 22 44  1  0  0  0
 22 45  1  0  0  0
 22 46  1  0  0  0
M  END
> <s_m_entry_id>
5622

> <s_m_entry_name>
dock_pv.613

> <s_m_Source_Path>
/home/csk/Desktop/cluster/DUD-E-result/pgh1

> <s_m_Source_File>
dock_pv.maegz

> <i_m_Source_File_Index>
613

> <chembl_id>
CHEMBL12532

> <chembl_pref_name>
None

> <i_lp_mmshare_version>
53161

> <r_lp_tautomer_probability>
0.999999999997365

> <s_lp_Force_Field>
OPLS_2005

> <r_lp_Energy>
25.465409

> <b_lp_Chiralities_Consistent>
1

> <s_lp_Variant>
CHEMBL221_lig392-1

> <s_i_glide_gridfile>
glide-grid_2oyu

> <i_i_glide_lignum>
459

> <i_i_glide_rotatable_bonds>
5

> <r_i_docking_score>
-6.97423002581315

> <r_i_glide_ligand_efficiency>
-0.31701045571878

> <r_i_glide_ligand_efficiency_sa>
-0.888275764237776

> <r_i_glide_ligand_efficiency_ln>
-1.70475620952993

> <r_i_glide_gscore>
-6.97423002581315

> <r_i_glide_lipo>
-4.50011966469537

> <r_i_glide_hbond>
0

> <r_i_glide_metal>
0

> <r_i_glide_rewards>
-1.78448678320646

> <r_i_glide_evdw>
-17.6132659912109

> <r_i_glide_ecoul>
0.161697298288345

> <r_i_glide_erotb>
0.16678512690598

> <r_i_glide_esite>
0

> <r_i_glide_emodel>
-22.8710463049922

> <r_i_glide_energy>
-17.4515686929226

> <r_i_glide_einternal>
2.76776266098022

> <i_i_glide_confnum>
1

> <i_i_glide_posenum>
22

> <r_i_glide_eff_state_penalty>
0

> <s_user_duplicate_titles>
CHEMBL221_lig392,10416

> <i_f3d_flags>
0

> <s_m_subgroup_title>
dock_pv

> <s_m_subgroupid>
dock_pv

> <b_m_subgroup_collapsed>
1

$$$$
CHEMBL221_lig46
                    3D
 Schrodinger Suite 2021-1.
 38 39  0  0  1  0            999 V2000
   18.6732   46.7854   14.7729 C   0  0  0  0  0  0
   18.4647   47.7777   13.6105 C   0  0  2  0  0  0
   19.6598   48.7244   13.4297 C   0  0  0  0  0  0
   23.1259   52.4482   12.3225 C   0  0  1  0  0  0
   19.7224   46.6730   15.4000 O   0  0  0  0  0  0
   23.2443   51.0702   13.0058 C   0  0  0  0  0  0
   22.7936   53.6700   13.2286 C   0  0  1  0  0  0
   20.2779   48.8336   12.1806 C   0  0  0  0  0  0
   20.1499   49.4725   14.5071 C   0  0  0  0  0  0
   21.9266   50.3229   13.1270 C   0  0  0  0  0  0
   17.5654   46.0312   15.0000 O   0  0  0  0  0  0
   21.2747   50.2729   14.3560 C   0  0  0  0  0  0
   21.4121   49.6271   12.0301 C   0  0  0  0  0  0
   22.1231   53.3830   14.4351 O   0  0  0  0  0  0
   25.1851   53.6619   12.6722 C   0  0  0  0  0  0
   24.4138   52.8640   11.6162 C   0  0  0  0  0  0
   17.1268   48.5342   13.7456 C   0  0  0  0  0  0
   24.1075   54.4702   13.4000 C   0  0  0  0  0  0
   18.4016   47.1630   12.7116 H   0  0  0  0  0  0
   22.3577   52.3501   11.5540 H   0  0  0  0  0  0
   23.7225   51.1751   13.9798 H   0  0  0  0  0  0
   23.9126   50.4211   12.4375 H   0  0  0  0  0  0
   22.1224   54.3023   12.6492 H   0  0  0  0  0  0
   19.9052   48.2780   11.3326 H   0  0  0  0  0  0
   19.6778   49.4139   15.4768 H   0  0  0  0  0  0
   16.8222   46.3249   14.4713 H   0  0  0  0  0  0
   21.6597   50.8171   15.2056 H   0  0  0  0  0  0
   21.9115   49.6712   11.0731 H   0  0  0  0  0  0
   22.7672   53.4731   15.1543 H   0  0  0  0  0  0
   25.9760   54.2877   12.2580 H   0  0  0  0  0  0
   25.6643   52.9765   13.3732 H   0  0  0  0  0  0
   24.9979   52.0259   11.2322 H   0  0  0  0  0  0
   24.1227   53.4730   10.7594 H   0  0  0  0  0  0
   17.0251   49.0026   14.7257 H   0  0  0  0  0  0
   17.0364   49.3182   13.0001 H   0  0  0  0  0  0
   16.2694   47.8759   13.5995 H   0  0  0  0  0  0
   24.0095   55.4724   13.0000 H   0  0  0  0  0  0
   24.4069   54.6728   14.4210 H   0  0  0  0  0  0
  1  2  1  0  0  0
  1  5  2  0  0  0
  1 11  1  0  0  0
  2  3  1  0  0  0
  2 17  1  0  0  0
  2 19  1  0  0  0
  3  8  1  0  0  0
  3  9  2  0  0  0
  4  6  1  0  0  0
  4  7  1  0  0  0
  4 16  1  0  0  0
  4 20  1  0  0  0
  6 10  1  0  0  0
  6 21  1  0  0  0
  6 22  1  0  0  0
  7 14  1  0  0  0
  7 18  1  0  0  0
  7 23  1  0  0  0
  8 13  2  0  0  0
  8 24  1  0  0  0
  9 12  1  0  0  0
  9 25  1  0  0  0
 10 12  2  0  0  0
 10 13  1  0  0  0
 11 26  1  0  0  0
 12 27  1  0  0  0
 13 28  1  0  0  0
 14 29  1  0  0  0
 15 16  1  0  0  0
 15 18  1  0  0  0
 15 30  1  0  0  0
 15 31  1  0  0  0
 16 32  1  0  0  0
 16 33  1  0  0  0
 17 34  1  0  0  0
 17 35  1  0  0  0
 17 36  1  0  0  0
 18 37  1  0  0  0
 18 38  1  0  0  0
M  END
> <s_m_entry_id>
5623

> <s_m_entry_name>
dock_pv.614

> <s_m_Source_Path>
/home/csk/Desktop/cluster/DUD-E-result/pgh1

> <s_m_Source_File>
dock_pv.maegz

> <i_m_Source_File_Index>
614

> <chembl_id>
CHEMBL416542

> <chembl_pref_name>
None

> <i_lp_mmshare_version>
53161

> <r_lp_tautomer_probability>
1

> <s_lp_Force_Field>
OPLS_2005

> <r_lp_Energy>
30.432964

> <b_lp_Chiralities_Consistent>
1

> <s_lp_Variant>
CHEMBL221_lig46-7

> <s_i_glide_gridfile>
glide-grid_2oyu

> <i_i_glide_lignum>
59

> <i_i_glide_rotatable_bonds>
6

> <r_i_docking_score>
-6.97183288794302

> <r_i_glide_ligand_efficiency>
-0.387324049330168

> <r_i_glide_ligand_efficiency_sa>
-1.0150761680742

> <r_i_glide_ligand_efficiency_ln>
-1.79207369418938

> <r_i_glide_gscore>
-6.97183288794302

> <r_i_glide_lipo>
-3.46745739139028

> <r_i_glide_hbond>
-0.325400319808241

> <r_i_glide_metal>
0

> <r_i_glide_rewards>
-2.46051591283179

> <r_i_glide_evdw>
-20.1217956542969

> <r_i_glide_ecoul>
-5.63603210449219

> <r_i_glide_erotb>
1.13303533447597

> <r_i_glide_esite>
0

> <r_i_glide_emodel>
-33.3505432477473

> <r_i_glide_energy>
-25.7578277587891

> <r_i_glide_einternal>
5.09388208389282

> <i_i_glide_confnum>
249

> <i_i_glide_posenum>
57

> <r_i_glide_eff_state_penalty>
0

> <s_user_duplicate_titles>
CHEMBL221_lig46,CHEMBL221_lig806

> <i_f3d_flags>
0

> <s_m_subgroup_title>
dock_pv

> <s_m_subgroupid>
dock_pv

> <b_m_subgroup_collapsed>
1

$$$$
CHEMBL221_lig487
                    3D
 Schrodinger Suite 2021-1.
 33 35  0  0  1  0            999 V2000
   18.8732   47.4080   15.8001 C   0  0  0  0  0  0
   18.5004   46.6741   14.6782 C   0  0  0  0  0  0
   18.9230   47.0721   13.4122 C   0  0  0  0  0  0
   19.7071   48.5131   15.6618 C   0  0  0  0  0  0
   20.1234   48.8932   14.3917 C   0  0  0  0  0  0
   19.7226   48.1991   13.2448 C   0  0  0  0  0  0
   20.1027   48.6976   11.8885 C   0  0  0  0  0  0
   20.9140   49.8990   11.9302 C   0  0  0  0  0  0
   21.2469   50.4795   13.1003 C   0  0  0  0  0  0
   20.9328   49.9929   14.3239 O   0  0  0  0  0  0
   21.9647   51.7393   13.2667 C   0  0  0  0  0  0
   23.2270   52.0133   12.7220 C   0  0  0  0  0  0
   23.8432   53.2425   13.0000 C   0  0  0  0  0  0
   23.1204   54.2300   13.6937 C   0  0  0  0  0  0
   21.8610   53.9692   14.2006 C   0  0  0  0  0  0
   21.3234   52.7056   14.0396 C   0  0  0  0  0  0
   19.7230   48.1580   10.8508 O   0  0  0  0  0  0
   23.8894   51.0648   11.9315 N   0  0  0  0  0  0
   25.1489   53.4134   12.5914 O   0  0  0  0  0  0
   25.7835   54.6504   12.8514 C   0  0  0  0  0  0
   18.5218   47.1110   16.7772 H   0  0  0  0  0  0
   17.8590   45.8125   14.7897 H   0  0  0  0  0  0
   18.5890   46.5187   12.5544 H   0  0  0  0  0  0
   20.0226   49.0800   16.5262 H   0  0  0  0  0  0
   21.1965   50.3712   11.0016 H   0  0  0  0  0  0
   23.5515   55.1846   13.9376 H   0  0  0  0  0  0
   21.3476   54.7156   14.7909 H   0  0  0  0  0  0
   20.4039   52.4683   14.5380 H   0  0  0  0  0  0
   23.4567   50.1697   11.7588 H   0  0  0  0  0  0
   24.7749   51.3137   11.5108 H   0  0  0  0  0  0
   26.6311   54.7553   12.2007 H   0  0  0  0  0  0
   25.1598   55.5019   12.6011 H   0  0  0  0  0  0
   26.1200   54.6889   13.8803 H   0  0  0  0  0  0
  1  2  2  0  0  0
  1  4  1  0  0  0
  1 21  1  0  0  0
  2  3  1  0  0  0
  2 22  1  0  0  0
  3  6  2  0  0  0
  3 23  1  0  0  0
  4  5  2  0  0  0
  4 24  1  0  0  0
  5  6  1  0  0  0
  5 10  1  0  0  0
  6  7  1  0  0  0
  7 17  2  0  0  0
  7  8  1  0  0  0
  8  9  2  0  0  0
  8 25  1  0  0  0
  9 10  1  0  0  0
  9 11  1  0  0  0
 11 12  2  0  0  0
 11 16  1  0  0  0
 12 13  1  0  0  0
 12 18  1  0  0  0
 13 14  2  0  0  0
 13 19  1  0  0  0
 14 15  1  0  0  0
 14 26  1  0  0  0
 15 16  2  0  0  0
 15 27  1  0  0  0
 16 28  1  0  0  0
 18 29  1  0  0  0
 18 30  1  0  0  0
 19 20  1  0  0  0
 20 31  1  0  0  0
 20 32  1  0  0  0
 20 33  1  0  0  0
M  END
> <s_m_entry_id>
5624

> <s_m_entry_name>
dock_pv.615

> <s_m_Source_Path>
/home/csk/Desktop/cluster/DUD-E-result/pgh1

> <s_m_Source_File>
dock_pv.maegz

> <i_m_Source_File_Index>
615

> <chembl_id>
CHEMBL35482

> <chembl_pref_name>
None

> <i_lp_mmshare_version>
53161

> <r_lp_tautomer_probability>
1

> <s_lp_Force_Field>
OPLS_2005

> <r_lp_Energy>
22.278034

> <b_lp_Chiralities_Consistent>
1

> <s_lp_Variant>
CHEMBL221_lig487-1

> <s_i_glide_gridfile>
glide-grid_2oyu

> <i_i_glide_lignum>
621

> <i_i_glide_rotatable_bonds>
2

> <r_i_docking_score>
-6.96904246713641

> <r_i_glide_ligand_efficiency>
-0.34845212335682

> <r_i_glide_ligand_efficiency_sa>
-0.945844581235156

> <r_i_glide_ligand_efficiency_ln>
-1.74412147512021

> <r_i_glide_gscore>
-6.96904246713641

> <r_i_glide_lipo>
-3.22943178492115

> <r_i_glide_hbond>
0

> <r_i_glide_metal>
0

> <r_i_glide_rewards>
-2.23828163320353

> <r_i_glide_evdw>
-28.8065147399902

> <r_i_glide_ecoul>
-2.07053422927856

> <r_i_glide_erotb>
0.249576822379567

> <r_i_glide_esite>
0

> <r_i_glide_emodel>
-37.1602714425501

> <r_i_glide_energy>
-30.8770489692688

> <r_i_glide_einternal>
1.50573205947876

> <i_i_glide_confnum>
3

> <i_i_glide_posenum>
52

> <r_i_glide_eff_state_penalty>
0

> <s_user_duplicate_titles>
CHEMBL221_lig487

> <i_f3d_flags>
0

> <s_m_subgroup_title>
dock_pv

> <s_m_subgroupid>
dock_pv

> <b_m_subgroup_collapsed>
1

$$$$
CHEMBL221_lig617
                    3D
 Schrodinger Suite 2021-1.
 33 34  0  0  1  0            999 V2000
   19.5114   48.0606   11.4023 C   0  0  0  0  0  0
   19.7230   48.3547   10.0553 C   0  0  0  0  0  0
   20.1230   49.5740    9.6261 N   0  0  0  0  0  0
   20.2673   50.5375   10.5620 C   0  0  0  0  0  0
   20.2542   50.2730   11.9414 C   0  0  0  0  0  0
   19.7950   49.0234   12.3772 C   0  0  0  0  0  0
   19.7807   48.7666   13.7574 N   0  0  0  0  0  0
   19.0560   47.3849   14.6041 S   0  0  0  0  0  0
   17.3230   47.9457   15.1092 C   0  0  0  0  0  0
   19.8724   47.2282   15.8000 O   0  0  0  0  0  0
   18.9276   46.2452   13.7027 O   0  0  0  0  0  0
   20.9230   51.1244   12.8090 O   0  0  0  0  0  0
   22.2389   51.4478   12.5013 C   0  0  0  0  0  0
   22.9572   50.6929   11.5651 C   0  0  0  0  0  0
   24.1230   51.1705   11.0313 C   0  0  0  0  0  0
   24.7355   52.2730   11.5901 C   0  0  0  0  0  0
   24.1155   52.9765   12.6270 C   0  0  0  0  0  0
   22.8444   52.5787   13.0605 C   0  0  0  0  0  0
   26.3023   52.6730   11.0000 Cl  0  0  0  0  0  0
   17.3230   48.4964   16.5477 C   0  0  0  0  0  0
   19.2030   47.0730   11.6537 H   0  0  0  0  0  0
   19.5617   47.6067    9.2921 H   0  0  0  0  0  0
   20.6558   51.4730   10.2000 H   0  0  0  0  0  0
   20.2377   49.4531   14.3385 H   0  0  0  0  0  0
   16.6850   47.0646   15.0448 H   0  0  0  0  0  0
   16.9697   48.6692   14.3745 H   0  0  0  0  0  0
   22.5613   49.7855   11.1392 H   0  0  0  0  0  0
   24.5230   50.6730   10.1708 H   0  0  0  0  0  0
   24.5952   53.8394   13.0660 H   0  0  0  0  0  0
   22.3231   53.1574   13.8089 H   0  0  0  0  0  0
   16.3146   48.6730   16.9211 H   0  0  0  0  0  0
   17.8717   49.4369   16.6000 H   0  0  0  0  0  0
   17.7872   47.7969   17.2435 H   0  0  0  0  0  0
  1  6  1  0  0  0
  1  2  2  0  0  0
  1 21  1  0  0  0
  2  3  1  0  0  0
  2 22  1  0  0  0
  3  4  2  0  0  0
  4  5  1  0  0  0
  4 23  1  0  0  0
  5  6  2  0  0  0
  5 12  1  0  0  0
  6  7  1  0  0  0
  7  8  1  0  0  0
  7 24  1  0  0  0
  8 10  2  0  0  0
  8 11  2  0  0  0
  8  9  1  0  0  0
  9 20  1  0  0  0
  9 25  1  0  0  0
  9 26  1  0  0  0
 12 13  1  0  0  0
 13 14  2  0  0  0
 13 18  1  0  0  0
 14 15  1  0  0  0
 14 27  1  0  0  0
 15 16  2  0  0  0
 15 28  1  0  0  0
 16 17  1  0  0  0
 16 19  1  0  0  0
 17 18  2  0  0  0
 17 29  1  0  0  0
 18 30  1  0  0  0
 20 31  1  0  0  0
 20 32  1  0  0  0
 20 33  1  0  0  0
M  END
> <s_m_entry_id>
5625

> <s_m_entry_name>
dock_pv.616

> <s_m_Source_Path>
/home/csk/Desktop/cluster/DUD-E-result/pgh1

> <s_m_Source_File>
dock_pv.maegz

> <i_m_Source_File_Index>
616

> <chembl_id>
CHEMBL223655

> <chembl_pref_name>
None

> <i_lp_mmshare_version>
53161

> <r_lp_tautomer_probability>
1

> <s_lp_Force_Field>
OPLS_2005

> <r_lp_Energy>
5.313223

> <b_lp_Chiralities_Consistent>
1

> <s_lp_Variant>
CHEMBL221_lig617-1

> <s_i_glide_gridfile>
glide-grid_2oyu

> <i_i_glide_lignum>
756

> <i_i_glide_rotatable_bonds>
5

> <r_i_docking_score>
-6.96786499241794

> <r_i_glide_ligand_efficiency>
-0.348393249620897

> <r_i_glide_ligand_efficiency_sa>
-0.945684773329371

> <r_i_glide_ligand_efficiency_ln>
-1.74382679203389

> <r_i_glide_gscore>
-6.96786499241794

> <r_i_glide_lipo>
-3.94837158864111

> <r_i_glide_hbond>
0

> <r_i_glide_metal>
0

> <r_i_glide_rewards>
-1.83564241176713

> <r_i_glide_evdw>
-31.7329616546631

> <r_i_glide_ecoul>
-2.20294070243835

> <r_i_glide_erotb>
0.759078106576104

> <r_i_glide_esite>
-0.0258399104869022

> <r_i_glide_emodel>
-40.1904224285877

> <r_i_glide_energy>
-33.9359023571014

> <r_i_glide_einternal>
6.73973846435547

> <i_i_glide_confnum>
24

> <i_i_glide_posenum>
133

> <r_i_glide_eff_state_penalty>
0

> <s_user_duplicate_titles>
CHEMBL221_lig617

> <i_f3d_flags>
0

> <s_m_subgroup_title>
dock_pv

> <s_m_subgroupid>
dock_pv

> <b_m_subgroup_collapsed>
1

$$$$
CHEMBL221_lig773
                    3D
 Schrodinger Suite 2021-1.
 31 32  0  0  1  0            999 V2000
   19.3230   47.9983   11.1825 C   0  0  0  0  0  0
   19.7230   48.0832    9.8525 C   0  0  0  0  0  0
   20.5230   49.0730    9.4000 N   0  0  0  0  0  0
   21.0135   49.9509   10.3100 C   0  0  0  0  0  0
   20.6772   49.9335   11.6708 C   0  0  0  0  0  0
   19.7230   48.9861   12.0809 C   0  0  0  0  0  0
   19.0089   49.0729   13.2849 N   0  0  0  0  0  0
   19.6410   48.4063   14.7735 S   0  0  0  0  0  0
   21.1914   50.8695   12.5809 N   0  0  0  0  0  0
   22.3112   51.7105   12.5411 C   0  0  0  0  0  0
   23.4136   51.5062   11.6967 C   0  0  0  0  0  0
   24.4807   52.4054   11.7142 C   0  0  0  0  0  0
   24.4801   53.4730   12.6000 C   0  0  0  0  0  0
   23.3711   53.7039   13.4000 C   0  0  0  0  0  0
   22.3061   52.8086   13.4000 C   0  0  0  0  0  0
   20.5230   49.4119   15.3741 O   0  0  0  0  0  0
   18.0893   48.1933   15.8152 C   0  0  0  0  0  0
   20.1230   47.0730   14.4330 O   0  0  0  0  0  0
   25.7827   52.2730   10.6004 Cl  0  0  0  0  0  0
   18.6186   47.2393   11.4859 H   0  0  0  0  0  0
   19.3690   47.3752    9.1176 H   0  0  0  0  0  0
   21.6446   50.7198    9.8985 H   0  0  0  0  0  0
   18.0547   48.7719   13.1637 H   0  0  0  0  0  0
   20.6119   50.9875   13.4002 H   0  0  0  0  0  0
   23.4647   50.6598   11.0316 H   0  0  0  0  0  0
   25.3055   54.1703   12.6155 H   0  0  0  0  0  0
   23.3517   54.5604   14.0599 H   0  0  0  0  0  0
   21.4667   52.9893   14.0560 H   0  0  0  0  0  0
   18.3414   47.5754   16.6730 H   0  0  0  0  0  0
   17.3301   47.6906   15.2179 H   0  0  0  0  0  0
   17.7230   49.1558   16.1570 H   0  0  0  0  0  0
  1  6  1  0  0  0
  1  2  2  0  0  0
  1 20  1  0  0  0
  2  3  1  0  0  0
  2 21  1  0  0  0
  3  4  2  0  0  0
  4  5  1  0  0  0
  4 22  1  0  0  0
  5  6  2  0  0  0
  5  9  1  0  0  0
  6  7  1  0  0  0
  7  8  1  0  0  0
  7 23  1  0  0  0
  8 16  2  0  0  0
  8 17  1  0  0  0
  8 18  2  0  0  0
  9 10  1  0  0  0
  9 24  1  0  0  0
 10 11  2  0  0  0
 10 15  1  0  0  0
 11 12  1  0  0  0
 11 25  1  0  0  0
 12 13  2  0  0  0
 12 19  1  0  0  0
 13 14  1  0  0  0
 13 26  1  0  0  0
 14 15  2  0  0  0
 14 27  1  0  0  0
 15 28  1  0  0  0
 17 29  1  0  0  0
 17 30  1  0  0  0
 17 31  1  0  0  0
M  END
> <s_m_entry_id>
5626

> <s_m_entry_name>
dock_pv.617

> <s_m_Source_Path>
/home/csk/Desktop/cluster/DUD-E-result/pgh1

> <s_m_Source_File>
dock_pv.maegz

> <i_m_Source_File_Index>
617

> <chembl_id>
CHEMBL1078090

> <chembl_pref_name>
None

> <i_lp_mmshare_version>
53161

> <r_lp_tautomer_probability>
1

> <s_lp_Force_Field>
OPLS_2005

> <r_lp_Energy>
7.417834

> <b_lp_Chiralities_Consistent>
1

> <s_lp_Variant>
CHEMBL221_lig773-1

> <s_i_glide_gridfile>
glide-grid_2oyu

> <i_i_glide_lignum>
943

> <i_i_glide_rotatable_bonds>
4

> <r_i_docking_score>
-6.96642312453415

> <r_i_glide_ligand_efficiency>
-0.366653848659692

> <r_i_glide_ligand_efficiency_sa>
-0.978379733313509

> <r_i_glide_ligand_efficiency_ln>
-1.76613788711882

> <r_i_glide_gscore>
-6.96642312453415

> <r_i_glide_lipo>
-3.5887746095897

> <r_i_glide_hbond>
0

> <r_i_glide_metal>
0

> <r_i_glide_rewards>
-2.02165152590906

> <r_i_glide_evdw>
-33.309211730957

> <r_i_glide_ecoul>
-1.89516544342041

> <r_i_glide_erotb>
0.620578337827352

> <r_i_glide_esite>
-0.0268399238018278

> <r_i_glide_emodel>
-37.631087864933

> <r_i_glide_energy>
-35.2043771743774

> <r_i_glide_einternal>
14.8008289337158

> <i_i_glide_confnum>
2

> <i_i_glide_posenum>
323

> <r_i_glide_eff_state_penalty>
0

> <s_user_duplicate_titles>
CHEMBL221_lig773

> <i_f3d_flags>
0

> <s_m_subgroup_title>
dock_pv

> <s_m_subgroupid>
dock_pv

> <b_m_subgroup_collapsed>
1

$$$$
CHEMBL221_lig965
                    3D
 Schrodinger Suite 2021-1.
 31 32  0  0  1  0            999 V2000
   19.0193   47.4817   14.3955 S   0  0  0  0  0  0
   19.4076   47.5882   15.8000 O   0  0  0  0  0  0
   19.3230   46.2730   13.6283 O   0  0  0  0  0  0
   19.4524   48.0941   11.2722 C   0  0  0  0  0  0
   19.7230   48.2730    9.9166 C   0  0  0  0  0  0
   20.4632   49.3036    9.4458 N   0  0  0  0  0  0
   20.9693   50.1755   10.3492 C   0  0  0  0  0  0
   20.7841   50.0556   11.7305 C   0  0  0  0  0  0
   19.9916   48.9912   12.2054 C   0  0  0  0  0  0
   21.3221   51.0032   12.6190 N   0  0  0  0  0  0
   22.4484   51.8279   12.5408 C   0  0  0  0  0  0
   22.4928   52.9250   13.4000 C   0  0  0  0  0  0
   23.5973   53.7698   13.4000 C   0  0  0  0  0  0
   24.6917   53.4832   12.6000 C   0  0  0  0  0  0
   24.6274   52.4337   11.6932 C   0  0  0  0  0  0
   23.5199   51.5879   11.6713 C   0  0  0  0  0  0
   19.7853   48.8500   13.5912 N   0  0  0  0  0  0
   17.1947   47.8730   14.2829 C   0  0  0  0  0  0
   25.6414   52.2730   10.8195 F   0  0  0  0  0  0
   18.8251   47.2690   11.5630 H   0  0  0  0  0  0
   19.3197   47.5952    9.1779 H   0  0  0  0  0  0
   21.5113   51.0089    9.9334 H   0  0  0  0  0  0
   20.7275   51.2081   13.4066 H   0  0  0  0  0  0
   21.6705   53.1367   14.0682 H   0  0  0  0  0  0
   23.6233   54.6233   14.0640 H   0  0  0  0  0  0
   25.5564   54.1306   12.6154 H   0  0  0  0  0  0
   23.5184   50.7498   10.9923 H   0  0  0  0  0  0
   20.2282   49.5223   14.1966 H   0  0  0  0  0  0
   16.6366   46.9936   14.6000 H   0  0  0  0  0  0
   16.9379   48.1629   13.2659 H   0  0  0  0  0  0
   16.9845   48.6730   14.9806 H   0  0  0  0  0  0
  1  2  2  0  0  0
  1  3  2  0  0  0
  1 17  1  0  0  0
  1 18  1  0  0  0
  4  5  2  0  0  0
  4  9  1  0  0  0
  4 20  1  0  0  0
  5  6  1  0  0  0
  5 21  1  0  0  0
  6  7  2  0  0  0
  7  8  1  0  0  0
  7 22  1  0  0  0
  8  9  2  0  0  0
  8 10  1  0  0  0
  9 17  1  0  0  0
 10 11  1  0  0  0
 10 23  1  0  0  0
 11 12  2  0  0  0
 11 16  1  0  0  0
 12 13  1  0  0  0
 12 24  1  0  0  0
 13 14  2  0  0  0
 13 25  1  0  0  0
 14 15  1  0  0  0
 14 26  1  0  0  0
 15 16  2  0  0  0
 15 19  1  0  0  0
 16 27  1  0  0  0
 17 28  1  0  0  0
 18 29  1  0  0  0
 18 30  1  0  0  0
 18 31  1  0  0  0
M  END
> <s_m_entry_id>
5627

> <s_m_entry_name>
dock_pv.618

> <s_m_Source_Path>
/home/csk/Desktop/cluster/DUD-E-result/pgh1

> <s_m_Source_File>
dock_pv.maegz

> <i_m_Source_File_Index>
618

> <chembl_id>
CHEMBL3113241

> <chembl_pref_name>
None

> <i_lp_mmshare_version>
53161

> <r_lp_tautomer_probability>
1

> <s_lp_Force_Field>
OPLS_2005

> <r_lp_Energy>
7.155449

> <b_lp_Chiralities_Consistent>
1

> <s_lp_Variant>
CHEMBL221_lig965-1

> <s_i_glide_gridfile>
glide-grid_2oyu

> <i_i_glide_lignum>
1193

> <i_i_glide_rotatable_bonds>
4

> <r_i_docking_score>
-6.96641755591594

> <r_i_glide_ligand_efficiency>
-0.366653555574523

> <r_i_glide_ligand_efficiency_sa>
-0.978378951244562

> <r_i_glide_ligand_efficiency_ln>
-1.76613647535451

> <r_i_glide_gscore>
-6.96641755591594

> <r_i_glide_lipo>
-3.66205889792402

> <r_i_glide_hbond>
0

> <r_i_glide_metal>
0

> <r_i_glide_rewards>
-1.93441826983923

> <r_i_glide_evdw>
-33.0057334899902

> <r_i_glide_ecoul>
-2.21781826019287

> <r_i_glide_erotb>
0.685223213704686

> <r_i_glide_esite>
-0.072204188328936

> <r_i_glide_emodel>
-45.8483569148834

> <r_i_glide_energy>
-35.2235517501831

> <r_i_glide_einternal>
6.98498153686523

> <i_i_glide_confnum>
3

> <i_i_glide_posenum>
375

> <r_i_glide_eff_state_penalty>
0

> <s_user_duplicate_titles>
CHEMBL221_lig965

> <i_f3d_flags>
0

> <s_m_subgroup_title>
dock_pv

> <s_m_subgroupid>
dock_pv

> <b_m_subgroup_collapsed>
1

$$$$
CHEMBL221_lig906
                    3D
 Schrodinger Suite 2021-1.
 42 44  0  0  1  0            999 V2000
   19.0816   48.3508   15.9345 C   0  0  0  0  0  0
   18.0120   47.8349   15.2179 C   0  0  0  0  0  0
   17.9982   47.8808   13.8310 C   0  0  0  0  0  0
   20.1457   49.0074   15.3280 C   0  0  0  0  0  0
   20.1362   49.1403   13.9355 C   0  0  0  0  0  0
   19.0669   48.5261   13.2231 C   0  0  0  0  0  0
   19.3230   48.7232   11.9094 N   0  0  0  0  0  0
   20.4391   49.4894   11.7413 C   0  0  0  0  0  0
   20.9883   49.8056   12.9753 C   0  0  0  0  0  0
   22.2556   50.6035   13.2520 C   0  0  0  0  0  0
   22.1045   51.8730   14.0911 C   0  0  0  0  0  0
   21.2928   52.0055   15.0000 O   0  0  0  0  0  0
   23.0798   52.7745   13.8000 O   0  0  0  0  0  0
   20.8288   49.8235   10.3732 C   0  0  0  0  0  0
   20.1581   49.1846    9.1991 C   0  0  0  0  0  0
   21.6933   50.6730   10.2003 O   0  0  0  0  0  0
   19.7231   47.8987    9.3178 N   0  0  0  0  0  0
   19.2384   47.2873    8.2266 C   0  0  0  0  0  0
   19.1483   47.9184    6.9983 C   0  0  0  0  0  0
   19.6473   49.1984    6.8457 C   0  0  0  0  0  0
   20.1230   49.8593    7.9706 C   0  0  0  0  0  0
   19.6329   49.8591    5.4906 C   0  0  0  0  0  0
   16.8083   47.3279   15.9770 C   0  0  0  0  0  0
   16.1543   46.0497   15.4000 C   0  0  0  0  0  0
   19.0542   48.2730   17.0000 H   0  0  0  0  0  0
   17.1737   47.4934   13.2541 H   0  0  0  0  0  0
   20.9363   49.4423   15.9216 H   0  0  0  0  0  0
   18.7908   48.3770   11.1235 H   0  0  0  0  0  0
   22.9230   49.9621   13.7997 H   0  0  0  0  0  0
   22.8010   50.8516   12.3435 H   0  0  0  0  0  0
   23.0785   53.4824   14.4519 H   0  0  0  0  0  0
   18.9230   46.2730    8.3638 H   0  0  0  0  0  0
   18.6556   47.4730    6.1704 H   0  0  0  0  0  0
   20.4659   50.8815    7.8825 H   0  0  0  0  0  0
   19.3230   49.1772    4.6979 H   0  0  0  0  0  0
   20.6192   50.2563    5.2482 H   0  0  0  0  0  0
   18.9230   50.6730    5.5241 H   0  0  0  0  0  0
   17.0632   47.1828   17.0259 H   0  0  0  0  0  0
   16.1230   48.1689   15.9849 H   0  0  0  0  0  0
   15.3519   45.6818   16.0418 H   0  0  0  0  0  0
   15.7230   46.2313   14.4201 H   0  0  0  0  0  0
   16.8793   45.2428   15.2907 H   0  0  0  0  0  0
  1  2  2  0  0  0
  1  4  1  0  0  0
  1 25  1  0  0  0
  2  3  1  0  0  0
  2 23  1  0  0  0
  3  6  2  0  0  0
  3 26  1  0  0  0
  4  5  2  0  0  0
  4 27  1  0  0  0
  5  9  1  0  0  0
  5  6  1  0  0  0
  6  7  1  0  0  0
  7  8  1  0  0  0
  7 28  1  0  0  0
  8 14  1  0  0  0
  8  9  2  0  0  0
  9 10  1  0  0  0
 10 11  1  0  0  0
 10 29  1  0  0  0
 10 30  1  0  0  0
 11 12  2  0  0  0
 11 13  1  0  0  0
 13 31  1  0  0  0
 14 15  1  0  0  0
 14 16  2  0  0  0
 15 17  2  0  0  0
 15 21  1  0  0  0
 17 18  1  0  0  0
 18 19  2  0  0  0
 18 32  1  0  0  0
 19 20  1  0  0  0
 19 33  1  0  0  0
 20 21  2  0  0  0
 20 22  1  0  0  0
 21 34  1  0  0  0
 22 35  1  0  0  0
 22 36  1  0  0  0
 22 37  1  0  0  0
 23 24  1  0  0  0
 23 38  1  0  0  0
 23 39  1  0  0  0
 24 40  1  0  0  0
 24 41  1  0  0  0
 24 42  1  0  0  0
M  END
> <s_m_entry_id>
5628

> <s_m_entry_name>
dock_pv.619

> <s_m_Source_Path>
/home/csk/Desktop/cluster/DUD-E-result/pgh1

> <s_m_Source_File>
dock_pv.maegz

> <i_m_Source_File_Index>
619

> <chembl_id>
CHEMBL1950011

> <chembl_pref_name>
None

> <i_lp_mmshare_version>
53161

> <r_lp_tautomer_probability>
1

> <s_lp_Force_Field>
OPLS_2005

> <r_lp_Energy>
17.10853

> <b_lp_Chiralities_Consistent>
1

> <s_lp_Variant>
CHEMBL221_lig906-1

> <s_i_glide_gridfile>
glide-grid_2oyu

> <i_i_glide_lignum>
1114

> <i_i_glide_rotatable_bonds>
6

> <r_i_docking_score>
-6.96288183844312

> <r_i_glide_ligand_efficiency>
-0.290120076601797

> <r_i_glide_ligand_efficiency_sa>
-0.836851110746468

> <r_i_glide_ligand_efficiency_ln>
-1.66653712976773

> <r_i_glide_gscore>
-6.96288183844312

> <r_i_glide_lipo>
-3.7594296830935

> <r_i_glide_hbond>
0

> <r_i_glide_metal>
0

> <r_i_glide_rewards>
-2.66119668181818

> <r_i_glide_evdw>
-21.452917098999

> <r_i_glide_ecoul>
-1.26268088817596

> <r_i_glide_erotb>
0.719792514644906

> <r_i_glide_esite>
0

> <r_i_glide_emodel>
-24.8309274716487

> <r_i_glide_energy>
-22.715597987175

> <r_i_glide_einternal>
5.63403463363647

> <i_i_glide_confnum>
42

> <i_i_glide_posenum>
273

> <r_i_glide_eff_state_penalty>
0

> <s_user_duplicate_titles>
CHEMBL221_lig906

> <i_f3d_flags>
0

> <s_m_subgroup_title>
dock_pv

> <s_m_subgroupid>
dock_pv

> <b_m_subgroup_collapsed>
1

$$$$
CHEMBL221_lig775
                    3D
 Schrodinger Suite 2021-1.
 31 32  0  0  1  0            999 V2000
   19.4370   48.0855   11.2604 C   0  0  0  0  0  0
   19.7230   48.2729    9.9080 C   0  0  0  0  0  0
   20.4530   49.3155    9.4480 N   0  0  0  0  0  0
   20.9203   50.2021   10.3571 C   0  0  0  0  0  0
   20.6971   50.0853   11.7325 C   0  0  0  0  0  0
   19.9334   48.9993   12.1998 C   0  0  0  0  0  0
   19.7225   48.8573   13.5846 N   0  0  0  0  0  0
   18.9808   47.4791   14.3906 S   0  0  0  0  0  0
   21.1708   51.0615   12.6223 N   0  0  0  0  0  0
   22.3057   51.8727   12.5830 C   0  0  0  0  0  0
   22.2960   53.0117   13.3827 C   0  0  0  0  0  0
   23.4078   53.8386   13.4040 C   0  0  0  0  0  0
   24.5595   53.4730   12.7256 C   0  0  0  0  0  0
   24.5627   52.3584   11.8891 C   0  0  0  0  0  0
   23.4300   51.5546   11.8142 C   0  0  0  0  0  0
   19.3464   47.6039   15.8000 O   0  0  0  0  0  0
   17.1528   47.8394   14.2465 C   0  0  0  0  0  0
   19.3229   46.2730   13.6348 O   0  0  0  0  0  0
   26.1220   54.5231   13.0000 Br  0  0  0  0  0  0
   18.8338   47.2409   11.5452 H   0  0  0  0  0  0
   19.3519   47.5829    9.1639 H   0  0  0  0  0  0
   21.4569   51.0461    9.9541 H   0  0  0  0  0  0
   20.1446   49.5459   14.1871 H   0  0  0  0  0  0
   20.5215   51.2993   13.3559 H   0  0  0  0  0  0
   21.4302   53.2698   13.9747 H   0  0  0  0  0  0
   23.4089   54.7182   14.0331 H   0  0  0  0  0  0
   25.4491   52.0969   11.3299 H   0  0  0  0  0  0
   23.4559   50.6670   11.2004 H   0  0  0  0  0  0
   16.6042   46.9680   14.6000 H   0  0  0  0  0  0
   16.9047   48.0770   13.2144 H   0  0  0  0  0  0
   16.9267   48.6731   14.8990 H   0  0  0  0  0  0
  1  6  1  0  0  0
  1  2  2  0  0  0
  1 20  1  0  0  0
  2  3  1  0  0  0
  2 21  1  0  0  0
  3  4  2  0  0  0
  4  5  1  0  0  0
  4 22  1  0  0  0
  5  6  2  0  0  0
  5  9  1  0  0  0
  6  7  1  0  0  0
  7  8  1  0  0  0
  7 23  1  0  0  0
  8 16  2  0  0  0
  8 17  1  0  0  0
  8 18  2  0  0  0
  9 10  1  0  0  0
  9 24  1  0  0  0
 10 11  2  0  0  0
 10 15  1  0  0  0
 11 12  1  0  0  0
 11 25  1  0  0  0
 12 13  2  0  0  0
 12 26  1  0  0  0
 13 14  1  0  0  0
 13 19  1  0  0  0
 14 15  2  0  0  0
 14 27  1  0  0  0
 15 28  1  0  0  0
 17 29  1  0  0  0
 17 30  1  0  0  0
 17 31  1  0  0  0
M  END
> <s_m_entry_id>
5629

> <s_m_entry_name>
dock_pv.620

> <s_m_Source_Path>
/home/csk/Desktop/cluster/DUD-E-result/pgh1

> <s_m_Source_File>
dock_pv.maegz

> <i_m_Source_File_Index>
620

> <chembl_id>
CHEMBL1078373

> <chembl_pref_name>
None

> <i_lp_mmshare_version>
53161

> <r_lp_tautomer_probability>
1

> <s_lp_Force_Field>
OPLS_2005

> <r_lp_Energy>
7.483087

> <b_lp_Chiralities_Consistent>
1

> <s_lp_Variant>
CHEMBL221_lig775-1

> <s_i_glide_gridfile>
glide-grid_2oyu

> <i_i_glide_lignum>
945

> <i_i_glide_rotatable_bonds>
4

> <r_i_docking_score>
-6.96050601409036

> <r_i_glide_ligand_efficiency>
-0.36634242179423

> <r_i_glide_ligand_efficiency_sa>
-0.977548721353068

> <r_i_glide_ligand_efficiency_ln>
-1.76463777253345

> <r_i_glide_gscore>
-6.96050601409036

> <r_i_glide_lipo>
-3.66056050145146

> <r_i_glide_hbond>
0

> <r_i_glide_metal>
0

> <r_i_glide_rewards>
-1.59960935023305

> <r_i_glide_evdw>
-34.6381416320801

> <r_i_glide_ecoul>
-2.68629312515259

> <r_i_glide_erotb>
0.485691245451568

> <r_i_glide_esite>
-0.0511763574805244

> <r_i_glide_emodel>
-50.7875895184005

> <r_i_glide_energy>
-37.3244347572327

> <r_i_glide_einternal>
3.35373330116272

> <i_i_glide_confnum>
8

> <i_i_glide_posenum>
259

> <r_i_glide_eff_state_penalty>
0

> <s_user_duplicate_titles>
CHEMBL221_lig775

> <i_f3d_flags>
0

> <s_m_subgroup_title>
dock_pv

> <s_m_subgroupid>
dock_pv

> <b_m_subgroup_collapsed>
1

$$$$
CHEMBL221_lig101
                    3D
 Schrodinger Suite 2021-1.
 32 33  0  0  1  0            999 V2000
   21.9574   50.2017   11.9087 C   0  0  0  0  0  0
   20.6232   50.3473   11.7858 N   0  0  0  0  0  0
   19.7838   49.2223   11.9388 N   0  0  0  0  0  0
   22.5243   49.1168   11.8000 O   0  0  0  0  0  0
   22.7459   51.4394   12.2484 C   0  0  0  0  0  0
   19.3620   48.8140   13.2135 C   0  0  0  0  0  0
   18.3276   48.1287   15.7235 C   0  0  0  0  0  0
   18.1163   48.2018   13.3213 C   0  0  0  0  0  0
   20.1222   49.0207   14.3729 C   0  0  0  0  0  0
   19.6056   48.6729   15.6155 C   0  0  0  0  0  0
   17.5891   47.8731   14.5620 C   0  0  0  0  0  0
   17.8827   47.8730   17.0000 O   0  0  0  0  0  0
   22.1952   52.4388   13.0628 C   0  0  0  0  0  0
   24.0672   51.5691   11.8000 C   0  0  0  0  0  0
   16.5230   47.5387   17.2233 C   0  0  0  0  0  0
   24.8283   52.6730   12.1754 C   0  0  0  0  0  0
   22.9530   53.5497   13.4147 C   0  0  0  0  0  0
   24.2766   53.6477   13.0000 C   0  0  0  0  0  0
   20.1645   51.2224   11.9922 H   0  0  0  0  0  0
   19.0990   49.2055   11.1971 H   0  0  0  0  0  0
   17.5253   47.9925   12.4435 H   0  0  0  0  0  0
   21.1006   49.4726   14.3348 H   0  0  0  0  0  0
   20.1859   48.8604   16.5063 H   0  0  0  0  0  0
   16.6027   47.4393   14.5867 H   0  0  0  0  0  0
   21.1861   52.3649   13.4430 H   0  0  0  0  0  0
   24.5197   50.8094   11.1756 H   0  0  0  0  0  0
   16.4548   47.0730   18.2000 H   0  0  0  0  0  0
   15.9027   48.4347   17.2306 H   0  0  0  0  0  0
   16.1230   46.8057   16.5241 H   0  0  0  0  0  0
   25.8475   52.7655   11.8308 H   0  0  0  0  0  0
   22.5320   54.3175   14.0480 H   0  0  0  0  0  0
   24.8674   54.5029   13.2957 H   0  0  0  0  0  0
  1  2  1  0  0  0
  1  4  2  0  0  0
  1  5  1  0  0  0
  2  3  1  0  0  0
  2 19  1  0  0  0
  3  6  1  0  0  0
  3 20  1  0  0  0
  5 13  2  0  0  0
  5 14  1  0  0  0
  6  8  1  0  0  0
  6  9  2  0  0  0
  7 10  2  0  0  0
  7 12  1  0  0  0
  7 11  1  0  0  0
  8 11  2  0  0  0
  8 21  1  0  0  0
  9 10  1  0  0  0
  9 22  1  0  0  0
 10 23  1  0  0  0
 11 24  1  0  0  0
 12 15  1  0  0  0
 13 17  1  0  0  0
 13 25  1  0  0  0
 14 16  2  0  0  0
 14 26  1  0  0  0
 15 27  1  0  0  0
 15 28  1  0  0  0
 15 29  1  0  0  0
 16 18  1  0  0  0
 16 30  1  0  0  0
 17 18  2  0  0  0
 17 31  1  0  0  0
 18 32  1  0  0  0
M  END
> <s_m_entry_id>
5631

> <s_m_entry_name>
dock_pv.622

> <s_m_Source_Path>
/home/csk/Desktop/cluster/DUD-E-result/pgh1

> <s_m_Source_File>
dock_pv.maegz

> <i_m_Source_File_Index>
622

> <chembl_id>
CHEMBL347198

> <chembl_pref_name>
None

> <i_lp_mmshare_version>
53161

> <r_lp_tautomer_probability>
1

> <s_lp_Force_Field>
OPLS_2005

> <r_lp_Energy>
20.3298

> <b_lp_Chiralities_Consistent>
1

> <s_lp_Variant>
CHEMBL221_lig101-1

> <s_i_glide_gridfile>
glide-grid_2oyu

> <i_i_glide_lignum>
121

> <i_i_glide_rotatable_bonds>
5

> <r_i_docking_score>
-6.95077495304157

> <r_i_glide_ligand_efficiency>
-0.386154164057865

> <r_i_glide_ligand_efficiency_sa>
-1.01201020131755

> <r_i_glide_ligand_efficiency_ln>
-1.78666086060639

> <r_i_glide_gscore>
-6.95077495304157

> <r_i_glide_lipo>
-3.69233649748706

> <r_i_glide_hbond>
0

> <r_i_glide_metal>
0

> <r_i_glide_rewards>
-2.55678409544878

> <r_i_glide_evdw>
-31.0499649047852

> <r_i_glide_ecoul>
-0.236761063337326

> <r_i_glide_erotb>
0.886358044634123

> <r_i_glide_esite>
0

> <r_i_glide_emodel>
-40.2361857695768

> <r_i_glide_energy>
-31.2867259681225

> <r_i_glide_einternal>
7.51267862319946

> <i_i_glide_confnum>
3

> <i_i_glide_posenum>
144

> <r_i_glide_eff_state_penalty>
0

> <s_user_duplicate_titles>
CHEMBL221_lig101

> <i_f3d_flags>
0

> <s_m_subgroup_title>
dock_pv

> <s_m_subgroupid>
dock_pv

> <b_m_subgroup_collapsed>
1

$$$$
CHEMBL221_lig444
                    3D
 Schrodinger Suite 2021-1.
 43 45  0  0  1  0            999 V2000
   20.5982   50.2049   12.8922 C   0  0  0  0  0  0
   20.0534   49.2407   12.1285 C   0  0  0  0  0  0
   20.5710   49.8537   14.2964 C   0  0  0  0  0  0
   19.5098   48.2137   13.1146 C   0  0  0  0  0  0
   19.8715   48.8738    6.0160 S   0  0  0  0  0  0
   19.9309   48.6861   14.3883 O   0  0  0  0  0  0
   21.0627   51.4399   12.5995 O   0  0  0  0  0  0
   19.9357   49.2017   10.6301 C   0  0  0  0  0  0
   19.9178   49.0364    7.7999 C   0  0  0  0  0  0
   20.1230   47.4730    5.7742 O   0  0  0  0  0  0
   20.7391   49.8730    5.4003 O   0  0  0  0  0  0
   21.0063   50.4926   15.2537 O   0  0  0  0  0  0
   20.1230   50.2601    8.4395 C   0  0  0  0  0  0
   19.7230   47.8962    8.5751 C   0  0  0  0  0  0
   20.1230   50.3413    9.8347 C   0  0  0  0  0  0
   19.7230   47.9900    9.9596 C   0  0  0  0  0  0
   22.3874   51.6113   12.2990 C   0  0  0  0  0  0
   18.1233   49.0730    5.4260 C   0  0  0  0  0  0
   24.9230   52.2730   11.4000 C   0  0  0  0  0  0
   17.9781   48.1358   13.1725 C   0  0  0  0  0  0
   20.1234   46.8256   13.0080 C   0  0  0  0  0  0
   26.4968   52.6730   10.8056 Cl  0  0  0  0  0  0
   23.1194   52.5977   12.9634 C   0  0  0  0  0  0
   22.9466   50.9288   11.2240 C   0  0  0  0  0  0
   24.1802   51.3007   10.7433 C   0  0  0  0  0  0
   24.4058   52.9137   12.5276 C   0  0  0  0  0  0
   20.2387   51.1576    7.8481 H   0  0  0  0  0  0
   19.5507   46.9361    8.1137 H   0  0  0  0  0  0
   20.2695   51.3088   10.2899 H   0  0  0  0  0  0
   19.5462   47.0732   10.4751 H   0  0  0  0  0  0
   18.1230   49.0729    4.3369 H   0  0  0  0  0  0
   17.7227   50.0107    5.8004 H   0  0  0  0  0  0
   17.5496   48.2280    5.7925 H   0  0  0  0  0  0
   17.5690   47.8730   12.2001 H   0  0  0  0  0  0
   17.6377   47.3909   13.8920 H   0  0  0  0  0  0
   17.5192   49.0730   13.4600 H   0  0  0  0  0  0
   19.7229   46.2119   12.2177 H   0  0  0  0  0  0
   21.2074   46.8660   12.8956 H   0  0  0  0  0  0
   19.8872   46.2804   13.9213 H   0  0  0  0  0  0
   22.6811   53.1320   13.7941 H   0  0  0  0  0  0
   22.4226   50.1472   10.7068 H   0  0  0  0  0  0
   24.5482   50.8132    9.8553 H   0  0  0  0  0  0
   24.9783   53.6768   13.0348 H   0  0  0  0  0  0
  1  2  2  0  0  0
  1  3  1  0  0  0
  1  7  1  0  0  0
  2  4  1  0  0  0
  2  8  1  0  0  0
  3  6  1  0  0  0
  3 12  2  0  0  0
  4 20  1  0  0  0
  4 21  1  0  0  0
  4  6  1  0  0  0
  5  9  1  0  0  0
  5 10  2  0  0  0
  5 11  2  0  0  0
  5 18  1  0  0  0
  7 17  1  0  0  0
  8 15  1  0  0  0
  8 16  2  0  0  0
  9 14  2  0  0  0
  9 13  1  0  0  0
 13 15  2  0  0  0
 13 27  1  0  0  0
 14 16  1  0  0  0
 14 28  1  0  0  0
 15 29  1  0  0  0
 16 30  1  0  0  0
 17 23  1  0  0  0
 17 24  2  0  0  0
 18 31  1  0  0  0
 18 32  1  0  0  0
 18 33  1  0  0  0
 19 25  2  0  0  0
 19 22  1  0  0  0
 19 26  1  0  0  0
 20 34  1  0  0  0
 20 35  1  0  0  0
 20 36  1  0  0  0
 21 37  1  0  0  0
 21 38  1  0  0  0
 21 39  1  0  0  0
 23 26  2  0  0  0
 23 40  1  0  0  0
 24 25  1  0  0  0
 24 41  1  0  0  0
 25 42  1  0  0  0
 26 43  1  0  0  0
M  END
> <s_m_entry_id>
5632

> <s_m_entry_name>
dock_pv.623

> <s_m_Source_Path>
/home/csk/Desktop/cluster/DUD-E-result/pgh1

> <s_m_Source_File>
dock_pv.maegz

> <i_m_Source_File_Index>
623

> <chembl_id>
CHEMBL325804

> <chembl_pref_name>
None

> <i_lp_mmshare_version>
53161

> <r_lp_tautomer_probability>
1

> <s_lp_Force_Field>
OPLS_2005

> <r_lp_Energy>
17.9717

> <b_lp_Chiralities_Consistent>
1

> <s_lp_Variant>
CHEMBL221_lig444-1

> <s_i_glide_gridfile>
glide-grid_2oyu

> <i_i_glide_lignum>
523

> <i_i_glide_rotatable_bonds>
4

> <r_i_docking_score>
-6.94969437958898

> <r_i_glide_ligand_efficiency>
-0.267295937676499

> <r_i_glide_ligand_efficiency_sa>
-0.791863163607902

> <r_i_glide_ligand_efficiency_ln>
-1.63211292123925

> <r_i_glide_gscore>
-6.94969437958898

> <r_i_glide_lipo>
-4.04941873879189

> <r_i_glide_hbond>
0

> <r_i_glide_metal>
0

> <r_i_glide_rewards>
-1.41739808184652

> <r_i_glide_evdw>
-16.9598331451416

> <r_i_glide_ecoul>
-6.64097595214844

> <r_i_glide_erotb>
0.379610235378309

> <r_i_glide_esite>
-0.0183497442495263

> <r_i_glide_emodel>
-24.1173028038306

> <r_i_glide_energy>
-23.60080909729

> <r_i_glide_einternal>
3.67869234085083

> <i_i_glide_confnum>
8

> <i_i_glide_posenum>
146

> <r_i_glide_eff_state_penalty>
0

> <s_user_duplicate_titles>
CHEMBL221_lig444,177315

> <i_f3d_flags>
0

> <s_m_subgroup_title>
dock_pv

> <s_m_subgroupid>
dock_pv

> <b_m_subgroup_collapsed>
1

$$$$
CHEMBL221_lig1055 
                    3D
 Schrodinger Suite 2021-1.
 38 40  0  0  1  0            999 V2000
   25.3665   53.0730   13.8000 O   0  0  0  0  0  0
   24.1717   53.1853   12.9649 S   0  0  0  0  0  0
   24.2474   53.0730   11.5076 O   0  0  0  0  0  0
   21.1770   51.2117   14.7997 C   0  0  0  0  0  0
   22.1017   52.1889   14.4726 C   0  0  0  0  0  0
   22.9904   51.9695   13.4250 C   0  0  0  0  0  0
   22.9228   50.8207   12.6564 C   0  0  0  0  0  0
   21.9729   49.8730   12.9632 C   0  0  0  0  0  0
   21.0933   50.0311   14.0458 C   0  0  0  0  0  0
   20.1832   48.9895   14.4218 N   0  0  0  0  0  0
   19.6782   47.8897   13.7021 C   0  0  0  0  0  0
   19.0462   47.1067   14.6692 C   0  0  0  0  0  0
   19.0084   47.9031   15.8000 C   0  0  0  0  0  0
   19.7417   48.9726   15.6919 N   0  0  0  0  0  0
   18.5230   45.7589   14.6119 C   0  0  0  0  0  0
   18.1230   44.6730   14.6000 N   0  0  0  0  0  0
   19.8499   47.6410   12.3627 N   0  0  0  0  0  0
   19.6041   48.6286   11.5941 C   0  0  0  0  0  0
   19.8204   48.7302   10.1594 C   0  0  0  0  0  0
   23.4140   54.6730   13.4000 N   0  0  0  0  0  0
   20.1230   49.9989    9.6534 C   0  0  0  0  0  0
   20.1230   50.2085    8.2812 C   0  0  0  0  0  0
   19.9475   49.1483    7.4000 C   0  0  0  0  0  0
   19.7230   47.8730    7.8960 C   0  0  0  0  0  0
   19.6660   47.6588    9.2729 C   0  0  0  0  0  0
   20.0034   49.4524    5.5222 Br  0  0  0  0  0  0
   20.5230   51.3931   15.6400 H   0  0  0  0  0  0
   22.1230   53.1060   15.0413 H   0  0  0  0  0  0
   23.6046   50.6515   11.8338 H   0  0  0  0  0  0
   22.0102   48.9790   12.3652 H   0  0  0  0  0  0
   18.5283   47.6475   16.7356 H   0  0  0  0  0  0
   19.2162   49.5626   12.0007 H   0  0  0  0  0  0
   23.5391   54.8611   14.3997 H   0  0  0  0  0  0
   23.7924   55.4747   12.8895 H   0  0  0  0  0  0
   20.2566   50.8525   10.3050 H   0  0  0  0  0  0
   20.2649   51.2046    7.8877 H   0  0  0  0  0  0
   19.5718   47.0730    7.1964 H   0  0  0  0  0  0
   19.4509   46.6730    9.6466 H   0  0  0  0  0  0
  1  2  2  0  0  0
  2  3  2  0  0  0
  2  6  1  0  0  0
  2 20  1  0  0  0
  4  5  2  0  0  0
  4  9  1  0  0  0
  4 27  1  0  0  0
  5  6  1  0  0  0
  5 28  1  0  0  0
  6  7  2  0  0  0
  7  8  1  0  0  0
  7 29  1  0  0  0
  8  9  2  0  0  0
  8 30  1  0  0  0
  9 10  1  0  0  0
 10 11  1  0  0  0
 10 14  1  0  0  0
 11 12  2  0  0  0
 11 17  1  0  0  0
 12 13  1  0  0  0
 12 15  1  0  0  0
 13 14  2  0  0  0
 13 31  1  0  0  0
 15 16  3  0  0  0
 17 18  2  0  0  0
 18 19  1  0  0  0
 18 32  1  0  0  0
 19 21  2  0  0  0
 19 25  1  0  0  0
 20 33  1  0  0  0
 20 34  1  0  0  0
 21 22  1  0  0  0
 21 35  1  0  0  0
 22 23  2  0  0  0
 22 36  1  0  0  0
 23 24  1  0  0  0
 23 26  1  0  0  0
 24 25  2  0  0  0
 24 37  1  0  0  0
 25 38  1  0  0  0
M  END
> <s_m_entry_id>
5633

> <s_m_entry_name>
dock_pv.624

> <s_m_Source_Path>
/home/csk/Desktop/cluster/DUD-E-result/pgh1

> <s_m_Source_File>
dock_pv.maegz

> <i_m_Source_File_Index>
624

> <chembl_id>
CHEMBL4567195

> <chembl_pref_name>
None

> <i_lp_mmshare_version>
53161

> <r_lp_tautomer_probability>
1

> <s_lp_Force_Field>
OPLS_2005

> <r_lp_Energy>
27.889473

> <b_lp_Chiralities_Consistent>
1

> <s_lp_Variant>
CHEMBL221_lig1055 -1

> <s_i_glide_gridfile>
glide-grid_2oyu

> <i_i_glide_lignum>
1313

> <i_i_glide_rotatable_bonds>
4

> <r_i_docking_score>
-6.9471903874095

> <r_i_glide_ligand_efficiency>
-0.267199630284981

> <r_i_glide_ligand_efficiency_sa>
-0.79157785333948

> <r_i_glide_ligand_efficiency_ln>
-1.63152486689217

> <r_i_glide_gscore>
-6.9471903874095

> <r_i_glide_lipo>
-3.61227235229528

> <r_i_glide_hbond>
-0.140603556385655

> <r_i_glide_metal>
0

> <r_i_glide_rewards>
-1.98244800129193

> <r_i_glide_evdw>
-19.2794704437256

> <r_i_glide_ecoul>
-3.52134323120117

> <r_i_glide_erotb>
0.322130526374521

> <r_i_glide_esite>
-0.0418219969447126

> <r_i_glide_emodel>
-30.9299913242342

> <r_i_glide_energy>
-22.8008136749268

> <r_i_glide_einternal>
1.61093437671661

> <i_i_glide_confnum>
2

> <i_i_glide_posenum>
268

> <r_i_glide_eff_state_penalty>
0

> <s_user_duplicate_titles>
CHEMBL221_lig1055 

> <i_f3d_flags>
0

> <s_m_subgroup_title>
dock_pv

> <s_m_subgroupid>
dock_pv

> <b_m_subgroup_collapsed>
1

$$$$
CHEMBL221_lig625
                    3D
 Schrodinger Suite 2021-1.
 30 31  0  0  1  0            999 V2000
   19.4565   47.9565   11.6206 C   0  0  0  0  0  0
   19.7227   48.2715   10.2880 C   0  0  0  0  0  0
   20.5188   49.3036    9.9224 N   0  0  0  0  0  0
   21.1161   50.0066   10.9121 C   0  0  0  0  0  0
   20.9495   49.7242   12.2803 C   0  0  0  0  0  0
   20.0320   48.7227   12.6389 C   0  0  0  0  0  0
   19.6752   48.5366   13.9910 N   0  0  0  0  0  0
   18.1792   47.6952   14.4662 S   0  0  0  0  0  0
   17.7810   48.2728   16.2008 C   0  0  0  0  0  0
   18.5233   46.2724   14.5360 O   0  0  0  0  0  0
   17.1181   48.1785   13.5795 O   0  0  0  0  0  0
   21.6286   50.3704   13.2922 O   0  0  0  0  0  0
   22.5141   51.3987   13.0682 C   0  0  0  0  0  0
   23.6135   51.2929   12.2023 C   0  0  0  0  0  0
   24.5235   52.3453   12.0987 C   0  0  0  0  0  0
   24.3537   53.4848   12.8814 C   0  0  0  0  0  0
   23.1979   53.6448   13.6339 C   0  0  0  0  0  0
   22.3245   52.5760   13.7895 C   0  0  0  0  0  0
   25.5985   54.6730   12.9999 Cl  0  0  0  0  0  0
   21.0872   52.6701   14.9804 Cl  0  0  0  0  0  0
   18.7934   47.1459   11.8574 H   0  0  0  0  0  0
   19.2771   47.7009    9.4860 H   0  0  0  0  0  0
   21.7416   50.8125   10.5665 H   0  0  0  0  0  0
   20.0607   49.1992   14.6457 H   0  0  0  0  0  0
   16.8074   47.8699   16.4709 H   0  0  0  0  0  0
   17.7382   49.3553   16.2396 H   0  0  0  0  0  0
   18.5230   47.8730   16.8792 H   0  0  0  0  0  0
   23.7881   50.3817   11.6499 H   0  0  0  0  0  0
   25.3828   52.2721   11.4488 H   0  0  0  0  0  0
   23.0486   54.5535   14.1997 H   0  0  0  0  0  0
  1  6  1  0  0  0
  1  2  2  0  0  0
  1 21  1  0  0  0
  2  3  1  0  0  0
  2 22  1  0  0  0
  3  4  2  0  0  0
  4  5  1  0  0  0
  4 23  1  0  0  0
  5  6  2  0  0  0
  5 12  1  0  0  0
  6  7  1  0  0  0
  7  8  1  0  0  0
  7 24  1  0  0  0
  8 10  2  0  0  0
  8 11  2  0  0  0
  8  9  1  0  0  0
  9 25  1  0  0  0
  9 26  1  0  0  0
  9 27  1  0  0  0
 12 13  1  0  0  0
 13 14  2  0  0  0
 13 18  1  0  0  0
 14 15  1  0  0  0
 14 28  1  0  0  0
 15 16  2  0  0  0
 15 29  1  0  0  0
 16 17  1  0  0  0
 16 19  1  0  0  0
 17 18  2  0  0  0
 17 30  1  0  0  0
 18 20  1  0  0  0
M  END
> <s_m_entry_id>
5634

> <s_m_entry_name>
dock_pv.625

> <s_m_Source_Path>
/home/csk/Desktop/cluster/DUD-E-result/pgh1

> <s_m_Source_File>
dock_pv.maegz

> <i_m_Source_File_Index>
625

> <chembl_id>
CHEMBL224136

> <chembl_pref_name>
None

> <i_lp_mmshare_version>
53161

> <r_lp_tautomer_probability>
1

> <s_lp_Force_Field>
OPLS_2005

> <r_lp_Energy>
5.34819

> <b_lp_Chiralities_Consistent>
1

> <s_lp_Variant>
CHEMBL221_lig625-1

> <s_i_glide_gridfile>
glide-grid_2oyu

> <i_i_glide_lignum>
764

> <i_i_glide_rotatable_bonds>
4

> <r_i_docking_score>
-6.94435484713824

> <r_i_glide_ligand_efficiency>
-0.347217742356912

> <r_i_glide_ligand_efficiency_sa>
-0.942493955706761

> <r_i_glide_ligand_efficiency_ln>
-1.73794297808687

> <r_i_glide_gscore>
-6.94435484713824

> <r_i_glide_lipo>
-3.57299482686636

> <r_i_glide_hbond>
0

> <r_i_glide_metal>
0

> <r_i_glide_rewards>
-1.93178891830901

> <r_i_glide_evdw>
-35.7623519897461

> <r_i_glide_ecoul>
-1.07123219966888

> <r_i_glide_erotb>
0.509231327474763

> <r_i_glide_esite>
0

> <r_i_glide_emodel>
-43.2019859849823

> <r_i_glide_energy>
-36.833584189415

> <r_i_glide_einternal>
8.09051036834717

> <i_i_glide_confnum>
11

> <i_i_glide_posenum>
117

> <r_i_glide_eff_state_penalty>
0

> <s_user_duplicate_titles>
CHEMBL221_lig625,374297

> <i_f3d_flags>
0

> <s_m_subgroup_title>
dock_pv

> <s_m_subgroupid>
dock_pv

> <b_m_subgroup_collapsed>
1

$$$$
CHEMBL221_lig562
                    3D
 Schrodinger Suite 2021-1.
 49 51  0  0  1  0            999 V2000
   20.6337   49.5277   12.7280 C   0  0  0  0  0  0
   19.7229   47.9208    8.8255 C   0  0  0  0  0  0
   19.9888   48.5762   10.1768 C   0  0  0  0  0  0
   19.6450   48.5759   12.5854 C   0  0  0  0  0  0
   21.3920   49.9946   11.6401 C   0  0  0  0  0  0
   20.8377   49.8769   14.0398 O   0  0  0  0  0  0
   19.7336   48.6393    7.6588 N   0  0  0  0  0  0
   19.3230   48.1120   11.3157 C   0  0  0  0  0  0
   21.0404   49.4735   10.3751 C   0  0  0  0  0  0
   19.3684   47.9635    6.4035 C   0  0  0  0  0  0
   19.1764   48.1245   13.9389 C   0  0  0  0  0  0
   18.9235   48.7061    5.1519 C   0  0  0  0  0  0
   20.2821   48.0444    5.1934 C   0  0  0  0  0  0
   22.6539   50.8825   11.8563 C   0  0  0  0  0  0
   20.0208   49.0382   14.8612 C   0  0  0  0  0  0
   19.4628   46.7161    8.8247 O   0  0  0  0  0  0
   20.0601   50.0570    7.5034 C   0  0  0  0  0  0
   19.6097   46.6779   14.1582 C   0  0  0  0  0  0
   17.6482   48.2669   14.1287 C   0  0  0  0  0  0
   23.4846   51.1953   10.6020 C   0  0  0  0  0  0
   23.6493   50.0762   12.6384 C   0  0  0  0  0  0
   22.3293   52.1982   12.6221 C   0  0  0  0  0  0
   18.5567   47.3603   11.2220 H   0  0  0  0  0  0
   21.6537   49.6111    9.5104 H   0  0  0  0  0  0
   18.7759   47.0738    6.5999 H   0  0  0  0  0  0
   18.1043   48.2682    4.5854 H   0  0  0  0  0  0
   18.9167   49.7905    5.0657 H   0  0  0  0  0  0
   21.1688   48.6784    5.2392 H   0  0  0  0  0  0
   20.4855   47.1507    4.6025 H   0  0  0  0  0  0
   19.4051   49.5741   15.5718 H   0  0  0  0  0  0
   20.7024   48.4569   15.4839 H   0  0  0  0  0  0
   20.1634   50.6377    8.4157 H   0  0  0  0  0  0
   20.9229   50.1473    6.8663 H   0  0  0  0  0  0
   19.3231   50.5608    6.9099 H   0  0  0  0  0  0
   19.3608   46.3210   15.1585 H   0  0  0  0  0  0
   20.6918   46.6732   14.0368 H   0  0  0  0  0  0
   19.1666   45.9977   13.4288 H   0  0  0  0  0  0
   17.3734   48.4225   15.1721 H   0  0  0  0  0  0
   17.2310   49.0725   13.5364 H   0  0  0  0  0  0
   17.1197   47.3747   13.7975 H   0  0  0  0  0  0
   22.8202   51.1097    9.7995 H   0  0  0  0  0  0
   23.9468   52.1833   10.5932 H   0  0  0  0  0  0
   24.2689   50.4764   10.3599 H   0  0  0  0  0  0
   23.3116   50.0427   13.6636 H   0  0  0  0  0  0
   23.7392   49.0651   12.2489 H   0  0  0  0  0  0
   24.6315   50.5399   12.5999 H   0  0  0  0  0  0
   22.9575   52.3337   13.5038 H   0  0  0  0  0  0
   22.5225   53.0734   12.0122 H   0  0  0  0  0  0
   21.2967   52.2641   12.9636 H   0  0  0  0  0  0
  1  4  2  0  0  0
  1  5  1  0  0  0
  1  6  1  0  0  0
  2  3  1  0  0  0
  2  7  1  0  0  0
  2 16  2  0  0  0
  3  9  1  0  0  0
  3  8  2  0  0  0
  4  8  1  0  0  0
  4 11  1  0  0  0
  5  9  2  0  0  0
  5 14  1  0  0  0
  6 15  1  0  0  0
  7 10  1  0  0  0
  7 17  1  0  0  0
  8 23  1  0  0  0
  9 24  1  0  0  0
 10 12  1  0  0  0
 10 13  1  0  0  0
 10 25  1  0  0  0
 11 18  1  0  0  0
 11 19  1  0  0  0
 11 15  1  0  0  0
 12 13  1  0  0  0
 12 26  1  0  0  0
 12 27  1  0  0  0
 13 28  1  0  0  0
 13 29  1  0  0  0
 14 20  1  0  0  0
 14 21  1  0  0  0
 14 22  1  0  0  0
 15 30  1  0  0  0
 15 31  1  0  0  0
 17 32  1  0  0  0
 17 33  1  0  0  0
 17 34  1  0  0  0
 18 35  1  0  0  0
 18 36  1  0  0  0
 18 37  1  0  0  0
 19 38  1  0  0  0
 19 39  1  0  0  0
 19 40  1  0  0  0
 20 41  1  0  0  0
 20 42  1  0  0  0
 20 43  1  0  0  0
 21 44  1  0  0  0
 21 45  1  0  0  0
 21 46  1  0  0  0
 22 47  1  0  0  0
 22 48  1  0  0  0
 22 49  1  0  0  0
M  END
> <s_m_entry_id>
5635

> <s_m_entry_name>
dock_pv.626

> <s_m_Source_Path>
/home/csk/Desktop/cluster/DUD-E-result/pgh1

> <s_m_Source_File>
dock_pv.maegz

> <i_m_Source_File_Index>
626

> <chembl_id>
CHEMBL119433

> <chembl_pref_name>
None

> <i_lp_mmshare_version>
53161

> <r_lp_tautomer_probability>
1

> <s_lp_Force_Field>
OPLS_2005

> <r_lp_Energy>
54.545297

> <b_lp_Chiralities_Consistent>
1

> <s_lp_Variant>
CHEMBL221_lig562-1

> <s_i_glide_gridfile>
glide-grid_2oyu

> <i_i_glide_lignum>
700

> <i_i_glide_rotatable_bonds>
4

> <r_i_docking_score>
-6.93523775231291

> <r_i_glide_ligand_efficiency>
-0.315238079650587

> <r_i_glide_ligand_efficiency_sa>
-0.883309496791105

> <r_i_glide_ligand_efficiency_ln>
-1.69522507560874

> <r_i_glide_gscore>
-6.93523775231291

> <r_i_glide_lipo>
-3.58674066378695

> <r_i_glide_hbond>
-0.0517409945699399

> <r_i_glide_metal>
0

> <r_i_glide_rewards>
-2.65757745328444

> <r_i_glide_evdw>
-15.2466192245483

> <r_i_glide_ecoul>
-3.22862982749939

> <r_i_glide_erotb>
0.607446794680744

> <r_i_glide_esite>
0

> <r_i_glide_emodel>
-28.4888495109497

> <r_i_glide_energy>
-18.4752490520477

> <r_i_glide_einternal>
5.49441003799438

> <i_i_glide_confnum>
17

> <i_i_glide_posenum>
57

> <r_i_glide_eff_state_penalty>
0

> <s_user_duplicate_titles>
CHEMBL221_lig562

> <i_f3d_flags>
0

> <s_m_subgroup_title>
dock_pv

> <s_m_subgroupid>
dock_pv

> <b_m_subgroup_collapsed>
1

$$$$
CHEMBL221_lig738
                    3D
 Schrodinger Suite 2021-1.
 37 39  0  0  1  0            999 V2000
   21.3449   50.8599   11.9582 C   0  0  2  0  0  0
   21.2038   49.4674   12.5773 C   0  0  2  0  0  0
   21.2238   48.6730   11.4008 O   0  0  0  0  0  0
   21.0899   49.3957   10.1710 C   0  0  2  0  0  0
   20.6583   50.7524   10.6019 C   0  0  0  0  0  0
   20.1233   48.6927    9.1814 C   0  0  0  0  0  0
   22.7334   51.5764   12.0617 C   0  0  0  0  0  0
   23.1063   52.4147   13.1540 C   0  0  0  0  0  0
   24.3145   53.0970   13.1591 C   0  0  0  0  0  0
   25.2018   52.9428   12.1208 C   0  0  0  0  0  0
   24.8813   52.1213   11.0435 C   0  0  0  0  0  0
   23.6686   51.4383   11.0231 C   0  0  0  0  0  0
   20.5231   51.6621   12.6007 O   0  0  0  0  0  0
   19.9773   49.0030   13.4268 C   0  0  0  0  0  0
   18.8994   48.3937   12.7698 C   0  0  0  0  0  0
   17.8025   47.8909   13.4642 C   0  0  0  0  0  0
   17.7702   47.9199   14.8478 C   0  0  0  0  0  0
   18.8216   48.5112   15.5285 C   0  0  0  0  0  0
   19.8933   49.0754   14.8335 C   0  0  0  0  0  0
   20.1217   49.3082    7.9620 O   0  0  0  0  0  0
   19.5165   47.6534    9.4267 O   0  0  0  0  0  0
   22.1209   52.7214   14.5355 Cl  0  0  0  0  0  0
   20.9861   49.9788   15.7863 Cl  0  0  0  0  0  0
   22.1066   49.4311   13.1704 H   0  0  0  0  0  0
   22.0564   49.4046    9.6782 H   0  0  0  0  0  0
   20.9789   51.4855    9.8782 H   0  0  0  0  0  0
   19.5651   50.8225   10.6418 H   0  0  0  0  0  0
   24.5623   53.7648   13.9681 H   0  0  0  0  0  0
   26.1233   53.4956   12.1337 H   0  0  0  0  0  0
   25.5739   52.0040   10.2227 H   0  0  0  0  0  0
   23.4749   50.8213   10.1648 H   0  0  0  0  0  0
   20.9790   51.9923   13.3920 H   0  0  0  0  0  0
   18.8833   48.3114   11.6983 H   0  0  0  0  0  0
   16.9636   47.4802   12.9320 H   0  0  0  0  0  0
   16.9193   47.5252   15.3838 H   0  0  0  0  0  0
   18.7711   48.5857   16.5999 H   0  0  0  0  0  0
   20.5499   50.1663    7.9480 H   0  0  0  0  0  0
  1  2  1  0  0  0
  1 13  1  0  0  0
  1  7  1  0  0  0
  1  5  1  0  0  0
  2  3  1  0  0  0
  2 14  1  0  0  0
  2 24  1  0  0  0
  3  4  1  0  0  0
  4  6  1  0  0  0
  4  5  1  0  0  0
  4 25  1  0  0  0
  5 26  1  0  0  0
  5 27  1  0  0  0
  6 20  1  0  0  0
  6 21  2  0  0  0
  7 12  1  0  0  0
  7  8  2  0  0  0
  8  9  1  0  0  0
  8 22  1  0  0  0
  9 10  2  0  0  0
  9 28  1  0  0  0
 10 11  1  0  0  0
 10 29  1  0  0  0
 11 12  2  0  0  0
 11 30  1  0  0  0
 12 31  1  0  0  0
 13 32  1  0  0  0
 14 15  2  0  0  0
 14 19  1  0  0  0
 15 16  1  0  0  0
 15 33  1  0  0  0
 16 17  2  0  0  0
 16 34  1  0  0  0
 17 18  1  0  0  0
 17 35  1  0  0  0
 18 19  2  0  0  0
 18 36  1  0  0  0
 19 23  1  0  0  0
 20 37  1  0  0  0
M  END
> <s_m_entry_id>
5636

> <s_m_entry_name>
dock_pv.627

> <s_m_Source_Path>
/home/csk/Desktop/cluster/DUD-E-result/pgh1

> <s_m_Source_File>
dock_pv.maegz

> <i_m_Source_File_Index>
627

> <chembl_id>
CHEMBL456272

> <chembl_pref_name>
None

> <i_lp_mmshare_version>
53161

> <r_lp_tautomer_probability>
1

> <s_lp_Force_Field>
OPLS_2005

> <r_lp_Energy>
35.740532

> <b_lp_Chiralities_Consistent>
1

> <s_lp_Variant>
CHEMBL221_lig738-1

> <s_i_glide_gridfile>
glide-grid_2oyu

> <i_i_glide_lignum>
907

> <i_i_glide_rotatable_bonds>
5

> <r_i_docking_score>
-6.93450173327401

> <r_i_glide_ligand_efficiency>
-0.301500075359739

> <r_i_glide_ligand_efficiency_sa>
-0.85742610784217

> <r_i_glide_ligand_efficiency_ln>
-1.67682539769095

> <r_i_glide_gscore>
-6.93450173327401

> <r_i_glide_lipo>
-4.90163495915554

> <r_i_glide_hbond>
0

> <r_i_glide_metal>
0

> <r_i_glide_rewards>
-2.14289587001257

> <r_i_glide_evdw>
-4.50430107116699

> <r_i_glide_ecoul>
-0.826255917549133

> <r_i_glide_erotb>
0.459182537084817

> <r_i_glide_esite>
0

> <r_i_glide_emodel>
-15.1704901263787

> <r_i_glide_energy>
-5.33055698871613

> <r_i_glide_einternal>
4.64618349075317

> <i_i_glide_confnum>
45

> <i_i_glide_posenum>
16

> <r_i_glide_eff_state_penalty>
0

> <s_user_duplicate_titles>
CHEMBL221_lig738

> <i_f3d_flags>
0

> <s_m_subgroup_title>
dock_pv

> <s_m_subgroupid>
dock_pv

> <b_m_subgroup_collapsed>
1

$$$$
CHEMBL221_lig852
                    3D
 Schrodinger Suite 2021-1.
 35 37  0  0  1  0            999 V2000
   22.2140   51.0260   13.3660 C   0  0  0  0  0  0
   21.8022   50.5036   12.1420 C   0  0  0  0  0  0
   20.6808   49.6634   12.0380 C   0  0  0  0  0  0
   21.5483   50.6674   14.5345 C   0  0  0  0  0  0
   23.5508   52.1154   13.4291 Cl  0  0  0  0  0  0
   20.5052   49.7413   14.4883 C   0  0  0  0  0  0
   20.0361   49.2979   13.2370 C   0  0  0  0  0  0
   18.8074   48.6587   13.1421 O   0  0  0  0  0  0
   18.3192   47.9272   14.2911 C   0  0  2  0  0  0
   18.5839   48.6730   15.5968 C   0  0  0  0  0  0
   19.7230   49.4049   15.6947 C   0  0  0  0  0  0
   18.9928   46.5630   14.4112 C   0  0  0  0  0  0
   19.3230   46.0747   13.2246 F   0  0  0  0  0  0
   20.1228   46.6730   15.1196 F   0  0  0  0  0  0
   18.2132   45.6599   15.0000 F   0  0  0  0  0  0
   17.5406   48.6597   16.6000 C   0  0  0  0  0  0
   17.3230   49.8730   17.1804 O   0  0  0  0  0  0
   16.8529   47.6880   16.8615 O   0  0  0  0  0  0
   20.2268   49.2153   10.6768 C   0  0  0  0  0  0
   20.3694   50.0660    9.5752 C   0  0  0  0  0  0
   20.1230   49.6156    8.2785 C   0  0  0  0  0  0
   19.7230   48.3052    8.0601 C   0  0  0  0  0  0
   19.4887   47.4730    9.1426 C   0  0  0  0  0  0
   19.7230   47.9282   10.4410 C   0  0  0  0  0  0
   19.4947   47.8730    6.7851 O   0  0  0  0  0  0
   22.3509   50.7916   11.2572 H   0  0  0  0  0  0
   21.8603   51.0910   15.4770 H   0  0  0  0  0  0
   17.2506   47.7892   14.1090 H   0  0  0  0  0  0
   19.9227   49.9589   16.6000 H   0  0  0  0  0  0
   16.5842   49.8113   17.7882 H   0  0  0  0  0  0
   20.7055   51.0818    9.7088 H   0  0  0  0  0  0
   20.2331   50.2960    7.4460 H   0  0  0  0  0  0
   19.1422   46.4680    8.9724 H   0  0  0  0  0  0
   19.5829   47.2381   11.2532 H   0  0  0  0  0  0
   19.5939   48.5810    6.1438 H   0  0  0  0  0  0
  1  2  2  0  0  0
  1  4  1  0  0  0
  1  5  1  0  0  0
  2  3  1  0  0  0
  2 26  1  0  0  0
  3  7  2  0  0  0
  3 19  1  0  0  0
  4  6  2  0  0  0
  4 27  1  0  0  0
  6  7  1  0  0  0
  6 11  1  0  0  0
  7  8  1  0  0  0
  8  9  1  0  0  0
  9 12  1  0  0  0
  9 10  1  0  0  0
  9 28  1  0  0  0
 10 16  1  0  0  0
 10 11  2  0  0  0
 11 29  1  0  0  0
 12 13  1  0  0  0
 12 14  1  0  0  0
 12 15  1  0  0  0
 16 17  1  0  0  0
 16 18  2  0  0  0
 17 30  1  0  0  0
 19 20  2  0  0  0
 19 24  1  0  0  0
 20 21  1  0  0  0
 20 31  1  0  0  0
 21 22  2  0  0  0
 21 32  1  0  0  0
 22 23  1  0  0  0
 22 25  1  0  0  0
 23 24  2  0  0  0
 23 33  1  0  0  0
 24 34  1  0  0  0
 25 35  1  0  0  0
M  END
> <s_m_entry_id>
5637

> <s_m_entry_name>
dock_pv.628

> <s_m_Source_Path>
/home/csk/Desktop/cluster/DUD-E-result/pgh1

> <s_m_Source_File>
dock_pv.maegz

> <i_m_Source_File_Index>
628

> <chembl_id>
CHEMBL1669030

> <chembl_pref_name>
None

> <i_lp_mmshare_version>
53161

> <r_lp_tautomer_probability>
0.999999999997365

> <s_lp_Force_Field>
OPLS_2005

> <r_lp_Energy>
19.14778

> <b_lp_Chiralities_Consistent>
1

> <s_lp_Variant>
CHEMBL221_lig852-1

> <s_i_glide_gridfile>
glide-grid_2oyu

> <i_i_glide_lignum>
1047

> <i_i_glide_rotatable_bonds>
5

> <r_i_docking_score>
-6.93301009595141

> <r_i_glide_ligand_efficiency>
-0.277320403838056

> <r_i_glide_ligand_efficiency_sa>
-0.810889779120781

> <r_i_glide_ligand_efficiency_ln>
-1.64333115828741

> <r_i_glide_gscore>
-6.93301009595141

> <r_i_glide_lipo>
-4.23291466768453

> <r_i_glide_hbond>
-0.0719494115201825

> <r_i_glide_metal>
0

> <r_i_glide_rewards>
-2.09975392823445

> <r_i_glide_evdw>
-11.7321653366089

> <r_i_glide_ecoul>
-0.560735166072845

> <r_i_glide_erotb>
0.280811595030422

> <r_i_glide_esite>
-0.138485141801301

> <r_i_glide_emodel>
-23.1121734966317

> <r_i_glide_energy>
-12.2929005026817

> <r_i_glide_einternal>
4.5213680267334

> <i_i_glide_confnum>
1

> <i_i_glide_posenum>
198

> <r_i_glide_eff_state_penalty>
0

> <s_user_duplicate_titles>
CHEMBL221_lig852

> <i_f3d_flags>
0

> <s_m_subgroup_title>
dock_pv

> <s_m_subgroupid>
dock_pv

> <b_m_subgroup_collapsed>
1

$$$$
CHEMBL221_lig76
                    3D
 Schrodinger Suite 2021-1.
 39 41  0  0  1  0            999 V2000
   22.1840   51.4658   14.1239 N   0  0  0  0  0  0
   21.3230   50.6770   14.7193 C   0  0  0  0  0  0
   22.0751   51.2021   12.8516 C   0  0  0  0  0  0
   21.0400   50.3190   12.5583 N   0  0  0  0  0  0
   20.6263   49.8726   13.8144 C   0  0  0  0  0  0
   19.7232   48.8826    6.8142 S   0  0  0  0  0  0
   20.5774   49.9699   11.2537 C   0  0  0  0  0  0
   20.1231   49.3313    8.5356 C   0  0  0  0  0  0
   19.6021   48.8230   14.1432 C   0  0  0  0  0  0
   19.3836   47.4730    6.8938 O   0  0  0  0  0  0
   18.7661   49.8202    6.2310 O   0  0  0  0  0  0
   21.1359   50.7510   16.4274 Cl  0  0  0  0  0  0
   20.1242   50.6548    8.9530 C   0  0  0  0  0  0
   20.1034   48.3427    9.5267 C   0  0  0  0  0  0
   20.4149   50.9479   10.2866 C   0  0  0  0  0  0
   20.2949   48.6729   10.8783 C   0  0  0  0  0  0
   18.4321   48.7010   13.4036 C   0  0  0  0  0  0
   19.7412   48.0494   15.2945 C   0  0  0  0  0  0
   23.0600   51.7947   11.8587 C   0  0  0  0  0  0
   21.2342   49.0729    5.7334 C   0  0  0  0  0  0
   17.5368   47.1291   14.9659 C   0  0  0  0  0  0
   18.7101   47.2147   15.7057 C   0  0  0  0  0  0
   17.3951   47.8734   13.8043 C   0  0  0  0  0  0
   16.5225   46.3376   15.3752 F   0  0  0  0  0  0
   23.9085   50.7718   11.3942 O   0  0  0  0  0  0
   20.0684   51.4362    8.2063 H   0  0  0  0  0  0
   19.9614   47.3066    9.2627 H   0  0  0  0  0  0
   20.5581   51.9416   10.5986 H   0  0  0  0  0  0
   20.3470   47.8706   11.5995 H   0  0  0  0  0  0
   18.2819   49.3842   12.6000 H   0  0  0  0  0  0
   20.6240   48.1329   15.9078 H   0  0  0  0  0  0
   22.5990   52.2733   11.0007 H   0  0  0  0  0  0
   23.6809   52.5630   12.3218 H   0  0  0  0  0  0
   21.0477   48.5259    4.8112 H   0  0  0  0  0  0
   21.3229   50.1296    5.5002 H   0  0  0  0  0  0
   22.1204   48.6750    6.1997 H   0  0  0  0  0  0
   18.8159   46.6732   16.6227 H   0  0  0  0  0  0
   16.4693   47.8597   13.2482 H   0  0  0  0  0  0
   24.4249   50.4329   12.1268 H   0  0  0  0  0  0
  1  2  1  0  0  0
  1  3  2  0  0  0
  2  5  2  0  0  0
  2 12  1  0  0  0
  3  4  1  0  0  0
  3 19  1  0  0  0
  4  7  1  0  0  0
  4  5  1  0  0  0
  5  9  1  0  0  0
  6  8  1  0  0  0
  6 10  2  0  0  0
  6 11  2  0  0  0
  6 20  1  0  0  0
  7 15  2  0  0  0
  7 16  1  0  0  0
  8 14  1  0  0  0
  8 13  2  0  0  0
  9 17  2  0  0  0
  9 18  1  0  0  0
 13 15  1  0  0  0
 13 26  1  0  0  0
 14 16  2  0  0  0
 14 27  1  0  0  0
 15 28  1  0  0  0
 16 29  1  0  0  0
 17 23  1  0  0  0
 17 30  1  0  0  0
 18 22  2  0  0  0
 18 31  1  0  0  0
 19 25  1  0  0  0
 19 32  1  0  0  0
 19 33  1  0  0  0
 20 34  1  0  0  0
 20 35  1  0  0  0
 20 36  1  0  0  0
 21 22  1  0  0  0
 21 24  1  0  0  0
 21 23  2  0  0  0
 22 37  1  0  0  0
 23 38  1  0  0  0
 25 39  1  0  0  0
M  END
> <s_m_entry_id>
5638

> <s_m_entry_name>
dock_pv.629

> <s_m_Source_Path>
/home/csk/Desktop/cluster/DUD-E-result/pgh1

> <s_m_Source_File>
dock_pv.maegz

> <i_m_Source_File_Index>
629

> <chembl_id>
CHEMBL115864

> <chembl_pref_name>
None

> <i_lp_mmshare_version>
53161

> <r_lp_tautomer_probability>
1

> <s_lp_Force_Field>
OPLS_2005

> <r_lp_Energy>
13.186239

> <b_lp_Chiralities_Consistent>
1

> <s_lp_Variant>
CHEMBL221_lig76-1

> <s_i_glide_gridfile>
glide-grid_2oyu

> <i_i_glide_lignum>
93

> <i_i_glide_rotatable_bonds>
5

> <r_i_docking_score>
-6.92513202996962

> <r_i_glide_ligand_efficiency>
-0.277005281198785

> <r_i_glide_ligand_efficiency_sa>
-0.809968354934827

> <r_i_glide_ligand_efficiency_ln>
-1.64146382056314

> <r_i_glide_gscore>
-6.92513202996962

> <r_i_glide_lipo>
-3.82961630288158

> <r_i_glide_hbond>
0

> <r_i_glide_metal>
0

> <r_i_glide_rewards>
-2.88539654808196

> <r_i_glide_evdw>
-17.2910614013672

> <r_i_glide_ecoul>
1.81713616847992

> <r_i_glide_erotb>
0.401403785003756

> <r_i_glide_esite>
-0.0195403192134636

> <r_i_glide_emodel>
-20.4190853144245

> <r_i_glide_energy>
-15.4739252328873

> <r_i_glide_einternal>
1.51326847076416

> <i_i_glide_confnum>
22

> <i_i_glide_posenum>
268

> <r_i_glide_eff_state_penalty>
0

> <s_user_duplicate_titles>
CHEMBL221_lig76

> <i_f3d_flags>
0

> <s_m_subgroup_title>
dock_pv

> <s_m_subgroupid>
dock_pv

> <b_m_subgroup_collapsed>
1

$$$$
CHEMBL221_lig813
                    3D
 Schrodinger Suite 2021-1.
 24 25  0  0  1  0            999 V2000
   18.9228   47.9998   15.6093 C   0  0  0  0  0  0
   18.7833   47.0011   14.6443 C   0  0  0  0  0  0
   19.4203   47.1333   13.4141 C   0  0  0  0  0  0
   19.8084   49.0730   15.3912 C   0  0  0  0  0  0
   20.4565   49.1968   14.1597 C   0  0  0  0  0  0
   20.2276   48.2384   13.1761 C   0  0  0  0  0  0
   20.9230   48.2586   11.9921 O   0  0  0  0  0  0
   21.3859   49.5260   11.4830 C   0  0  2  0  0  0
   21.8674   50.4729   12.5975 C   0  0  0  0  0  0
   21.3801   50.2942   13.8402 C   0  0  0  0  0  0
   22.8645   51.4781   12.2665 C   0  0  0  0  0  0
   23.0282   52.4323   13.2258 O   0  0  0  0  0  0
   23.5142   51.4824   11.2254 O   0  0  0  0  0  0
   20.2923   50.1476   10.5991 C   0  0  0  0  0  0
   19.3230   50.7178   11.3121 F   0  0  0  0  0  0
   20.7973   51.0730    9.8000 F   0  0  0  0  0  0
   19.7458   49.2144    9.8208 F   0  0  0  0  0  0
   20.1230   50.2730   16.6000 Cl  0  0  0  0  0  0
   17.9581   47.8730   17.0338 Cl  0  0  0  0  0  0
   17.8795   45.5672   15.0000 Cl  0  0  0  0  0  0
   19.3230   46.3749   12.6551 H   0  0  0  0  0  0
   22.2261   49.2692   10.8371 H   0  0  0  0  0  0
   21.7229   50.9394   14.6374 H   0  0  0  0  0  0
   23.6952   53.0653   12.9535 H   0  0  0  0  0  0
  1  2  2  0  0  0
  1  4  1  0  0  0
  1 19  1  0  0  0
  2  3  1  0  0  0
  2 20  1  0  0  0
  3  6  2  0  0  0
  3 21  1  0  0  0
  4  5  2  0  0  0
  4 18  1  0  0  0
  5  6  1  0  0  0
  5 10  1  0  0  0
  6  7  1  0  0  0
  7  8  1  0  0  0
  8  9  1  0  0  0
  8 14  1  0  0  0
  8 22  1  0  0  0
  9 10  2  0  0  0
  9 11  1  0  0  0
 10 23  1  0  0  0
 11 12  1  0  0  0
 11 13  2  0  0  0
 12 24  1  0  0  0
 14 15  1  0  0  0
 14 16  1  0  0  0
 14 17  1  0  0  0
M  END
> <s_m_entry_id>
5639

> <s_m_entry_name>
dock_pv.630

> <s_m_Source_Path>
/home/csk/Desktop/cluster/DUD-E-result/pgh1

> <s_m_Source_File>
dock_pv.maegz

> <i_m_Source_File_Index>
630

> <chembl_id>
CHEMBL1288592

> <chembl_pref_name>
None

> <i_lp_mmshare_version>
53161

> <r_lp_tautomer_probability>
1

> <s_lp_Force_Field>
OPLS_2005

> <r_lp_Energy>
15.477364

> <b_lp_Chiralities_Consistent>
1

> <s_lp_Variant>
CHEMBL221_lig813-1

> <s_i_glide_gridfile>
glide-grid_2oyu

> <i_i_glide_lignum>
980

> <i_i_glide_rotatable_bonds>
3

> <r_i_docking_score>
-6.92465627633643

> <r_i_glide_ligand_efficiency>
-0.346232813816821

> <r_i_glide_ligand_efficiency_sa>
-0.939820448329121

> <r_i_glide_ligand_efficiency_ln>
-1.73301307551752

> <r_i_glide_gscore>
-6.92465627633643

> <r_i_glide_lipo>
-2.6348567842396

> <r_i_glide_hbond>
0

> <r_i_glide_metal>
0

> <r_i_glide_rewards>
-3.12303561967721

> <r_i_glide_evdw>
-25.4056663513184

> <r_i_glide_ecoul>
-0.360198080539703

> <r_i_glide_erotb>
0.157549157227256

> <r_i_glide_esite>
0

> <r_i_glide_emodel>
-32.6643673653224

> <r_i_glide_energy>
-25.7658644318581

> <r_i_glide_einternal>
0.46583765745163

> <i_i_glide_confnum>
2

> <i_i_glide_posenum>
234

> <r_i_glide_eff_state_penalty>
0

> <s_user_duplicate_titles>
CHEMBL221_lig813

> <i_f3d_flags>
0

> <s_m_subgroup_title>
dock_pv

> <s_m_subgroupid>
dock_pv

> <b_m_subgroup_collapsed>
1

$$$$
CHEMBL221_lig248
                    3D
 Schrodinger Suite 2021-1.
 47 49  0  0  1  0            999 V2000
   21.7530   51.1526   13.3317 C   0  0  0  0  0  0
   21.2579   50.9461   14.6325 C   0  0  0  0  0  0
   21.3659   50.2059   12.3662 C   0  0  0  0  0  0
   20.5233   49.1420   12.6815 C   0  0  0  0  0  0
   20.5230   49.8309   14.9781 C   0  0  0  0  0  0
   20.1534   48.9177   14.0109 C   0  0  0  0  0  0
   22.6840   52.3283   12.9464 C   0  0  0  0  0  0
   20.0783   48.1886   11.6542 C   0  0  0  0  0  0
   21.3230   51.8332   15.6721 O   0  0  0  0  0  0
   20.1936   49.2388    5.6922 C   0  0  0  0  0  0
   18.6995   49.3155    5.8814 C   0  0  0  0  0  0
   19.5985   49.0798    7.0750 C   0  0  0  0  0  0
   19.7224   47.0730   11.9934 O   0  0  0  0  0  0
   20.7730   51.2243   16.8428 C   0  0  0  0  0  0
   20.1485   49.8903   16.4155 C   0  0  0  0  0  0
   19.3328   47.5609    9.2322 C   0  0  0  0  0  0
   19.9752   48.6258   10.1709 C   0  0  0  0  0  0
   19.5837   47.6829    7.7172 C   0  0  0  0  0  0
   22.1227   53.6711   13.4888 C   0  0  0  0  0  0
   22.9230   52.4057   11.4143 C   0  0  0  0  0  0
   24.0737   52.0928   13.5376 C   0  0  0  0  0  0
   21.7129   50.2720   11.3490 H   0  0  0  0  0  0
   19.5303   48.0769   14.2853 H   0  0  0  0  0  0
   20.7525   50.1493    5.4758 H   0  0  0  0  0  0
   20.6185   48.3664    5.1941 H   0  0  0  0  0  0
   18.0714   48.5046    5.5133 H   0  0  0  0  0  0
   18.1956   50.2729    5.8000 H   0  0  0  0  0  0
   19.7230   49.9017    7.7810 H   0  0  0  0  0  0
   20.0361   51.8729   17.3146 H   0  0  0  0  0  0
   21.5800   51.0730   17.5577 H   0  0  0  0  0  0
   20.5230   49.0495   16.9851 H   0  0  0  0  0  0
   19.0748   49.8730   16.6000 H   0  0  0  0  0  0
   19.7231   46.5812    9.4994 H   0  0  0  0  0  0
   18.2617   47.4767    9.3999 H   0  0  0  0  0  0
   19.4196   49.5621   10.1200 H   0  0  0  0  0  0
   20.9791   48.8498    9.8157 H   0  0  0  0  0  0
   20.5230   47.1974    7.4934 H   0  0  0  0  0  0
   18.8317   47.0731    7.2173 H   0  0  0  0  0  0
   22.3392   53.7946   14.5500 H   0  0  0  0  0  0
   22.5637   54.5386   13.0003 H   0  0  0  0  0  0
   21.0395   53.7426   13.4000 H   0  0  0  0  0  0
   23.5747   51.6095   11.0497 H   0  0  0  0  0  0
   21.9866   52.2730   10.8787 H   0  0  0  0  0  0
   23.3901   53.3400   11.1092 H   0  0  0  0  0  0
   24.5230   51.2366   13.0364 H   0  0  0  0  0  0
   24.7367   52.9484   13.3988 H   0  0  0  0  0  0
   24.0213   51.8732   14.6000 H   0  0  0  0  0  0
  1  2  1  0  0  0
  1  3  2  0  0  0
  1  7  1  0  0  0
  2  5  2  0  0  0
  2  9  1  0  0  0
  3  4  1  0  0  0
  3 22  1  0  0  0
  4  6  2  0  0  0
  4  8  1  0  0  0
  5 15  1  0  0  0
  5  6  1  0  0  0
  6 23  1  0  0  0
  7 19  1  0  0  0
  7 20  1  0  0  0
  7 21  1  0  0  0
  8 13  2  0  0  0
  8 17  1  0  0  0
  9 14  1  0  0  0
 10 12  1  0  0  0
 10 11  1  0  0  0
 10 24  1  0  0  0
 10 25  1  0  0  0
 11 12  1  0  0  0
 11 26  1  0  0  0
 11 27  1  0  0  0
 12 18  1  0  0  0
 12 28  1  0  0  0
 14 15  1  0  0  0
 14 29  1  0  0  0
 14 30  1  0  0  0
 15 31  1  0  0  0
 15 32  1  0  0  0
 16 17  1  0  0  0
 16 18  1  0  0  0
 16 33  1  0  0  0
 16 34  1  0  0  0
 17 35  1  0  0  0
 17 36  1  0  0  0
 18 37  1  0  0  0
 18 38  1  0  0  0
 19 39  1  0  0  0
 19 40  1  0  0  0
 19 41  1  0  0  0
 20 42  1  0  0  0
 20 43  1  0  0  0
 20 44  1  0  0  0
 21 45  1  0  0  0
 21 46  1  0  0  0
 21 47  1  0  0  0
M  END
> <s_m_entry_id>
5640

> <s_m_entry_name>
dock_pv.631

> <s_m_Source_Path>
/home/csk/Desktop/cluster/DUD-E-result/pgh1

> <s_m_Source_File>
dock_pv.maegz

> <i_m_Source_File_Index>
631

> <chembl_id>
CHEMBL279166

> <chembl_pref_name>
None

> <i_lp_mmshare_version>
53161

> <r_lp_tautomer_probability>
0.99990000499975

> <s_lp_Force_Field>
OPLS_2005

> <r_lp_Energy>
39.823497

> <b_lp_Chiralities_Consistent>
1

> <s_lp_Variant>
CHEMBL221_lig248-1

> <s_i_glide_gridfile>
glide-grid_2oyu

> <i_i_glide_lignum>
278

> <i_i_glide_rotatable_bonds>
6

> <r_i_docking_score>
-6.9245177019505

> <r_i_glide_ligand_efficiency>
-0.329738938188119

> <r_i_glide_ligand_efficiency_sa>
-0.909724727538216

> <r_i_glide_ligand_efficiency_ln>
-1.71207300950175

> <r_i_glide_gscore>
-6.9245177019505

> <r_i_glide_lipo>
-4.52063959736308

> <r_i_glide_hbond>
0

> <r_i_glide_metal>
0

> <r_i_glide_rewards>
-2.28140133678519

> <r_i_glide_evdw>
-24.4551391601562

> <r_i_glide_ecoul>
1.43180227279663

> <r_i_glide_erotb>
0.885509849286089

> <r_i_glide_esite>
0

> <r_i_glide_emodel>
-20.0399866145336

> <r_i_glide_energy>
-23.0233368873596

> <r_i_glide_einternal>
8.45812606811523

> <i_i_glide_confnum>
33

> <i_i_glide_posenum>
241

> <r_i_glide_eff_state_penalty>
0

> <s_user_duplicate_titles>
CHEMBL221_lig248

> <i_f3d_flags>
0

> <s_m_subgroup_title>
dock_pv

> <s_m_subgroupid>
dock_pv

> <b_m_subgroup_collapsed>
1

$$$$
CHEMBL221_lig622
                    3D
 Schrodinger Suite 2021-1.
 30 31  0  0  1  0            999 V2000
   19.4897   48.2159   11.3056 C   0  0  0  0  0  0
   19.7240   48.5186    9.9674 C   0  0  0  0  0  0
   20.3576   49.6475    9.5740 N   0  0  0  0  0  0
   20.7787   50.4965   10.5397 C   0  0  0  0  0  0
   20.6383   50.2387   11.9083 C   0  0  0  0  0  0
   19.9627   49.0775   12.2995 C   0  0  0  0  0  0
   19.7956   48.8413   13.6735 N   0  0  0  0  0  0
   19.0310   47.4188   14.4002 S   0  0  0  0  0  0
   17.1780   47.7930   14.3570 C   0  0  0  0  0  0
   19.4623   47.4052   15.8000 O   0  0  0  0  0  0
   19.3230   46.2729   13.5382 O   0  0  0  0  0  0
   21.0759   51.1100   12.8812 O   0  0  0  0  0  0
   22.2128   51.8697   12.7422 C   0  0  0  0  0  0
   22.2227   53.0827   13.4199 C   0  0  0  0  0  0
   23.3580   53.8771   13.4006 C   0  0  0  0  0  0
   24.4991   53.4448   12.7396 C   0  0  0  0  0  0
   24.4720   52.2729   11.9849 C   0  0  0  0  0  0
   23.3385   51.4665   12.0107 C   0  0  0  0  0  0
   25.9446   54.3660   12.9080 Cl  0  0  0  0  0  0
   16.9230   48.6734   15.3154 F   0  0  0  0  0  0
   16.5230   46.6601   14.6000 F   0  0  0  0  0  0
   16.8593   48.2730   13.1565 F   0  0  0  0  0  0
   18.9230   47.3406   11.5401 H   0  0  0  0  0  0
   19.3706   47.8729    9.1775 H   0  0  0  0  0  0
   21.2390   51.4076   10.2001 H   0  0  0  0  0  0
   20.1591   49.5393   14.3048 H   0  0  0  0  0  0
   21.3559   53.3964   13.9808 H   0  0  0  0  0  0
   23.3711   54.8004   13.9587 H   0  0  0  0  0  0
   25.3234   51.9680   11.4000 H   0  0  0  0  0  0
   23.3486   50.5274   11.4782 H   0  0  0  0  0  0
  1  6  1  0  0  0
  1  2  2  0  0  0
  1 23  1  0  0  0
  2  3  1  0  0  0
  2 24  1  0  0  0
  3  4  2  0  0  0
  4  5  1  0  0  0
  4 25  1  0  0  0
  5  6  2  0  0  0
  5 12  1  0  0  0
  6  7  1  0  0  0
  7  8  1  0  0  0
  7 26  1  0  0  0
  8 11  2  0  0  0
  8  9  1  0  0  0
  8 10  2  0  0  0
  9 20  1  0  0  0
  9 21  1  0  0  0
  9 22  1  0  0  0
 12 13  1  0  0  0
 13 14  2  0  0  0
 13 18  1  0  0  0
 14 15  1  0  0  0
 14 27  1  0  0  0
 15 16  2  0  0  0
 15 28  1  0  0  0
 16 17  1  0  0  0
 16 19  1  0  0  0
 17 18  2  0  0  0
 17 29  1  0  0  0
 18 30  1  0  0  0
M  END
> <s_m_entry_id>
5641

> <s_m_entry_name>
dock_pv.632

> <s_m_Source_Path>
/home/csk/Desktop/cluster/DUD-E-result/pgh1

> <s_m_Source_File>
dock_pv.maegz

> <i_m_Source_File_Index>
632

> <chembl_id>
CHEMBL225113

> <chembl_pref_name>
None

> <i_lp_mmshare_version>
53161

> <r_lp_tautomer_probability>
1

> <s_lp_Force_Field>
OPLS_2005

> <r_lp_Energy>
8.868738

> <b_lp_Chiralities_Consistent>
1

> <s_lp_Variant>
CHEMBL221_lig622-1

> <s_i_glide_gridfile>
glide-grid_2oyu

> <i_i_glide_lignum>
761

> <i_i_glide_rotatable_bonds>
5

> <r_i_docking_score>
-6.91650187569985

> <r_i_glide_ligand_efficiency>
-0.314386448895448

> <r_i_glide_ligand_efficiency_sa>
-0.880923193922467

> <r_i_glide_ligand_efficiency_ln>
-1.6906453439568

> <r_i_glide_gscore>
-6.91650187569985

> <r_i_glide_lipo>
-3.63733578862571

> <r_i_glide_hbond>
0

> <r_i_glide_metal>
0

> <r_i_glide_rewards>
-1.82833986142264

> <r_i_glide_evdw>
-33.2264251708984

> <r_i_glide_ecoul>
-2.30584239959717

> <r_i_glide_erotb>
0.613722352265177

> <r_i_glide_esite>
-0.0573509594321756

> <r_i_glide_emodel>
-48.7423111043301

> <r_i_glide_energy>
-35.5322675704956

> <r_i_glide_einternal>
0.812508761882782

> <i_i_glide_confnum>
5

> <i_i_glide_posenum>
65

> <r_i_glide_eff_state_penalty>
0

> <s_user_duplicate_titles>
CHEMBL221_lig622,374313

> <i_f3d_flags>
0

> <s_m_subgroup_title>
dock_pv

> <s_m_subgroupid>
dock_pv

> <b_m_subgroup_collapsed>
1

$$$$
CHEMBL221_lig669
                    3D
 Schrodinger Suite 2021-1.
 30 31  0  0  1  0            999 V2000
   23.1639   52.2790   12.9458 C   0  0  0  0  0  0
   21.9910   52.1182   13.8004 C   0  0  0  0  0  0
   17.4621   47.8090   14.5588 C   0  0  0  0  0  0
   23.4937   51.2573   11.5676 S   0  0  0  0  0  0
   18.8816   47.2677   14.3438 C   0  0  1  0  0  0
   21.2895   50.8080   13.9010 C   0  0  0  0  0  0
   19.8050   48.4666   14.1932 C   0  0  0  0  0  0
   24.1706   53.2243   13.1063 C   0  0  0  0  0  0
   24.9230   52.1415   11.2191 C   0  0  0  0  0  0
   21.7230   53.0157   14.6000 O   0  0  0  0  0  0
   16.9230   47.8730   15.6582 O   0  0  0  0  0  0
   25.2086   53.0730   12.2000 C   0  0  0  0  0  0
   20.7871   50.1457   12.7732 C   0  0  0  0  0  0
   21.0095   50.3047   15.1768 C   0  0  0  0  0  0
   20.0610   48.9730   12.9184 C   0  0  0  0  0  0
   20.2866   49.1317   15.3232 C   0  0  0  0  0  0
   16.9230   48.2730   13.4000 O   0  0  0  0  0  0
   19.3182   46.3214   15.4789 C   0  0  0  0  0  0
   18.9030   46.7014   13.4104 H   0  0  0  0  0  0
   24.1757   53.9721   13.8856 H   0  0  0  0  0  0
   25.5304   51.8730   10.3677 H   0  0  0  0  0  0
   26.0962   53.6890   12.2034 H   0  0  0  0  0  0
   20.8989   50.5505   11.7786 H   0  0  0  0  0  0
   21.3423   50.8241   16.0652 H   0  0  0  0  0  0
   19.6516   48.4899   12.0427 H   0  0  0  0  0  0
   20.0611   48.7761   16.3170 H   0  0  0  0  0  0
   16.0459   48.6321   13.5476 H   0  0  0  0  0  0
   18.9601   46.6730   16.4485 H   0  0  0  0  0  0
   18.9230   45.3171   15.3247 H   0  0  0  0  0  0
   20.4023   46.2730   15.5618 H   0  0  0  0  0  0
  1  2  1  0  0  0
  1  4  1  0  0  0
  1  8  2  0  0  0
  2  6  1  0  0  0
  2 10  2  0  0  0
  3  5  1  0  0  0
  3 11  2  0  0  0
  3 17  1  0  0  0
  4  9  1  0  0  0
  5  7  1  0  0  0
  5 18  1  0  0  0
  5 19  1  0  0  0
  6 13  1  0  0  0
  6 14  2  0  0  0
  7 16  2  0  0  0
  7 15  1  0  0  0
  8 12  1  0  0  0
  8 20  1  0  0  0
  9 12  2  0  0  0
  9 21  1  0  0  0
 12 22  1  0  0  0
 13 15  2  0  0  0
 13 23  1  0  0  0
 14 16  1  0  0  0
 14 24  1  0  0  0
 15 25  1  0  0  0
 16 26  1  0  0  0
 17 27  1  0  0  0
 18 28  1  0  0  0
 18 29  1  0  0  0
 18 30  1  0  0  0
M  END
> <s_m_entry_id>
5642

> <s_m_entry_name>
dock_pv.633

> <s_m_Source_Path>
/home/csk/Desktop/cluster/DUD-E-result/pgh1

> <s_m_Source_File>
dock_pv.maegz

> <i_m_Source_File_Index>
633

> <chembl_id>
CHEMBL956

> <chembl_pref_name>
SUPROFEN

> <i_lp_mmshare_version>
53161

> <r_lp_tautomer_probability>
1

> <s_lp_Force_Field>
OPLS_2005

> <r_lp_Energy>
15.888834

> <b_lp_Chiralities_Consistent>
1

> <s_lp_Variant>
CHEMBL221_lig669-2

> <s_i_glide_gridfile>
glide-grid_2oyu

> <i_i_glide_lignum>
820

> <i_i_glide_rotatable_bonds>
5

> <r_i_docking_score>
-6.91450468949074

> <r_i_glide_ligand_efficiency>
-0.384139149416152

> <r_i_glide_ligand_efficiency_sa>
-1.00672936904117

> <r_i_glide_ligand_efficiency_ln>
-1.77733777638515

> <r_i_glide_gscore>
-6.91450468949074

> <r_i_glide_lipo>
-3.18173015009882

> <r_i_glide_hbond>
0

> <r_i_glide_metal>
0

> <r_i_glide_rewards>
-2.97157971967929

> <r_i_glide_evdw>
-33.1081962585449

> <r_i_glide_ecoul>
-1.00434613227844

> <r_i_glide_erotb>
1.04486691305638

> <r_i_glide_esite>
0

> <r_i_glide_emodel>
-40.3297699057281

> <r_i_glide_energy>
-34.1125423908234

> <r_i_glide_einternal>
7.484534740448

> <i_i_glide_confnum>
21

> <i_i_glide_posenum>
324

> <r_i_glide_eff_state_penalty>
0

> <s_user_duplicate_titles>
CHEMBL221_lig669,93117

> <i_f3d_flags>
0

> <s_m_subgroup_title>
dock_pv

> <s_m_subgroupid>
dock_pv

> <b_m_subgroup_collapsed>
1

$$$$
CHEMBL221_lig554
                    3D
 Schrodinger Suite 2021-1.
 37 39  0  0  1  0            999 V2000
   19.1888   47.9541   15.3973 S   0  0  0  0  0  0
   20.2729   49.3617   13.3145 C   0  0  0  0  0  0
   20.7329   48.9832   12.0502 C   0  0  0  0  0  0
   22.4984   50.6237   12.1820 C   0  0  0  0  0  0
   19.1228   48.7555   13.8409 N   0  0  0  0  0  0
   19.7230   47.9403   11.0187 S   0  0  0  0  0  0
   21.9188   49.5340   11.5453 C   0  0  0  0  0  0
   21.9928   51.0724   13.3911 C   0  0  0  0  0  0
   19.7230   47.8987    8.2525 C   0  0  0  0  0  0
   19.9075   48.6726    9.4092 C   0  0  0  0  0  0
   20.9230   50.4058   13.9871 C   0  0  0  0  0  0
   23.5858   51.5043   11.7128 C   0  0  0  0  0  0
   19.3230   46.5221   15.1238 O   0  0  0  0  0  0
   20.1771   48.6732   16.2000 O   0  0  0  0  0  0
   19.7418   48.5210    6.9948 C   0  0  0  0  0  0
   22.6728   52.3426   13.8002 C   0  0  0  0  0  0
   23.8260   52.5265   12.8142 C   0  0  0  0  0  0
   24.1668   51.4575   10.6337 O   0  0  0  0  0  0
   19.4821   46.5764    8.3576 F   0  0  0  0  0  0
   17.4787   48.2730   16.0960 C   0  0  0  0  0  0
   19.5611   47.8730    5.8396 F   0  0  0  0  0  0
   20.1230   50.0520    9.2825 C   0  0  0  0  0  0
   20.1230   50.6303    8.0236 C   0  0  0  0  0  0
   19.9514   49.8730    6.8816 C   0  0  0  0  0  0
   18.7114   48.1436   13.1511 H   0  0  0  0  0  0
   22.2919   49.2222   10.5814 H   0  0  0  0  0  0
   20.5274   50.7631   14.9259 H   0  0  0  0  0  0
   23.0418   52.2730   14.8161 H   0  0  0  0  0  0
   22.0010   53.2010   13.7478 H   0  0  0  0  0  0
   24.7825   52.3013   13.2854 H   0  0  0  0  0  0
   23.8817   53.5394   12.4182 H   0  0  0  0  0  0
   17.4070   47.7922   17.0700 H   0  0  0  0  0  0
   17.3375   49.3473   16.1983 H   0  0  0  0  0  0
   16.7381   47.8585   15.4133 H   0  0  0  0  0  0
   20.1929   50.7084   10.1359 H   0  0  0  0  0  0
   20.2663   51.6872    7.8724 H   0  0  0  0  0  0
   19.9518   50.3283    5.9044 H   0  0  0  0  0  0
  1  5  1  0  0  0
  1 13  2  0  0  0
  1 14  2  0  0  0
  1 20  1  0  0  0
  2  5  1  0  0  0
  2  3  2  0  0  0
  2 11  1  0  0  0
  3  6  1  0  0  0
  3  7  1  0  0  0
  4  8  1  0  0  0
  4 12  1  0  0  0
  4  7  2  0  0  0
  5 25  1  0  0  0
  6 10  1  0  0  0
  7 26  1  0  0  0
  8 11  2  0  0  0
  8 16  1  0  0  0
  9 10  1  0  0  0
  9 15  2  0  0  0
  9 19  1  0  0  0
 10 22  2  0  0  0
 11 27  1  0  0  0
 12 18  2  0  0  0
 12 17  1  0  0  0
 15 21  1  0  0  0
 15 24  1  0  0  0
 16 17  1  0  0  0
 16 28  1  0  0  0
 16 29  1  0  0  0
 17 30  1  0  0  0
 17 31  1  0  0  0
 20 32  1  0  0  0
 20 33  1  0  0  0
 20 34  1  0  0  0
 22 23  1  0  0  0
 22 35  1  0  0  0
 23 24  2  0  0  0
 23 36  1  0  0  0
 24 37  1  0  0  0
M  END
> <s_m_entry_id>
5643

> <s_m_entry_name>
dock_pv.634

> <s_m_Source_Path>
/home/csk/Desktop/cluster/DUD-E-result/pgh1

> <s_m_Source_File>
dock_pv.maegz

> <i_m_Source_File_Index>
634

> <chembl_id>
CHEMBL361563

> <chembl_pref_name>
None

> <i_lp_mmshare_version>
53161

> <r_lp_tautomer_probability>
0.99995

> <s_lp_Force_Field>
OPLS_2005

> <r_lp_Energy>
21.423313

> <b_lp_Chiralities_Consistent>
1

> <s_lp_Variant>
CHEMBL221_lig554-1

> <s_i_glide_gridfile>
glide-grid_2oyu

> <i_i_glide_lignum>
692

> <i_i_glide_rotatable_bonds>
4

> <r_i_docking_score>
-6.91015286875475

> <r_i_glide_ligand_efficiency>
-0.287923036198115

> <r_i_glide_ligand_efficiency_sa>
-0.830513749596865

> <r_i_glide_ligand_efficiency_ln>
-1.65391666774654

> <r_i_glide_gscore>
-6.91015286875475

> <r_i_glide_lipo>
-3.80006215331226

> <r_i_glide_hbond>
0

> <r_i_glide_metal>
0

> <r_i_glide_rewards>
-2.26046894865541

> <r_i_glide_evdw>
-17.1176376342773

> <r_i_glide_ecoul>
-2.19154119491577

> <r_i_glide_erotb>
0.423867668573566

> <r_i_glide_esite>
-0.0888763744094141

> <r_i_glide_emodel>
-19.4064622675705

> <r_i_glide_energy>
-19.3091788291931

> <r_i_glide_einternal>
8.36789131164551

> <i_i_glide_confnum>
1

> <i_i_glide_posenum>
348

> <r_i_glide_eff_state_penalty>
0

> <s_user_duplicate_titles>
CHEMBL221_lig554

> <i_f3d_flags>
0

> <s_m_subgroup_title>
dock_pv

> <s_m_subgroupid>
dock_pv

> <b_m_subgroup_collapsed>
1

$$$$
CHEMBL221_lig404
                    3D
 Schrodinger Suite 2021-1.
 47 48  0  0  1  0            999 V2000
   20.1230   49.7065    8.6714 S   0  0  0  0  0  0
   19.8153   48.6302    9.9846 C   0  0  0  0  0  0
   19.3623   47.4730    9.5824 N   0  0  0  0  0  0
   19.7231   48.4153    7.5826 C   0  0  0  0  0  0
   19.3482   47.3280    8.1997 N   0  0  0  0  0  0
   19.6829   48.7834   13.7878 C   0  0  0  0  0  0
   21.2275   50.5321   12.9487 C   0  0  0  0  0  0
   20.5991   49.8504   14.0211 C   0  0  0  0  0  0
   20.0708   49.0327   11.3964 C   0  0  0  0  0  0
   20.9917   50.0321   11.6644 C   0  0  0  0  0  0
   19.4214   48.4248   12.4569 C   0  0  0  0  0  0
   22.1219   51.8136   13.1150 C   0  0  0  0  0  0
   19.0295   47.9363   14.9257 C   0  0  0  0  0  0
   19.7159   48.5798    6.2243 N   0  0  0  0  0  0
   20.9218   50.2203   15.3009 O   0  0  0  0  0  0
   18.0183   46.8823   14.4181 C   0  0  0  0  0  0
   18.2618   48.7648   15.9784 C   0  0  0  0  0  0
   23.3467   51.5739   13.9729 C   0  0  0  0  0  0
   21.3248   52.9722   13.7766 C   0  0  0  0  0  0
   20.1398   47.1305   15.5899 C   0  0  0  0  0  0
   22.7759   52.2725   11.7822 C   0  0  0  0  0  0
   19.8309   49.8452    5.5217 C   0  0  0  0  0  0
   21.5221   50.4065   10.8129 H   0  0  0  0  0  0
   18.7292   47.6375   12.2032 H   0  0  0  0  0  0
   19.9096   47.7837    5.6358 H   0  0  0  0  0  0
   21.4686   51.0077   15.2985 H   0  0  0  0  0  0
   18.5248   46.1427   13.7942 H   0  0  0  0  0  0
   17.5524   46.3273   15.2335 H   0  0  0  0  0  0
   17.2085   47.3441   13.8491 H   0  0  0  0  0  0
   18.8970   49.4730   16.5002 H   0  0  0  0  0  0
   17.4340   49.3110   15.5297 H   0  0  0  0  0  0
   17.8314   48.1274   16.7524 H   0  0  0  0  0  0
   24.0755   52.3865   13.9371 H   0  0  0  0  0  0
   23.8242   50.6724   13.6234 H   0  0  0  0  0  0
   23.0759   51.4729   15.0000 H   0  0  0  0  0  0
   20.3114   53.0728   13.4000 H   0  0  0  0  0  0
   21.2199   52.8340   14.8529 H   0  0  0  0  0  0
   21.8211   53.9349   13.6445 H   0  0  0  0  0  0
   20.7767   47.7718   16.1998 H   0  0  0  0  0  0
   19.7537   46.3167   16.2001 H   0  0  0  0  0  0
   20.7710   46.6735   14.8320 H   0  0  0  0  0  0
   22.0746   52.2740   10.9680 H   0  0  0  0  0  0
   23.2231   53.2640   11.8536 H   0  0  0  0  0  0
   23.5694   51.5959   11.4570 H   0  0  0  0  0  0
   19.3493   49.7772    4.5491 H   0  0  0  0  0  0
   19.3242   50.6307    6.0793 H   0  0  0  0  0  0
   20.8769   50.1259    5.3933 H   0  0  0  0  0  0
  1  2  1  0  0  0
  1  4  1  0  0  0
  2  3  2  0  0  0
  2  9  1  0  0  0
  3  5  1  0  0  0
  4  5  2  0  0  0
  4 14  1  0  0  0
  6 11  2  0  0  0
  6  8  1  0  0  0
  6 13  1  0  0  0
  7 10  1  0  0  0
  7 12  1  0  0  0
  7  8  2  0  0  0
  8 15  1  0  0  0
  9 10  2  0  0  0
  9 11  1  0  0  0
 10 23  1  0  0  0
 11 24  1  0  0  0
 12 18  1  0  0  0
 12 19  1  0  0  0
 12 21  1  0  0  0
 13 16  1  0  0  0
 13 17  1  0  0  0
 13 20  1  0  0  0
 14 22  1  0  0  0
 14 25  1  0  0  0
 15 26  1  0  0  0
 16 27  1  0  0  0
 16 28  1  0  0  0
 16 29  1  0  0  0
 17 30  1  0  0  0
 17 31  1  0  0  0
 17 32  1  0  0  0
 18 33  1  0  0  0
 18 34  1  0  0  0
 18 35  1  0  0  0
 19 36  1  0  0  0
 19 37  1  0  0  0
 19 38  1  0  0  0
 20 39  1  0  0  0
 20 40  1  0  0  0
 20 41  1  0  0  0
 21 42  1  0  0  0
 21 43  1  0  0  0
 21 44  1  0  0  0
 22 45  1  0  0  0
 22 46  1  0  0  0
 22 47  1  0  0  0
M  END
> <s_m_entry_id>
5644

> <s_m_entry_name>
dock_pv.635

> <s_m_Source_Path>
/home/csk/Desktop/cluster/DUD-E-result/pgh1

> <s_m_Source_File>
dock_pv.maegz

> <i_m_Source_File_Index>
635

> <chembl_id>
CHEMBL279755

> <chembl_pref_name>
None

> <i_lp_mmshare_version>
53161

> <r_lp_tautomer_probability>
0.999999999997365

> <s_lp_Force_Field>
OPLS_2005

> <r_lp_Energy>
21.425285

> <b_lp_Chiralities_Consistent>
1

> <s_lp_Variant>
CHEMBL221_lig404-1

> <s_i_glide_gridfile>
glide-grid_2oyu

> <i_i_glide_lignum>
472

> <i_i_glide_rotatable_bonds>
5

> <r_i_docking_score>
-6.90954049038403

> <r_i_glide_ligand_efficiency>
-0.314070022290183

> <r_i_glide_ligand_efficiency_sa>
-0.880036554130164

> <r_i_glide_ligand_efficiency_ln>
-1.68894372746292

> <r_i_glide_gscore>
-6.90954049038403

> <r_i_glide_lipo>
-4.26332705649605

> <r_i_glide_hbond>
0

> <r_i_glide_metal>
0

> <r_i_glide_rewards>
-1.97507063865365

> <r_i_glide_evdw>
-16.6741275787354

> <r_i_glide_ecoul>
-0.135102301836014

> <r_i_glide_erotb>
0.182828928977839

> <r_i_glide_esite>
0

> <r_i_glide_emodel>
-20.7990937590289

> <r_i_glide_energy>
-16.8092298805714

> <r_i_glide_einternal>
3.63998889923096

> <i_i_glide_confnum>
2

> <i_i_glide_posenum>
9

> <r_i_glide_eff_state_penalty>
0

> <s_user_duplicate_titles>
CHEMBL221_lig404,18522

> <i_f3d_flags>
0

> <s_m_subgroup_title>
dock_pv

> <s_m_subgroupid>
dock_pv

> <b_m_subgroup_collapsed>
1

$$$$
CHEMBL221_lig388
                    3D
 Schrodinger Suite 2021-1.
 52 53  0  0  1  0            999 V2000
   20.1762   49.4152    8.8523 O   0  0  0  0  0  0
   19.8139   48.5734    9.8514 C   0  0  0  0  0  0
   19.3230   47.4585    9.3829 N   0  0  0  0  0  0
   19.3918   47.5260    7.9943 N   0  0  0  0  0  0
   19.8962   48.7041    7.7300 C   0  0  0  0  0  0
   21.1748   50.4733   12.8523 C   0  0  0  0  0  0
   19.6891   48.6679   13.6710 C   0  0  0  0  0  0
   20.5809   49.7490   13.9125 C   0  0  0  0  0  0
   20.0449   48.9705   11.2745 C   0  0  0  0  0  0
   19.4299   48.3162   12.3350 C   0  0  0  0  0  0
   20.9158   50.0126   11.5484 C   0  0  0  0  0  0
   19.0588   47.8224   14.8239 C   0  0  0  0  0  0
   22.0702   51.7475   13.0826 C   0  0  0  0  0  0
   20.2821   49.4862    6.2001 S   0  0  0  0  0  0
   20.9114   50.1020   15.1956 O   0  0  0  0  0  0
   23.3045   51.4730   13.9422 C   0  0  0  0  0  0
   21.2863   52.8852   13.8000 C   0  0  0  0  0  0
   18.1230   46.6928   14.3403 C   0  0  0  0  0  0
   18.2084   48.6623   15.8010 C   0  0  0  0  0  0
   22.6832   52.2627   11.7573 C   0  0  0  0  0  0
   20.1846   47.1121   15.5734 C   0  0  0  0  0  0
   19.1626   48.7630    5.0000 C   0  0  0  0  0  0
   17.7230   48.5390    5.3956 C   0  0  0  0  0  0
   16.7618   48.1877    4.2451 C   0  0  0  0  0  0
   18.7640   47.5051   12.0842 H   0  0  0  0  0  0
   21.3888   50.4323   10.6802 H   0  0  0  0  0  0
   21.4609   50.8881   15.1982 H   0  0  0  0  0  0
   23.7230   50.5256   13.6324 H   0  0  0  0  0  0
   24.0816   52.2324   13.8305 H   0  0  0  0  0  0
   23.0698   51.4730   15.0000 H   0  0  0  0  0  0
   20.2950   53.0704   13.4000 H   0  0  0  0  0  0
   21.1260   52.6739   14.8571 H   0  0  0  0  0  0
   21.8294   53.8311   13.7643 H   0  0  0  0  0  0
   17.7111   46.1164   15.1702 H   0  0  0  0  0  0
   18.6504   45.9809   13.7059 H   0  0  0  0  0  0
   17.2674   47.0975   13.8000 H   0  0  0  0  0  0
   18.7666   49.4729   16.2578 H   0  0  0  0  0  0
   17.3332   49.0731   15.3004 H   0  0  0  0  0  0
   17.8346   48.0537   16.6260 H   0  0  0  0  0  0
   21.9444   52.2730   10.9722 H   0  0  0  0  0  0
   23.1154   53.2590   11.8506 H   0  0  0  0  0  0
   23.4767   51.6064   11.3937 H   0  0  0  0  0  0
   20.7460   47.8057   16.2000 H   0  0  0  0  0  0
   19.8200   46.3000   16.2000 H   0  0  0  0  0  0
   20.8805   46.6731   14.8634 H   0  0  0  0  0  0
   19.1102   49.4955    4.2000 H   0  0  0  0  0  0
   19.6341   47.8728    4.6000 H   0  0  0  0  0  0
   17.7230   47.7549    6.1474 H   0  0  0  0  0  0
   17.3614   49.4729    5.8242 H   0  0  0  0  0  0
   15.7338   48.1578    4.6074 H   0  0  0  0  0  0
   16.8016   48.9327    3.4496 H   0  0  0  0  0  0
   16.9665   47.2164    3.8003 H   0  0  0  0  0  0
  1  2  1  0  0  0
  1  5  1  0  0  0
  2  3  2  0  0  0
  2  9  1  0  0  0
  3  4  1  0  0  0
  4  5  2  0  0  0
  5 14  1  0  0  0
  6 11  2  0  0  0
  6  8  1  0  0  0
  6 13  1  0  0  0
  7 10  1  0  0  0
  7 12  1  0  0  0
  7  8  2  0  0  0
  8 15  1  0  0  0
  9 10  2  0  0  0
  9 11  1  0  0  0
 10 25  1  0  0  0
 11 26  1  0  0  0
 12 18  1  0  0  0
 12 19  1  0  0  0
 12 21  1  0  0  0
 13 16  1  0  0  0
 13 17  1  0  0  0
 13 20  1  0  0  0
 14 22  1  0  0  0
 15 27  1  0  0  0
 16 28  1  0  0  0
 16 29  1  0  0  0
 16 30  1  0  0  0
 17 31  1  0  0  0
 17 32  1  0  0  0
 17 33  1  0  0  0
 18 34  1  0  0  0
 18 35  1  0  0  0
 18 36  1  0  0  0
 19 37  1  0  0  0
 19 38  1  0  0  0
 19 39  1  0  0  0
 20 40  1  0  0  0
 20 41  1  0  0  0
 20 42  1  0  0  0
 21 43  1  0  0  0
 21 44  1  0  0  0
 21 45  1  0  0  0
 22 23  1  0  0  0
 22 46  1  0  0  0
 22 47  1  0  0  0
 23 24  1  0  0  0
 23 48  1  0  0  0
 23 49  1  0  0  0
 24 50  1  0  0  0
 24 51  1  0  0  0
 24 52  1  0  0  0
M  END
> <s_m_entry_id>
5645

> <s_m_entry_name>
dock_pv.636

> <s_m_Source_Path>
/home/csk/Desktop/cluster/DUD-E-result/pgh1

> <s_m_Source_File>
dock_pv.maegz

> <i_m_Source_File_Index>
636

> <chembl_id>
CHEMBL276526

> <chembl_pref_name>
None

> <i_lp_mmshare_version>
53161

> <r_lp_tautomer_probability>
0.999999999997365

> <s_lp_Force_Field>
OPLS_2005

> <r_lp_Energy>
22.108025

> <b_lp_Chiralities_Consistent>
1

> <s_lp_Variant>
CHEMBL221_lig388-1

> <s_i_glide_gridfile>
glide-grid_2oyu

> <i_i_glide_lignum>
455

> <i_i_glide_rotatable_bonds>
7

> <r_i_docking_score>
-6.90435664490741

> <r_i_glide_ligand_efficiency>
-0.287681526871142

> <r_i_glide_ligand_efficiency_sa>
-0.829817116151499

> <r_i_glide_ligand_efficiency_ln>
-1.65252936540849

> <r_i_glide_gscore>
-6.90435664490741

> <r_i_glide_lipo>
-4.13572770909493

> <r_i_glide_hbond>
0

> <r_i_glide_metal>
0

> <r_i_glide_rewards>
-1.63606269430688

> <r_i_glide_evdw>
-28.8501453399658

> <r_i_glide_ecoul>
-1.06861710548401

> <r_i_glide_erotb>
0.470233591315288

> <r_i_glide_esite>
0

> <r_i_glide_emodel>
-31.2263434565383

> <r_i_glide_energy>
-29.9187624454498

> <r_i_glide_einternal>
3.09116888046265

> <i_i_glide_confnum>
8

> <i_i_glide_posenum>
226

> <r_i_glide_eff_state_penalty>
0

> <s_user_duplicate_titles>
CHEMBL221_lig388

> <i_f3d_flags>
0

> <s_m_subgroup_title>
dock_pv

> <s_m_subgroupid>
dock_pv

> <b_m_subgroup_collapsed>
1

$$$$
CHEMBL221_lig559
                    3D
 Schrodinger Suite 2021-1.
 49 50  0  0  1  0            999 V2000
   20.4620   49.5196   13.4630 C   0  0  0  0  0  0
   19.6140   48.4496   13.2231 C   0  0  0  0  0  0
   21.1226   50.2160   12.4388 C   0  0  0  0  0  0
   20.5235   49.8597   14.7895 O   0  0  0  0  0  0
   20.0237   48.6796   10.8356 C   0  0  0  0  0  0
   19.4050   48.0202   11.9098 C   0  0  0  0  0  0
   20.8891   49.7503   11.1267 C   0  0  0  0  0  0
   19.7769   48.2275    9.4011 C   0  0  0  0  0  0
   19.0012   47.9994   14.5266 C   0  0  0  0  0  0
   22.0004   51.4758   12.7101 C   0  0  0  0  0  0
   19.7068   48.9512   15.5271 C   0  0  0  0  0  0
   19.3234   47.1142    9.1453 O   0  0  0  0  0  0
   20.1211   49.0889    8.4226 N   0  0  0  0  0  0
   19.3230   46.5472   14.8843 C   0  0  0  0  0  0
   17.4627   48.1595   14.5053 C   0  0  0  0  0  0
   18.5611   48.6726    5.0304 O   0  0  0  0  0  0
   23.2087   51.1726   13.6016 C   0  0  0  0  0  0
   21.1699   52.5644   13.4339 C   0  0  0  0  0  0
   22.5923   52.0644   11.4109 C   0  0  0  0  0  0
   20.0554   48.8266    6.9770 C   0  0  0  0  0  0
   18.6259   48.7967    6.4383 C   0  0  0  0  0  0
   17.2113   48.5964    4.5764 C   0  0  0  0  0  0
   18.7335   47.1940   11.7257 H   0  0  0  0  0  0
   21.3870   50.2243   10.2978 H   0  0  0  0  0  0
   18.9919   49.4727   16.1620 H   0  0  0  0  0  0
   20.3712   48.4069   16.1987 H   0  0  0  0  0  0
   20.3781   50.0261    8.6913 H   0  0  0  0  0  0
   18.8076   46.2620   15.7999 H   0  0  0  0  0  0
   20.3865   46.4402   15.0734 H   0  0  0  0  0  0
   19.0193   45.8571   14.0961 H   0  0  0  0  0  0
   17.0357   48.1585   15.5090 H   0  0  0  0  0  0
   17.1449   49.0652   14.0046 H   0  0  0  0  0  0
   16.9845   47.3532   13.9505 H   0  0  0  0  0  0
   23.7227   50.2760   13.2745 H   0  0  0  0  0  0
   23.9396   51.9830   13.6025 H   0  0  0  0  0  0
   22.8970   51.0730   14.6349 H   0  0  0  0  0  0
   20.1822   52.6723   13.0007 H   0  0  0  0  0  0
   20.9987   52.3271   14.4839 H   0  0  0  0  0  0
   21.6591   53.5392   13.4140 H   0  0  0  0  0  0
   21.7912   52.2579   10.7040 H   0  0  0  0  0  0
   23.1350   52.9961   11.5845 H   0  0  0  0  0  0
   23.2910   51.3767   10.9312 H   0  0  0  0  0  0
   20.6300   49.5838    6.4420 H   0  0  0  0  0  0
   20.5228   47.8720    6.7407 H   0  0  0  0  0  0
   18.1233   47.9504    6.9040 H   0  0  0  0  0  0
   18.1241   49.7222    6.7095 H   0  0  0  0  0  0
   17.1742   48.6738    3.4907 H   0  0  0  0  0  0
   16.7580   47.6445    4.8564 H   0  0  0  0  0  0
   16.5871   49.3955    4.9849 H   0  0  0  0  0  0
  1  2  2  0  0  0
  1  3  1  0  0  0
  1  4  1  0  0  0
  2  6  1  0  0  0
  2  9  1  0  0  0
  3  7  2  0  0  0
  3 10  1  0  0  0
  4 11  1  0  0  0
  5  7  1  0  0  0
  5  8  1  0  0  0
  5  6  2  0  0  0
  6 23  1  0  0  0
  7 24  1  0  0  0
  8 12  2  0  0  0
  8 13  1  0  0  0
  9 14  1  0  0  0
  9 15  1  0  0  0
  9 11  1  0  0  0
 10 17  1  0  0  0
 10 18  1  0  0  0
 10 19  1  0  0  0
 11 25  1  0  0  0
 11 26  1  0  0  0
 13 20  1  0  0  0
 13 27  1  0  0  0
 14 28  1  0  0  0
 14 29  1  0  0  0
 14 30  1  0  0  0
 15 31  1  0  0  0
 15 32  1  0  0  0
 15 33  1  0  0  0
 16 21  1  0  0  0
 16 22  1  0  0  0
 17 34  1  0  0  0
 17 35  1  0  0  0
 17 36  1  0  0  0
 18 37  1  0  0  0
 18 38  1  0  0  0
 18 39  1  0  0  0
 19 40  1  0  0  0
 19 41  1  0  0  0
 19 42  1  0  0  0
 20 21  1  0  0  0
 20 43  1  0  0  0
 20 44  1  0  0  0
 21 45  1  0  0  0
 21 46  1  0  0  0
 22 47  1  0  0  0
 22 48  1  0  0  0
 22 49  1  0  0  0
M  END
> <s_m_entry_id>
5646

> <s_m_entry_name>
dock_pv.637

> <s_m_Source_Path>
/home/csk/Desktop/cluster/DUD-E-result/pgh1

> <s_m_Source_File>
dock_pv.maegz

> <i_m_Source_File_Index>
637

> <chembl_id>
CHEMBL419947

> <chembl_pref_name>
None

> <i_lp_mmshare_version>
53161

> <r_lp_tautomer_probability>
1

> <s_lp_Force_Field>
OPLS_2005

> <r_lp_Energy>
25.16888

> <b_lp_Chiralities_Consistent>
1

> <s_lp_Variant>
CHEMBL221_lig559-1

> <s_i_glide_gridfile>
glide-grid_2oyu

> <i_i_glide_lignum>
697

> <i_i_glide_rotatable_bonds>
6

> <r_i_docking_score>
-6.90061653326499

> <r_i_glide_ligand_efficiency>
-0.313664387875681

> <r_i_glide_ligand_efficiency_sa>
-0.878899950548033

> <r_i_glide_ligand_efficiency_ln>
-1.68676238683378

> <r_i_glide_gscore>
-6.90061653326499

> <r_i_glide_lipo>
-3.63213511400695

> <r_i_glide_hbond>
-0.321120864641357

> <r_i_glide_metal>
0

> <r_i_glide_rewards>
-2.18361467860143

> <r_i_glide_evdw>
-23.0005893707275

> <r_i_glide_ecoul>
-2.70135474205017

> <r_i_glide_erotb>
0.791486803828653

> <r_i_glide_esite>
0

> <r_i_glide_emodel>
-24.7070817436022

> <r_i_glide_energy>
-25.7019441127777

> <r_i_glide_einternal>
2.80413317680359

> <i_i_glide_confnum>
15

> <i_i_glide_posenum>
69

> <r_i_glide_eff_state_penalty>
0

> <s_user_duplicate_titles>
CHEMBL221_lig559

> <i_f3d_flags>
0

> <s_m_subgroup_title>
dock_pv

> <s_m_subgroupid>
dock_pv

> <b_m_subgroup_collapsed>
1

$$$$
CHEMBL221_lig873
                    3D
 Schrodinger Suite 2021-1.
 32 33  0  0  1  0            999 V2000
   24.0085   53.0876   12.9999 C   0  0  0  0  0  0
   22.2849   51.3800   12.0765 C   0  0  0  0  0  0
   23.5017   52.2760   11.7873 C   0  0  2  0  0  0
   22.0285   50.8143   13.3351 C   0  0  0  0  0  0
   23.0177   53.8411   13.5548 O   0  0  0  0  0  0
   25.1695   53.0736   13.4001 O   0  0  0  0  0  0
   20.9140   49.9987   13.5384 C   0  0  0  0  0  0
   20.6996   49.4719   14.8008 O   0  0  0  0  0  0
   19.7963   48.4436   14.9476 C   0  0  0  0  0  0
   21.4175   51.0730   11.0236 C   0  0  0  0  0  0
   20.2914   50.2910   11.2077 C   0  0  0  0  0  0
   20.0351   49.7712   12.4626 C   0  0  0  0  0  0
   24.6080   51.4731   11.0795 C   0  0  0  0  0  0
   19.9195   47.2861   14.1769 C   0  0  0  0  0  0
   18.7066   48.6003   15.7999 C   0  0  0  0  0  0
   17.6929   47.6513   15.8141 C   0  0  0  0  0  0
   18.9193   46.3282   14.2003 C   0  0  0  0  0  0
   17.7989   46.5282   15.0000 C   0  0  0  0  0  0
   23.1914   53.0441   11.0831 H   0  0  0  0  0  0
   22.6855   51.0125   14.1678 H   0  0  0  0  0  0
   23.3335   54.2717   14.3560 H   0  0  0  0  0  0
   21.5729   51.4701   10.0474 H   0  0  0  0  0  0
   19.6166   50.1028   10.3856 H   0  0  0  0  0  0
   19.1321   49.1931   12.5860 H   0  0  0  0  0  0
   24.9223   50.6219   11.6843 H   0  0  0  0  0  0
   24.2627   51.0764   10.1239 H   0  0  0  0  0  0
   25.4896   52.0807   10.8690 H   0  0  0  0  0  0
   20.7649   47.1663   13.5158 H   0  0  0  0  0  0
   18.6224   49.4730   16.4228 H   0  0  0  0  0  0
   16.8270   47.7867   16.4461 H   0  0  0  0  0  0
   18.9650   45.4545   13.5668 H   0  0  0  0  0  0
   17.0054   45.7950   15.0003 H   0  0  0  0  0  0
  1  3  1  0  0  0
  1  5  1  0  0  0
  1  6  2  0  0  0
  2  3  1  0  0  0
  2  4  2  0  0  0
  2 10  1  0  0  0
  3 13  1  0  0  0
  3 19  1  0  0  0
  4  7  1  0  0  0
  4 20  1  0  0  0
  5 21  1  0  0  0
  7  8  1  0  0  0
  7 12  2  0  0  0
  8  9  1  0  0  0
  9 14  1  0  0  0
  9 15  2  0  0  0
 10 11  2  0  0  0
 10 22  1  0  0  0
 11 12  1  0  0  0
 11 23  1  0  0  0
 12 24  1  0  0  0
 13 25  1  0  0  0
 13 26  1  0  0  0
 13 27  1  0  0  0
 14 17  2  0  0  0
 14 28  1  0  0  0
 15 16  1  0  0  0
 15 29  1  0  0  0
 16 18  2  0  0  0
 16 30  1  0  0  0
 17 18  1  0  0  0
 17 31  1  0  0  0
 18 32  1  0  0  0
M  END
> <s_m_entry_id>
5647

> <s_m_entry_name>
dock_pv.638

> <s_m_Source_Path>
/home/csk/Desktop/cluster/DUD-E-result/pgh1

> <s_m_Source_File>
dock_pv.maegz

> <i_m_Source_File_Index>
638

> <chembl_id>
CHEMBL1297

> <chembl_pref_name>
FENOPROFEN

> <i_lp_mmshare_version>
53161

> <r_lp_tautomer_probability>
1

> <s_lp_Force_Field>
OPLS_2005

> <r_lp_Energy>
17.931068

> <b_lp_Chiralities_Consistent>
1

> <s_lp_Variant>
CHEMBL221_lig873-2

> <s_i_glide_gridfile>
glide-grid_2oyu

> <i_i_glide_lignum>
1078

> <i_i_glide_rotatable_bonds>
5

> <r_i_docking_score>
-6.89035068895809

> <r_i_glide_ligand_efficiency>
-0.382797260497672

> <r_i_glide_ligand_efficiency_sa>
-1.00321262520946

> <r_i_glide_ligand_efficiency_ln>
-1.77112911509625

> <r_i_glide_gscore>
-6.89035068895809

> <r_i_glide_lipo>
-3.26108182789295

> <r_i_glide_hbond>
0

> <r_i_glide_metal>
0

> <r_i_glide_rewards>
-2.93530540894369

> <r_i_glide_evdw>
-27.4636554718018

> <r_i_glide_ecoul>
-3.35079264640808

> <r_i_glide_erotb>
1.18183821842985

> <r_i_glide_esite>
0

> <r_i_glide_emodel>
-41.1070008920397

> <r_i_glide_energy>
-30.8144481182098

> <r_i_glide_einternal>
4.25541877746582

> <i_i_glide_confnum>
9

> <i_i_glide_posenum>
80

> <r_i_glide_eff_state_penalty>
0

> <s_user_duplicate_titles>
CHEMBL221_lig873

> <i_f3d_flags>
0

> <s_m_subgroup_title>
dock_pv

> <s_m_subgroupid>
dock_pv

> <b_m_subgroup_collapsed>
1

$$$$
CHEMBL221_lig420
                    3D
 Schrodinger Suite 2021-1.
 43 44  0  0  1  0            999 V2000
   20.1230   49.7520    8.2816 O   0  0  0  0  0  0
   20.1219   48.8430    9.3035 C   0  0  0  0  0  0
   19.7232   47.6934    8.9351 N   0  0  0  0  0  0
   19.8474   49.0756    7.1554 C   0  0  0  0  0  0
   19.9200   49.0041   13.0753 C   0  0  0  0  0  0
   21.5003   50.7526   12.3100 C   0  0  0  0  0  0
   20.8218   50.0646   13.3487 C   0  0  0  0  0  0
   20.3722   49.3029   10.6847 C   0  0  0  0  0  0
   19.5044   47.8384    7.6321 N   0  0  0  0  0  0
   21.2378   50.3533   10.9831 C   0  0  0  0  0  0
   19.7236   48.6558   11.7330 C   0  0  0  0  0  0
   19.1804   48.1134   14.1311 C   0  0  0  0  0  0
   22.5960   51.8395   12.6052 C   0  0  0  0  0  0
   19.9161   49.5226    6.0135 O   0  0  0  0  0  0
   21.0696   50.4451   14.6388 O   0  0  0  0  0  0
   19.4187   48.4505   15.6272 C   0  0  0  0  0  0
   19.6894   46.6730   13.9534 C   0  0  0  0  0  0
   17.6451   48.1128   13.9024 C   0  0  0  0  0  0
   23.7230   51.2217   13.4053 C   0  0  0  0  0  0
   22.1161   53.0652   13.4417 C   0  0  0  0  0  0
   23.3283   52.3288   11.3335 C   0  0  0  0  0  0
   21.7370   50.8190   10.1505 H   0  0  0  0  0  0
   19.0572   47.8381   11.4951 H   0  0  0  0  0  0
   19.1718   47.0637    7.0801 H   0  0  0  0  0  0
   21.6618   51.1990   14.6618 H   0  0  0  0  0  0
   18.8700   47.7711   16.2813 H   0  0  0  0  0  0
   19.0864   49.4505   15.8902 H   0  0  0  0  0  0
   20.4694   48.3601   15.9056 H   0  0  0  0  0  0
   19.3848   46.2330   13.0031 H   0  0  0  0  0  0
   20.7777   46.6746   13.9876 H   0  0  0  0  0  0
   19.3194   46.0077   14.7353 H   0  0  0  0  0  0
   17.3609   47.8705   12.8794 H   0  0  0  0  0  0
   17.1459   47.3834   14.5420 H   0  0  0  0  0  0
   17.1962   49.0729   14.1301 H   0  0  0  0  0  0
   24.0421   50.2737   12.9693 H   0  0  0  0  0  0
   24.5834   51.8950   13.4350 H   0  0  0  0  0  0
   23.4581   51.0760   14.4446 H   0  0  0  0  0  0
   21.3241   53.6473   13.0037 H   0  0  0  0  0  0
   21.7731   52.8074   14.4411 H   0  0  0  0  0  0
   22.9351   53.7694   13.5975 H   0  0  0  0  0  0
   22.6272   52.6728   10.6023 H   0  0  0  0  0  0
   24.0233   53.1449   11.5338 H   0  0  0  0  0  0
   23.9031   51.5338   10.8522 H   0  0  0  0  0  0
  1  4  1  0  0  0
  1  2  1  0  0  0
  2  3  2  0  0  0
  2  8  1  0  0  0
  3  9  1  0  0  0
  4 14  2  0  0  0
  4  9  1  0  0  0
  5 11  2  0  0  0
  5  7  1  0  0  0
  5 12  1  0  0  0
  6 10  1  0  0  0
  6 13  1  0  0  0
  6  7  2  0  0  0
  7 15  1  0  0  0
  8 10  2  0  0  0
  8 11  1  0  0  0
  9 24  1  0  0  0
 10 22  1  0  0  0
 11 23  1  0  0  0
 12 16  1  0  0  0
 12 17  1  0  0  0
 12 18  1  0  0  0
 13 19  1  0  0  0
 13 20  1  0  0  0
 13 21  1  0  0  0
 15 25  1  0  0  0
 16 26  1  0  0  0
 16 27  1  0  0  0
 16 28  1  0  0  0
 17 29  1  0  0  0
 17 30  1  0  0  0
 17 31  1  0  0  0
 18 32  1  0  0  0
 18 33  1  0  0  0
 18 34  1  0  0  0
 19 35  1  0  0  0
 19 36  1  0  0  0
 19 37  1  0  0  0
 20 38  1  0  0  0
 20 39  1  0  0  0
 20 40  1  0  0  0
 21 41  1  0  0  0
 21 42  1  0  0  0
 21 43  1  0  0  0
M  END
> <s_m_entry_id>
5648

> <s_m_entry_name>
dock_pv.639

> <s_m_Source_Path>
/home/csk/Desktop/cluster/DUD-E-result/pgh1

> <s_m_Source_File>
dock_pv.maegz

> <i_m_Source_File_Index>
639

> <chembl_id>
CHEMBL16977

> <chembl_pref_name>
None

> <i_lp_mmshare_version>
53161

> <r_lp_tautomer_probability>
0.999986730454215

> <s_lp_Force_Field>
OPLS_2005

> <r_lp_Energy>
31.282298

> <b_lp_Chiralities_Consistent>
1

> <s_lp_Variant>
CHEMBL221_lig420-1

> <s_i_glide_gridfile>
glide-grid_2oyu

> <i_i_glide_lignum>
490

> <i_i_glide_rotatable_bonds>
4

> <r_i_docking_score>
-6.8848285404909

> <r_i_glide_ligand_efficiency>
-0.327848978118614

> <r_i_glide_ligand_efficiency_sa>
-0.904510471015356

> <r_i_glide_ligand_efficiency_ln>
-1.70225994453037

> <r_i_glide_gscore>
-6.8848285404909

> <r_i_glide_lipo>
-3.86784275006643

> <r_i_glide_hbond>
0

> <r_i_glide_metal>
0

> <r_i_glide_rewards>
-2.15361542350613

> <r_i_glide_evdw>
-26.8134326934814

> <r_i_glide_ecoul>
1.7409576177597

> <r_i_glide_erotb>
0.216157625091772

> <r_i_glide_esite>
0

> <r_i_glide_emodel>
-21.1549162840414

> <r_i_glide_energy>
-25.0724750757217

> <r_i_glide_einternal>
11.4341020584106

> <i_i_glide_confnum>
1

> <i_i_glide_posenum>
187

> <r_i_glide_eff_state_penalty>
0

> <s_user_duplicate_titles>
CHEMBL221_lig420

> <i_f3d_flags>
0

> <s_m_subgroup_title>
dock_pv

> <s_m_subgroupid>
dock_pv

> <b_m_subgroup_collapsed>
1

$$$$
CHEMBL221_lig447
                    3D
 Schrodinger Suite 2021-1.
 41 43  0  0  1  0            999 V2000
   20.6848   48.7907   13.1499 C   0  0  1  0  0  0
   19.8614   48.8727    6.0573 S   0  0  0  0  0  0
   19.5397   49.1377   12.1842 C   0  0  2  0  0  0
   21.2901   50.0784   13.7537 C   0  0  0  0  0  0
   20.0417   47.8049   14.1669 C   0  0  0  0  0  0
   18.4320   48.2218   12.6554 C   0  0  0  0  0  0
   19.9077   48.9853    7.8559 C   0  0  0  0  0  0
   19.8470   49.0760   10.6727 C   0  0  0  0  0  0
   20.7411   49.8737    5.4679 O   0  0  0  0  0  0
   20.1231   47.4814    5.7831 O   0  0  0  0  0  0
   22.0814   50.9326   12.9620 C   0  0  0  0  0  0
   18.7241   47.5121   13.7359 C   0  0  0  0  0  0
   21.1010   51.8107   15.4389 N   0  0  0  0  0  0
   20.4781   47.3034   15.1939 O   0  0  0  0  0  0
   20.1230   50.1882    8.5342 C   0  0  0  0  0  0
   19.7225   47.8199    8.6019 C   0  0  0  0  0  0
   20.1217   50.2347    9.9339 C   0  0  0  0  0  0
   19.7191   47.8722    9.9895 C   0  0  0  0  0  0
   20.9231   50.5397   15.0274 C   0  0  0  0  0  0
   18.1135   49.0833    5.4283 C   0  0  0  0  0  0
   22.2914   52.2523   13.3995 C   0  0  0  0  0  0
   22.5769   50.4327   11.7711 O   0  0  0  0  0  0
   21.7243   52.6650   14.5994 C   0  0  0  0  0  0
   23.5722   51.1702   11.0692 C   0  0  0  0  0  0
   17.4588   48.2044   12.2005 H   0  0  0  0  0  0
   19.1863   50.1521   12.3716 H   0  0  0  0  0  0
   18.0837   46.8338   14.2807 H   0  0  0  0  0  0
   21.4529   48.2577   12.5927 H   0  0  0  0  0  0
   20.2651   51.1033    7.9766 H   0  0  0  0  0  0
   19.5657   46.8693    8.1156 H   0  0  0  0  0  0
   20.2383   51.1794   10.4400 H   0  0  0  0  0  0
   19.5519   46.9735   10.5458 H   0  0  0  0  0  0
   20.3231   49.9467   15.6999 H   0  0  0  0  0  0
   18.1571   49.0738    4.3361 H   0  0  0  0  0  0
   17.5256   48.2201    5.7021 H   0  0  0  0  0  0
   17.6834   50.0048    5.8134 H   0  0  0  0  0  0
   22.8482   52.9689   12.8180 H   0  0  0  0  0  0
   21.8714   53.6757   14.9569 H   0  0  0  0  0  0
   23.8072   50.6747   10.1296 H   0  0  0  0  0  0
   23.2435   52.1765   10.8163 H   0  0  0  0  0  0
   24.4919   51.2411   11.6504 H   0  0  0  0  0  0
  1  3  1  0  0  0
  1  4  1  0  0  0
  1 28  1  0  0  0
  1  5  1  0  0  0
  2  7  1  0  0  0
  2  9  2  0  0  0
  2 10  2  0  0  0
  2 20  1  0  0  0
  3  6  1  0  0  0
  3  8  1  0  0  0
  3 26  1  0  0  0
  4 11  1  0  0  0
  4 19  2  0  0  0
  5 14  2  0  0  0
  5 12  1  0  0  0
  6 25  1  0  0  0
  6 12  2  0  0  0
  7 16  2  0  0  0
  7 15  1  0  0  0
  8 17  1  0  0  0
  8 18  2  0  0  0
 11 21  2  0  0  0
 11 22  1  0  0  0
 12 27  1  0  0  0
 13 19  1  0  0  0
 13 23  2  0  0  0
 15 17  2  0  0  0
 15 29  1  0  0  0
 16 18  1  0  0  0
 16 30  1  0  0  0
 17 31  1  0  0  0
 18 32  1  0  0  0
 19 33  1  0  0  0
 20 34  1  0  0  0
 20 35  1  0  0  0
 20 36  1  0  0  0
 21 23  1  0  0  0
 21 37  1  0  0  0
 22 24  1  0  0  0
 23 38  1  0  0  0
 24 39  1  0  0  0
 24 40  1  0  0  0
 24 41  1  0  0  0
M  END
> <s_m_entry_id>
5649

> <s_m_entry_name>
dock_pv.640

> <s_m_Source_Path>
/home/csk/Desktop/cluster/DUD-E-result/pgh1

> <s_m_Source_File>
dock_pv.maegz

> <i_m_Source_File_Index>
640

> <chembl_id>
CHEMBL23241

> <chembl_pref_name>
None

> <i_lp_mmshare_version>
53161

> <r_lp_tautomer_probability>
0.499977396165832

> <s_lp_Force_Field>
OPLS_2005

> <r_lp_Energy>
18.802294

> <b_lp_Chiralities_Consistent>
1

> <s_lp_Variant>
CHEMBL221_lig447-2

> <s_i_glide_gridfile>
glide-grid_2oyu

> <i_i_glide_lignum>
531

> <i_i_glide_rotatable_bonds>
4

> <r_i_docking_score>
-6.88402053712338

> <r_i_glide_ligand_efficiency>
-0.286834189046808

> <r_i_glide_ligand_efficiency_sa>
-0.827372970927986

> <r_i_glide_ligand_efficiency_ln>
-1.64766200165259

> <r_i_glide_gscore>
-6.88402053712338

> <r_i_glide_lipo>
-3.80240777145505

> <r_i_glide_hbond>
0

> <r_i_glide_metal>
0

> <r_i_glide_rewards>
-2.00257423784998

> <r_i_glide_evdw>
-8.55361557006836

> <r_i_glide_ecoul>
-6.36482667922974

> <r_i_glide_erotb>
0.32181394412006

> <r_i_glide_esite>
-0.0184476915505433

> <r_i_glide_emodel>
-49.7654684130554

> <r_i_glide_energy>
-14.9184422492981

> <r_i_glide_einternal>
2.13421249389648

> <i_i_glide_confnum>
1

> <i_i_glide_posenum>
34

> <r_i_glide_eff_state_penalty>
0

> <s_user_duplicate_titles>
CHEMBL221_lig447

> <i_f3d_flags>
0

> <s_m_subgroup_title>
dock_pv

> <s_m_subgroupid>
dock_pv

> <b_m_subgroup_collapsed>
1

$$$$
CHEMBL221_lig891
                    3D
 Schrodinger Suite 2021-1.
 33 35  0  0  1  0            999 V2000
   19.7730   47.7199   12.2160 S   0  0  0  0  0  0
   18.8687   48.0501   13.7380 C   0  0  0  0  0  0
   21.0526   49.8730   13.1629 C   0  0  0  0  0  0
   20.4011   49.3171   12.0494 N   0  0  0  0  0  0
   20.6516   49.6629   14.4540 C   0  0  0  0  0  0
   19.4566   48.8374   14.7222 C   0  0  0  0  0  0
   22.2752   50.5048   12.7771 C   0  0  0  0  0  0
   22.2905   51.8219   12.9913 N   0  0  0  0  0  0
   17.6100   47.5758   14.0816 C   0  0  0  0  0  0
   18.5472   48.6729   16.1990 S   0  0  0  0  0  0
   18.9230   47.4730   11.0635 O   0  0  0  0  0  0
   20.8483   46.7747   12.5364 O   0  0  0  0  0  0
   17.3230   47.7617   15.4149 C   0  0  0  0  0  0
   23.3588   52.6645   12.7513 C   0  0  0  0  0  0
   23.1501   49.8563   12.2000 O   0  0  0  0  0  0
   23.2459   53.8370   13.4000 N   0  0  0  0  0  0
   21.2920   50.2288   15.5173 O   0  0  0  0  0  0
   20.3912   49.8993   10.6688 C   0  0  0  0  0  0
   24.3580   54.5896   13.5149 C   0  0  0  0  0  0
   24.5104   52.3026   12.0364 C   0  0  0  0  0  0
   25.5973   54.2193   13.0000 C   0  0  0  0  0  0
   25.6420   53.0730   12.2000 C   0  0  0  0  0  0
   21.5204   52.2278   13.4988 H   0  0  0  0  0  0
   16.9545   47.0730   13.4032 H   0  0  0  0  0  0
   16.4641   47.4256   15.9693 H   0  0  0  0  0  0
   20.8439   49.9783   16.3291 H   0  0  0  0  0  0
   20.5850   50.9719   10.7016 H   0  0  0  0  0  0
   21.1700   49.4304   10.0664 H   0  0  0  0  0  0
   19.4191   49.7503   10.2000 H   0  0  0  0  0  0
   24.2203   55.4730   14.1096 H   0  0  0  0  0  0
   24.5999   51.4225   11.4209 H   0  0  0  0  0  0
   26.4681   54.8447   13.1338 H   0  0  0  0  0  0
   26.5230   52.7774   11.6584 H   0  0  0  0  0  0
  1  2  1  0  0  0
  1  4  1  0  0  0
  1 11  2  0  0  0
  1 12  2  0  0  0
  2  6  2  0  0  0
  2  9  1  0  0  0
  3  4  1  0  0  0
  3  5  2  0  0  0
  3  7  1  0  0  0
  4 18  1  0  0  0
  5 17  1  0  0  0
  5  6  1  0  0  0
  6 10  1  0  0  0
  7  8  1  0  0  0
  7 15  2  0  0  0
  8 14  1  0  0  0
  8 23  1  0  0  0
  9 13  2  0  0  0
  9 24  1  0  0  0
 10 13  1  0  0  0
 13 25  1  0  0  0
 14 16  1  0  0  0
 14 20  2  0  0  0
 16 19  2  0  0  0
 17 26  1  0  0  0
 18 27  1  0  0  0
 18 28  1  0  0  0
 18 29  1  0  0  0
 19 21  1  0  0  0
 19 30  1  0  0  0
 20 22  1  0  0  0
 20 31  1  0  0  0
 21 22  2  0  0  0
 21 32  1  0  0  0
 22 33  1  0  0  0
M  END
> <s_m_entry_id>
5650

> <s_m_entry_name>
dock_pv.641

> <s_m_Source_Path>
/home/csk/Desktop/cluster/DUD-E-result/pgh1

> <s_m_Source_File>
dock_pv.maegz

> <i_m_Source_File_Index>
641

> <chembl_id>
CHEMBL302795

> <chembl_pref_name>
TENOXICAM

> <i_lp_mmshare_version>
53161

> <r_lp_tautomer_probability>
1

> <s_lp_Force_Field>
OPLS_2005

> <r_lp_Energy>
24.718902

> <b_lp_Chiralities_Consistent>
1

> <s_lp_Variant>
CHEMBL221_lig891-1

> <s_i_glide_gridfile>
glide-grid_2oyu

> <i_i_glide_lignum>
1098

> <i_i_glide_rotatable_bonds>
4

> <r_i_docking_score>
-6.87628282440506

> <r_i_glide_ligand_efficiency>
-0.31255831020023

> <r_i_glide_ligand_efficiency_sa>
-0.875800677401853

> <r_i_glide_ligand_efficiency_ln>
-1.68081434079482

> <r_i_glide_gscore>
-6.87628282440506

> <r_i_glide_lipo>
-3.38112376279238

> <r_i_glide_hbond>
0

> <r_i_glide_metal>
0

> <r_i_glide_rewards>
-3.01298268700685

> <r_i_glide_evdw>
-12.8220596313477

> <r_i_glide_ecoul>
-1.94823920726776

> <r_i_glide_erotb>
0.498101542418177

> <r_i_glide_esite>
-0.0469390543664654

> <r_i_glide_emodel>
-27.0114578272014

> <r_i_glide_energy>
-14.7702988386154

> <r_i_glide_einternal>
7.03757095336914

> <i_i_glide_confnum>
3

> <i_i_glide_posenum>
289

> <r_i_glide_eff_state_penalty>
0

> <s_user_duplicate_titles>
CHEMBL221_lig891

> <i_f3d_flags>
0

> <s_m_subgroup_title>
dock_pv

> <s_m_subgroupid>
dock_pv

> <b_m_subgroup_collapsed>
1

$$$$
CHEMBL221_lig876
                    3D
 Schrodinger Suite 2021-1.
 40 41  0  0  1  0            999 V2000
   20.6687   51.4127   16.6572 C   0  0  0  0  0  0
   21.4007   50.5183   15.6417 C   0  0  0  0  0  0
   20.6859   50.1170   14.3361 C   0  0  0  0  0  0
   19.8518   48.8867   14.4579 C   0  0  0  0  0  0
   19.9862   47.8704   13.5056 C   0  0  0  0  0  0
   19.3058   46.6730   13.6528 C   0  0  0  0  0  0
   18.5230   46.4572   14.7816 C   0  0  0  0  0  0
   17.9529   45.2345   15.0000 O   0  0  0  0  0  0
   18.3329   47.4681   15.7105 C   0  0  0  0  0  0
   18.9911   48.6729   15.5423 C   0  0  0  0  0  0
   20.9230   50.7440   13.1406 C   0  0  0  0  0  0
   22.0082   51.7369   13.0076 C   0  0  0  0  0  0
   21.8946   53.0096   13.5701 C   0  0  0  0  0  0
   22.9754   53.8837   13.5280 C   0  0  0  0  0  0
   24.1723   53.4732   12.9450 C   0  0  0  0  0  0
   25.2765   54.2768   13.0002 O   0  0  0  0  0  0
   24.2607   52.2475   12.3001 C   0  0  0  0  0  0
   23.1838   51.3721   12.3436 C   0  0  0  0  0  0
   20.1011   50.5186   11.8579 C   0  0  0  0  0  0
   20.8514   49.9679   10.6318 C   0  0  0  0  0  0
   21.2735   51.4730   17.5620 H   0  0  0  0  0  0
   20.5262   52.4180   16.2675 H   0  0  0  0  0  0
   19.7066   51.0560   17.0000 H   0  0  0  0  0  0
   21.7230   49.6068   16.1455 H   0  0  0  0  0  0
   22.3062   51.0730   15.4000 H   0  0  0  0  0  0
   20.6493   47.9831   12.6629 H   0  0  0  0  0  0
   19.4136   45.8996   12.9084 H   0  0  0  0  0  0
   18.0920   44.6130   14.2824 H   0  0  0  0  0  0
   17.6988   47.3171   16.5708 H   0  0  0  0  0  0
   18.8165   49.4222   16.2869 H   0  0  0  0  0  0
   20.9816   53.3054   14.0642 H   0  0  0  0  0  0
   22.9023   54.8502   14.0060 H   0  0  0  0  0  0
   25.0928   55.1313   13.3998 H   0  0  0  0  0  0
   25.1733   51.9591   11.8010 H   0  0  0  0  0  0
   23.2864   50.3937   11.8973 H   0  0  0  0  0  0
   19.2410   49.8849   12.0627 H   0  0  0  0  0  0
   19.6532   51.4727   11.5831 H   0  0  0  0  0  0
   20.1518   49.7068    9.8372 H   0  0  0  0  0  0
   21.5375   50.7068   10.2179 H   0  0  0  0  0  0
   21.4264   49.0755   10.8724 H   0  0  0  0  0  0
  1  2  1  0  0  0
  1 21  1  0  0  0
  1 22  1  0  0  0
  1 23  1  0  0  0
  2  3  1  0  0  0
  2 24  1  0  0  0
  2 25  1  0  0  0
  3  4  1  0  0  0
  3 11  2  0  0  0
  4  5  1  0  0  0
  4 10  2  0  0  0
  5  6  2  0  0  0
  5 26  1  0  0  0
  6  7  1  0  0  0
  6 27  1  0  0  0
  7  8  1  0  0  0
  7  9  2  0  0  0
  8 28  1  0  0  0
  9 10  1  0  0  0
  9 29  1  0  0  0
 10 30  1  0  0  0
 11 12  1  0  0  0
 11 19  1  0  0  0
 12 13  1  0  0  0
 12 18  2  0  0  0
 13 14  2  0  0  0
 13 31  1  0  0  0
 14 15  1  0  0  0
 14 32  1  0  0  0
 15 16  1  0  0  0
 15 17  2  0  0  0
 16 33  1  0  0  0
 17 18  1  0  0  0
 17 34  1  0  0  0
 18 35  1  0  0  0
 19 20  1  0  0  0
 19 36  1  0  0  0
 19 37  1  0  0  0
 20 38  1  0  0  0
 20 39  1  0  0  0
 20 40  1  0  0  0
M  END
> <s_m_entry_id>
5651

> <s_m_entry_name>
dock_pv.642

> <s_m_Source_Path>
/home/csk/Desktop/cluster/DUD-E-result/pgh1

> <s_m_Source_File>
dock_pv.maegz

> <i_m_Source_File_Index>
642

> <chembl_id>
CHEMBL411

> <chembl_pref_name>
DIETHYLSTILBESTROL

> <i_lp_mmshare_version>
53161

> <r_lp_tautomer_probability>
1

> <s_lp_Force_Field>
OPLS_2005

> <r_lp_Energy>
19.379082

> <b_lp_Chiralities_Consistent>
1

> <s_lp_Variant>
CHEMBL221_lig876-1

> <s_i_glide_gridfile>
glide-grid_2oyu

> <i_i_glide_lignum>
1082

> <i_i_glide_rotatable_bonds>
6

> <r_i_docking_score>
-6.87231811404842

> <r_i_glide_ligand_efficiency>
-0.343615905702421

> <r_i_glide_ligand_efficiency_sa>
-0.932717066849475

> <r_i_glide_ligand_efficiency_ln>
-1.71991455972496

> <r_i_glide_gscore>
-6.87231811404842

> <r_i_glide_lipo>
-3.97313517295465

> <r_i_glide_hbond>
0

> <r_i_glide_metal>
0

> <r_i_glide_rewards>
-2.2966187247884

> <r_i_glide_evdw>
-27.1326541900635

> <r_i_glide_ecoul>
-1.58242809772491

> <r_i_glide_erotb>
0.991432707856543

> <r_i_glide_esite>
0

> <r_i_glide_emodel>
-30.8698711093422

> <r_i_glide_energy>
-28.7150822877884

> <r_i_glide_einternal>
10.2526044845581

> <i_i_glide_confnum>
19

> <i_i_glide_posenum>
123

> <r_i_glide_eff_state_penalty>
0

> <s_user_duplicate_titles>
CHEMBL221_lig876

> <i_f3d_flags>
0

> <s_m_subgroup_title>
dock_pv

> <s_m_subgroupid>
dock_pv

> <b_m_subgroup_collapsed>
1

$$$$
CHEMBL221_lig914
                    3D
 Schrodinger Suite 2021-1.
 39 41  0  0  1  0            999 V2000
   19.6952   47.8358    7.6530 C   0  0  0  0  0  0
   19.8782   49.1375    7.2258 C   0  0  0  0  0  0
   20.1230   50.1537    8.1431 C   0  0  0  0  0  0
   19.7230   47.4953    9.0000 C   0  0  0  0  0  0
   19.9656   48.4852    9.9630 C   0  0  0  0  0  0
   20.1907   49.8120    9.4979 C   0  0  0  0  0  0
   20.5045   50.5622   10.6005 N   0  0  0  0  0  0
   20.5593   49.7467   11.7065 C   0  0  0  0  0  0
   20.1230   48.4755   11.4001 C   0  0  0  0  0  0
   20.0252   47.2928   12.3571 C   0  0  0  0  0  0
   18.9230   47.3768   13.4272 C   0  0  0  0  0  0
   18.9335   46.6721   14.4324 O   0  0  0  0  0  0
   17.9395   48.2730   13.1457 O   0  0  0  0  0  0
   21.1153   50.2867   12.9423 C   0  0  0  0  0  0
   22.1838   51.2993   12.8109 C   0  0  0  0  0  0
   20.6967   49.9309   14.0450 O   0  0  0  0  0  0
   23.2203   51.0020   11.9818 N   0  0  0  0  0  0
   24.2369   51.8882   11.8997 C   0  0  0  0  0  0
   24.2676   53.0730   12.6318 C   0  0  0  0  0  0
   23.1442   53.4182   13.4000 C   0  0  0  0  0  0
   22.1118   52.4871   13.5332 C   0  0  0  0  0  0
   19.8100   49.4960    5.5397 Cl  0  0  0  0  0  0
   25.6893   54.0545   12.6000 Cl  0  0  0  0  0  0
   23.0347   54.7991   14.0379 C   0  0  0  0  0  0
   21.8462   55.0645   14.9823 C   0  0  0  0  0  0
   19.5436   47.0730    6.9196 H   0  0  0  0  0  0
   20.1795   51.1727    7.8010 H   0  0  0  0  0  0
   19.6525   46.4659    9.2787 H   0  0  0  0  0  0
   20.7722   51.5356   10.6273 H   0  0  0  0  0  0
   19.9241   46.3571   11.8185 H   0  0  0  0  0  0
   20.9653   47.2014   12.8979 H   0  0  0  0  0  0
   17.2793   48.2730   13.8405 H   0  0  0  0  0  0
   25.0475   51.6204   11.2414 H   0  0  0  0  0  0
   21.2514   52.6862   14.1545 H   0  0  0  0  0  0
   23.9616   55.0730   14.5428 H   0  0  0  0  0  0
   22.9488   55.4730   13.1951 H   0  0  0  0  0  0
   21.9380   56.0403   15.4589 H   0  0  0  0  0  0
   20.9230   55.0728   14.4144 H   0  0  0  0  0  0
   21.7523   54.3219   15.7748 H   0  0  0  0  0  0
  1  2  2  0  0  0
  1  4  1  0  0  0
  1 26  1  0  0  0
  2  3  1  0  0  0
  2 22  1  0  0  0
  3  6  2  0  0  0
  3 27  1  0  0  0
  4  5  2  0  0  0
  4 28  1  0  0  0
  5  9  1  0  0  0
  5  6  1  0  0  0
  6  7  1  0  0  0
  7  8  1  0  0  0
  7 29  1  0  0  0
  8 14  1  0  0  0
  8  9  2  0  0  0
  9 10  1  0  0  0
 10 11  1  0  0  0
 10 30  1  0  0  0
 10 31  1  0  0  0
 11 12  2  0  0  0
 11 13  1  0  0  0
 13 32  1  0  0  0
 14 15  1  0  0  0
 14 16  2  0  0  0
 15 17  2  0  0  0
 15 21  1  0  0  0
 17 18  1  0  0  0
 18 19  2  0  0  0
 18 33  1  0  0  0
 19 20  1  0  0  0
 19 23  1  0  0  0
 20 21  2  0  0  0
 20 24  1  0  0  0
 21 34  1  0  0  0
 24 25  1  0  0  0
 24 35  1  0  0  0
 24 36  1  0  0  0
 25 37  1  0  0  0
 25 38  1  0  0  0
 25 39  1  0  0  0
M  END
> <s_m_entry_id>
5652

> <s_m_entry_name>
dock_pv.643

> <s_m_Source_Path>
/home/csk/Desktop/cluster/DUD-E-result/pgh1

> <s_m_Source_File>
dock_pv.maegz

> <i_m_Source_File_Index>
643

> <chembl_id>
CHEMBL1950019

> <chembl_pref_name>
None

> <i_lp_mmshare_version>
53161

> <r_lp_tautomer_probability>
1

> <s_lp_Force_Field>
OPLS_2005

> <r_lp_Energy>
18.05505

> <b_lp_Chiralities_Consistent>
1

> <s_lp_Variant>
CHEMBL221_lig914-1

> <s_i_glide_gridfile>
glide-grid_2oyu

> <i_i_glide_lignum>
1122

> <i_i_glide_rotatable_bonds>
6

> <r_i_docking_score>
-6.86686261593802

> <r_i_glide_ligand_efficiency>
-0.274674504637521

> <r_i_glide_ligand_efficiency_sa>
-0.803153122933192

> <r_i_glide_ligand_efficiency_ln>
-1.62765222324422

> <r_i_glide_gscore>
-6.86686261593802

> <r_i_glide_lipo>
-3.78013881590941

> <r_i_glide_hbond>
0

> <r_i_glide_metal>
0

> <r_i_glide_rewards>
-2.14615713995389

> <r_i_glide_evdw>
-28.5041751861572

> <r_i_glide_ecoul>
-0.398327887058258

> <r_i_glide_erotb>
0.544391282291889

> <r_i_glide_esite>
0

> <r_i_glide_emodel>
-26.494954637111

> <r_i_glide_energy>
-28.9025030732155

> <r_i_glide_einternal>
14.4254741668701

> <i_i_glide_confnum>
53

> <i_i_glide_posenum>
335

> <r_i_glide_eff_state_penalty>
0

> <s_user_duplicate_titles>
CHEMBL221_lig914

> <i_f3d_flags>
0

> <s_m_subgroup_title>
dock_pv

> <s_m_subgroupid>
dock_pv

> <b_m_subgroup_collapsed>
1

$$$$
CHEMBL221_lig594
                    3D
 Schrodinger Suite 2021-1.
 45 46  0  0  1  0            999 V2000
   20.9223   50.2890   12.7458 C   0  0  0  0  0  0
   20.2303   49.3459   12.0805 C   0  0  0  0  0  0
   20.8785   50.0378   14.1814 C   0  0  0  0  0  0
   19.8566   48.2920   13.1060 C   0  0  1  0  0  0
   19.9093   48.8799    6.0190 S   0  0  0  0  0  0
   20.2160   48.8821   14.3521 O   0  0  0  0  0  0
   21.5449   51.4109   12.2905 O   0  0  0  0  0  0
   20.0238   49.2557   10.6075 C   0  0  0  0  0  0
   19.9234   49.0404    7.7999 C   0  0  0  0  0  0
   20.7863   49.8730    5.4025 O   0  0  0  0  0  0
   20.1230   47.4730    5.7831 O   0  0  0  0  0  0
   21.3233   50.7257   15.0984 O   0  0  0  0  0  0
   20.1230   50.2738    8.4106 C   0  0  0  0  0  0
   19.7229   47.9130    8.5978 C   0  0  0  0  0  0
   20.1985   50.3787    9.7968 C   0  0  0  0  0  0
   19.7230   48.0346    9.9839 C   0  0  0  0  0  0
   18.1854   49.0728    5.4246 C   0  0  0  0  0  0
   18.4042   47.7778   13.1502 C   0  0  0  0  0  0
   20.7499   47.0730   12.9647 C   0  0  0  0  0  0
   22.9497   51.5346   12.5534 C   0  0  0  0  0  0
   17.3208   48.6721   13.7022 C   0  0  0  0  0  0
   23.1709   52.8749   13.2644 C   0  0  0  0  0  0
   23.7022   51.4708   11.2195 C   0  0  0  0  0  0
   20.2325   51.1598    7.7999 H   0  0  0  0  0  0
   19.5432   46.9465    8.1523 H   0  0  0  0  0  0
   20.3938   51.3496   10.2245 H   0  0  0  0  0  0
   19.5686   47.1341   10.5505 H   0  0  0  0  0  0
   18.1788   49.0726    4.3355 H   0  0  0  0  0  0
   17.7054   48.1833    5.7996 H   0  0  0  0  0  0
   17.7464   49.9818    5.8257 H   0  0  0  0  0  0
   18.1015   47.4726   12.1524 H   0  0  0  0  0  0
   18.3729   46.8728   13.7612 H   0  0  0  0  0  0
   20.3323   46.2820   12.3423 H   0  0  0  0  0  0
   21.7231   47.3090   12.5628 H   0  0  0  0  0  0
   20.9189   46.6730   13.9580 H   0  0  0  0  0  0
   23.3354   50.7344   13.1903 H   0  0  0  0  0  0
   16.3919   48.1147   13.8221 H   0  0  0  0  0  0
   17.5857   49.0726   14.6807 H   0  0  0  0  0  0
   17.1104   49.4730   13.0000 H   0  0  0  0  0  0
   24.2239   53.0323   13.4976 H   0  0  0  0  0  0
   22.6175   52.9176   14.2016 H   0  0  0  0  0  0
   22.8332   53.7100   12.6512 H   0  0  0  0  0  0
   24.7818   51.4530   11.3706 H   0  0  0  0  0  0
   23.4309   50.5793   10.6556 H   0  0  0  0  0  0
   23.4718   52.3364   10.6002 H   0  0  0  0  0  0
  1  2  2  0  0  0
  1  3  1  0  0  0
  1  7  1  0  0  0
  2  4  1  0  0  0
  2  8  1  0  0  0
  3  6  1  0  0  0
  3 12  2  0  0  0
  4 18  1  0  0  0
  4 19  1  0  0  0
  4  6  1  0  0  0
  5  9  1  0  0  0
  5 10  2  0  0  0
  5 11  2  0  0  0
  5 17  1  0  0  0
  7 20  1  0  0  0
  8 15  1  0  0  0
  8 16  2  0  0  0
  9 14  2  0  0  0
  9 13  1  0  0  0
 13 15  2  0  0  0
 13 24  1  0  0  0
 14 16  1  0  0  0
 14 25  1  0  0  0
 15 26  1  0  0  0
 16 27  1  0  0  0
 17 28  1  0  0  0
 17 29  1  0  0  0
 17 30  1  0  0  0
 18 21  1  0  0  0
 18 31  1  0  0  0
 18 32  1  0  0  0
 19 33  1  0  0  0
 19 34  1  0  0  0
 19 35  1  0  0  0
 20 22  1  0  0  0
 20 23  1  0  0  0
 20 36  1  0  0  0
 21 37  1  0  0  0
 21 38  1  0  0  0
 21 39  1  0  0  0
 22 40  1  0  0  0
 22 41  1  0  0  0
 22 42  1  0  0  0
 23 43  1  0  0  0
 23 44  1  0  0  0
 23 45  1  0  0  0
M  END
> <s_m_entry_id>
5653

> <s_m_entry_name>
dock_pv.644

> <s_m_Source_Path>
/home/csk/Desktop/cluster/DUD-E-result/pgh1

> <s_m_Source_File>
dock_pv.maegz

> <i_m_Source_File_Index>
644

> <chembl_id>
CHEMBL443278

> <chembl_pref_name>
None

> <i_lp_mmshare_version>
53161

> <r_lp_tautomer_probability>
1

> <s_lp_Force_Field>
OPLS_2005

> <r_lp_Energy>
14.055647

> <b_lp_Chiralities_Consistent>
1

> <s_lp_Variant>
CHEMBL221_lig594-1

> <s_i_glide_gridfile>
glide-grid_2oyu

> <i_i_glide_lignum>
733

> <i_i_glide_rotatable_bonds>
5

> <r_i_docking_score>
-6.8666236399542

> <r_i_glide_ligand_efficiency>
-0.298548853911052

> <r_i_glide_ligand_efficiency_sa>
-0.84903322662279

> <r_i_glide_ligand_efficiency_ln>
-1.66041185924169

> <r_i_glide_gscore>
-6.8666236399542

> <r_i_glide_lipo>
-3.43477490961203

> <r_i_glide_hbond>
0

> <r_i_glide_metal>
0

> <r_i_glide_rewards>
-2.3374304334723

> <r_i_glide_evdw>
-11.9085254669189

> <r_i_glide_ecoul>
-5.40704011917114

> <r_i_glide_erotb>
0.330255954147082

> <r_i_glide_esite>
-0.0181919597953275

> <r_i_glide_emodel>
-27.6287961580798

> <r_i_glide_energy>
-17.3155655860901

> <r_i_glide_einternal>
3.4424524307251

> <i_i_glide_confnum>
6

> <i_i_glide_posenum>
352

> <r_i_glide_eff_state_penalty>
0

> <s_user_duplicate_titles>
CHEMBL221_lig594

> <i_f3d_flags>
0

> <s_m_subgroup_title>
dock_pv

> <s_m_subgroupid>
dock_pv

> <b_m_subgroup_collapsed>
1

$$$$
CHEMBL221_lig908
                    3D
 Schrodinger Suite 2021-1.
 42 44  0  0  1  0            999 V2000
   19.9874   49.1375    7.5285 C   0  0  0  0  0  0
   19.6328   47.8140    7.7295 C   0  0  0  0  0  0
   19.4297   47.3004    9.0006 C   0  0  0  0  0  0
   20.1230   50.0026    8.6183 C   0  0  0  0  0  0
   20.1480   49.4752    9.9136 C   0  0  0  0  0  0
   19.7230   48.1334   10.0899 C   0  0  0  0  0  0
   19.7073   47.9239   11.4510 N   0  0  0  0  0  0
   20.1538   49.0507   12.1168 C   0  0  0  0  0  0
   20.5876   49.9754   11.1901 C   0  0  0  0  0  0
   21.3364   51.2652   11.4422 C   0  0  0  0  0  0
   22.8351   51.0727   11.7040 C   0  0  0  0  0  0
   23.3285   50.0481   12.1646 O   0  0  0  0  0  0
   23.5468   52.1907   11.4005 O   0  0  0  0  0  0
   20.1336   49.1209   13.5939 C   0  0  0  0  0  0
   19.0175   48.4941   14.3573 C   0  0  0  0  0  0
   20.9952   49.7718   14.1867 O   0  0  0  0  0  0
   17.9593   48.0687   13.6204 N   0  0  0  0  0  0
   16.9372   47.4730   14.2447 C   0  0  0  0  0  0
   16.9228   47.2836   15.6053 C   0  0  0  0  0  0
   17.8866   47.8730   16.3928 C   0  0  0  0  0  0
   18.9947   48.4602   15.7682 C   0  0  0  0  0  0
   17.6470   47.8287   17.8858 C   0  0  0  0  0  0
   20.2740   49.6299    6.1303 C   0  0  0  0  0  0
   19.1013   49.4433    5.1726 C   0  0  0  0  0  0
   19.5113   47.1632    6.8787 H   0  0  0  0  0  0
   19.1430   46.2732    9.1017 H   0  0  0  0  0  0
   20.3938   51.0353    8.4542 H   0  0  0  0  0  0
   19.3763   47.1002   11.9335 H   0  0  0  0  0  0
   21.2254   51.8785   10.5620 H   0  0  0  0  0  0
   20.9234   51.8142   12.2883 H   0  0  0  0  0  0
   24.4779   52.0332   11.5665 H   0  0  0  0  0  0
   16.1231   47.1233   13.6396 H   0  0  0  0  0  0
   16.1230   46.7294   16.0587 H   0  0  0  0  0  0
   19.7957   48.8902   16.3528 H   0  0  0  0  0  0
   16.8556   47.1290   18.1609 H   0  0  0  0  0  0
   17.3230   48.8096   18.2366 H   0  0  0  0  0  0
   18.5229   47.4730   18.4239 H   0  0  0  0  0  0
   20.5248   50.6819    6.1998 H   0  0  0  0  0  0
   21.1620   49.1263    5.7451 H   0  0  0  0  0  0
   19.3230   49.9431    4.2328 H   0  0  0  0  0  0
   18.9097   48.3938    4.9538 H   0  0  0  0  0  0
   18.1887   49.8719    5.5881 H   0  0  0  0  0  0
  1  2  2  0  0  0
  1  4  1  0  0  0
  1 23  1  0  0  0
  2  3  1  0  0  0
  2 25  1  0  0  0
  3  6  2  0  0  0
  3 26  1  0  0  0
  4  5  2  0  0  0
  4 27  1  0  0  0
  5  9  1  0  0  0
  5  6  1  0  0  0
  6  7  1  0  0  0
  7  8  1  0  0  0
  7 28  1  0  0  0
  8 14  1  0  0  0
  8  9  2  0  0  0
  9 10  1  0  0  0
 10 11  1  0  0  0
 10 29  1  0  0  0
 10 30  1  0  0  0
 11 12  2  0  0  0
 11 13  1  0  0  0
 13 31  1  0  0  0
 14 15  1  0  0  0
 14 16  2  0  0  0
 15 17  2  0  0  0
 15 21  1  0  0  0
 17 18  1  0  0  0
 18 19  2  0  0  0
 18 32  1  0  0  0
 19 20  1  0  0  0
 19 33  1  0  0  0
 20 21  2  0  0  0
 20 22  1  0  0  0
 21 34  1  0  0  0
 22 35  1  0  0  0
 22 36  1  0  0  0
 22 37  1  0  0  0
 23 24  1  0  0  0
 23 38  1  0  0  0
 23 39  1  0  0  0
 24 40  1  0  0  0
 24 41  1  0  0  0
 24 42  1  0  0  0
M  END
> <s_m_entry_id>
5654

> <s_m_entry_name>
dock_pv.645

> <s_m_Source_Path>
/home/csk/Desktop/cluster/DUD-E-result/pgh1

> <s_m_Source_File>
dock_pv.maegz

> <i_m_Source_File_Index>
645

> <chembl_id>
CHEMBL1950013

> <chembl_pref_name>
None

> <i_lp_mmshare_version>
53161

> <r_lp_tautomer_probability>
1

> <s_lp_Force_Field>
OPLS_2005

> <r_lp_Energy>
17.820697

> <b_lp_Chiralities_Consistent>
1

> <s_lp_Variant>
CHEMBL221_lig908-1

> <s_i_glide_gridfile>
glide-grid_2oyu

> <i_i_glide_lignum>
1116

> <i_i_glide_rotatable_bonds>
6

> <r_i_docking_score>
-6.86564965688382

> <r_i_glide_ligand_efficiency>
-0.286068735703492

> <r_i_glide_ligand_efficiency_sa>
-0.825165021419351

> <r_i_glide_ligand_efficiency_ln>
-1.6432650070265

> <r_i_glide_gscore>
-6.86564965688382

> <r_i_glide_lipo>
-3.83226997675259

> <r_i_glide_hbond>
0

> <r_i_glide_metal>
0

> <r_i_glide_rewards>
-2.65534408819397

> <r_i_glide_evdw>
-23.1006965637207

> <r_i_glide_ecoul>
0.381378144025803

> <r_i_glide_erotb>
0.719792514644906

> <r_i_glide_esite>
0

> <r_i_glide_emodel>
-29.0936579791469

> <r_i_glide_energy>
-22.7193184196949

> <r_i_glide_einternal>
7.35459804534912

> <i_i_glide_confnum>
1

> <i_i_glide_posenum>
101

> <r_i_glide_eff_state_penalty>
0

> <s_user_duplicate_titles>
CHEMBL221_lig908

> <i_f3d_flags>
0

> <s_m_subgroup_title>
dock_pv

> <s_m_subgroupid>
dock_pv

> <b_m_subgroup_collapsed>
1

$$$$
CHEMBL221_lig623
                    3D
 Schrodinger Suite 2021-1.
 30 31  0  0  1  0            999 V2000
   19.6151   48.0090   11.2383 C   0  0  0  0  0  0
   19.7230   48.2962    9.8786 C   0  0  0  0  0  0
   20.2530   49.4537    9.4134 N   0  0  0  0  0  0
   20.6926   50.3586   10.3215 C   0  0  0  0  0  0
   20.6584   50.1356   11.7016 C   0  0  0  0  0  0
   20.0874   48.9457   12.1697 C   0  0  0  0  0  0
   20.0380   48.7739   13.5619 N   0  0  0  0  0  0
   19.1939   47.4977   14.4381 S   0  0  0  0  0  0
   17.3888   48.0513   14.4909 C   0  0  0  0  0  0
   19.7231   47.5512   15.8000 O   0  0  0  0  0  0
   19.3230   46.2730   13.6514 O   0  0  0  0  0  0
   21.0575   51.0729   12.6287 O   0  0  0  0  0  0
   22.2084   51.8224   12.5420 C   0  0  0  0  0  0
   22.2602   52.9204   13.4000 C   0  0  0  0  0  0
   23.3669   53.7600   13.4029 C   0  0  0  0  0  0
   24.4601   53.4730   12.6022 C   0  0  0  0  0  0
   24.4064   52.4155   11.7109 C   0  0  0  0  0  0
   23.2982   51.5619   11.6901 C   0  0  0  0  0  0
   25.7057   52.2730   10.6000 Cl  0  0  0  0  0  0
   17.0137   48.4176   13.2670 F   0  0  0  0  0  0
   17.3230   49.0730   15.3424 F   0  0  0  0  0  0
   16.6525   47.0289   14.9261 F   0  0  0  0  0  0
   19.1601   47.0736   11.5159 H   0  0  0  0  0  0
   19.3681   47.5978    9.1343 H   0  0  0  0  0  0
   21.0589   51.2908    9.9242 H   0  0  0  0  0  0
   20.4437   49.5123   14.1175 H   0  0  0  0  0  0
   21.4276   53.1330   14.0546 H   0  0  0  0  0  0
   23.3916   54.6155   14.0642 H   0  0  0  0  0  0
   25.3175   54.1307   12.6185 H   0  0  0  0  0  0
   23.2860   50.7272   11.0062 H   0  0  0  0  0  0
  1  6  1  0  0  0
  1  2  2  0  0  0
  1 23  1  0  0  0
  2  3  1  0  0  0
  2 24  1  0  0  0
  3  4  2  0  0  0
  4  5  1  0  0  0
  4 25  1  0  0  0
  5  6  2  0  0  0
  5 12  1  0  0  0
  6  7  1  0  0  0
  7  8  1  0  0  0
  7 26  1  0  0  0
  8 11  2  0  0  0
  8  9  1  0  0  0
  8 10  2  0  0  0
  9 20  1  0  0  0
  9 21  1  0  0  0
  9 22  1  0  0  0
 12 13  1  0  0  0
 13 14  2  0  0  0
 13 18  1  0  0  0
 14 15  1  0  0  0
 14 27  1  0  0  0
 15 16  2  0  0  0
 15 28  1  0  0  0
 16 17  1  0  0  0
 16 29  1  0  0  0
 17 18  2  0  0  0
 17 19  1  0  0  0
 18 30  1  0  0  0
M  END
> <s_m_entry_id>
5655

> <s_m_entry_name>
dock_pv.646

> <s_m_Source_Path>
/home/csk/Desktop/cluster/DUD-E-result/pgh1

> <s_m_Source_File>
dock_pv.maegz

> <i_m_Source_File_Index>
646

> <chembl_id>
CHEMBL224693

> <chembl_pref_name>
None

> <i_lp_mmshare_version>
53161

> <r_lp_tautomer_probability>
1

> <s_lp_Force_Field>
OPLS_2005

> <r_lp_Energy>
7.99844

> <b_lp_Chiralities_Consistent>
1

> <s_lp_Variant>
CHEMBL221_lig623-1

> <s_i_glide_gridfile>
glide-grid_2oyu

> <i_i_glide_lignum>
762

> <i_i_glide_rotatable_bonds>
5

> <r_i_docking_score>
-6.86468944962545

> <r_i_glide_ligand_efficiency>
-0.312031338619339

> <r_i_glide_ligand_efficiency_sa>
-0.874324082307579

> <r_i_glide_ligand_efficiency_ln>
-1.67798049712006

> <r_i_glide_gscore>
-6.86468944962545

> <r_i_glide_lipo>
-3.5315205075932

> <r_i_glide_hbond>
0

> <r_i_glide_metal>
0

> <r_i_glide_rewards>
-1.94419776079538

> <r_i_glide_evdw>
-32.984561920166

> <r_i_glide_ecoul>
-2.02225565910339

> <r_i_glide_erotb>
0.613722352265177

> <r_i_glide_esite>
-0.0501270886282386

> <r_i_glide_emodel>
-49.8355239941678

> <r_i_glide_energy>
-35.0068175792694

> <r_i_glide_einternal>
0.755622982978821

> <i_i_glide_confnum>
22

> <i_i_glide_posenum>
243

> <r_i_glide_eff_state_penalty>
0

> <s_user_duplicate_titles>
CHEMBL221_lig623

> <i_f3d_flags>
0

> <s_m_subgroup_title>
dock_pv

> <s_m_subgroupid>
dock_pv

> <b_m_subgroup_collapsed>
1

$$$$
CHEMBL221_lig777
                    3D
 Schrodinger Suite 2021-1.
 34 35  0  0  1  0            999 V2000
   19.3232   47.8732   11.6960 C   0  0  0  0  0  0
   19.5395   48.0644   10.3324 C   0  0  0  0  0  0
   20.2059   49.1295    9.8365 N   0  0  0  0  0  0
   20.7138   50.0121   10.7277 C   0  0  0  0  0  0
   20.5840   49.8792   12.1192 C   0  0  0  0  0  0
   19.8280   48.7970   12.6164 C   0  0  0  0  0  0
   19.5808   48.6723   13.9999 N   0  0  0  0  0  0
   18.5391   47.4585   14.7663 S   0  0  0  0  0  0
   21.1454   50.8294   12.9914 N   0  0  0  0  0  0
   22.2228   51.7042   12.8153 C   0  0  0  0  0  0
   23.2298   51.4727   11.8733 C   0  0  0  0  0  0
   24.2838   52.3738   11.7264 C   0  0  0  0  0  0
   24.3760   53.4729   12.5837 C   0  0  0  0  0  0
   23.3459   53.7351   13.4776 C   0  0  0  0  0  0
   22.2871   52.8411   13.6184 C   0  0  0  0  0  0
   18.9230   46.1374   14.2646 O   0  0  0  0  0  0
   16.8364   47.8731   14.1197 C   0  0  0  0  0  0
   18.5592   47.7550   16.2000 O   0  0  0  0  0  0
   25.2779   52.1773   10.6000 C   0  0  0  0  0  0
   18.7427   47.0271   12.0125 H   0  0  0  0  0  0
   19.1415   47.3705    9.6067 H   0  0  0  0  0  0
   21.2105   50.8629   10.2873 H   0  0  0  0  0  0
   19.9182   49.4064   14.6010 H   0  0  0  0  0  0
   20.5896   51.0251   13.8089 H   0  0  0  0  0  0
   23.2039   50.5935   11.2486 H   0  0  0  0  0  0
   25.1995   54.1674   12.5106 H   0  0  0  0  0  0
   23.3893   54.6150   14.1044 H   0  0  0  0  0  0
   21.5173   53.0459   14.3480 H   0  0  0  0  0  0
   16.1624   47.0646   14.3954 H   0  0  0  0  0  0
   16.5236   48.7905   14.5990 H   0  0  0  0  0  0
   16.8596   47.9941   13.0386 H   0  0  0  0  0  0
   25.3926   53.0672    9.9763 H   0  0  0  0  0  0
   24.9230   51.4058    9.9153 H   0  0  0  0  0  0
   26.2527   51.8877   10.9921 H   0  0  0  0  0  0
  1  6  1  0  0  0
  1  2  2  0  0  0
  1 20  1  0  0  0
  2  3  1  0  0  0
  2 21  1  0  0  0
  3  4  2  0  0  0
  4  5  1  0  0  0
  4 22  1  0  0  0
  5  6  2  0  0  0
  5  9  1  0  0  0
  6  7  1  0  0  0
  7  8  1  0  0  0
  7 23  1  0  0  0
  8 16  2  0  0  0
  8 17  1  0  0  0
  8 18  2  0  0  0
  9 10  1  0  0  0
  9 24  1  0  0  0
 10 11  2  0  0  0
 10 15  1  0  0  0
 11 12  1  0  0  0
 11 25  1  0  0  0
 12 13  2  0  0  0
 12 19  1  0  0  0
 13 14  1  0  0  0
 13 26  1  0  0  0
 14 15  2  0  0  0
 14 27  1  0  0  0
 15 28  1  0  0  0
 17 29  1  0  0  0
 17 30  1  0  0  0
 17 31  1  0  0  0
 19 32  1  0  0  0
 19 33  1  0  0  0
 19 34  1  0  0  0
M  END
> <s_m_entry_id>
5656

> <s_m_entry_name>
dock_pv.647

> <s_m_Source_Path>
/home/csk/Desktop/cluster/DUD-E-result/pgh1

> <s_m_Source_File>
dock_pv.maegz

> <i_m_Source_File_Index>
647

> <chembl_id>
CHEMBL1078375

> <chembl_pref_name>
None

> <i_lp_mmshare_version>
53161

> <r_lp_tautomer_probability>
1

> <s_lp_Force_Field>
OPLS_2005

> <r_lp_Energy>
7.578569

> <b_lp_Chiralities_Consistent>
1

> <s_lp_Variant>
CHEMBL221_lig777-1

> <s_i_glide_gridfile>
glide-grid_2oyu

> <i_i_glide_lignum>
947

> <i_i_glide_rotatable_bonds>
4

> <r_i_docking_score>
-6.85646517423453

> <r_i_glide_ligand_efficiency>
-0.360866588117607

> <r_i_glide_ligand_efficiency_sa>
-0.962936997756581

> <r_i_glide_ligand_efficiency_ln>
-1.73826118503764

> <r_i_glide_gscore>
-6.85646517423453

> <r_i_glide_lipo>
-3.41338225066796

> <r_i_glide_hbond>
0

> <r_i_glide_metal>
0

> <r_i_glide_rewards>
-2.20241806786374

> <r_i_glide_evdw>
-30.5069770812988

> <r_i_glide_ecoul>
-2.72655987739563

> <r_i_glide_erotb>
0.702317613895496

> <r_i_glide_esite>
-0.00864963392402947

> <r_i_glide_emodel>
-42.4381264026347

> <r_i_glide_energy>
-33.2335369586945

> <r_i_glide_einternal>
1.69297504425049

> <i_i_glide_confnum>
7

> <i_i_glide_posenum>
23

> <r_i_glide_eff_state_penalty>
0

> <s_user_duplicate_titles>
CHEMBL221_lig777

> <i_f3d_flags>
0

> <s_m_subgroup_title>
dock_pv

> <s_m_subgroupid>
dock_pv

> <b_m_subgroup_collapsed>
1

$$$$
CHEMBL221_lig580
                    3D
 Schrodinger Suite 2021-1.
 37 39  0  0  1  0            999 V2000
   20.8237   49.9324   13.0496 C   0  0  0  0  0  0
   21.5858   51.0737   12.7789 C   0  0  0  0  0  0
   21.5618   51.3200   11.4343 N   0  0  0  0  0  0
   19.7324   48.6470    7.1236 S   0  0  0  0  0  0
   20.8431   50.3682   10.7623 C   0  0  0  0  0  0
   20.4336   49.4044   11.7330 C   0  0  0  0  0  0
   20.5230   49.4735   14.4356 C   0  0  0  0  0  0
   20.1230   49.0317    8.9038 C   0  0  0  0  0  0
   20.5230   50.2730    9.4000 C   0  0  0  0  0  0
   19.7637   48.2754   11.2123 C   0  0  0  0  0  0
   19.5599   48.3800   14.6976 C   0  0  0  0  0  0
   20.9230   48.6730    6.2976 O   0  0  0  0  0  0
   18.8772   47.4730    7.1601 O   0  0  0  0  0  0
   20.9241   50.1299   15.3982 O   0  0  0  0  0  0
   19.7230   48.0657    9.8330 C   0  0  0  0  0  0
   18.4845   48.5651   15.5794 C   0  0  0  0  0  0
   19.7654   47.1353   14.1259 C   0  0  0  0  0  0
   18.7655   49.8730    6.2000 C   0  0  0  0  0  0
   17.6519   46.3998   15.0000 C   0  0  0  0  0  0
   22.3341   52.0444   13.6710 C   0  0  0  0  0  0
   18.8081   46.1489   14.2699 C   0  0  0  0  0  0
   17.5049   47.5889   15.6994 C   0  0  0  0  0  0
   16.6572   45.4837   15.0000 F   0  0  0  0  0  0
   22.0198   52.1267   11.0374 H   0  0  0  0  0  0
   20.6921   51.0879    8.7188 H   0  0  0  0  0  0
   19.3242   47.5132   11.8230 H   0  0  0  0  0  0
   19.2836   47.1407    9.4877 H   0  0  0  0  0  0
   18.3603   49.4730   16.1432 H   0  0  0  0  0  0
   20.6414   46.9522   13.5197 H   0  0  0  0  0  0
   18.6949   49.5107    5.1750 H   0  0  0  0  0  0
   17.7598   49.8982    6.6000 H   0  0  0  0  0  0
   19.3230   50.8056    6.2000 H   0  0  0  0  0  0
   21.6544   52.5840   14.3312 H   0  0  0  0  0  0
   23.0497   51.5252   14.3086 H   0  0  0  0  0  0
   22.8989   52.7942   13.1157 H   0  0  0  0  0  0
   18.9230   45.2057   13.7565 H   0  0  0  0  0  0
   16.6292   47.7601   16.3079 H   0  0  0  0  0  0
  1  2  2  0  0  0
  1  6  1  0  0  0
  1  7  1  0  0  0
  2  3  1  0  0  0
  2 20  1  0  0  0
  3  5  1  0  0  0
  3 24  1  0  0  0
  4  8  1  0  0  0
  4 12  2  0  0  0
  4 13  2  0  0  0
  4 18  1  0  0  0
  5  6  1  0  0  0
  5  9  2  0  0  0
  6 10  2  0  0  0
  7 11  1  0  0  0
  7 14  2  0  0  0
  8 15  2  0  0  0
  8  9  1  0  0  0
  9 25  1  0  0  0
 10 15  1  0  0  0
 10 26  1  0  0  0
 11 16  2  0  0  0
 11 17  1  0  0  0
 15 27  1  0  0  0
 16 22  1  0  0  0
 16 28  1  0  0  0
 17 21  2  0  0  0
 17 29  1  0  0  0
 18 30  1  0  0  0
 18 31  1  0  0  0
 18 32  1  0  0  0
 19 21  1  0  0  0
 19 23  1  0  0  0
 19 22  2  0  0  0
 20 33  1  0  0  0
 20 34  1  0  0  0
 20 35  1  0  0  0
 21 36  1  0  0  0
 22 37  1  0  0  0
M  END
> <s_m_entry_id>
5657

> <s_m_entry_name>
dock_pv.648

> <s_m_Source_Path>
/home/csk/Desktop/cluster/DUD-E-result/pgh1

> <s_m_Source_File>
dock_pv.maegz

> <i_m_Source_File_Index>
648

> <chembl_id>
CHEMBL361055

> <chembl_pref_name>
None

> <i_lp_mmshare_version>
53161

> <r_lp_tautomer_probability>
1

> <s_lp_Force_Field>
OPLS_2005

> <r_lp_Energy>
13.858604

> <b_lp_Chiralities_Consistent>
1

> <s_lp_Variant>
CHEMBL221_lig580-1

> <s_i_glide_gridfile>
glide-grid_2oyu

> <i_i_glide_lignum>
718

> <i_i_glide_rotatable_bonds>
3

> <r_i_docking_score>
-6.85607982857133

> <r_i_glide_ligand_efficiency>
-0.298090427329188

> <r_i_glide_ligand_efficiency_sa>
-0.847729522405304

> <r_i_glide_ligand_efficiency_ln>
-1.65786227004332

> <r_i_glide_gscore>
-6.85607982857133

> <r_i_glide_lipo>
-3.38890697760594

> <r_i_glide_hbond>
0

> <r_i_glide_metal>
0

> <r_i_glide_rewards>
-2.67509807030826

> <r_i_glide_evdw>
-13.877405166626

> <r_i_glide_ecoul>
-2.89034390449524

> <r_i_glide_erotb>
0.342807765954837

> <r_i_glide_esite>
-0.00746070260637713

> <r_i_glide_emodel>
-30.8836738372101

> <r_i_glide_energy>
-16.7677490711212

> <r_i_glide_einternal>
5.73039197921753

> <i_i_glide_confnum>
4

> <i_i_glide_posenum>
15

> <r_i_glide_eff_state_penalty>
0

> <s_user_duplicate_titles>
CHEMBL221_lig580

> <i_f3d_flags>
0

> <s_m_subgroup_title>
dock_pv

> <s_m_subgroupid>
dock_pv

> <b_m_subgroup_collapsed>
1

$$$$
CHEMBL221_lig765
                    3D
 Schrodinger Suite 2021-1.
 37 38  0  0  1  0            999 V2000
   19.4634   48.2587   11.4882 C   0  0  0  0  0  0
   19.7232   48.4600   10.1354 C   0  0  0  0  0  0
   20.5228   49.4504    9.6807 N   0  0  0  0  0  0
   21.1259   50.2379   10.6000 C   0  0  0  0  0  0
   20.9593   50.0920   11.9816 C   0  0  0  0  0  0
   20.0657   49.0956   12.4393 C   0  0  0  0  0  0
   19.7853   48.9565   13.8144 N   0  0  0  0  0  0
   18.3450   48.1481   14.4954 S   0  0  0  0  0  0
   21.6100   50.9713   12.8675 N   0  0  0  0  0  0
   22.7419   51.7961   12.7064 C   0  0  0  0  0  0
   22.8682   52.9580   13.4900 C   0  0  0  0  0  0
   24.0387   53.7242   13.4000 C   0  0  0  0  0  0
   25.0706   53.3554   12.5586 C   0  0  0  0  0  0
   24.9032   52.2730   11.7017 C   0  0  0  0  0  0
   23.7640   51.4740   11.8018 C   0  0  0  0  0  0
   18.1910   48.6721   15.8562 O   0  0  0  0  0  0
   18.8710   46.3347   14.6333 C   0  0  0  0  0  0
   19.3230   45.9155   13.4530 F   0  0  0  0  0  0
   19.8295   46.2728   15.5571 F   0  0  0  0  0  0
   17.8113   45.6169   15.0001 F   0  0  0  0  0  0
   17.2523   48.2735   13.5256 O   0  0  0  0  0  0
   21.7231   53.4145   14.4011 C   0  0  0  0  0  0
   21.7839   54.8824   14.8566 C   0  0  0  0  0  0
   18.7791   47.4720   11.7603 H   0  0  0  0  0  0
   19.2588   47.8369    9.3845 H   0  0  0  0  0  0
   21.7303   51.0340   10.1974 H   0  0  0  0  0  0
   20.3476   49.4822   14.4642 H   0  0  0  0  0  0
   21.1135   51.1377   13.7283 H   0  0  0  0  0  0
   24.1783   54.6107   14.0014 H   0  0  0  0  0  0
   25.9707   53.9518   12.5204 H   0  0  0  0  0  0
   25.6828   52.0079   11.0000 H   0  0  0  0  0  0
   23.7053   50.5876   11.1897 H   0  0  0  0  0  0
   20.8205   53.3111   13.8000 H   0  0  0  0  0  0
   21.6178   52.7393   15.2507 H   0  0  0  0  0  0
   20.8438   55.2593   15.2476 H   0  0  0  0  0  0
   22.5230   55.0730   15.6295 H   0  0  0  0  0  0
   22.0664   55.4730   13.9930 H   0  0  0  0  0  0
  1  6  1  0  0  0
  1  2  2  0  0  0
  1 24  1  0  0  0
  2  3  1  0  0  0
  2 25  1  0  0  0
  3  4  2  0  0  0
  4  5  1  0  0  0
  4 26  1  0  0  0
  5  6  2  0  0  0
  5  9  1  0  0  0
  6  7  1  0  0  0
  7  8  1  0  0  0
  7 27  1  0  0  0
  8 16  2  0  0  0
  8 17  1  0  0  0
  8 21  2  0  0  0
  9 10  1  0  0  0
  9 28  1  0  0  0
 10 15  1  0  0  0
 10 11  2  0  0  0
 11 12  1  0  0  0
 11 22  1  0  0  0
 12 13  2  0  0  0
 12 29  1  0  0  0
 13 14  1  0  0  0
 13 30  1  0  0  0
 14 15  2  0  0  0
 14 31  1  0  0  0
 15 32  1  0  0  0
 17 18  1  0  0  0
 17 19  1  0  0  0
 17 20  1  0  0  0
 22 23  1  0  0  0
 22 33  1  0  0  0
 22 34  1  0  0  0
 23 35  1  0  0  0
 23 36  1  0  0  0
 23 37  1  0  0  0
M  END
> <s_m_entry_id>
5658

> <s_m_entry_name>
dock_pv.649

> <s_m_Source_Path>
/home/csk/Desktop/cluster/DUD-E-result/pgh1

> <s_m_Source_File>
dock_pv.maegz

> <i_m_Source_File_Index>
649

> <chembl_id>
CHEMBL1080404

> <chembl_pref_name>
None

> <i_lp_mmshare_version>
53161

> <r_lp_tautomer_probability>
1

> <s_lp_Force_Field>
OPLS_2005

> <r_lp_Energy>
10.888673

> <b_lp_Chiralities_Consistent>
1

> <s_lp_Variant>
CHEMBL221_lig765-1

> <s_i_glide_gridfile>
glide-grid_2oyu

> <i_i_glide_lignum>
935

> <i_i_glide_rotatable_bonds>
6

> <r_i_docking_score>
-6.85008590587968

> <r_i_glide_ligand_efficiency>
-0.297829821994768

> <r_i_glide_ligand_efficiency_sa>
-0.846988395500749

> <r_i_glide_ligand_efficiency_ln>
-1.65641288518659

> <r_i_glide_gscore>
-6.85008590587968

> <r_i_glide_lipo>
-3.45056523844003

> <r_i_glide_hbond>
0

> <r_i_glide_metal>
0

> <r_i_glide_rewards>
-1.86265275440615

> <r_i_glide_evdw>
-37.0237274169922

> <r_i_glide_ecoul>
-1.38160920143127

> <r_i_glide_erotb>
0.637213692512758

> <r_i_glide_esite>
-0.11565385448195

> <r_i_glide_emodel>
-49.8135299403834

> <r_i_glide_energy>
-38.4053366184235

> <r_i_glide_einternal>
8.09894180297852

> <i_i_glide_confnum>
13

> <i_i_glide_posenum>
31

> <r_i_glide_eff_state_penalty>
0

> <s_user_duplicate_titles>
CHEMBL221_lig765

> <i_f3d_flags>
0

> <s_m_subgroup_title>
dock_pv

> <s_m_subgroupid>
dock_pv

> <b_m_subgroup_collapsed>
1

$$$$
CHEMBL221_lig805
                    3D
 Schrodinger Suite 2021-1.
 38 39  0  0  1  0            999 V2000
   20.9028   49.9385   14.7094 C   0  0  0  0  0  0
   21.3399   49.8731   13.3810 C   0  0  0  0  0  0
   21.9998   50.9410   12.7835 C   0  0  0  0  0  0
   22.2368   52.1177   13.5160 C   0  0  0  0  0  0
   21.7230   52.1968   14.8160 C   0  0  0  0  0  0
   21.0994   51.1155   15.4217 C   0  0  0  0  0  0
   20.1360   48.8032   15.3897 C   0  0  0  0  0  0
   19.5904   47.7106   14.4452 C   0  0  2  0  0  0
   18.6689   48.2517   13.3289 C   0  0  2  0  0  0
   17.2413   48.0752   13.8680 C   0  0  0  0  0  0
   17.2889   47.0386   14.9996 C   0  0  0  0  0  0
   18.7575   46.6291   15.1501 C   0  0  0  0  0  0
   18.9230   47.4731   12.1784 O   0  0  0  0  0  0
   23.0179   53.3025   12.9268 C   0  0  1  0  0  0
   22.6315   54.6730   13.5251 C   0  0  0  0  0  0
   24.5428   53.0725   12.9305 C   0  0  0  0  0  0
   24.9231   52.3887   11.8150 O   0  0  0  0  0  0
   25.3206   53.4735   13.7967 O   0  0  0  0  0  0
   22.5150   50.7230   10.9589 Br  0  0  0  0  0  0
   21.1863   48.9862   12.7871 H   0  0  0  0  0  0
   21.8372   53.0945   15.4001 H   0  0  0  0  0  0
   20.7406   51.2076   16.4377 H   0  0  0  0  0  0
   20.7935   48.3570   16.1377 H   0  0  0  0  0  0
   19.3004   49.2313   15.9455 H   0  0  0  0  0  0
   20.4650   47.2169   14.0149 H   0  0  0  0  0  0
   18.8259   49.3011   13.0838 H   0  0  0  0  0  0
   16.9236   49.0146   14.3180 H   0  0  0  0  0  0
   16.5102   47.8732   13.0852 H   0  0  0  0  0  0
   16.9218   47.4791   15.9296 H   0  0  0  0  0  0
   16.6494   46.1786   14.7904 H   0  0  0  0  0  0
   18.9228   45.6546   14.6895 H   0  0  0  0  0  0
   19.0307   46.5441   16.1999 H   0  0  0  0  0  0
   18.5207   46.6039   12.2707 H   0  0  0  0  0  0
   22.7403   53.3469   11.8803 H   0  0  0  0  0  0
   22.9219   54.7767   14.5705 H   0  0  0  0  0  0
   23.1342   55.4754   13.0029 H   0  0  0  0  0  0
   21.5595   54.8514   13.4522 H   0  0  0  0  0  0
   24.1769   52.0963   11.2869 H   0  0  0  0  0  0
  1  6  1  0  0  0
  1  2  2  0  0  0
  1  7  1  0  0  0
  2  3  1  0  0  0
  2 20  1  0  0  0
  3  4  2  0  0  0
  3 19  1  0  0  0
  4  5  1  0  0  0
  4 14  1  0  0  0
  5  6  2  0  0  0
  5 21  1  0  0  0
  6 22  1  0  0  0
  7  8  1  0  0  0
  7 23  1  0  0  0
  7 24  1  0  0  0
  8 12  1  0  0  0
  8  9  1  0  0  0
  8 25  1  0  0  0
  9 10  1  0  0  0
  9 13  1  0  0  0
  9 26  1  0  0  0
 10 11  1  0  0  0
 10 27  1  0  0  0
 10 28  1  0  0  0
 11 12  1  0  0  0
 11 29  1  0  0  0
 11 30  1  0  0  0
 12 31  1  0  0  0
 12 32  1  0  0  0
 13 33  1  0  0  0
 14 15  1  0  0  0
 14 16  1  0  0  0
 14 34  1  0  0  0
 15 35  1  0  0  0
 15 36  1  0  0  0
 15 37  1  0  0  0
 16 17  1  0  0  0
 16 18  2  0  0  0
 17 38  1  0  0  0
M  END
> <s_m_entry_id>
5659

> <s_m_entry_name>
dock_pv.650

> <s_m_Source_Path>
/home/csk/Desktop/cluster/DUD-E-result/pgh1

> <s_m_Source_File>
dock_pv.maegz

> <i_m_Source_File_Index>
650

> <chembl_id>
CHEMBL1276001

> <chembl_pref_name>
None

> <i_lp_mmshare_version>
53161

> <r_lp_tautomer_probability>
1

> <s_lp_Force_Field>
OPLS_2005

> <r_lp_Energy>
29.250007

> <b_lp_Chiralities_Consistent>
1

> <s_lp_Variant>
CHEMBL221_lig805-2

> <s_i_glide_gridfile>
glide-grid_2oyu

> <i_i_glide_lignum>
965

> <i_i_glide_rotatable_bonds>
6

> <r_i_docking_score>
-6.84962481918639

> <r_i_glide_ligand_efficiency>
-0.360506569430863

> <r_i_glide_ligand_efficiency_sa>
-0.961976323300246

> <r_i_glide_ligand_efficiency_ln>
-1.73652700811558

> <r_i_glide_gscore>
-6.84962481918639

> <r_i_glide_lipo>
-3.40893498142115

> <r_i_glide_hbond>
-0.177155989724799

> <r_i_glide_metal>
0

> <r_i_glide_rewards>
-2.14061580631839

> <r_i_glide_evdw>
-28.6617774963379

> <r_i_glide_ecoul>
-2.60586929321289

> <r_i_glide_erotb>
0.701051227076775

> <r_i_glide_esite>
0

> <r_i_glide_emodel>
-35.9517755609431

> <r_i_glide_energy>
-31.2676467895508

> <r_i_glide_einternal>
10.3116292953491

> <i_i_glide_confnum>
134

> <i_i_glide_posenum>
10

> <r_i_glide_eff_state_penalty>
0

> <s_user_duplicate_titles>
CHEMBL221_lig805

> <i_f3d_flags>
0

> <s_m_subgroup_title>
dock_pv

> <s_m_subgroupid>
dock_pv

> <b_m_subgroup_collapsed>
1

$$$$
CHEMBL221_lig657
                    3D
 Schrodinger Suite 2021-1.
 31 32  0  0  1  0            999 V2000
   21.1980   51.1747   15.0719 C   0  0  0  0  0  0
   22.0329   52.1803   14.6000 C   0  0  0  0  0  0
   22.6759   52.0539   13.3684 C   0  0  0  0  0  0
   22.3088   51.0061   12.5253 C   0  0  0  0  0  0
   21.3401   50.0803   12.9277 C   0  0  0  0  0  0
   20.8685   50.1094   14.2423 C   0  0  0  0  0  0
   20.7775   49.0971   11.9529 C   0  0  0  0  0  0
   20.5229   47.9483   12.3177 O   0  0  0  0  0  0
   20.5703   49.6256   10.7241 N   0  0  0  0  0  0
   20.1230   49.0094    9.5522 C   0  0  0  0  0  0
   19.6889   47.6845    9.5014 C   0  0  0  0  0  0
   19.2934   47.1241    8.3003 C   0  0  0  0  0  0
   19.3230   47.8730    7.1342 C   0  0  0  0  0  0
   19.7412   49.1810    7.1615 C   0  0  0  0  0  0
   20.1230   49.7654    8.3732 C   0  0  0  0  0  0
   23.7348   53.0541   12.9332 C   0  0  0  0  0  0
   24.9230   52.6870   13.4000 F   0  0  0  0  0  0
   23.8204   53.0730   11.6031 F   0  0  0  0  0  0
   23.4579   54.2730   13.4000 F   0  0  0  0  0  0
   19.7230   49.8730    5.9646 N   0  0  0  0  0  0
   20.7551   51.2535   16.0541 H   0  0  0  0  0  0
   22.1900   53.0469   15.2200 H   0  0  0  0  0  0
   22.7545   50.9334   11.5420 H   0  0  0  0  0  0
   20.1564   49.3739   14.5913 H   0  0  0  0  0  0
   20.8001   50.6015   10.6231 H   0  0  0  0  0  0
   19.6247   47.0730   10.3818 H   0  0  0  0  0  0
   18.9230   46.1199    8.2912 H   0  0  0  0  0  0
   18.9857   47.4730    6.2000 H   0  0  0  0  0  0
   20.4167   50.8051    8.3913 H   0  0  0  0  0  0
   19.1949   49.4502    5.2148 H   0  0  0  0  0  0
   19.5977   50.8698    6.0839 H   0  0  0  0  0  0
  1  6  1  0  0  0
  1  2  2  0  0  0
  1 21  1  0  0  0
  2  3  1  0  0  0
  2 22  1  0  0  0
  3  4  2  0  0  0
  3 16  1  0  0  0
  4  5  1  0  0  0
  4 23  1  0  0  0
  5  6  2  0  0  0
  5  7  1  0  0  0
  6 24  1  0  0  0
  7  8  2  0  0  0
  7  9  1  0  0  0
  9 10  1  0  0  0
  9 25  1  0  0  0
 10 11  2  0  0  0
 10 15  1  0  0  0
 11 12  1  0  0  0
 11 26  1  0  0  0
 12 13  2  0  0  0
 12 27  1  0  0  0
 13 14  1  0  0  0
 13 28  1  0  0  0
 14 15  2  0  0  0
 14 20  1  0  0  0
 15 29  1  0  0  0
 16 17  1  0  0  0
 16 18  1  0  0  0
 16 19  1  0  0  0
 20 30  1  0  0  0
 20 31  1  0  0  0
M  END
> <s_m_entry_id>
5660

> <s_m_entry_name>
dock_pv.651

> <s_m_Source_Path>
/home/csk/Desktop/cluster/DUD-E-result/pgh1

> <s_m_Source_File>
dock_pv.maegz

> <i_m_Source_File_Index>
651

> <chembl_id>
CHEMBL261265

> <chembl_pref_name>
None

> <i_lp_mmshare_version>
53161

> <r_lp_tautomer_probability>
1

> <s_lp_Force_Field>
OPLS_2005

> <r_lp_Energy>
22.399269

> <b_lp_Chiralities_Consistent>
1

> <s_lp_Variant>
CHEMBL221_lig657-1

> <s_i_glide_gridfile>
glide-grid_2oyu

> <i_i_glide_lignum>
799

> <i_i_glide_rotatable_bonds>
4

> <r_i_docking_score>
-6.84773711982679

> <r_i_glide_ligand_efficiency>
-0.34238685599134

> <r_i_glide_ligand_efficiency_sa>
-0.929380912665377

> <r_i_glide_ligand_efficiency_ln>
-1.71376274760673

> <r_i_glide_gscore>
-6.84773711982679

> <r_i_glide_lipo>
-3.15492480721217

> <r_i_glide_hbond>
-0.0669207320984978

> <r_i_glide_metal>
0

> <r_i_glide_rewards>
-3.16816456876342

> <r_i_glide_evdw>
-21.4202404022217

> <r_i_glide_ecoul>
-0.509701430797577

> <r_i_glide_erotb>
0.689740222978014

> <r_i_glide_esite>
0

> <r_i_glide_emodel>
-33.6818996124847

> <r_i_glide_energy>
-21.9299418330193

> <r_i_glide_einternal>
3.03799533843994

> <i_i_glide_confnum>
4

> <i_i_glide_posenum>
208

> <r_i_glide_eff_state_penalty>
0

> <s_user_duplicate_titles>
CHEMBL221_lig657

> <i_f3d_flags>
0

> <s_m_subgroup_title>
dock_pv

> <s_m_subgroupid>
dock_pv

> <b_m_subgroup_collapsed>
1

$$$$
CHEMBL221_lig789
                    3D
 Schrodinger Suite 2021-1.
 37 38  0  0  1  0            999 V2000
   19.3230   48.2623   11.1727 C   0  0  0  0  0  0
   19.7230   48.3299    9.8432 C   0  0  0  0  0  0
   20.5228   49.3191    9.3807 N   0  0  0  0  0  0
   20.9737   50.2431   10.2624 C   0  0  0  0  0  0
   20.6568   50.2310   11.6229 C   0  0  0  0  0  0
   19.7543   49.2495   12.0629 C   0  0  0  0  0  0
   19.3227   49.2147   13.3911 N   0  0  0  0  0  0
   19.7918   47.8944   14.4038 S   0  0  0  0  0  0
   21.2116   51.1550   12.5283 N   0  0  0  0  0  0
   22.4145   51.8731   12.5133 C   0  0  0  0  0  0
   20.2259   48.4780   15.6749 O   0  0  0  0  0  0
   18.2182   46.9266   14.6171 C   0  0  0  0  0  0
   20.6602   47.0731   13.5672 O   0  0  0  0  0  0
   22.5232   52.9632   13.3773 C   0  0  0  0  0  0
   23.6900   53.7193   13.4000 C   0  0  0  0  0  0
   24.7658   53.3538   12.6000 C   0  0  0  0  0  0
   24.6611   52.2731   11.7266 C   0  0  0  0  0  0
   23.4919   51.5226   11.6931 C   0  0  0  0  0  0
   17.0299   47.6948   15.2279 C   0  0  0  0  0  0
   17.2590   48.2330   16.6502 C   0  0  0  0  0  0
   17.7231   49.4729   16.6000 F   0  0  0  0  0  0
   18.1230   47.4730   17.3126 F   0  0  0  0  0  0
   16.1542   48.2730   17.3876 F   0  0  0  0  0  0
   18.6609   47.4730   11.4941 H   0  0  0  0  0  0
   19.3897   47.5982    9.1216 H   0  0  0  0  0  0
   21.5998   51.0141    9.8466 H   0  0  0  0  0  0
   19.3777   50.0907   13.8842 H   0  0  0  0  0  0
   20.6099   51.4003   13.2977 H   0  0  0  0  0  0
   18.4565   46.0155   15.1645 H   0  0  0  0  0  0
   18.0306   46.6730   13.5899 H   0  0  0  0  0  0
   21.7010   53.2441   14.0193 H   0  0  0  0  0  0
   23.7655   54.5763   14.0550 H   0  0  0  0  0  0
   25.6767   53.9343   12.6311 H   0  0  0  0  0  0
   25.4904   52.0038   11.0875 H   0  0  0  0  0  0
   23.4502   50.6621   11.0442 H   0  0  0  0  0  0
   16.1850   47.0058   15.2523 H   0  0  0  0  0  0
   16.7235   48.5057   14.5660 H   0  0  0  0  0  0
  1  6  1  0  0  0
  1  2  2  0  0  0
  1 24  1  0  0  0
  2  3  1  0  0  0
  2 25  1  0  0  0
  3  4  2  0  0  0
  4  5  1  0  0  0
  4 26  1  0  0  0
  5  6  2  0  0  0
  5  9  1  0  0  0
  6  7  1  0  0  0
  7  8  1  0  0  0
  7 27  1  0  0  0
  8 12  1  0  0  0
  8 13  2  0  0  0
  8 11  2  0  0  0
  9 10  1  0  0  0
  9 28  1  0  0  0
 10 14  2  0  0  0
 10 18  1  0  0  0
 12 19  1  0  0  0
 12 29  1  0  0  0
 12 30  1  0  0  0
 14 15  1  0  0  0
 14 31  1  0  0  0
 15 16  2  0  0  0
 15 32  1  0  0  0
 16 17  1  0  0  0
 16 33  1  0  0  0
 17 18  2  0  0  0
 17 34  1  0  0  0
 18 35  1  0  0  0
 19 20  1  0  0  0
 19 36  1  0  0  0
 19 37  1  0  0  0
 20 21  1  0  0  0
 20 22  1  0  0  0
 20 23  1  0  0  0
M  END
> <s_m_entry_id>
5661

> <s_m_entry_name>
dock_pv.652

> <s_m_Source_Path>
/home/csk/Desktop/cluster/DUD-E-result/pgh1

> <s_m_Source_File>
dock_pv.maegz

> <i_m_Source_File_Index>
652

> <chembl_id>
CHEMBL1079074

> <chembl_pref_name>
None

> <i_lp_mmshare_version>
53161

> <r_lp_tautomer_probability>
1

> <s_lp_Force_Field>
OPLS_2005

> <r_lp_Energy>
7.506765

> <b_lp_Chiralities_Consistent>
1

> <s_lp_Variant>
CHEMBL221_lig789-1

> <s_i_glide_gridfile>
glide-grid_2oyu

> <i_i_glide_lignum>
959

> <i_i_glide_rotatable_bonds>
7

> <r_i_docking_score>
-6.84629986009045

> <r_i_glide_ligand_efficiency>
-0.29766521130828

> <r_i_glide_ligand_efficiency_sa>
-0.846520264605404

> <r_i_glide_ligand_efficiency_ln>
-1.65549738498479

> <r_i_glide_gscore>
-6.84629986009045

> <r_i_glide_lipo>
-4.01499150237932

> <r_i_glide_hbond>
0

> <r_i_glide_metal>
0

> <r_i_glide_rewards>
-2.30599468337204

> <r_i_glide_evdw>
-21.1930999755859

> <r_i_glide_ecoul>
-2.54344320297241

> <r_i_glide_erotb>
0.955820538769137

> <r_i_glide_esite>
-0.0399627338830654

> <r_i_glide_emodel>
-22.6569035001437

> <r_i_glide_energy>
-23.7365431785583

> <r_i_glide_einternal>
11.2301301956177

> <i_i_glide_confnum>
17

> <i_i_glide_posenum>
12

> <r_i_glide_eff_state_penalty>
0

> <s_user_duplicate_titles>
CHEMBL221_lig789

> <i_f3d_flags>
0

> <s_m_subgroup_title>
dock_pv

> <s_m_subgroupid>
dock_pv

> <b_m_subgroup_collapsed>
1

$$$$
CHEMBL221_lig46
                    3D
 Schrodinger Suite 2021-1.
 38 39  0  0  1  0            999 V2000
   17.4848   47.8588   14.5622 C   0  0  0  0  0  0
   18.9217   47.3619   14.3407 C   0  0  1  0  0  0
   19.8527   48.5676   14.1953 C   0  0  0  0  0  0
   23.4954   52.1840   13.2819 C   0  0  1  0  0  0
   16.9232   47.8788   15.6538 O   0  0  0  0  0  0
   22.0166   52.2654   13.7137 C   0  0  0  0  0  0
   23.7526   51.6551   11.8473 C   0  0  2  0  0  0
   20.1324   49.0583   12.9160 C   0  0  0  0  0  0
   20.3454   49.2410   15.3189 C   0  0  0  0  0  0
   21.3230   50.9209   13.8832 C   0  0  0  0  0  0
   16.9228   48.2730   13.4000 O   0  0  0  0  0  0
   21.0707   50.4185   15.1625 C   0  0  0  0  0  0
   20.8690   50.2268   12.7603 C   0  0  0  0  0  0
   23.9738   50.2730   11.8000 O   0  0  0  0  0  0
   25.4208   53.3221   12.4538 C   0  0  0  0  0  0
   24.1579   53.5626   13.2470 C   0  0  0  0  0  0
   19.3471   46.3653   15.4359 C   0  0  0  0  0  0
   24.9255   52.4681   11.2811 C   0  0  0  0  0  0
   18.9379   46.8185   13.3932 H   0  0  0  0  0  0
   24.0191   51.5649   14.0104 H   0  0  0  0  0  0
   21.4489   52.8595   13.0000 H   0  0  0  0  0  0
   21.9453   52.8185   14.6521 H   0  0  0  0  0  0
   22.8777   51.8714   11.2319 H   0  0  0  0  0  0
   19.7471   48.5574   12.0396 H   0  0  0  0  0  0
   20.1235   48.8857   16.3139 H   0  0  0  0  0  0
   16.0256   48.5806   13.5423 H   0  0  0  0  0  0
   21.4080   50.9539   16.0376 H   0  0  0  0  0  0
   21.0454   50.6103   11.7667 H   0  0  0  0  0  0
   24.7747   50.1160   11.2890 H   0  0  0  0  0  0
   26.1198   52.7566   13.0703 H   0  0  0  0  0  0
   25.9296   54.2496   12.2000 H   0  0  0  0  0  0
   23.5028   54.2730   12.7559 H   0  0  0  0  0  0
   24.4023   53.9955   14.2000 H   0  0  0  0  0  0
   19.0046   46.6731   16.4238 H   0  0  0  0  0  0
   18.9228   45.3790   15.2437 H   0  0  0  0  0  0
   20.4289   46.2740   15.5009 H   0  0  0  0  0  0
   25.7393   51.8730   10.8728 H   0  0  0  0  0  0
   24.5328   53.0730   10.4657 H   0  0  0  0  0  0
  1  2  1  0  0  0
  1  5  2  0  0  0
  1 11  1  0  0  0
  2  3  1  0  0  0
  2 17  1  0  0  0
  2 19  1  0  0  0
  3  8  1  0  0  0
  3  9  2  0  0  0
  4  6  1  0  0  0
  4  7  1  0  0  0
  4 16  1  0  0  0
  4 20  1  0  0  0
  6 10  1  0  0  0
  6 21  1  0  0  0
  6 22  1  0  0  0
  7 14  1  0  0  0
  7 18  1  0  0  0
  7 23  1  0  0  0
  8 13  2  0  0  0
  8 24  1  0  0  0
  9 12  1  0  0  0
  9 25  1  0  0  0
 10 12  2  0  0  0
 10 13  1  0  0  0
 11 26  1  0  0  0
 12 27  1  0  0  0
 13 28  1  0  0  0
 14 29  1  0  0  0
 15 16  1  0  0  0
 15 18  1  0  0  0
 15 30  1  0  0  0
 15 31  1  0  0  0
 16 32  1  0  0  0
 16 33  1  0  0  0
 17 34  1  0  0  0
 17 35  1  0  0  0
 17 36  1  0  0  0
 18 37  1  0  0  0
 18 38  1  0  0  0
M  END
> <s_m_entry_id>
5662

> <s_m_entry_name>
dock_pv.653

> <s_m_Source_Path>
/home/csk/Desktop/cluster/DUD-E-result/pgh1

> <s_m_Source_File>
dock_pv.maegz

> <i_m_Source_File_Index>
653

> <chembl_id>
CHEMBL416542

> <chembl_pref_name>
None

> <i_lp_mmshare_version>
53161

> <r_lp_tautomer_probability>
1

> <s_lp_Force_Field>
OPLS_2005

> <r_lp_Energy>
26.224434

> <b_lp_Chiralities_Consistent>
1

> <s_lp_Variant>
CHEMBL221_lig46-4

> <s_i_glide_gridfile>
glide-grid_2oyu

> <i_i_glide_lignum>
56

> <i_i_glide_rotatable_bonds>
6

> <r_i_docking_score>
-6.84418233331348

> <r_i_glide_ligand_efficiency>
-0.380232351850749

> <r_i_glide_ligand_efficiency_sa>
-0.996490662952583

> <r_i_glide_ligand_efficiency_ln>
-1.75926177734096

> <r_i_glide_gscore>
-6.84418233331348

> <r_i_glide_lipo>
-3.38256446012799

> <r_i_glide_hbond>
-0.244024008615591

> <r_i_glide_metal>
0

> <r_i_glide_rewards>
-2.71044288923141

> <r_i_glide_evdw>
-26.8906555175781

> <r_i_glide_ecoul>
-1.97102355957031

> <r_i_glide_erotb>
1.13303533447597

> <r_i_glide_esite>
0

> <r_i_glide_emodel>
-33.8471168336961

> <r_i_glide_energy>
-28.8616790771484

> <r_i_glide_einternal>
3.32447814941406

> <i_i_glide_confnum>
16

> <i_i_glide_posenum>
388

> <r_i_glide_eff_state_penalty>
0

> <s_user_duplicate_titles>
CHEMBL221_lig46

> <i_f3d_flags>
0

> <s_m_subgroup_title>
dock_pv

> <s_m_subgroupid>
dock_pv

> <b_m_subgroup_collapsed>
1

$$$$
CHEMBL221_lig875
                    3D
 Schrodinger Suite 2021-1.
 42 44  0  0  1  0            999 V2000
   18.2561   48.2059   15.6396 C   0  0  0  0  0  0
   17.4925   47.6996   14.5898 C   0  0  0  0  0  0
   17.9049   47.8729   13.2650 C   0  0  0  0  0  0
   19.4442   48.9067   15.3920 C   0  0  0  0  0  0
   19.7783   49.1060   14.0950 C   0  0  0  0  0  0
   19.0784   48.5902   12.9999 C   0  0  0  0  0  0
   20.8137   49.8511   13.6584 N   0  0  0  0  0  0
   20.8895   49.7569   12.3290 C   0  0  0  0  0  0
   19.8582   48.9719   11.8585 C   0  0  0  0  0  0
   19.7528   48.6789   10.3981 C   0  0  0  0  0  0
   20.5204   49.8064    9.6597 C   0  0  0  0  0  0
   21.8638   49.9254   10.1913 O   0  0  0  0  0  0
   22.0393   50.3280   11.5546 C   0  0  2  0  0  0
   20.3845   49.4028   16.4306 C   0  0  0  0  0  0
   20.2698   50.8770   16.8626 C   0  0  0  0  0  0
   23.2795   49.6108   12.0634 C   0  0  0  0  0  0
   22.1779   51.8730   11.6495 C   0  0  0  0  0  0
   22.4564   52.5056   13.0450 C   0  0  0  0  0  0
   22.5230   53.8600   12.9999 O   0  0  0  0  0  0
   22.6333   51.8722   14.0820 O   0  0  0  0  0  0
   24.5453   50.2749   11.6014 C   0  0  0  0  0  0
   17.9284   48.0347   16.6552 H   0  0  0  0  0  0
   16.5820   47.1577   14.8029 H   0  0  0  0  0  0
   17.3232   47.4746   12.4539 H   0  0  0  0  0  0
   21.4834   50.3846   14.2007 H   0  0  0  0  0  0
   18.7061   48.6510   10.1626 H   0  0  0  0  0  0
   20.1231   47.6904   10.1334 H   0  0  0  0  0  0
   20.5231   49.5966    8.5902 H   0  0  0  0  0  0
   20.0000   50.7595    9.7713 H   0  0  0  0  0  0
   20.1239   48.6730   17.1203 H   0  0  0  0  0  0
   21.4166   49.1732   16.1646 H   0  0  0  0  0  0
   20.9948   51.1002   17.6446 H   0  0  0  0  0  0
   20.4950   51.5522   16.0357 H   0  0  0  0  0  0
   19.2838   51.1148   17.2603 H   0  0  0  0  0  0
   23.3196   49.6420   13.1433 H   0  0  0  0  0  0
   23.2424   48.5562   11.8001 H   0  0  0  0  0  0
   22.9866   52.2093   11.0028 H   0  0  0  0  0  0
   21.3230   52.2730   11.1591 H   0  0  0  0  0  0
   22.7366   54.2040   13.8717 H   0  0  0  0  0  0
   25.3315   49.5606   11.8001 H   0  0  0  0  0  0
   24.5228   50.5209   10.5388 H   0  0  0  0  0  0
   24.7714   51.1885   12.1492 H   0  0  0  0  0  0
  1  2  2  0  0  0
  1  4  1  0  0  0
  1 22  1  0  0  0
  2  3  1  0  0  0
  2 23  1  0  0  0
  3  6  2  0  0  0
  3 24  1  0  0  0
  4 14  1  0  0  0
  4  5  2  0  0  0
  5  6  1  0  0  0
  5  7  1  0  0  0
  6  9  1  0  0  0
  7  8  1  0  0  0
  7 25  1  0  0  0
  8 13  1  0  0  0
  8  9  2  0  0  0
  9 10  1  0  0  0
 10 11  1  0  0  0
 10 26  1  0  0  0
 10 27  1  0  0  0
 11 12  1  0  0  0
 11 28  1  0  0  0
 11 29  1  0  0  0
 12 13  1  0  0  0
 13 16  1  0  0  0
 13 17  1  0  0  0
 14 15  1  0  0  0
 14 30  1  0  0  0
 14 31  1  0  0  0
 15 32  1  0  0  0
 15 33  1  0  0  0
 15 34  1  0  0  0
 16 21  1  0  0  0
 16 35  1  0  0  0
 16 36  1  0  0  0
 17 18  1  0  0  0
 17 37  1  0  0  0
 17 38  1  0  0  0
 18 19  1  0  0  0
 18 20  2  0  0  0
 19 39  1  0  0  0
 21 40  1  0  0  0
 21 41  1  0  0  0
 21 42  1  0  0  0
M  END
> <s_m_entry_id>
5663

> <s_m_entry_name>
dock_pv.654

> <s_m_Source_Path>
/home/csk/Desktop/cluster/DUD-E-result/pgh1

> <s_m_Source_File>
dock_pv.maegz

> <i_m_Source_File_Index>
654

> <chembl_id>
CHEMBL622

> <chembl_pref_name>
ETODOLAC

> <i_lp_mmshare_version>
53161

> <r_lp_tautomer_probability>
1

> <s_lp_Force_Field>
OPLS_2005

> <r_lp_Energy>
13.556774

> <b_lp_Chiralities_Consistent>
1

> <s_lp_Variant>
CHEMBL221_lig875-2

> <s_i_glide_gridfile>
glide-grid_2oyu

> <i_i_glide_lignum>
1081

> <i_i_glide_rotatable_bonds>
5

> <r_i_docking_score>
-6.8418149737385

> <r_i_glide_ligand_efficiency>
-0.325800713035166

> <r_i_glide_ligand_efficiency_sa>
-0.898859462962729

> <r_i_glide_ligand_efficiency_ln>
-1.69162492706793

> <r_i_glide_gscore>
-6.8418149737385

> <r_i_glide_lipo>
-4.09020336788187

> <r_i_glide_hbond>
0

> <r_i_glide_metal>
0

> <r_i_glide_rewards>
-2.63430911916973

> <r_i_glide_evdw>
-6.04111814498901

> <r_i_glide_ecoul>
-1.70312559604645

> <r_i_glide_erotb>
0.440222259969528

> <r_i_glide_esite>
0

> <r_i_glide_emodel>
-26.2730786044278

> <r_i_glide_energy>
-7.74424374103546

> <r_i_glide_einternal>
6.30545520782471

> <i_i_glide_confnum>
3

> <i_i_glide_posenum>
272

> <r_i_glide_eff_state_penalty>
0

> <s_user_duplicate_titles>
CHEMBL221_lig875,26431

> <i_f3d_flags>
0

> <s_m_subgroup_title>
dock_pv

> <s_m_subgroupid>
dock_pv

> <b_m_subgroup_collapsed>
1

$$$$
CHEMBL221_lig782
                    3D
 Schrodinger Suite 2021-1.
 35 36  0  0  1  0            999 V2000
   19.3230   47.7104   11.6849 C   0  0  0  0  0  0
   19.5180   47.8730   10.3111 C   0  0  0  0  0  0
   20.1230   48.9569    9.7733 N   0  0  0  0  0  0
   20.5453   49.9106   10.6309 C   0  0  0  0  0  0
   20.4039   49.8135   12.0225 C   0  0  0  0  0  0
   19.7424   48.7026   12.5677 C   0  0  0  0  0  0
   19.5366   48.6102   13.9589 N   0  0  0  0  0  0
   18.5274   47.4135   14.7805 S   0  0  0  0  0  0
   20.9230   50.8043   12.8580 N   0  0  0  0  0  0
   22.1030   51.5208   12.7126 C   0  0  0  0  0  0
   23.1255   51.0758   11.8721 C   0  0  0  0  0  0
   24.3052   51.7890   11.8000 C   0  0  0  0  0  0
   24.4785   52.9137   12.5928 C   0  0  0  0  0  0
   23.4341   53.3845   13.4000 C   0  0  0  0  0  0
   22.2484   52.6749   13.4700 C   0  0  0  0  0  0
   18.9230   46.0800   14.3237 O   0  0  0  0  0  0
   16.8179   47.7983   14.1420 C   0  0  0  0  0  0
   18.5637   47.7652   16.2000 O   0  0  0  0  0  0
   25.7230   53.4730   12.5377 O   0  0  0  0  0  0
   25.9072   54.7275   13.1408 C   0  0  0  0  0  0
   18.8434   46.8197   12.0480 H   0  0  0  0  0  0
   19.1881   47.1169    9.6139 H   0  0  0  0  0  0
   21.0123   50.7715   10.1758 H   0  0  0  0  0  0
   19.8565   49.3810   14.5234 H   0  0  0  0  0  0
   20.3294   51.0927   13.6199 H   0  0  0  0  0  0
   23.0370   50.1660   11.3000 H   0  0  0  0  0  0
   25.1070   51.4478   11.1619 H   0  0  0  0  0  0
   23.5332   54.2702   14.0091 H   0  0  0  0  0  0
   21.4574   53.0205   14.1196 H   0  0  0  0  0  0
   16.1459   47.0057   14.4653 H   0  0  0  0  0  0
   16.5230   48.7394   14.5843 H   0  0  0  0  0  0
   16.8301   47.8730   13.0562 H   0  0  0  0  0  0
   26.9230   55.0730   13.0000 H   0  0  0  0  0  0
   25.7230   54.6730   14.2106 H   0  0  0  0  0  0
   25.2514   55.4730   12.6905 H   0  0  0  0  0  0
  1  6  1  0  0  0
  1  2  2  0  0  0
  1 21  1  0  0  0
  2  3  1  0  0  0
  2 22  1  0  0  0
  3  4  2  0  0  0
  4  5  1  0  0  0
  4 23  1  0  0  0
  5  6  2  0  0  0
  5  9  1  0  0  0
  6  7  1  0  0  0
  7  8  1  0  0  0
  7 24  1  0  0  0
  8 16  2  0  0  0
  8 17  1  0  0  0
  8 18  2  0  0  0
  9 10  1  0  0  0
  9 25  1  0  0  0
 10 11  2  0  0  0
 10 15  1  0  0  0
 11 12  1  0  0  0
 11 26  1  0  0  0
 12 13  2  0  0  0
 12 27  1  0  0  0
 13 14  1  0  0  0
 13 19  1  0  0  0
 14 15  2  0  0  0
 14 28  1  0  0  0
 15 29  1  0  0  0
 17 30  1  0  0  0
 17 31  1  0  0  0
 17 32  1  0  0  0
 19 20  1  0  0  0
 20 33  1  0  0  0
 20 34  1  0  0  0
 20 35  1  0  0  0
M  END
> <s_m_entry_id>
5664

> <s_m_entry_name>
dock_pv.655

> <s_m_Source_Path>
/home/csk/Desktop/cluster/DUD-E-result/pgh1

> <s_m_Source_File>
dock_pv.maegz

> <i_m_Source_File_Index>
655

> <chembl_id>
CHEMBL1078683

> <chembl_pref_name>
None

> <i_lp_mmshare_version>
53161

> <r_lp_tautomer_probability>
1

> <s_lp_Force_Field>
OPLS_2005

> <r_lp_Energy>
11.649574

> <b_lp_Chiralities_Consistent>
1

> <s_lp_Variant>
CHEMBL221_lig782-1

> <s_i_glide_gridfile>
glide-grid_2oyu

> <i_i_glide_lignum>
952

> <i_i_glide_rotatable_bonds>
5

> <r_i_docking_score>
-6.83976123776392

> <r_i_glide_ligand_efficiency>
-0.341988061888196

> <r_i_glide_ligand_efficiency_sa>
-0.92829841892749

> <r_i_glide_ligand_efficiency_ln>
-1.71176664738859

> <r_i_glide_gscore>
-6.83976123776392

> <r_i_glide_lipo>
-3.49598565300086

> <r_i_glide_hbond>
0

> <r_i_glide_metal>
0

> <r_i_glide_rewards>
-1.73237041384685

> <r_i_glide_evdw>
-33.4909019470215

> <r_i_glide_ecoul>
-3.74940347671509

> <r_i_glide_erotb>
0.63700299816874

> <r_i_glide_esite>
-0.0114525502266113

> <r_i_glide_emodel>
-47.7644068284286

> <r_i_glide_energy>
-37.2403054237366

> <r_i_glide_einternal>
5.89822149276733

> <i_i_glide_confnum>
6

> <i_i_glide_posenum>
400

> <r_i_glide_eff_state_penalty>
0

> <s_user_duplicate_titles>
CHEMBL221_lig782,617010

> <i_f3d_flags>
0

> <s_m_subgroup_title>
dock_pv

> <s_m_subgroupid>
dock_pv

> <b_m_subgroup_collapsed>
1

$$$$
CHEMBL221_lig823
                    3D
 Schrodinger Suite 2021-1.
 27 28  0  0  1  0            999 V2000
   23.1285   51.9107   12.7753 C   0  0  0  0  0  0
   22.6338   51.6392   11.4959 C   0  0  0  0  0  0
   21.4391   50.9362   11.3496 C   0  0  0  0  0  0
   22.4742   51.3848   13.8981 C   0  0  0  0  0  0
   21.3197   50.6056   13.7505 C   0  0  0  0  0  0
   20.7851   50.4464   12.4714 C   0  0  0  0  0  0
   19.5664   49.8270   12.2826 O   0  0  0  0  0  0
   19.2744   48.6959   13.1213 C   0  0  2  0  0  0
   19.7472   48.9080   14.5666 C   0  0  0  0  0  0
   20.6776   49.8513   14.8440 C   0  0  0  0  0  0
   19.1000   48.0980   15.5658 C   0  0  0  0  0  0
   18.0973   48.7535   16.1999 O   0  0  0  0  0  0
   19.3278   46.9061   15.7386 O   0  0  0  0  0  0
   19.8331   47.4216   12.4698 C   0  0  0  0  0  0
   19.5594   47.4729   11.1656 F   0  0  0  0  0  0
   21.1433   47.2971   12.5981 F   0  0  0  0  0  0
   19.3220   46.3131   12.9998 F   0  0  0  0  0  0
   24.3796   52.7570   12.9321 C   0  0  0  0  0  0
   20.7514   50.6729    9.7970 Cl  0  0  0  0  0  0
   23.1488   52.0051   10.6166 H   0  0  0  0  0  0
   22.8838   51.5584   14.8800 H   0  0  0  0  0  0
   18.1844   48.6233   13.1067 H   0  0  0  0  0  0
   20.9874   50.0268   15.8656 H   0  0  0  0  0  0
   17.6438   48.1582   16.7991 H   0  0  0  0  0  0
   24.8452   52.6249   13.9079 H   0  0  0  0  0  0
   25.1218   52.4878   12.1795 H   0  0  0  0  0  0
   24.1402   53.8125   12.8028 H   0  0  0  0  0  0
  1  2  2  0  0  0
  1  4  1  0  0  0
  1 18  1  0  0  0
  2  3  1  0  0  0
  2 20  1  0  0  0
  3  6  2  0  0  0
  3 19  1  0  0  0
  4  5  2  0  0  0
  4 21  1  0  0  0
  5  6  1  0  0  0
  5 10  1  0  0  0
  6  7  1  0  0  0
  7  8  1  0  0  0
  8  9  1  0  0  0
  8 14  1  0  0  0
  8 22  1  0  0  0
  9 10  2  0  0  0
  9 11  1  0  0  0
 10 23  1  0  0  0
 11 12  1  0  0  0
 11 13  2  0  0  0
 12 24  1  0  0  0
 14 15  1  0  0  0
 14 16  1  0  0  0
 14 17  1  0  0  0
 18 25  1  0  0  0
 18 26  1  0  0  0
 18 27  1  0  0  0
M  END
> <s_m_entry_id>
5665

> <s_m_entry_name>
dock_pv.656

> <s_m_Source_Path>
/home/csk/Desktop/cluster/DUD-E-result/pgh1

> <s_m_Source_File>
dock_pv.maegz

> <i_m_Source_File_Index>
656

> <chembl_id>
CHEMBL1288566

> <chembl_pref_name>
None

> <i_lp_mmshare_version>
53161

> <r_lp_tautomer_probability>
1

> <s_lp_Force_Field>
OPLS_2005

> <r_lp_Energy>
13.272536

> <b_lp_Chiralities_Consistent>
1

> <s_lp_Variant>
CHEMBL221_lig823-1

> <s_i_glide_gridfile>
glide-grid_2oyu

> <i_i_glide_lignum>
1000

> <i_i_glide_rotatable_bonds>
3

> <r_i_docking_score>
-6.83516775238584

> <r_i_glide_ligand_efficiency>
-0.359745671178202

> <r_i_glide_ligand_efficiency_sa>
-0.959945941150329

> <r_i_glide_ligand_efficiency_ln>
-1.73286183117232

> <r_i_glide_gscore>
-6.83516775238584

> <r_i_glide_lipo>
-3.31453910685428

> <r_i_glide_hbond>
0

> <r_i_glide_metal>
0

> <r_i_glide_rewards>
-2.46739543693727

> <r_i_glide_evdw>
-22.6304168701172

> <r_i_glide_ecoul>
-0.444360762834549

> <r_i_glide_erotb>
0.213227374973688

> <r_i_glide_esite>
-0.068285625636933

> <r_i_glide_emodel>
-26.4185565405594

> <r_i_glide_energy>
-23.0747776329517

> <r_i_glide_einternal>
3.85096955299377

> <i_i_glide_confnum>
2

> <i_i_glide_posenum>
42

> <r_i_glide_eff_state_penalty>
0

> <s_user_duplicate_titles>
CHEMBL221_lig823

> <i_f3d_flags>
0

> <s_m_subgroup_title>
dock_pv

> <s_m_subgroupid>
dock_pv

> <b_m_subgroup_collapsed>
1

$$$$
CHEMBL221_lig624
                    3D
 Schrodinger Suite 2021-1.
 30 31  0  0  1  0            999 V2000
   19.4289   48.0374   11.5201 C   0  0  0  0  0  0
   19.5915   48.2707   10.1569 C   0  0  0  0  0  0
   20.1535   49.3988    9.6679 N   0  0  0  0  0  0
   20.6450   50.2906   10.5592 C   0  0  0  0  0  0
   20.6298   50.0855   11.9469 C   0  0  0  0  0  0
   19.9429   48.9646   12.4366 C   0  0  0  0  0  0
   19.7813   48.8222   13.8243 N   0  0  0  0  0  0
   18.3362   48.1097   14.5756 S   0  0  0  0  0  0
   18.7887   46.2797   14.7375 C   0  0  0  0  0  0
   17.2272   48.2711   13.6296 O   0  0  0  0  0  0
   18.2493   48.6728   15.9263 O   0  0  0  0  0  0
   21.2056   50.9693   12.8386 O   0  0  0  0  0  0
   22.4153   51.5991   12.6014 C   0  0  0  0  0  0
   23.3431   51.1615   11.6419 C   0  0  0  0  0  0
   24.5235   51.8645   11.4267 C   0  0  0  0  0  0
   24.8365   52.9637   12.2206 C   0  0  0  0  0  0
   23.9393   53.3980   13.1885 C   0  0  0  0  0  0
   22.7365   52.7200   13.3782 C   0  0  0  0  0  0
   21.6611   53.2809   14.6010 Cl  0  0  0  0  0  0
   17.6794   45.5914   15.0003 F   0  0  0  0  0  0
   19.6806   46.1648   15.7233 F   0  0  0  0  0  0
   19.3224   45.8643   13.5944 F   0  0  0  0  0  0
   18.8851   47.1591   11.8210 H   0  0  0  0  0  0
   19.1969   47.5776    9.4277 H   0  0  0  0  0  0
   21.0823   51.1820   10.1375 H   0  0  0  0  0  0
   20.2891   49.4772   14.4000 H   0  0  0  0  0  0
   23.1654   50.2765   11.0514 H   0  0  0  0  0  0
   25.2222   51.5287   10.6749 H   0  0  0  0  0  0
   25.7788   53.4737   12.0926 H   0  0  0  0  0  0
   24.1766   54.2583   13.7991 H   0  0  0  0  0  0
  1  6  1  0  0  0
  1  2  2  0  0  0
  1 23  1  0  0  0
  2  3  1  0  0  0
  2 24  1  0  0  0
  3  4  2  0  0  0
  4  5  1  0  0  0
  4 25  1  0  0  0
  5  6  2  0  0  0
  5 12  1  0  0  0
  6  7  1  0  0  0
  7  8  1  0  0  0
  7 26  1  0  0  0
  8 11  2  0  0  0
  8  9  1  0  0  0
  8 10  2  0  0  0
  9 20  1  0  0  0
  9 21  1  0  0  0
  9 22  1  0  0  0
 12 13  1  0  0  0
 13 14  2  0  0  0
 13 18  1  0  0  0
 14 15  1  0  0  0
 14 27  1  0  0  0
 15 16  2  0  0  0
 15 28  1  0  0  0
 16 17  1  0  0  0
 16 29  1  0  0  0
 17 18  2  0  0  0
 17 30  1  0  0  0
 18 19  1  0  0  0
M  END
> <s_m_entry_id>
5666

> <s_m_entry_name>
dock_pv.657

> <s_m_Source_Path>
/home/csk/Desktop/cluster/DUD-E-result/pgh1

> <s_m_Source_File>
dock_pv.maegz

> <i_m_Source_File_Index>
657

> <chembl_id>
CHEMBL224640

> <chembl_pref_name>
None

> <i_lp_mmshare_version>
53161

> <r_lp_tautomer_probability>
1

> <s_lp_Force_Field>
OPLS_2005

> <r_lp_Energy>
8.996113

> <b_lp_Chiralities_Consistent>
1

> <s_lp_Variant>
CHEMBL221_lig624-1

> <s_i_glide_gridfile>
glide-grid_2oyu

> <i_i_glide_lignum>
763

> <i_i_glide_rotatable_bonds>
5

> <r_i_docking_score>
-6.83255723296047

> <r_i_glide_ligand_efficiency>
-0.310570783316385

> <r_i_glide_ligand_efficiency_sa>
-0.870231548908321

> <r_i_glide_ligand_efficiency_ln>
-1.67012621131606

> <r_i_glide_gscore>
-6.83255723296047

> <r_i_glide_lipo>
-3.63386923080891

> <r_i_glide_hbond>
0

> <r_i_glide_metal>
0

> <r_i_glide_rewards>
-1.62140791329093

> <r_i_glide_evdw>
-36.230541229248

> <r_i_glide_ecoul>
-1.88946759700775

> <r_i_glide_erotb>
0.613722352265177

> <r_i_glide_esite>
-0.0960552401122401

> <r_i_glide_emodel>
-50.7796930349696

> <r_i_glide_energy>
-38.1200088262558

> <r_i_glide_einternal>
5.04413080215454

> <i_i_glide_confnum>
6

> <i_i_glide_posenum>
151

> <r_i_glide_eff_state_penalty>
0

> <s_user_duplicate_titles>
CHEMBL221_lig624,374303

> <i_f3d_flags>
0

> <s_m_subgroup_title>
dock_pv

> <s_m_subgroupid>
dock_pv

> <b_m_subgroup_collapsed>
1

$$$$
CHEMBL221_lig50
                    3D
 Schrodinger Suite 2021-1.
 36 37  0  0  1  0            999 V2000
   24.3144   52.0740   11.9301 C   0  0  0  0  0  0
   18.2582   46.2809   14.9166 C   0  0  0  0  0  0
   22.8472   52.4381   12.1859 C   0  0  1  0  0  0
   19.2581   47.4299   14.9529 C   0  0  1  0  0  0
   21.9508   51.2560   12.5553 C   0  0  0  0  0  0
   24.4532   51.0741   11.0134 O   0  0  0  0  0  0
   25.2530   52.6733   12.4443 O   0  0  0  0  0  0
   19.3171   47.9779   13.4943 C   0  0  0  0  0  0
   18.5228   45.1044   14.6820 O   0  0  0  0  0  0
   21.2714   50.5647   11.5467 C   0  0  0  0  0  0
   21.7834   50.8716   13.8852 C   0  0  0  0  0  0
   20.2541   49.1371   13.2037 C   0  0  0  0  0  0
   20.4224   49.5153   11.8711 C   0  0  0  0  0  0
   20.9384   49.8208   14.2099 C   0  0  0  0  0  0
   16.8640   46.8792   15.1394 C   0  0  0  0  0  0
   17.1265   48.2733   15.7215 C   0  0  0  0  0  0
   18.6060   48.3132   16.0226 C   0  0  0  0  0  0
   22.6728   53.6652   13.1362 C   0  0  0  0  0  0
   22.5338   52.6730   11.1784 H   0  0  0  0  0  0
   20.2402   47.0792   15.2687 H   0  0  0  0  0  0
   25.3751   50.8470   10.8279 H   0  0  0  0  0  0
   18.3276   48.2913   13.1526 H   0  0  0  0  0  0
   19.6180   47.1689   12.8233 H   0  0  0  0  0  0
   21.3906   50.8438   10.5097 H   0  0  0  0  0  0
   22.3178   51.3685   14.6794 H   0  0  0  0  0  0
   19.8980   48.9946   11.0828 H   0  0  0  0  0  0
   20.8765   49.5314   15.2444 H   0  0  0  0  0  0
   16.3201   46.9469   14.1998 H   0  0  0  0  0  0
   16.2660   46.2580   15.8001 H   0  0  0  0  0  0
   16.9228   49.0635   14.9961 H   0  0  0  0  0  0
   16.5231   48.4690   16.6088 H   0  0  0  0  0  0
   18.7870   47.8722   16.9999 H   0  0  0  0  0  0
   18.9757   49.3339   16.0729 H   0  0  0  0  0  0
   22.7616   53.3963   14.1870 H   0  0  0  0  0  0
   23.4215   54.4449   13.0001 H   0  0  0  0  0  0
   21.6984   54.1315   13.0099 H   0  0  0  0  0  0
  1  3  1  0  0  0
  1  6  1  0  0  0
  1  7  2  0  0  0
  2  4  1  0  0  0
  2  9  2  0  0  0
  2 15  1  0  0  0
  3  5  1  0  0  0
  3 18  1  0  0  0
  3 19  1  0  0  0
  4  8  1  0  0  0
  4 17  1  0  0  0
  4 20  1  0  0  0
  5 10  2  0  0  0
  5 11  1  0  0  0
  6 21  1  0  0  0
  8 12  1  0  0  0
  8 22  1  0  0  0
  8 23  1  0  0  0
 10 13  1  0  0  0
 10 24  1  0  0  0
 11 14  2  0  0  0
 11 25  1  0  0  0
 12 14  1  0  0  0
 12 13  2  0  0  0
 13 26  1  0  0  0
 14 27  1  0  0  0
 15 16  1  0  0  0
 15 28  1  0  0  0
 15 29  1  0  0  0
 16 17  1  0  0  0
 16 30  1  0  0  0
 16 31  1  0  0  0
 17 32  1  0  0  0
 17 33  1  0  0  0
 18 34  1  0  0  0
 18 35  1  0  0  0
 18 36  1  0  0  0
M  END
> <s_m_entry_id>
5667

> <s_m_entry_name>
dock_pv.658

> <s_m_Source_Path>
/home/csk/Desktop/cluster/DUD-E-result/pgh1

> <s_m_Source_File>
dock_pv.maegz

> <i_m_Source_File_Index>
658

> <chembl_id>
CHEMBL19299

> <chembl_pref_name>
LOXOPROFEN

> <i_lp_mmshare_version>
53161

> <r_lp_tautomer_probability>
0.99999998

> <s_lp_Force_Field>
OPLS_2005

> <r_lp_Energy>
19.288248

> <b_lp_Chiralities_Consistent>
1

> <s_lp_Variant>
CHEMBL221_lig50-4

> <s_i_glide_gridfile>
glide-grid_2oyu

> <i_i_glide_lignum>
67

> <i_i_glide_rotatable_bonds>
5

> <r_i_docking_score>
-6.83208396122343

> <r_i_glide_ligand_efficiency>
-0.379560220067968

> <r_i_glide_ligand_efficiency_sa>
-0.994729179368783

> <r_i_glide_ligand_efficiency_ln>
-1.75615195317943

> <r_i_glide_gscore>
-6.83208396122343

> <r_i_glide_lipo>
-3.30350095685647

> <r_i_glide_hbond>
0

> <r_i_glide_metal>
0

> <r_i_glide_rewards>
-2.91288959880824

> <r_i_glide_evdw>
-22.5970897674561

> <r_i_glide_ecoul>
-4.23198175430298

> <r_i_glide_erotb>
1.14895834595953

> <r_i_glide_esite>
0

> <r_i_glide_emodel>
-32.2268656703228

> <r_i_glide_energy>
-26.829071521759

> <r_i_glide_einternal>
6.72535753250122

> <i_i_glide_confnum>
72

> <i_i_glide_posenum>
234

> <r_i_glide_eff_state_penalty>
0

> <s_user_duplicate_titles>
CHEMBL221_lig50

> <i_f3d_flags>
0

> <s_m_subgroup_title>
dock_pv

> <s_m_subgroupid>
dock_pv

> <b_m_subgroup_collapsed>
1

$$$$
CHEMBL221_lig41
                    3D
 Schrodinger Suite 2021-1.
 37 39  0  0  1  0            999 V2000
   20.1121   48.6732   11.6774 C   0  0  0  0  0  0
   20.7257   49.3762   12.6744 C   0  0  0  0  0  0
   20.1156   48.7072   13.6982 C   0  0  0  0  0  0
   19.1951   48.8872    5.7257 S   0  0  0  0  0  0
   19.3298   47.8884   12.7036 C   0  0  0  0  0  0
   19.9954   48.6874   10.2098 C   0  0  0  0  0  0
   19.6083   48.7215    7.4408 C   0  0  0  0  0  0
   17.9116   48.2730    5.4000 O   0  0  0  0  0  0
   19.4384   50.2730    5.4000 O   0  0  0  0  0  0
   21.7175   50.4751   12.7187 C   0  0  0  0  0  0
   20.1153   48.6730   15.0415 C   0  0  0  0  0  0
   20.3077   49.8288    9.4809 C   0  0  0  0  0  0
   19.5425   47.5559    9.5299 C   0  0  0  0  0  0
   19.3230   47.5640    8.1573 C   0  0  0  0  0  0
   20.1230   49.8387    8.1033 C   0  0  0  0  0  0
   20.5230   47.8730    5.0000 C   0  0  0  0  0  0
   22.6631   50.6148   11.6959 C   0  0  0  0  0  0
   21.7222   51.3905   13.7771 C   0  0  0  0  0  0
   22.6300   52.4434   13.7953 C   0  0  0  0  0  0
   23.5914   51.6524   11.7237 C   0  0  0  0  0  0
   23.5663   52.5681   12.7722 C   0  0  0  0  0  0
   19.4990   46.8111   12.7147 H   0  0  0  0  0  0
   18.2493   48.0430   12.6957 H   0  0  0  0  0  0
   19.4757   47.9880   15.5782 H   0  0  0  0  0  0
   20.7505   49.3227   15.6247 H   0  0  0  0  0  0
   20.6330   50.7334    9.9721 H   0  0  0  0  0  0
   19.3230   46.6730   10.0866 H   0  0  0  0  0  0
   18.8779   46.7080    7.6770 H   0  0  0  0  0  0
   20.2928   50.7644    7.5716 H   0  0  0  0  0  0
   20.2996   47.4730    4.0268 H   0  0  0  0  0  0
   21.4511   48.4400    5.0000 H   0  0  0  0  0  0
   20.5230   46.9933    5.6334 H   0  0  0  0  0  0
   22.6939   49.9071   10.8811 H   0  0  0  0  0  0
   20.9934   51.3208   14.5705 H   0  0  0  0  0  0
   22.6004   53.1632   14.5999 H   0  0  0  0  0  0
   24.3227   51.7471   10.9336 H   0  0  0  0  0  0
   24.2756   53.3828   12.7925 H   0  0  0  0  0  0
  1  2  2  0  0  0
  1  5  1  0  0  0
  1  6  1  0  0  0
  2 10  1  0  0  0
  2  3  1  0  0  0
  3  5  1  0  0  0
  3 11  2  0  0  0
  4  7  1  0  0  0
  4  8  2  0  0  0
  4  9  2  0  0  0
  4 16  1  0  0  0
  5 22  1  0  0  0
  5 23  1  0  0  0
  6 12  2  0  0  0
  6 13  1  0  0  0
  7 14  1  0  0  0
  7 15  2  0  0  0
 10 17  1  0  0  0
 10 18  2  0  0  0
 11 24  1  0  0  0
 11 25  1  0  0  0
 12 15  1  0  0  0
 12 26  1  0  0  0
 13 14  2  0  0  0
 13 27  1  0  0  0
 14 28  1  0  0  0
 15 29  1  0  0  0
 16 30  1  0  0  0
 16 31  1  0  0  0
 16 32  1  0  0  0
 17 20  2  0  0  0
 17 33  1  0  0  0
 18 19  1  0  0  0
 18 34  1  0  0  0
 19 21  2  0  0  0
 19 35  1  0  0  0
 20 21  1  0  0  0
 20 36  1  0  0  0
 21 37  1  0  0  0
M  END
> <s_m_entry_id>
5668

> <s_m_entry_name>
dock_pv.659

> <s_m_Source_Path>
/home/csk/Desktop/cluster/DUD-E-result/pgh1

> <s_m_Source_File>
dock_pv.maegz

> <i_m_Source_File_Index>
659

> <chembl_id>
CHEMBL91118

> <chembl_pref_name>
None

> <i_lp_mmshare_version>
53161

> <r_lp_tautomer_probability>
1

> <s_lp_Force_Field>
OPLS_2005

> <r_lp_Energy>
20.936915

> <b_lp_Chiralities_Consistent>
1

> <s_lp_Variant>
CHEMBL221_lig41-1

> <s_i_glide_gridfile>
glide-grid_2oyu

> <i_i_glide_lignum>
48

> <i_i_glide_rotatable_bonds>
3

> <r_i_docking_score>
-6.83131392957718

> <r_i_glide_ligand_efficiency>
-0.325300663313199

> <r_i_glide_ligand_efficiency_sa>
-0.897479863696801

> <r_i_glide_ligand_efficiency_ln>
-1.6890285651184

> <r_i_glide_gscore>
-6.83131392957718

> <r_i_glide_lipo>
-4.59738486373661

> <r_i_glide_hbond>
0

> <r_i_glide_metal>
0

> <r_i_glide_rewards>
-2.2690903916653

> <r_i_glide_evdw>
-6.65176725387573

> <r_i_glide_ecoul>
0.337767720222473

> <r_i_glide_erotb>
0.417084530485146

> <r_i_glide_esite>
-0.1

> <r_i_glide_emodel>
-14.7882128653125

> <r_i_glide_energy>
-6.31399953365326

> <r_i_glide_einternal>
4.75120878219604

> <i_i_glide_confnum>
2

> <i_i_glide_posenum>
120

> <r_i_glide_eff_state_penalty>
0

> <s_user_duplicate_titles>
CHEMBL221_lig41,145922

> <i_f3d_flags>
0

> <s_m_subgroup_title>
dock_pv

> <s_m_subgroupid>
dock_pv

> <b_m_subgroup_collapsed>
1

$$$$
CHEMBL221_lig50
                    3D
 Schrodinger Suite 2021-1.
 36 37  0  0  1  0            999 V2000
   18.9194   46.8211   14.7707 C   0  0  0  0  0  0
   23.1249   53.3197   13.3313 C   0  0  0  0  0  0
   18.4948   47.7276   13.5954 C   0  0  2  0  0  0
   23.5541   52.0669   12.5338 C   0  0  1  0  0  0
   19.5690   48.7098   13.1173 C   0  0  0  0  0  0
   17.9983   45.8487   15.0002 O   0  0  0  0  0  0
   19.9681   46.9264   15.3983 O   0  0  0  0  0  0
   22.4849   51.4844   11.5765 C   0  0  0  0  0  0
   22.0106   53.5481   13.7986 O   0  0  0  0  0  0
   19.7392   48.8870   11.7421 C   0  0  0  0  0  0
   20.3333   49.4728   14.0096 C   0  0  0  0  0  0
   21.4622   50.5233   12.1588 C   0  0  0  0  0  0
   20.6785   49.7915   11.2657 C   0  0  0  0  0  0
   21.2868   50.3634   13.5348 C   0  0  0  0  0  0
   24.3427   54.2588   13.4168 C   0  0  0  0  0  0
   25.4679   53.5088   12.7085 C   0  0  0  0  0  0
   24.7579   52.5626   11.7523 C   0  0  0  0  0  0
   17.1505   48.4307   13.8615 C   0  0  0  0  0  0
   18.3283   47.0571   12.7568 H   0  0  0  0  0  0
   23.8806   51.3010   13.2376 H   0  0  0  0  0  0
   17.2008   45.9859   14.4889 H   0  0  0  0  0  0
   23.0050   50.9280   10.7931 H   0  0  0  0  0  0
   21.9514   52.2730   11.0570 H   0  0  0  0  0  0
   19.1460   48.3244   11.0353 H   0  0  0  0  0  0
   20.1905   49.3892   15.0767 H   0  0  0  0  0  0
   20.8006   49.9174   10.1994 H   0  0  0  0  0  0
   21.8637   50.9304   14.2485 H   0  0  0  0  0  0
   24.1278   55.2218   12.9675 H   0  0  0  0  0  0
   24.6258   54.5190   14.4307 H   0  0  0  0  0  0
   26.1339   54.2010   12.2002 H   0  0  0  0  0  0
   26.0687   52.9574   13.4338 H   0  0  0  0  0  0
   25.3407   51.7170   11.4037 H   0  0  0  0  0  0
   24.4358   53.0707   10.8438 H   0  0  0  0  0  0
   17.2051   49.0708   14.7426 H   0  0  0  0  0  0
   16.8537   49.0435   13.0077 H   0  0  0  0  0  0
   16.3403   47.7216   14.0245 H   0  0  0  0  0  0
  1  3  1  0  0  0
  1  6  1  0  0  0
  1  7  2  0  0  0
  2  4  1  0  0  0
  2  9  2  0  0  0
  2 15  1  0  0  0
  3  5  1  0  0  0
  3 18  1  0  0  0
  3 19  1  0  0  0
  4  8  1  0  0  0
  4 17  1  0  0  0
  4 20  1  0  0  0
  5 10  2  0  0  0
  5 11  1  0  0  0
  6 21  1  0  0  0
  8 12  1  0  0  0
  8 22  1  0  0  0
  8 23  1  0  0  0
 10 13  1  0  0  0
 10 24  1  0  0  0
 11 14  2  0  0  0
 11 25  1  0  0  0
 12 14  1  0  0  0
 12 13  2  0  0  0
 13 26  1  0  0  0
 14 27  1  0  0  0
 15 16  1  0  0  0
 15 28  1  0  0  0
 15 29  1  0  0  0
 16 17  1  0  0  0
 16 30  1  0  0  0
 16 31  1  0  0  0
 17 32  1  0  0  0
 17 33  1  0  0  0
 18 34  1  0  0  0
 18 35  1  0  0  0
 18 36  1  0  0  0
M  END
> <s_m_entry_id>
5669

> <s_m_entry_name>
dock_pv.660

> <s_m_Source_Path>
/home/csk/Desktop/cluster/DUD-E-result/pgh1

> <s_m_Source_File>
dock_pv.maegz

> <i_m_Source_File_Index>
660

> <chembl_id>
CHEMBL19299

> <chembl_pref_name>
LOXOPROFEN

> <i_lp_mmshare_version>
53161

> <r_lp_tautomer_probability>
0.99999998

> <s_lp_Force_Field>
OPLS_2005

> <r_lp_Energy>
18.968648

> <b_lp_Chiralities_Consistent>
1

> <s_lp_Variant>
CHEMBL221_lig50-3

> <s_i_glide_gridfile>
glide-grid_2oyu

> <i_i_glide_lignum>
66

> <i_i_glide_rotatable_bonds>
5

> <r_i_docking_score>
-6.83039421085912

> <r_i_glide_ligand_efficiency>
-0.379466345047729

> <r_i_glide_ligand_efficiency_sa>
-0.994483157217597

> <r_i_glide_ligand_efficiency_ln>
-1.75571761156133

> <r_i_glide_gscore>
-6.83039421085912

> <r_i_glide_lipo>
-3.5802117098248

> <r_i_glide_hbond>
0

> <r_i_glide_metal>
0

> <r_i_glide_rewards>
-2.90978557493917

> <r_i_glide_evdw>
-27.2676811218262

> <r_i_glide_ecoul>
-0.839808106422424

> <r_i_glide_erotb>
1.14895834595953

> <r_i_glide_esite>
0

> <r_i_glide_emodel>
-39.0946753539866

> <r_i_glide_energy>
-28.1074892282486

> <r_i_glide_einternal>
4.02883720397949

> <i_i_glide_confnum>
17

> <i_i_glide_posenum>
9

> <r_i_glide_eff_state_penalty>
0

> <s_user_duplicate_titles>
CHEMBL221_lig50

> <i_f3d_flags>
0

> <s_m_subgroup_title>
dock_pv

> <s_m_subgroupid>
dock_pv

> <b_m_subgroup_collapsed>
1

$$$$
CHEMBL221_lig572
                    3D
 Schrodinger Suite 2021-1.
 37 39  0  0  1  0            999 V2000
   21.3332   49.8923   12.3718 C   0  0  0  0  0  0
   20.4232   49.2377   11.5347 N   0  0  0  0  0  0
   19.5093   48.5787   12.2287 N   0  0  0  0  0  0
   20.8928   49.5728   13.6391 C   0  0  0  0  0  0
   19.7657   48.7849   13.4836 C   0  0  0  0  0  0
   22.5826   50.6799   12.0337 C   0  0  0  0  0  0
   18.7377   48.9459    5.4320 N   0  3  0  0  0  0
   17.7230   48.6730    5.0000 N   0  5  0  0  0  0
   20.2195   49.1781   10.1399 C   0  0  0  0  0  0
   19.8298   49.0690    5.9716 N   0  0  0  0  0  0
   18.8481   48.2730   14.4991 C   0  0  0  0  0  0
   22.9359   51.4606   13.0556 F   0  0  0  0  0  0
   23.6064   49.8730   11.8000 F   0  0  0  0  0  0
   22.4290   51.4800   11.0000 F   0  0  0  0  0  0
   19.8412   47.9789    9.5033 C   0  0  0  0  0  0
   20.2788   50.3425    9.4000 C   0  0  0  0  0  0
   17.8404   47.3889   14.1466 C   0  0  0  0  0  0
   18.8864   48.7993   15.7729 C   0  0  0  0  0  0
   19.8951   49.0741    7.3555 C   0  0  0  0  0  0
   20.1230   50.2731    8.0192 C   0  0  0  0  0  0
   19.7230   47.9214    8.1187 C   0  0  0  0  0  0
   17.8174   48.5551   16.6000 C   0  0  0  0  0  0
   16.9230   46.9482   15.0806 C   0  0  0  0  0  0
   16.9230   47.5489   16.3303 C   0  0  0  0  0  0
   15.9814   47.1176   17.4388 C   0  0  0  0  0  0
   21.3363   49.8949   14.5697 H   0  0  0  0  0  0
   19.7172   47.0730   10.0768 H   0  0  0  0  0  0
   20.4459   51.2990    9.8674 H   0  0  0  0  0  0
   17.7660   47.0730   13.1238 H   0  0  0  0  0  0
   19.6266   49.5292   16.0631 H   0  0  0  0  0  0
   20.1799   51.1853    7.4423 H   0  0  0  0  0  0
   19.4954   46.9898    7.6336 H   0  0  0  0  0  0
   17.7212   49.1178   17.5031 H   0  0  0  0  0  0
   16.1800   46.2083   14.8209 H   0  0  0  0  0  0
   15.3368   46.2730   17.1688 H   0  0  0  0  0  0
   15.3553   47.9398   17.7970 H   0  0  0  0  0  0
   16.5230   46.8216   18.3327 H   0  0  0  0  0  0
  1  2  1  0  0  0
  1  4  2  0  0  0
  1  6  1  0  0  0
  2  3  1  0  0  0
  2  9  1  0  0  0
  3  5  2  0  0  0
  4  5  1  0  0  0
  4 26  1  0  0  0
  5 11  1  0  0  0
  6 12  1  0  0  0
  6 13  1  0  0  0
  6 14  1  0  0  0
  7 10  2  0  0  0
  7  8  2  0  0  0
  9 15  1  0  0  0
  9 16  2  0  0  0
 10 19  1  0  0  0
 11 17  1  0  0  0
 11 18  2  0  0  0
 15 21  2  0  0  0
 15 27  1  0  0  0
 16 20  1  0  0  0
 16 28  1  0  0  0
 17 23  2  0  0  0
 17 29  1  0  0  0
 18 22  1  0  0  0
 18 30  1  0  0  0
 19 20  2  0  0  0
 19 21  1  0  0  0
 20 31  1  0  0  0
 21 32  1  0  0  0
 22 24  2  0  0  0
 22 33  1  0  0  0
 23 24  1  0  0  0
 23 34  1  0  0  0
 24 25  1  0  0  0
 25 35  1  0  0  0
 25 36  1  0  0  0
 25 37  1  0  0  0
M  CHG  2   7   1   8  -1
M  END
> <s_m_entry_id>
5670

> <s_m_entry_name>
dock_pv.661

> <s_m_Source_Path>
/home/csk/Desktop/cluster/DUD-E-result/pgh1

> <s_m_Source_File>
dock_pv.maegz

> <i_m_Source_File_Index>
661

> <chembl_id>
CHEMBL320433

> <chembl_pref_name>
None

> <i_lp_mmshare_version>
53161

> <r_lp_tautomer_probability>
1

> <s_lp_Force_Field>
OPLS_2005

> <r_lp_Energy>
17.373192

> <b_lp_Chiralities_Consistent>
1

> <s_lp_Variant>
CHEMBL221_lig572-1

> <s_i_glide_gridfile>
glide-grid_2oyu

> <i_i_glide_lignum>
710

> <i_i_glide_rotatable_bonds>
4

> <r_i_docking_score>
-6.82903219697408

> <r_i_glide_ligand_efficiency>
-0.273161287878963

> <r_i_glide_ligand_efficiency_sa>
-0.798728450294158

> <r_i_glide_ligand_efficiency_ln>
-1.61868528026359

> <r_i_glide_gscore>
-6.82903219697408

> <r_i_glide_lipo>
-3.59070732811267

> <r_i_glide_hbond>
0

> <r_i_glide_metal>
0

> <r_i_glide_rewards>
-3.44916196372627

> <r_i_glide_evdw>
-4.37546539306641

> <r_i_glide_ecoul>
0.435092836618423

> <r_i_glide_erotb>
0.482950461231169

> <r_i_glide_esite>
-0.118604022205756

> <r_i_glide_emodel>
-23.6157109869576

> <r_i_glide_energy>
-3.94037255644798

> <r_i_glide_einternal>
5.31829929351807

> <i_i_glide_confnum>
7

> <i_i_glide_posenum>
148

> <r_i_glide_eff_state_penalty>
0

> <s_user_duplicate_titles>
CHEMBL221_lig572

> <i_f3d_flags>
0

> <s_m_subgroup_title>
dock_pv

> <s_m_subgroupid>
dock_pv

> <b_m_subgroup_collapsed>
1

$$$$
CHEMBL221_lig764
                    3D
 Schrodinger Suite 2021-1.
 34 35  0  0  1  0            999 V2000
   19.3230   48.0951   11.0393 C   0  0  0  0  0  0
   19.7230   48.2730    9.7188 C   0  0  0  0  0  0
   20.5230   49.2914    9.3335 N   0  0  0  0  0  0
   20.9825   50.1353   10.2860 C   0  0  0  0  0  0
   20.6512   50.0190   11.6370 C   0  0  0  0  0  0
   19.7737   48.9887   12.0154 C   0  0  0  0  0  0
   19.3545   48.8899   13.3493 N   0  0  0  0  0  0
   18.7210   47.4208   14.0873 S   0  0  0  0  0  0
   21.1141   50.9423   12.5855 N   0  0  0  0  0  0
   22.2263   51.7852   12.6032 C   0  0  0  0  0  0
   23.4038   51.5232   11.8935 C   0  0  0  0  0  0
   24.4850   52.3963   12.0051 C   0  0  0  0  0  0
   24.3765   53.5226   12.8234 C   0  0  0  0  0  0
   23.1828   53.8029   13.4783 C   0  0  0  0  0  0
   22.1230   52.9172   13.4017 C   0  0  0  0  0  0
   17.2669   47.5817   14.1908 O   0  0  0  0  0  0
   19.4741   47.4956   15.8000 C   0  0  0  0  0  0
   18.5230   47.8730   16.6543 F   0  0  0  0  0  0
   19.9188   46.2730   16.0905 F   0  0  0  0  0  0
   20.4850   48.3667   15.8000 F   0  0  0  0  0  0
   19.3230   46.2761   13.3956 O   0  0  0  0  0  0
   25.5178   54.5034   13.0000 C   0  0  0  0  0  0
   18.6358   47.3021   11.2812 H   0  0  0  0  0  0
   19.3721   47.6140    8.9377 H   0  0  0  0  0  0
   21.6002   50.9457    9.9354 H   0  0  0  0  0  0
   19.7823   49.5359   13.9938 H   0  0  0  0  0  0
   20.4223   51.1881   13.2754 H   0  0  0  0  0  0
   23.5003   50.6385   11.2825 H   0  0  0  0  0  0
   25.3943   52.1969   11.4571 H   0  0  0  0  0  0
   23.0946   54.6854   14.0972 H   0  0  0  0  0  0
   21.2183   53.1292   13.9522 H   0  0  0  0  0  0
   25.7230   54.6421   14.0602 H   0  0  0  0  0  0
   25.2284   55.4730   12.6000 H   0  0  0  0  0  0
   26.4299   54.2137   12.4898 H   0  0  0  0  0  0
  1  6  1  0  0  0
  1  2  2  0  0  0
  1 23  1  0  0  0
  2  3  1  0  0  0
  2 24  1  0  0  0
  3  4  2  0  0  0
  4  5  1  0  0  0
  4 25  1  0  0  0
  5  6  2  0  0  0
  5  9  1  0  0  0
  6  7  1  0  0  0
  7  8  1  0  0  0
  7 26  1  0  0  0
  8 16  2  0  0  0
  8 17  1  0  0  0
  8 21  2  0  0  0
  9 10  1  0  0  0
  9 27  1  0  0  0
 10 11  2  0  0  0
 10 15  1  0  0  0
 11 12  1  0  0  0
 11 28  1  0  0  0
 12 13  2  0  0  0
 12 29  1  0  0  0
 13 14  1  0  0  0
 13 22  1  0  0  0
 14 15  2  0  0  0
 14 30  1  0  0  0
 15 31  1  0  0  0
 17 18  1  0  0  0
 17 19  1  0  0  0
 17 20  1  0  0  0
 22 32  1  0  0  0
 22 33  1  0  0  0
 22 34  1  0  0  0
M  END
> <s_m_entry_id>
5671

> <s_m_entry_name>
dock_pv.662

> <s_m_Source_Path>
/home/csk/Desktop/cluster/DUD-E-result/pgh1

> <s_m_Source_File>
dock_pv.maegz

> <i_m_Source_File_Index>
662

> <chembl_id>
CHEMBL1080231

> <chembl_pref_name>
None

> <i_lp_mmshare_version>
53161

> <r_lp_tautomer_probability>
1

> <s_lp_Force_Field>
OPLS_2005

> <r_lp_Energy>
10.131365

> <b_lp_Chiralities_Consistent>
1

> <s_lp_Variant>
CHEMBL221_lig764-1

> <s_i_glide_gridfile>
glide-grid_2oyu

> <i_i_glide_lignum>
934

> <i_i_glide_rotatable_bonds>
5

> <r_i_docking_score>
-6.82015138734602

> <r_i_glide_ligand_efficiency>
-0.310006881243001

> <r_i_glide_ligand_efficiency_sa>
-0.868651473121689

> <r_i_glide_ligand_efficiency_ln>
-1.66709377013367

> <r_i_glide_gscore>
-6.82015138734602

> <r_i_glide_lipo>
-3.40006317331306

> <r_i_glide_hbond>
0

> <r_i_glide_metal>
0

> <r_i_glide_rewards>
-2.2396335405715

> <r_i_glide_evdw>
-30.0185489654541

> <r_i_glide_ecoul>
-1.83518433570862

> <r_i_glide_erotb>
0.685790712688168

> <r_i_glide_esite>
-0.0900402875206238

> <r_i_glide_emodel>
-32.563598184973

> <r_i_glide_energy>
-31.8537333011627

> <r_i_glide_einternal>
16.3823795318604

> <i_i_glide_confnum>
29

> <i_i_glide_posenum>
252

> <r_i_glide_eff_state_penalty>
0

> <s_user_duplicate_titles>
CHEMBL221_lig764

> <i_f3d_flags>
0

> <s_m_subgroup_title>
dock_pv

> <s_m_subgroupid>
dock_pv

> <b_m_subgroup_collapsed>
1

$$$$
CHEMBL221_lig962
                    3D
 Schrodinger Suite 2021-1.
 32 33  0  0  1  0            999 V2000
   19.4921   47.9307   14.7436 S   0  0  0  0  0  0
   19.6331   46.6746   15.4832 O   0  0  0  0  0  0
   20.1254   49.1543   15.2442 O   0  0  0  0  0  0
   19.6782   47.9809   10.8578 C   0  0  0  0  0  0
   19.8737   48.6734    9.6732 C   0  0  0  0  0  0
   20.5197   49.8581    9.6232 N   0  0  0  0  0  0
   21.0044   50.3564   10.7828 C   0  0  0  0  0  0
   20.9061   49.6980   12.0202 C   0  0  0  0  0  0
   20.2199   48.4633   12.0476 C   0  0  0  0  0  0
   21.4607   50.2728   13.1724 N   0  0  0  0  0  0
   22.1374   51.4898   13.2673 C   0  0  0  0  0  0
   23.2974   51.7317   12.5258 C   0  0  0  0  0  0
   23.9244   52.9729   12.5998 C   0  0  0  0  0  0
   23.3816   53.9778   13.4023 C   0  0  0  0  0  0
   22.2233   53.7382   14.1476 C   0  0  0  0  0  0
   21.6215   52.4795   14.1010 C   0  0  0  0  0  0
   20.1229   47.5719   13.1282 N   0  0  0  0  0  0
   17.6513   48.2395   14.4443 C   0  0  0  0  0  0
   17.0629   47.0739   14.2013 F   0  0  0  0  0  0
   17.1579   48.7734   15.5566 F   0  0  0  0  0  0
   17.5180   49.0588   13.3995 F   0  0  0  0  0  0
   21.7208   54.7543   15.0575 C   0  0  0  0  0  0
   21.3218   55.5506   15.7992 N   0  0  0  0  0  0
   19.1100   47.0754   10.8355 H   0  0  0  0  0  0
   19.4761   48.2933    8.7423 H   0  0  0  0  0  0
   21.4847   51.3170   10.6857 H   0  0  0  0  0  0
   20.9745   49.9932   14.0203 H   0  0  0  0  0  0
   23.7119   50.9581   11.8950 H   0  0  0  0  0  0
   24.8263   53.1539   12.0343 H   0  0  0  0  0  0
   23.8819   54.9361   13.4552 H   0  0  0  0  0  0
   20.7399   52.2708   14.6917 H   0  0  0  0  0  0
   19.8952   46.6323   12.8490 H   0  0  0  0  0  0
  1  2  2  0  0  0
  1  3  2  0  0  0
  1 17  1  0  0  0
  1 18  1  0  0  0
  4  5  2  0  0  0
  4  9  1  0  0  0
  4 24  1  0  0  0
  5  6  1  0  0  0
  5 25  1  0  0  0
  6  7  2  0  0  0
  7  8  1  0  0  0
  7 26  1  0  0  0
  8  9  2  0  0  0
  8 10  1  0  0  0
  9 17  1  0  0  0
 10 11  1  0  0  0
 10 27  1  0  0  0
 11 12  2  0  0  0
 11 16  1  0  0  0
 12 13  1  0  0  0
 12 28  1  0  0  0
 13 14  2  0  0  0
 13 29  1  0  0  0
 14 15  1  0  0  0
 14 30  1  0  0  0
 15 16  2  0  0  0
 15 22  1  0  0  0
 16 31  1  0  0  0
 17 32  1  0  0  0
 18 19  1  0  0  0
 18 20  1  0  0  0
 18 21  1  0  0  0
 22 23  3  0  0  0
M  END
> <s_m_entry_id>
5672

> <s_m_entry_name>
dock_pv.663

> <s_m_Source_Path>
/home/csk/Desktop/cluster/DUD-E-result/pgh1

> <s_m_Source_File>
dock_pv.maegz

> <i_m_Source_File_Index>
663

> <chembl_id>
CHEMBL3113226

> <chembl_pref_name>
None

> <i_lp_mmshare_version>
53161

> <r_lp_tautomer_probability>
1

> <s_lp_Force_Field>
OPLS_2005

> <r_lp_Energy>
10.518625

> <b_lp_Chiralities_Consistent>
1

> <s_lp_Variant>
CHEMBL221_lig962-1

> <s_i_glide_gridfile>
glide-grid_2oyu

> <i_i_glide_lignum>
1190

> <i_i_glide_rotatable_bonds>
5

> <r_i_docking_score>
-6.81618736527507

> <r_i_glide_ligand_efficiency>
-0.296355972403264

> <r_i_glide_ligand_efficiency_sa>
-0.842796963318582

> <r_i_glide_ligand_efficiency_ln>
-1.64821591069343

> <r_i_glide_gscore>
-6.81618736527507

> <r_i_glide_lipo>
-3.15329564618612

> <r_i_glide_hbond>
0

> <r_i_glide_metal>
0

> <r_i_glide_rewards>
-2.39862716395006

> <r_i_glide_evdw>
-31.3550815582275

> <r_i_glide_ecoul>
-2.08446764945984

> <r_i_glide_erotb>
0.647303803165108

> <r_i_glide_esite>
-0.0311441329736414

> <r_i_glide_emodel>
-35.0208462691984

> <r_i_glide_energy>
-33.4395492076874

> <r_i_glide_einternal>
16.7475051879883

> <i_i_glide_confnum>
24

> <i_i_glide_posenum>
368

> <r_i_glide_eff_state_penalty>
0

> <s_user_duplicate_titles>
CHEMBL221_lig962

> <i_f3d_flags>
0

> <s_m_subgroup_title>
dock_pv

> <s_m_subgroupid>
dock_pv

> <b_m_subgroup_collapsed>
1

$$$$
CHEMBL221_lig578
                    3D
 Schrodinger Suite 2021-1.
 40 42  0  0  1  0            999 V2000
   20.0142   48.5707   12.4326 C   0  0  0  0  0  0
   23.8815   52.9477   12.9142 S   0  0  0  0  0  0
   21.2143   49.3476   12.5354 C   0  0  0  0  0  0
   21.1546   50.0628   13.7617 C   0  0  0  0  0  0
   20.1240   49.4731   14.4712 N   0  0  0  0  0  0
   19.4113   48.6041   13.6772 C   0  0  0  0  0  0
   22.9959   51.4090   13.0538 C   0  0  0  0  0  0
   22.0229   51.1403   14.0302 C   0  0  0  0  0  0
   19.5563   47.8730   11.3405 O   0  0  0  0  0  0
   22.3042   49.5599   11.6915 C   0  0  0  0  0  0
   24.0874   53.0730   11.4690 O   0  0  0  0  0  0
   25.0389   52.9481   13.8000 O   0  0  0  0  0  0
   23.2047   50.5520   11.9816 C   0  0  0  0  0  0
   19.7231   48.3360   10.0431 C   0  0  0  0  0  0
   22.6958   54.2669   13.5374 C   0  0  0  0  0  0
   19.8388   49.1378    7.3464 C   0  0  0  0  0  0
   18.1649   47.9360   14.2036 C   0  0  0  0  0  0
   19.5098   47.4246    9.0115 C   0  0  0  0  0  0
   20.0858   49.6522    9.7029 C   0  0  0  0  0  0
   20.1230   50.0407    8.3686 C   0  0  0  0  0  0
   19.5674   47.8116    7.6815 C   0  0  0  0  0  0
   19.8062   49.6234    6.0575 O   0  0  0  0  0  0
   19.1007   48.8647    5.0807 C   0  0  0  0  0  0
   19.8230   49.7008   15.4072 H   0  0  0  0  0  0
   21.9006   51.7705   14.8990 H   0  0  0  0  0  0
   22.3971   49.0730   10.7412 H   0  0  0  0  0  0
   23.9881   50.7361   11.2576 H   0  0  0  0  0  0
   23.1650   55.2392   13.3997 H   0  0  0  0  0  0
   22.5230   54.1095   14.6000 H   0  0  0  0  0  0
   21.7585   54.2054   12.9997 H   0  0  0  0  0  0
   17.5916   47.4745   13.4006 H   0  0  0  0  0  0
   18.3963   47.1610   14.9311 H   0  0  0  0  0  0
   17.4957   48.6460   14.6905 H   0  0  0  0  0  0
   19.2904   46.3995    9.2388 H   0  0  0  0  0  0
   20.2108   50.4223   10.4461 H   0  0  0  0  0  0
   20.3008   51.0781    8.1213 H   0  0  0  0  0  0
   19.3779   47.0739    6.9232 H   0  0  0  0  0  0
   18.9225   49.4730    4.2001 H   0  0  0  0  0  0
   19.6777   47.9904    4.7762 H   0  0  0  0  0  0
   18.1203   48.5447    5.4393 H   0  0  0  0  0  0
  1  3  1  0  0  0
  1  6  2  0  0  0
  1  9  1  0  0  0
  2  7  1  0  0  0
  2 11  2  0  0  0
  2 12  2  0  0  0
  2 15  1  0  0  0
  3  4  1  0  0  0
  3 10  2  0  0  0
  4  8  2  0  0  0
  4  5  1  0  0  0
  5  6  1  0  0  0
  5 24  1  0  0  0
  6 17  1  0  0  0
  7 13  2  0  0  0
  7  8  1  0  0  0
  8 25  1  0  0  0
  9 14  1  0  0  0
 10 13  1  0  0  0
 10 26  1  0  0  0
 13 27  1  0  0  0
 14 18  1  0  0  0
 14 19  2  0  0  0
 15 28  1  0  0  0
 15 29  1  0  0  0
 15 30  1  0  0  0
 16 20  2  0  0  0
 16 22  1  0  0  0
 16 21  1  0  0  0
 17 31  1  0  0  0
 17 32  1  0  0  0
 17 33  1  0  0  0
 18 21  2  0  0  0
 18 34  1  0  0  0
 19 20  1  0  0  0
 19 35  1  0  0  0
 20 36  1  0  0  0
 21 37  1  0  0  0
 22 23  1  0  0  0
 23 38  1  0  0  0
 23 39  1  0  0  0
 23 40  1  0  0  0
M  END
> <s_m_entry_id>
5673

> <s_m_entry_name>
dock_pv.664

> <s_m_Source_Path>
/home/csk/Desktop/cluster/DUD-E-result/pgh1

> <s_m_Source_File>
dock_pv.maegz

> <i_m_Source_File_Index>
664

> <chembl_id>
CHEMBL433756

> <chembl_pref_name>
None

> <i_lp_mmshare_version>
53161

> <r_lp_tautomer_probability>
1

> <s_lp_Force_Field>
OPLS_2005

> <r_lp_Energy>
11.253174

> <b_lp_Chiralities_Consistent>
1

> <s_lp_Variant>
CHEMBL221_lig578-1

> <s_i_glide_gridfile>
glide-grid_2oyu

> <i_i_glide_lignum>
716

> <i_i_glide_rotatable_bonds>
4

> <r_i_docking_score>
-6.80170889848227

> <r_i_glide_ligand_efficiency>
-0.295726473847055

> <r_i_glide_ligand_efficiency_sa>
-0.841006753162588

> <r_i_glide_ligand_efficiency_ln>
-1.64471488613945

> <r_i_glide_gscore>
-6.80170889848227

> <r_i_glide_lipo>
-3.97298238590789

> <r_i_glide_hbond>
0

> <r_i_glide_metal>
0

> <r_i_glide_rewards>
-1.79247775623471

> <r_i_glide_evdw>
-26.8270969390869

> <r_i_glide_ecoul>
-0.251041889190674

> <r_i_glide_erotb>
0.342762373993268

> <r_i_glide_esite>
0

> <r_i_glide_emodel>
-27.6269521763718

> <r_i_glide_energy>
-27.0781388282776

> <r_i_glide_einternal>
4.70743751525879

> <i_i_glide_confnum>
5

> <i_i_glide_posenum>
93

> <r_i_glide_eff_state_penalty>
0

> <s_user_duplicate_titles>
CHEMBL221_lig578

> <i_f3d_flags>
0

> <s_m_subgroup_title>
dock_pv

> <s_m_subgroupid>
dock_pv

> <b_m_subgroup_collapsed>
1

$$$$
521242
                    3D
 Schrodinger Suite 2021-1.
 49 51  0  0  1  0            999 V2000
   16.6226   48.0106   17.1192 C   0  0  0  0  0  0
   17.3235   48.4767   15.8444 C   0  0  0  0  0  0
   18.4574   47.5567   15.3744 C   0  0  0  0  0  0
   19.2064   48.1584   14.2757 N   0  0  0  0  0  0
   18.8971   47.9412   12.8908 C   0  0  0  0  0  0
   19.8718   48.8455   12.2028 C   0  0  0  0  0  0
   20.5620   49.5332   13.1357 C   0  0  0  0  0  0
   20.1783   49.0730   14.4649 C   0  0  0  0  0  0
   20.6213   49.4429   15.5544 O   0  0  0  0  0  0
   21.6626   50.5126   12.9352 C   0  0  0  0  0  0
   22.6602   50.2829   11.9805 C   0  0  0  0  0  0
   23.7255   51.1690   11.8401 C   0  0  0  0  0  0
   23.8030   52.2938   12.6627 C   0  0  0  0  0  0
   22.7865   52.5612   13.5758 C   0  0  0  0  0  0
   21.7262   51.6738   13.7157 C   0  0  0  0  0  0
   25.0016   53.2221   12.5997 C   0  0  0  0  0  0
   19.9067   48.9561   10.7271 C   0  0  0  0  0  0
   20.1230   50.1492   10.0278 C   0  0  0  0  0  0
   20.1230   50.1459    8.6296 C   0  0  0  0  0  0
   19.9549   48.9484    7.9241 C   0  0  0  0  0  0
   19.7230   47.7690    8.6209 C   0  0  0  0  0  0
   19.7230   47.7827   10.0028 C   0  0  0  0  0  0
   19.9451   48.8743    6.1435 S   0  0  0  0  0  0
   20.8614   49.8732    5.6008 O   0  0  0  0  0  0
   20.1230   47.4733    5.8001 O   0  0  0  0  0  0
   18.2124   49.2836    5.6413 C   0  0  0  0  0  0
   15.8535   48.7284   17.4001 H   0  0  0  0  0  0
   17.3228   47.9132   17.9496 H   0  0  0  0  0  0
   16.1230   47.0583   16.9836 H   0  0  0  0  0  0
   16.5944   48.5695   15.0381 H   0  0  0  0  0  0
   17.7161   49.4730   16.0417 H   0  0  0  0  0  0
   19.1369   47.3644   16.2036 H   0  0  0  0  0  0
   18.0650   46.5804   15.0871 H   0  0  0  0  0  0
   19.0269   46.8886   12.6375 H   0  0  0  0  0  0
   17.8576   48.1937   12.6765 H   0  0  0  0  0  0
   22.6308   49.3936   11.3697 H   0  0  0  0  0  0
   24.5056   50.9584   11.1217 H   0  0  0  0  0  0
   22.8354   53.4419   14.1995 H   0  0  0  0  0  0
   20.9623   51.8852   14.4504 H   0  0  0  0  0  0
   25.5981   53.0615   11.7031 H   0  0  0  0  0  0
   24.6790   54.2638   12.6002 H   0  0  0  0  0  0
   25.6354   53.0750   13.4745 H   0  0  0  0  0  0
   20.2562   51.0812   10.5579 H   0  0  0  0  0  0
   20.2465   51.0727    8.0880 H   0  0  0  0  0  0
   19.5786   46.8326    8.1053 H   0  0  0  0  0  0
   19.6336   46.8446   10.5170 H   0  0  0  0  0  0
   18.2501   49.4726    4.5759 H   0  0  0  0  0  0
   17.5958   48.4068    5.7996 H   0  0  0  0  0  0
   17.8530   50.1461    6.1980 H   0  0  0  0  0  0
  1  2  1  0  0  0
  1 27  1  0  0  0
  1 28  1  0  0  0
  1 29  1  0  0  0
  2  3  1  0  0  0
  2 30  1  0  0  0
  2 31  1  0  0  0
  3  4  1  0  0  0
  3 32  1  0  0  0
  3 33  1  0  0  0
  4  8  1  0  0  0
  4  5  1  0  0  0
  5  6  1  0  0  0
  5 34  1  0  0  0
  5 35  1  0  0  0
  6  7  2  0  0  0
  6 17  1  0  0  0
  7  8  1  0  0  0
  7 10  1  0  0  0
  8  9  2  0  0  0
 10 15  1  0  0  0
 10 11  2  0  0  0
 11 12  1  0  0  0
 11 36  1  0  0  0
 12 13  2  0  0  0
 12 37  1  0  0  0
 13 14  1  0  0  0
 13 16  1  0  0  0
 14 15  2  0  0  0
 14 38  1  0  0  0
 15 39  1  0  0  0
 16 40  1  0  0  0
 16 41  1  0  0  0
 16 42  1  0  0  0
 17 22  1  0  0  0
 17 18  2  0  0  0
 18 19  1  0  0  0
 18 43  1  0  0  0
 19 20  2  0  0  0
 19 44  1  0  0  0
 20 21  1  0  0  0
 20 23  1  0  0  0
 21 22  2  0  0  0
 21 45  1  0  0  0
 22 46  1  0  0  0
 23 24  2  0  0  0
 23 25  2  0  0  0
 23 26  1  0  0  0
 26 47  1  0  0  0
 26 48  1  0  0  0
 26 49  1  0  0  0
M  END
> <s_m_entry_id>
5918

> <s_m_entry_name>
ligand_docking-pose.17

> <s_m_Source_Path>
/home/csk/Desktop/cluster/DUD-E-result/pgh1

> <s_m_Source_File>
ligand_docking-pose.sdf

> <i_m_Source_File_Index>
17

> <i_lp_mmshare_version>
53161

> <i_f3d_flags>
0

> <r_lp_tautomer_probability>
0.961761466411231

> <s_lp_Force_Field>
OPLS_2005

> <r_lp_Energy>
26.281676

> <b_lp_Chiralities_Consistent>
1

> <s_lp_Variant>
521242-1

> <s_i_glide_gridfile>
glide-grid_2oyu

> <i_i_glide_lignum>
493

> <i_i_glide_rotatable_bonds>
5

> <r_i_docking_score>
-10.0962274793651

> <r_i_glide_ligand_efficiency>
-0.388316441514042

> <r_i_glide_ligand_efficiency_sa>
-1.15038593003393

> <r_i_glide_ligand_efficiency_ln>
-2.37106589510446

> <r_i_glide_gscore>
-10.0962274793651

> <r_i_glide_lipo>
-5.28015414984828

> <r_i_glide_hbond>
0

> <r_i_glide_metal>
0

> <r_i_glide_rewards>
-2.89274019452364

> <r_i_glide_evdw>
-27.8785095214844

> <r_i_glide_ecoul>
-6.23485326766968

> <r_i_glide_erotb>
0.423723984057686

> <r_i_glide_esite>
-0.0179036528261879

> <r_i_glide_emodel>
-43.423363535544

> <r_i_glide_energy>
-34.1133627891541

> <r_i_glide_einternal>
1.14192414283752

> <i_i_glide_confnum>
1

> <i_i_glide_posenum>
330

> <r_i_glide_eff_state_penalty>
0

> <s_user_duplicate_titles>
521242

> <s_m_subgroup_title>
dock_pv

> <s_m_subgroupid>
dock_pv1

> <b_m_subgroup_collapsed>
0

$$$$
521241
                    3D
 Schrodinger Suite 2021-1.
 50 52  0  0  1  0            999 V2000
   16.5796   48.0541   17.1569 C   0  0  0  0  0  0
   17.1920   48.3578   15.7868 C   0  0  0  0  0  0
   18.3761   47.4573   15.4094 C   0  0  0  0  0  0
   19.1507   48.0191   14.3028 N   0  0  0  0  0  0
   18.8569   47.7820   12.9123 C   0  0  0  0  0  0
   19.8458   48.6695   12.2256 C   0  0  0  0  0  0
   20.5360   49.3580   13.1616 C   0  0  0  0  0  0
   20.1230   48.9358   14.4920 C   0  0  0  0  0  0
   20.5419   49.3304   15.5819 O   0  0  0  0  0  0
   21.6673   50.3005   12.9546 C   0  0  0  0  0  0
   22.6379   50.0269   11.9856 C   0  0  0  0  0  0
   23.7010   50.8974   11.7763 C   0  0  0  0  0  0
   23.8132   52.0520   12.5472 C   0  0  0  0  0  0
   22.8494   52.3402   13.5153 C   0  0  0  0  0  0
   21.7842   51.4691   13.7181 C   0  0  0  0  0  0
   24.9584   53.0136   12.2858 C   0  0  0  0  0  0
   25.6071   53.4731   13.4508 O   0  0  0  0  0  0
   19.8921   48.8023   10.7479 C   0  0  0  0  0  0
   19.7230   47.6631    9.9576 C   0  0  0  0  0  0
   19.7230   47.7285    8.5698 C   0  0  0  0  0  0
   19.9043   48.9569    7.9474 C   0  0  0  0  0  0
   20.1230   50.1029    8.7233 C   0  0  0  0  0  0
   20.1230   50.0270   10.1136 C   0  0  0  0  0  0
   19.8024   49.0877    6.1748 S   0  0  0  0  0  0
   20.5573   50.2730    5.8000 O   0  0  0  0  0  0
   20.1230   47.7958    5.6009 O   0  0  0  0  0  0
   18.0463   49.3228    5.6817 C   0  0  0  0  0  0
   15.7974   48.7727   17.4000 H   0  0  0  0  0  0
   16.1230   47.0728   17.1849 H   0  0  0  0  0  0
   17.3230   48.0995   17.9511 H   0  0  0  0  0  0
   17.5056   49.4011   15.8000 H   0  0  0  0  0  0
   16.4299   48.2729   15.0124 H   0  0  0  0  0  0
   18.0365   46.4470   15.1784 H   0  0  0  0  0  0
   19.0263   47.3555   16.2784 H   0  0  0  0  0  0
   18.9836   46.7271   12.6665 H   0  0  0  0  0  0
   17.8221   48.0398   12.6814 H   0  0  0  0  0  0
   22.5738   49.1234   11.3988 H   0  0  0  0  0  0
   24.4377   50.6731   11.0176 H   0  0  0  0  0  0
   22.9246   53.2388   14.1119 H   0  0  0  0  0  0
   21.0479   51.7101   14.4715 H   0  0  0  0  0  0
   24.5229   53.8730   11.8000 H   0  0  0  0  0  0
   25.7047   52.5829   11.6166 H   0  0  0  0  0  0
   26.0144   54.3225   13.2593 H   0  0  0  0  0  0
   19.6702   46.6952   10.4235 H   0  0  0  0  0  0
   19.5827   46.8332    7.9852 H   0  0  0  0  0  0
   20.2380   51.0666    8.2455 H   0  0  0  0  0  0
   20.2555   50.9323   10.6883 H   0  0  0  0  0  0
   18.0923   49.4730    4.6107 H   0  0  0  0  0  0
   17.5084   48.3900    5.8000 H   0  0  0  0  0  0
   17.6021   50.1686    6.2000 H   0  0  0  0  0  0
  1  2  1  0  0  0
  1 28  1  0  0  0
  1 29  1  0  0  0
  1 30  1  0  0  0
  2  3  1  0  0  0
  2 31  1  0  0  0
  2 32  1  0  0  0
  3  4  1  0  0  0
  3 33  1  0  0  0
  3 34  1  0  0  0
  4  8  1  0  0  0
  4  5  1  0  0  0
  5  6  1  0  0  0
  5 35  1  0  0  0
  5 36  1  0  0  0
  6  7  2  0  0  0
  6 18  1  0  0  0
  7  8  1  0  0  0
  7 10  1  0  0  0
  8  9  2  0  0  0
 10 15  1  0  0  0
 10 11  2  0  0  0
 11 12  1  0  0  0
 11 37  1  0  0  0
 12 13  2  0  0  0
 12 38  1  0  0  0
 13 14  1  0  0  0
 13 16  1  0  0  0
 14 15  2  0  0  0
 14 39  1  0  0  0
 15 40  1  0  0  0
 16 17  1  0  0  0
 16 41  1  0  0  0
 16 42  1  0  0  0
 17 43  1  0  0  0
 18 23  1  0  0  0
 18 19  2  0  0  0
 19 20  1  0  0  0
 19 44  1  0  0  0
 20 21  2  0  0  0
 20 45  1  0  0  0
 21 22  1  0  0  0
 21 24  1  0  0  0
 22 23  2  0  0  0
 22 46  1  0  0  0
 23 47  1  0  0  0
 24 25  2  0  0  0
 24 26  2  0  0  0
 24 27  1  0  0  0
 27 48  1  0  0  0
 27 49  1  0  0  0
 27 50  1  0  0  0
M  END
> <s_m_entry_id>
5922

> <s_m_entry_name>
ligand_docking-pose.21

> <s_m_Source_Path>
/home/csk/Desktop/cluster/DUD-E-result/pgh1

> <s_m_Source_File>
ligand_docking-pose.sdf

> <i_m_Source_File_Index>
21

> <i_lp_mmshare_version>
53161

> <i_f3d_flags>
0

> <r_lp_tautomer_probability>
0.961761466411231

> <s_lp_Force_Field>
OPLS_2005

> <r_lp_Energy>
27.912004

> <b_lp_Chiralities_Consistent>
1

> <s_lp_Variant>
521241-1

> <s_i_glide_gridfile>
glide-grid_2oyu

> <i_i_glide_lignum>
496

> <i_i_glide_rotatable_bonds>
7

> <r_i_docking_score>
-9.89110184138544

> <r_i_glide_ligand_efficiency>
-0.366337105236498

> <r_i_glide_ligand_efficiency_sa>
-1.09901131450211

> <r_i_glide_ligand_efficiency_ln>
-2.30248544111625

> <r_i_glide_gscore>
-9.89110184138544

> <r_i_glide_lipo>
-5.23429091660905

> <r_i_glide_hbond>
0

> <r_i_glide_metal>
0

> <r_i_glide_rewards>
-2.80287382761212

> <r_i_glide_evdw>
-28.2242946624756

> <r_i_glide_ecoul>
-6.2232985496521

> <r_i_glide_erotb>
0.523669997376568

> <r_i_glide_esite>
-0.0328975789692462

> <r_i_glide_emodel>
-42.7365452264076

> <r_i_glide_energy>
-34.4475932121277

> <r_i_glide_einternal>
2.69277667999268

> <i_i_glide_confnum>
17

> <i_i_glide_posenum>
206

> <r_i_glide_eff_state_penalty>
0

> <s_user_duplicate_titles>
521241

> <s_m_subgroup_title>
dock_pv

> <s_m_subgroupid>
dock_pv1

> <b_m_subgroup_collapsed>
0

$$$$
12418
                    3D
 Schrodinger Suite 2021-1.
 39 41  0  0  1  0            999 V2000
   19.3232   47.6366    8.7669 C   0  0  0  0  0  0
   19.7235   48.4472    9.9851 C   0  0  0  0  0  0
   20.3912   49.6514    9.7988 C   0  0  0  0  0  0
   20.9096   50.3422   10.8839 C   0  0  0  0  0  0
   20.7348   49.8482   12.1836 C   0  0  0  0  0  0
   19.9447   48.6974   12.4084 C   0  0  0  0  0  0
   19.4761   47.9912   11.2813 C   0  0  0  0  0  0
   19.6374   48.3345   13.7695 N   0  0  0  0  0  0
   20.1231   49.0731   14.8377 C   0  0  0  0  0  0
   19.7447   48.8233   15.9770 O   0  0  0  0  0  0
   21.0250   50.1075   14.5589 N   0  0  0  0  0  0
   21.3214   50.4999   13.3749 C   0  0  0  0  0  0
   22.2661   51.6144   13.2052 C   0  0  0  0  0  0
   23.4523   51.4377   12.4811 C   0  0  0  0  0  0
   24.3651   52.4833   12.3753 C   0  0  0  0  0  0
   24.0961   53.6974   13.0001 C   0  0  0  0  0  0
   22.8964   53.8981   13.6782 C   0  0  0  0  0  0
   21.9903   52.8504   13.8002 C   0  0  0  0  0  0
   18.5976   47.2707   13.9864 C   0  0  0  0  0  0
   17.1778   47.8731   13.9239 C   0  0  0  0  0  0
   18.7198   46.3433   15.2188 C   0  0  0  0  0  0
   18.5230   46.9479    9.0003 H   0  0  0  0  0  0
   18.9718   48.2713    7.9523 H   0  0  0  0  0  0
   20.1759   47.0692    8.3961 H   0  0  0  0  0  0
   20.5230   50.0384    8.7997 H   0  0  0  0  0  0
   21.4485   51.2595   10.6940 H   0  0  0  0  0  0
   18.9221   47.0734   11.3640 H   0  0  0  0  0  0
   23.6852   50.4887   12.0173 H   0  0  0  0  0  0
   25.2846   52.3465   11.8243 H   0  0  0  0  0  0
   24.8112   54.5055   12.9364 H   0  0  0  0  0  0
   22.6944   54.8504   14.1475 H   0  0  0  0  0  0
   21.0820   53.0021   14.3651 H   0  0  0  0  0  0
   18.6878   46.5471   13.1853 H   0  0  0  0  0  0
   16.4259   47.1211   14.1648 H   0  0  0  0  0  0
   17.0482   48.6742   14.6513 H   0  0  0  0  0  0
   16.9359   48.2522   12.9315 H   0  0  0  0  0  0
   18.0933   45.4590   15.0951 H   0  0  0  0  0  0
   19.7396   46.0206   15.3995 H   0  0  0  0  0  0
   18.3633   46.8274   16.1276 H   0  0  0  0  0  0
  1  2  1  0  0  0
  1 22  1  0  0  0
  1 23  1  0  0  0
  1 24  1  0  0  0
  2  7  1  0  0  0
  2  3  2  0  0  0
  3  4  1  0  0  0
  3 25  1  0  0  0
  4  5  2  0  0  0
  4 26  1  0  0  0
  5 12  1  0  0  0
  5  6  1  0  0  0
  6  7  2  0  0  0
  6  8  1  0  0  0
  7 27  1  0  0  0
  8  9  1  0  0  0
  8 19  1  0  0  0
  9 10  2  0  0  0
  9 11  1  0  0  0
 11 12  2  0  0  0
 12 13  1  0  0  0
 13 18  1  0  0  0
 13 14  2  0  0  0
 14 15  1  0  0  0
 14 28  1  0  0  0
 15 16  2  0  0  0
 15 29  1  0  0  0
 16 17  1  0  0  0
 16 30  1  0  0  0
 17 18  2  0  0  0
 17 31  1  0  0  0
 18 32  1  0  0  0
 19 20  1  0  0  0
 19 21  1  0  0  0
 19 33  1  0  0  0
 20 34  1  0  0  0
 20 35  1  0  0  0
 20 36  1  0  0  0
 21 37  1  0  0  0
 21 38  1  0  0  0
 21 39  1  0  0  0
M  END
> <s_m_entry_id>
5936

> <s_m_entry_name>
ligand_docking-pose.35

> <s_m_Source_Path>
/home/csk/Desktop/cluster/DUD-E-result/pgh1

> <s_m_Source_File>
ligand_docking-pose.sdf

> <i_m_Source_File_Index>
35

> <i_lp_mmshare_version>
53161

> <i_f3d_flags>
0

> <r_lp_tautomer_probability>
1

> <s_lp_Force_Field>
OPLS_2005

> <r_lp_Energy>
33.373539

> <b_lp_Chiralities_Consistent>
1

> <s_lp_Variant>
12418-1

> <s_i_glide_gridfile>
glide-grid_2oyu

> <i_i_glide_lignum>
185

> <i_i_glide_rotatable_bonds>
2

> <r_i_docking_score>
-9.4205517932187

> <r_i_glide_ligand_efficiency>
-0.448597704438986

> <r_i_glide_ligand_efficiency_sa>
-1.23764705098978

> <r_i_glide_ligand_efficiency_ln>
-2.32921239485603

> <r_i_glide_gscore>
-9.4205517932187

> <r_i_glide_lipo>
-4.44338720967143

> <r_i_glide_hbond>
0

> <r_i_glide_metal>
0

> <r_i_glide_rewards>
-3.10629239245398

> <r_i_glide_evdw>
-36.7738571166992

> <r_i_glide_ecoul>
-1.76546680927277

> <r_i_glide_erotb>
0.23264068613258

> <r_i_glide_esite>
0

> <r_i_glide_emodel>
-52.549264412431

> <r_i_glide_energy>
-38.539323925972

> <r_i_glide_einternal>
5.73951721191406

> <i_i_glide_confnum>
4

> <i_i_glide_posenum>
249

> <r_i_glide_eff_state_penalty>
0

> <s_user_duplicate_titles>
12418

> <s_m_subgroup_title>
dock_pv

> <s_m_subgroupid>
dock_pv1

> <b_m_subgroup_collapsed>
0

$$$$
357052
                    3D
 Schrodinger Suite 2021-1.
 40 43  0  0  1  0            999 V2000
   24.9222   53.3412   12.6789 C   0  0  0  0  0  0
   23.7484   52.4168   12.9313 C   0  0  0  0  0  0
   22.7306   52.8081   13.8000 C   0  0  0  0  0  0
   21.7323   51.9076   14.1624 C   0  0  0  0  0  0
   21.7224   50.6283   13.6079 C   0  0  0  0  0  0
   22.6971   50.2730   12.6645 C   0  0  0  0  0  0
   23.7082   51.1635   12.3242 C   0  0  0  0  0  0
   20.6176   49.6826   13.9646 C   0  0  0  0  0  0
   20.1230   49.1990   15.1807 C   0  0  0  0  0  0
   19.0158   48.3878   14.8612 C   0  0  0  0  0  0
   18.8439   48.3383   13.5757 N   0  0  0  0  0  0
   19.8074   49.0731   13.0311 N   0  0  0  0  0  0
   19.8758   49.0927   11.6359 C   0  0  0  0  0  0
   20.1523   50.2730   10.9480 C   0  0  0  0  0  0
   20.3060   50.2244    9.5754 C   0  0  0  0  0  0
   20.1230   49.0209    8.8947 C   0  0  0  0  0  0
   19.7230   47.8730    9.5765 C   0  0  0  0  0  0
   19.6556   47.8984   10.9514 C   0  0  0  0  0  0
   20.1230   48.9679    7.4243 C   0  0  0  0  0  0
   20.1226   50.0547    6.6000 N   0  0  0  0  0  0
   20.0825   49.6667    5.3407 N   0  0  0  0  0  0
   20.0820   48.2924    5.3999 N   0  0  0  0  0  0
   20.0746   47.8730    6.7127 N   0  0  0  0  0  0
   18.0453   47.5622   15.6648 C   0  0  0  0  0  0
   16.7934   47.8285   15.3099 F   0  0  0  0  0  0
   18.2612   46.2731   15.4000 F   0  0  0  0  0  0
   18.1232   47.7822   16.9725 F   0  0  0  0  0  0
   20.0629   51.0239    6.8799 H   0  0  0  0  0  0
   25.4453   53.0730   11.7610 H   0  0  0  0  0  0
   25.6267   53.2832   13.5091 H   0  0  0  0  0  0
   24.5920   54.3765   12.6000 H   0  0  0  0  0  0
   22.7462   53.7945   14.2404 H   0  0  0  0  0  0
   20.9669   52.2091   14.8632 H   0  0  0  0  0  0
   22.6834   49.2971   12.2000 H   0  0  0  0  0  0
   24.4770   50.8599   11.6272 H   0  0  0  0  0  0
   20.4979   49.4237   16.1689 H   0  0  0  0  0  0
   20.2730   51.2150   11.4627 H   0  0  0  0  0  0
   20.5234   51.1272    9.0334 H   0  0  0  0  0  0
   19.5100   46.9514    9.0562 H   0  0  0  0  0  0
   19.4094   46.9954   11.4842 H   0  0  0  0  0  0
  1  2  1  0  0  0
  1 29  1  0  0  0
  1 30  1  0  0  0
  1 31  1  0  0  0
  2  7  1  0  0  0
  2  3  2  0  0  0
  3  4  1  0  0  0
  3 32  1  0  0  0
  4  5  2  0  0  0
  4 33  1  0  0  0
  5  6  1  0  0  0
  5  8  1  0  0  0
  6  7  2  0  0  0
  6 34  1  0  0  0
  7 35  1  0  0  0
  8 12  1  0  0  0
  8  9  2  0  0  0
  9 10  1  0  0  0
  9 36  1  0  0  0
 10 11  2  0  0  0
 10 24  1  0  0  0
 11 12  1  0  0  0
 12 13  1  0  0  0
 13 18  1  0  0  0
 13 14  2  0  0  0
 14 15  1  0  0  0
 14 37  1  0  0  0
 15 16  2  0  0  0
 15 38  1  0  0  0
 16 17  1  0  0  0
 16 19  1  0  0  0
 17 18  2  0  0  0
 17 39  1  0  0  0
 18 40  1  0  0  0
 19 20  1  0  0  0
 19 23  2  0  0  0
 20 28  1  0  0  0
 20 21  1  0  0  0
 21 22  2  0  0  0
 22 23  1  0  0  0
 24 25  1  0  0  0
 24 26  1  0  0  0
 24 27  1  0  0  0
M  END
> <s_m_entry_id>
5949

> <s_m_entry_name>
ligand_docking-pose.48

> <s_m_Source_Path>
/home/csk/Desktop/cluster/DUD-E-result/pgh1

> <s_m_Source_File>
ligand_docking-pose.sdf

> <i_m_Source_File_Index>
48

> <i_lp_mmshare_version>
53161

> <i_f3d_flags>
0

> <r_lp_tautomer_probability>
0.3

> <s_lp_Force_Field>
OPLS_2005

> <r_lp_Energy>
23.330394

> <b_lp_Chiralities_Consistent>
1

> <s_lp_Variant>
357052-1

> <s_i_glide_gridfile>
glide-grid_2oyu

> <i_i_glide_lignum>
190

> <i_i_glide_rotatable_bonds>
4

> <r_i_docking_score>
-9.10103149868369

> <r_i_glide_ligand_efficiency>
-0.337075240691989

> <r_i_glide_ligand_efficiency_sa>
-1.01122572096502

> <r_i_glide_ligand_efficiency_ln>
-2.11857009066287

> <r_i_glide_gscore>
-9.10103149868369

> <r_i_glide_lipo>
-4.7099941156605

> <r_i_glide_hbond>
-0.0542956237368275

> <r_i_glide_metal>
0

> <r_i_glide_rewards>
-2.57791610596798

> <r_i_glide_evdw>
-35.2016220092773

> <r_i_glide_ecoul>
-2.80483889579773

> <r_i_glide_erotb>
0.421981281515143

> <r_i_glide_esite>
0

> <r_i_glide_emodel>
-47.8755015761144

> <r_i_glide_energy>
-38.0064609050751

> <r_i_glide_einternal>
0.282661765813828

> <i_i_glide_confnum>
10

> <i_i_glide_posenum>
321

> <r_i_glide_eff_state_penalty>
0

> <s_user_duplicate_titles>
357052

> <s_m_subgroup_title>
dock_pv

> <s_m_subgroupid>
dock_pv1

> <b_m_subgroup_collapsed>
0

$$$$
391216
                    3D
 Schrodinger Suite 2021-1.
 39 41  0  0  1  0            999 V2000
   20.2286   51.0010   16.6000 C   0  0  0  0  0  0
   20.9230   49.5349   15.8000 S   0  0  0  0  0  0
   20.1230   49.3296   14.2567 C   0  0  0  0  0  0
   19.1034   48.5167   14.1541 N   0  0  0  0  0  0
   18.9102   48.3730   12.8671 C   0  0  0  0  0  0
   19.7976   49.1148   12.0989 C   0  0  0  0  0  0
   20.5829   49.7825   13.0254 N   0  0  0  0  0  0
   21.6835   50.6381   12.7803 C   0  0  0  0  0  0
   21.7587   51.8804   13.4175 C   0  0  0  0  0  0
   22.8670   52.6985   13.2222 C   0  0  0  0  0  0
   23.8852   52.2870   12.3684 C   0  0  0  0  0  0
   23.7960   51.0715   11.6950 C   0  0  0  0  0  0
   22.7003   50.2400   11.9071 C   0  0  0  0  0  0
   24.9712   53.0729   12.1995 F   0  0  0  0  0  0
   19.9074   49.1470   10.6115 C   0  0  0  0  0  0
   19.7103   47.9390    9.9477 C   0  0  0  0  0  0
   19.7231   47.8730    8.5623 C   0  0  0  0  0  0
   19.9672   49.0285    7.8166 C   0  0  0  0  0  0
   20.1230   50.2505    8.4762 C   0  0  0  0  0  0
   20.1230   50.3090    9.8709 C   0  0  0  0  0  0
   19.9947   48.9004    6.0342 S   0  0  0  0  0  0
   20.9230   49.8730    5.4584 O   0  0  0  0  0  0
   20.1230   47.4815    5.7532 O   0  0  0  0  0  0
   18.2929   49.2749    5.4797 C   0  0  0  0  0  0
   20.8836   51.3083   17.4139 H   0  0  0  0  0  0
   20.1316   51.8471   15.9280 H   0  0  0  0  0  0
   19.2567   50.7614   17.0205 H   0  0  0  0  0  0
   18.1300   47.7261   12.4907 H   0  0  0  0  0  0
   20.9631   52.2256   14.0547 H   0  0  0  0  0  0
   22.9394   53.6494   13.7306 H   0  0  0  0  0  0
   24.5843   50.7662   11.0238 H   0  0  0  0  0  0
   22.6492   49.2864   11.4014 H   0  0  0  0  0  0
   19.5308   47.0475   10.5201 H   0  0  0  0  0  0
   19.5621   46.9218    8.0796 H   0  0  0  0  0  0
   20.2462   51.1563    7.8996 H   0  0  0  0  0  0
   20.2468   51.2591   10.3693 H   0  0  0  0  0  0
   18.2506   49.1382    4.4002 H   0  0  0  0  0  0
   17.7230   48.4934    5.9460 H   0  0  0  0  0  0
   18.0008   50.2716    5.8000 H   0  0  0  0  0  0
  1  2  1  0  0  0
  1 25  1  0  0  0
  1 26  1  0  0  0
  1 27  1  0  0  0
  2  3  1  0  0  0
  3  7  1  0  0  0
  3  4  2  0  0  0
  4  5  1  0  0  0
  5  6  2  0  0  0
  5 28  1  0  0  0
  6  7  1  0  0  0
  6 15  1  0  0  0
  7  8  1  0  0  0
  8 13  1  0  0  0
  8  9  2  0  0  0
  9 10  1  0  0  0
  9 29  1  0  0  0
 10 11  2  0  0  0
 10 30  1  0  0  0
 11 12  1  0  0  0
 11 14  1  0  0  0
 12 13  2  0  0  0
 12 31  1  0  0  0
 13 32  1  0  0  0
 15 20  1  0  0  0
 15 16  2  0  0  0
 16 17  1  0  0  0
 16 33  1  0  0  0
 17 18  2  0  0  0
 17 34  1  0  0  0
 18 19  1  0  0  0
 18 21  1  0  0  0
 19 20  2  0  0  0
 19 35  1  0  0  0
 20 36  1  0  0  0
 21 22  2  0  0  0
 21 23  2  0  0  0
 21 24  1  0  0  0
 24 37  1  0  0  0
 24 38  1  0  0  0
 24 39  1  0  0  0
M  END
> <s_m_entry_id>
5951

> <s_m_entry_name>
ligand_docking-pose.50

> <s_m_Source_Path>
/home/csk/Desktop/cluster/DUD-E-result/pgh1

> <s_m_Source_File>
ligand_docking-pose.sdf

> <i_m_Source_File_Index>
50

> <i_lp_mmshare_version>
53161

> <i_f3d_flags>
0

> <r_lp_tautomer_probability>
1

> <s_lp_Force_Field>
OPLS_2005

> <r_lp_Energy>
11.690832

> <b_lp_Chiralities_Consistent>
1

> <s_lp_Variant>
391216-1

> <s_i_glide_gridfile>
glide-grid_2oyu

> <i_i_glide_lignum>
630

> <i_i_glide_rotatable_bonds>
4

> <r_i_docking_score>
-9.07363085315507

> <r_i_glide_ligand_efficiency>
-0.378067952214795

> <r_i_glide_ligand_efficiency_sa>
-1.09053668210232

> <r_i_glide_ligand_efficiency_ln>
-2.17173622494936

> <r_i_glide_gscore>
-9.07363085315507

> <r_i_glide_lipo>
-4.27529164998135

> <r_i_glide_hbond>
0

> <r_i_glide_metal>
0

> <r_i_glide_rewards>
-3.05523621987454

> <r_i_glide_evdw>
-21.6817855834961

> <r_i_glide_ecoul>
-6.21583461761475

> <r_i_glide_erotb>
0.292345803970096

> <r_i_glide_esite>
-0.0189843154522555

> <r_i_glide_emodel>
-27.0755693749436

> <r_i_glide_energy>
-27.8976202011108

> <r_i_glide_einternal>
3.53075361251831

> <i_i_glide_confnum>
9

> <i_i_glide_posenum>
4

> <r_i_glide_eff_state_penalty>
0

> <s_user_duplicate_titles>
391216

> <s_m_subgroup_title>
dock_pv

> <s_m_subgroupid>
dock_pv1

> <b_m_subgroup_collapsed>
0

$$$$
96265
                    3D
 Schrodinger Suite 2021-1.
 30 32  0  0  1  0            999 V2000
   24.5088   53.9378   13.0001 C   0  0  0  0  0  0
   23.2391   53.5220   13.4000 C   0  0  0  0  0  0
   22.9324   52.2245   13.0053 C   0  0  0  0  0  0
   24.1230   51.6410   11.8774 S   0  0  0  0  0  0
   25.1325   53.0085   12.2000 C   0  0  0  0  0  0
   21.8615   51.3666   13.5137 C   0  0  0  0  0  0
   21.3208   51.6613   14.5800 O   0  0  0  0  0  0
   21.4809   50.0456   12.7886 C   0  0  1  0  0  0
   20.3856   49.2237   13.3973 C   0  0  0  0  0  0
   20.0493   48.9388   14.7261 C   0  0  0  0  0  0
   18.9187   48.1652   14.9907 C   0  0  0  0  0  0
   18.1659   47.6414   13.9482 C   0  0  0  0  0  0
   18.5438   47.8730   12.6300 C   0  0  0  0  0  0
   19.6561   48.6753   12.3504 C   0  0  0  0  0  0
   20.1646   49.1374   11.1099 N   0  0  0  0  0  0
   20.9957   50.1885   11.3462 C   0  0  0  0  0  0
   21.3360   51.0730   10.5699 O   0  0  0  0  0  0
   19.8783   48.6730    9.8530 C   0  0  0  0  0  0
   20.1230   49.2644    8.8042 O   0  0  0  0  0  0
   19.3230   47.4730    9.7404 N   0  0  0  0  0  0
   18.4023   47.8730   16.6000 Cl  0  0  0  0  0  0
   24.9465   54.8842   13.2836 H   0  0  0  0  0  0
   22.6204   54.1039   14.0691 H   0  0  0  0  0  0
   26.1095   53.0730   11.7438 H   0  0  0  0  0  0
   22.4036   49.4730   12.7737 H   0  0  0  0  0  0
   20.6187   49.3467   15.5487 H   0  0  0  0  0  0
   17.2740   47.0730   14.1656 H   0  0  0  0  0  0
   17.9193   47.4730   11.8504 H   0  0  0  0  0  0
   19.1326   46.8902   10.5449 H   0  0  0  0  0  0
   19.0906   47.1517    8.8130 H   0  0  0  0  0  0
  1  5  2  0  0  0
  1  2  1  0  0  0
  1 22  1  0  0  0
  2  3  2  0  0  0
  2 23  1  0  0  0
  3  4  1  0  0  0
  3  6  1  0  0  0
  4  5  1  0  0  0
  5 24  1  0  0  0
  6  7  2  0  0  0
  6  8  1  0  0  0
  8 16  1  0  0  0
  8  9  1  0  0  0
  8 25  1  0  0  0
  9 14  2  0  0  0
  9 10  1  0  0  0
 10 11  2  0  0  0
 10 26  1  0  0  0
 11 12  1  0  0  0
 11 21  1  0  0  0
 12 13  2  0  0  0
 12 27  1  0  0  0
 13 14  1  0  0  0
 13 28  1  0  0  0
 14 15  1  0  0  0
 15 16  1  0  0  0
 15 18  1  0  0  0
 16 17  2  0  0  0
 18 19  2  0  0  0
 18 20  1  0  0  0
 20 29  1  0  0  0
 20 30  1  0  0  0
M  END
> <s_m_entry_id>
5952

> <s_m_entry_name>
ligand_docking-pose.51

> <s_m_Source_Path>
/home/csk/Desktop/cluster/DUD-E-result/pgh1

> <s_m_Source_File>
ligand_docking-pose.sdf

> <i_m_Source_File_Index>
51

> <i_lp_mmshare_version>
53161

> <i_f3d_flags>
0

> <r_lp_tautomer_probability>
1

> <s_lp_Force_Field>
OPLS_2005

> <r_lp_Energy>
40.836886

> <b_lp_Chiralities_Consistent>
1

> <s_lp_Variant>
96265-2

> <s_i_glide_gridfile>
glide-grid_2oyu

> <i_i_glide_lignum>
147

> <i_i_glide_rotatable_bonds>
3

> <r_i_docking_score>
-9.0598122309117

> <r_i_glide_ligand_efficiency>
-0.431419630043414

> <r_i_glide_ligand_efficiency_sa>
-1.19025404628426

> <r_i_glide_ligand_efficiency_ln>
-2.24002026701854

> <r_i_glide_gscore>
-9.0598122309117

> <r_i_glide_lipo>
-3.62452283742171

> <r_i_glide_hbond>
-0.220441307275848

> <r_i_glide_metal>
0

> <r_i_glide_rewards>
-3.53862166945156

> <r_i_glide_evdw>
-34.0927696228027

> <r_i_glide_ecoul>
-2.23111534118652

> <r_i_glide_erotb>
0.36307936555554

> <r_i_glide_esite>
0

> <r_i_glide_emodel>
-50.6106273399041

> <r_i_glide_energy>
-36.3238849639893

> <r_i_glide_einternal>
6.80644369125366

> <i_i_glide_confnum>
5

> <i_i_glide_posenum>
338

> <r_i_glide_eff_state_penalty>
0

> <s_user_duplicate_titles>
96265

> <s_m_subgroup_title>
dock_pv

> <s_m_subgroupid>
dock_pv1

> <b_m_subgroup_collapsed>
0

$$$$
391217
                    3D
 Schrodinger Suite 2021-1.
 42 44  0  0  1  0            999 V2000
   20.5210   51.8749   17.4003 C   0  0  0  0  0  0
   20.8574   51.4455   15.9767 C   0  0  0  0  0  0
   20.9225   49.6497   15.7998 S   0  0  0  0  0  0
   20.1715   49.3441   14.2437 C   0  0  0  0  0  0
   19.1368   48.5467   14.1695 N   0  0  0  0  0  0
   18.9220   48.3745   12.8887 C   0  0  0  0  0  0
   19.8139   49.0823   12.0976 C   0  0  0  0  0  0
   20.6376   49.7309   12.9947 N   0  0  0  0  0  0
   21.7687   50.5112   12.6857 C   0  0  0  0  0  0
   21.7854   51.8740   12.9837 C   0  0  0  0  0  0
   22.9245   52.6290   12.7240 C   0  0  0  0  0  0
   24.0325   52.0206   12.1444 C   0  0  0  0  0  0
   24.0025   50.6733   11.8033 C   0  0  0  0  0  0
   22.8677   49.9133   12.0660 C   0  0  0  0  0  0
   25.1561   52.7353   11.9280 F   0  0  0  0  0  0
   19.9107   49.1219   10.6164 C   0  0  0  0  0  0
   19.7106   47.9202    9.9483 C   0  0  0  0  0  0
   19.7263   47.8699    8.5649 C   0  0  0  0  0  0
   19.9755   49.0284    7.8313 C   0  0  0  0  0  0
   20.1230   50.2477    8.4962 C   0  0  0  0  0  0
   20.1231   50.2929    9.8898 C   0  0  0  0  0  0
   19.9903   48.9075    6.0561 S   0  0  0  0  0  0
   20.9229   49.8730    5.4833 O   0  0  0  0  0  0
   20.1230   47.4929    5.7541 O   0  0  0  0  0  0
   18.2852   49.3375    5.5395 C   0  0  0  0  0  0
   20.5230   52.9607   17.4928 H   0  0  0  0  0  0
   19.5245   51.5282   17.6763 H   0  0  0  0  0  0
   21.2451   51.4733   18.1126 H   0  0  0  0  0  0
   21.8061   51.8625   15.6610 H   0  0  0  0  0  0
   20.1232   51.8726   15.3102 H   0  0  0  0  0  0
   18.1206   47.7411   12.5352 H   0  0  0  0  0  0
   20.9238   52.3642   13.4065 H   0  0  0  0  0  0
   22.9544   53.6785   12.9776 H   0  0  0  0  0  0
   24.8880   50.2130   11.3996 H   0  0  0  0  0  0
   22.8608   48.8627   11.8105 H   0  0  0  0  0  0
   19.5351   47.0249   10.5149 H   0  0  0  0  0  0
   19.5644   46.9232    8.0736 H   0  0  0  0  0  0
   20.2446   51.1576    7.9256 H   0  0  0  0  0  0
   20.2471   51.2380   10.3964 H   0  0  0  0  0  0
   18.3185   49.4703    4.4632 H   0  0  0  0  0  0
   17.6827   48.4796    5.7988 H   0  0  0  0  0  0
   17.9525   50.2375    6.0429 H   0  0  0  0  0  0
  1  2  1  0  0  0
  1 26  1  0  0  0
  1 27  1  0  0  0
  1 28  1  0  0  0
  2  3  1  0  0  0
  2 29  1  0  0  0
  2 30  1  0  0  0
  3  4  1  0  0  0
  4  8  1  0  0  0
  4  5  2  0  0  0
  5  6  1  0  0  0
  6  7  2  0  0  0
  6 31  1  0  0  0
  7  8  1  0  0  0
  7 16  1  0  0  0
  8  9  1  0  0  0
  9 14  1  0  0  0
  9 10  2  0  0  0
 10 11  1  0  0  0
 10 32  1  0  0  0
 11 12  2  0  0  0
 11 33  1  0  0  0
 12 13  1  0  0  0
 12 15  1  0  0  0
 13 14  2  0  0  0
 13 34  1  0  0  0
 14 35  1  0  0  0
 16 21  1  0  0  0
 16 17  2  0  0  0
 17 18  1  0  0  0
 17 36  1  0  0  0
 18 19  2  0  0  0
 18 37  1  0  0  0
 19 20  1  0  0  0
 19 22  1  0  0  0
 20 21  2  0  0  0
 20 38  1  0  0  0
 21 39  1  0  0  0
 22 23  2  0  0  0
 22 24  2  0  0  0
 22 25  1  0  0  0
 25 40  1  0  0  0
 25 41  1  0  0  0
 25 42  1  0  0  0
M  END
> <s_m_entry_id>
5954

> <s_m_entry_name>
ligand_docking-pose.53

> <s_m_Source_Path>
/home/csk/Desktop/cluster/DUD-E-result/pgh1

> <s_m_Source_File>
ligand_docking-pose.sdf

> <i_m_Source_File_Index>
53

> <i_lp_mmshare_version>
53161

> <i_f3d_flags>
0

> <r_lp_tautomer_probability>
1

> <s_lp_Force_Field>
OPLS_2005

> <r_lp_Energy>
10.358663

> <b_lp_Chiralities_Consistent>
1

> <s_lp_Variant>
391217-1

> <s_i_glide_gridfile>
glide-grid_2oyu

> <i_i_glide_lignum>
541

> <i_i_glide_rotatable_bonds>
5

> <r_i_docking_score>
-8.99175648799137

> <r_i_glide_ligand_efficiency>
-0.359670259519655

> <r_i_glide_ligand_efficiency_sa>
-1.05168221761468

> <r_i_glide_ligand_efficiency_ln>
-2.13131574885172

> <r_i_glide_gscore>
-8.99175648799137

> <r_i_glide_lipo>
-4.42329003258382

> <r_i_glide_hbond>
0

> <r_i_glide_metal>
0

> <r_i_glide_rewards>
-3.04700516802272

> <r_i_glide_evdw>
-20.0210494995117

> <r_i_glide_ecoul>
-6.07225561141968

> <r_i_glide_erotb>
0.40975194695809

> <r_i_glide_esite>
-0.0193224176543863

> <r_i_glide_emodel>
-36.4420890261731

> <r_i_glide_energy>
-26.0933051109314

> <r_i_glide_einternal>
4.69538450241089

> <i_i_glide_confnum>
34

> <i_i_glide_posenum>
338

> <r_i_glide_eff_state_penalty>
0

> <s_user_duplicate_titles>
391217

> <s_m_subgroup_title>
dock_pv

> <s_m_subgroupid>
dock_pv1

> <b_m_subgroup_collapsed>
0

$$$$
69284
                    3D
 Schrodinger Suite 2021-1.
 38 40  0  0  1  0            999 V2000
   25.1274   54.1001   13.1901 C   0  0  0  0  0  0
   24.8853   53.0166   12.2982 O   0  0  0  0  0  0
   23.7864   52.2034   12.4979 C   0  0  0  0  0  0
   23.6791   51.0921   11.6627 C   0  0  0  0  0  0
   22.6168   50.2031   11.8000 C   0  0  0  0  0  0
   21.6382   50.4219   12.7718 C   0  0  0  0  0  0
   21.7354   51.5390   13.6109 C   0  0  0  0  0  0
   22.8032   52.4231   13.4741 C   0  0  0  0  0  0
   20.5675   49.5034   12.9163 N   0  0  0  0  0  0
   19.8210   48.8536   11.9448 C   0  0  0  0  0  0
   18.9477   48.0620   12.6719 C   0  0  0  0  0  0
   19.2128   48.2721   14.0237 C   0  0  0  0  0  0
   20.2011   49.1269   14.1586 N   0  0  0  0  0  0
   18.5537   47.6399   15.2352 C   0  0  0  0  0  0
   17.3765   47.0970   14.9252 F   0  0  0  0  0  0
   19.3230   46.6730   15.7321 F   0  0  0  0  0  0
   18.3353   48.5324   16.2000 F   0  0  0  0  0  0
   19.9187   48.9824   10.4592 C   0  0  0  0  0  0
   20.1230   50.2092    9.8306 C   0  0  0  0  0  0
   20.1230   50.2730    8.4407 C   0  0  0  0  0  0
   19.9608   49.1244    7.6651 C   0  0  0  0  0  0
   19.7230   47.9040    8.2868 C   0  0  0  0  0  0
   19.7230   47.8402    9.6776 C   0  0  0  0  0  0
   19.9838   49.2200    6.2767 N   0  0  0  0  0  0
   26.0116   54.6472   12.8624 H   0  0  0  0  0  0
   24.2974   54.8073   13.2138 H   0  0  0  0  0  0
   25.3229   53.7396   14.2000 H   0  0  0  0  0  0
   24.4341   50.9150   10.9099 H   0  0  0  0  0  0
   22.5507   49.3448   11.1485 H   0  0  0  0  0  0
   20.9903   51.7270   14.3713 H   0  0  0  0  0  0
   22.8569   53.2702   14.1414 H   0  0  0  0  0  0
   18.1858   47.4159   12.2628 H   0  0  0  0  0  0
   20.2410   51.1145   10.4078 H   0  0  0  0  0  0
   20.2466   51.2307    7.9571 H   0  0  0  0  0  0
   19.5642   47.0165    7.6999 H   0  0  0  0  0  0
   19.5718   46.8889   10.1553 H   0  0  0  0  0  0
   19.8322   50.1336    5.8729 H   0  0  0  0  0  0
   19.7780   48.3981    5.7314 H   0  0  0  0  0  0
  1  2  1  0  0  0
  1 25  1  0  0  0
  1 26  1  0  0  0
  1 27  1  0  0  0
  2  3  1  0  0  0
  3  8  1  0  0  0
  3  4  2  0  0  0
  4  5  1  0  0  0
  4 28  1  0  0  0
  5  6  2  0  0  0
  5 29  1  0  0  0
  6  7  1  0  0  0
  6  9  1  0  0  0
  7  8  2  0  0  0
  7 30  1  0  0  0
  8 31  1  0  0  0
  9 13  1  0  0  0
  9 10  1  0  0  0
 10 11  2  0  0  0
 10 18  1  0  0  0
 11 12  1  0  0  0
 11 32  1  0  0  0
 12 13  2  0  0  0
 12 14  1  0  0  0
 14 15  1  0  0  0
 14 16  1  0  0  0
 14 17  1  0  0  0
 18 23  1  0  0  0
 18 19  2  0  0  0
 19 20  1  0  0  0
 19 33  1  0  0  0
 20 21  2  0  0  0
 20 34  1  0  0  0
 21 22  1  0  0  0
 21 24  1  0  0  0
 22 23  2  0  0  0
 22 35  1  0  0  0
 23 36  1  0  0  0
 24 37  1  0  0  0
 24 38  1  0  0  0
M  END
> <s_m_entry_id>
5955

> <s_m_entry_name>
ligand_docking-pose.54

> <s_m_Source_Path>
/home/csk/Desktop/cluster/DUD-E-result/pgh1

> <s_m_Source_File>
ligand_docking-pose.sdf

> <i_m_Source_File_Index>
54

> <i_lp_mmshare_version>
53161

> <i_f3d_flags>
0

> <r_lp_tautomer_probability>
1

> <s_lp_Force_Field>
OPLS_2005

> <r_lp_Energy>
21.820004

> <b_lp_Chiralities_Consistent>
1

> <s_lp_Variant>
69284-1

> <s_i_glide_gridfile>
glide-grid_2oyu

> <i_i_glide_lignum>
598

> <i_i_glide_rotatable_bonds>
4

> <r_i_docking_score>
-8.95561911813442

> <r_i_glide_ligand_efficiency>
-0.373150796588934

> <r_i_glide_ligand_efficiency_sa>
-1.07635315094028

> <r_i_glide_ligand_efficiency_ln>
-2.14349060155326

> <r_i_glide_gscore>
-8.95561911813442

> <r_i_glide_lipo>
-4.6175576421912

> <r_i_glide_hbond>
0

> <r_i_glide_metal>
0

> <r_i_glide_rewards>
-2.64558520273579

> <r_i_glide_evdw>
-34.1217002868652

> <r_i_glide_ecoul>
-2.09201693534851

> <r_i_glide_erotb>
0.339276803356123

> <r_i_glide_esite>
-0.0118655219180216

> <r_i_glide_emodel>
-54.3934761635312

> <r_i_glide_energy>
-36.2137172222137

> <r_i_glide_einternal>
0.226985096931458

> <i_i_glide_confnum>
3

> <i_i_glide_posenum>
338

> <r_i_glide_eff_state_penalty>
0

> <s_user_duplicate_titles>
69284

> <s_m_subgroup_title>
dock_pv

> <s_m_subgroupid>
dock_pv1

> <b_m_subgroup_collapsed>
0

$$$$
456950
                    3D
 Schrodinger Suite 2021-1.
 36 38  0  0  1  0            999 V2000
   19.5748   47.9930    6.8878 C   0  0  0  0  0  0
   20.1230   49.0883    7.6067 O   0  0  0  0  0  0
   20.1230   49.0612    8.9867 C   0  0  0  0  0  0
   19.7230   47.9612    9.7568 C   0  0  0  0  0  0
   19.7230   48.0532   11.1462 C   0  0  0  0  0  0
   19.9980   49.2664   11.7976 C   0  0  0  0  0  0
   20.2477   50.3896   11.0001 C   0  0  0  0  0  0
   20.3494   50.2730    9.6229 C   0  0  0  0  0  0
   20.0756   49.3465   13.2968 C   0  0  0  0  0  0
   20.9540   50.1560   13.9531 C   0  0  0  0  0  0
   20.9230   50.1978   15.7189 S   0  0  0  0  0  0
   19.7159   48.6329   15.8000 S   0  0  0  0  0  0
   19.1575   48.6514   14.1585 C   0  0  0  0  0  0
   17.7230   47.8730   13.8974 S   0  0  0  0  0  0
   22.0347   50.9753   13.3778 C   0  0  0  0  0  0
   22.1703   52.2996   13.8000 C   0  0  0  0  0  0
   23.2618   53.0511   13.4000 C   0  0  0  0  0  0
   24.2198   52.4894   12.5486 C   0  0  0  0  0  0
   24.0252   51.2084   12.0387 C   0  0  0  0  0  0
   22.9477   50.4433   12.4648 C   0  0  0  0  0  0
   25.3978   53.1044   12.2000 O   0  0  0  0  0  0
   25.7185   54.3682   12.7733 C   0  0  0  0  0  0
   19.6389   48.2002    5.8196 H   0  0  0  0  0  0
   18.5230   47.8406    7.1347 H   0  0  0  0  0  0
   20.1230   47.0730    7.0805 H   0  0  0  0  0  0
   19.4772   47.0172    9.2987 H   0  0  0  0  0  0
   19.5147   47.1558   11.7088 H   0  0  0  0  0  0
   20.3993   51.3635   11.4392 H   0  0  0  0  0  0
   20.5543   51.1399    9.0196 H   0  0  0  0  0  0
   21.4617   52.7366   14.4892 H   0  0  0  0  0  0
   23.3627   54.0460   13.8044 H   0  0  0  0  0  0
   24.7562   50.7795   11.3691 H   0  0  0  0  0  0
   22.8511   49.4248   12.1175 H   0  0  0  0  0  0
   26.5230   54.8290   12.2096 H   0  0  0  0  0  0
   24.8989   55.0819   12.7368 H   0  0  0  0  0  0
   26.0488   54.2530   13.8000 H   0  0  0  0  0  0
  1  2  1  0  0  0
  1 23  1  0  0  0
  1 24  1  0  0  0
  1 25  1  0  0  0
  2  3  1  0  0  0
  3  8  1  0  0  0
  3  4  2  0  0  0
  4  5  1  0  0  0
  4 26  1  0  0  0
  5  6  2  0  0  0
  5 27  1  0  0  0
  6  7  1  0  0  0
  6  9  1  0  0  0
  7  8  2  0  0  0
  7 28  1  0  0  0
  8 29  1  0  0  0
  9 13  1  0  0  0
  9 10  2  0  0  0
 10 11  1  0  0  0
 10 15  1  0  0  0
 11 12  1  0  0  0
 12 13  1  0  0  0
 13 14  2  0  0  0
 15 20  1  0  0  0
 15 16  2  0  0  0
 16 17  1  0  0  0
 16 30  1  0  0  0
 17 18  2  0  0  0
 17 31  1  0  0  0
 18 19  1  0  0  0
 18 21  1  0  0  0
 19 20  2  0  0  0
 19 32  1  0  0  0
 20 33  1  0  0  0
 21 22  1  0  0  0
 22 34  1  0  0  0
 22 35  1  0  0  0
 22 36  1  0  0  0
M  END
> <s_m_entry_id>
5958

> <s_m_entry_name>
ligand_docking-pose.57

> <s_m_Source_Path>
/home/csk/Desktop/cluster/DUD-E-result/pgh1

> <s_m_Source_File>
ligand_docking-pose.sdf

> <i_m_Source_File_Index>
57

> <i_lp_mmshare_version>
53161

> <i_f3d_flags>
0

> <r_lp_tautomer_probability>
1

> <s_lp_Force_Field>
OPLS_2005

> <r_lp_Energy>
33.999331

> <b_lp_Chiralities_Consistent>
1

> <s_lp_Variant>
456950-1

> <s_i_glide_gridfile>
glide-grid_2oyu

> <i_i_glide_lignum>
591

> <i_i_glide_rotatable_bonds>
4

> <r_i_docking_score>
-8.90174830709007

> <r_i_glide_ligand_efficiency>
-0.404624923049549

> <r_i_glide_ligand_efficiency_sa>
-1.13377494738006

> <r_i_glide_ligand_efficiency_ln>
-2.17591198541161

> <r_i_glide_gscore>
-8.90174830709007

> <r_i_glide_lipo>
-4.9669921691706

> <r_i_glide_hbond>
0

> <r_i_glide_metal>
0

> <r_i_glide_rewards>
-2.17696186119416

> <r_i_glide_evdw>
-38.0969581604004

> <r_i_glide_ecoul>
-1.13119888305664

> <r_i_glide_erotb>
0.316733463753195

> <r_i_glide_esite>
0

> <r_i_glide_emodel>
-47.35902146943

> <r_i_glide_energy>
-39.228157043457

> <r_i_glide_einternal>
8.99197578430176

> <i_i_glide_confnum>
2

> <i_i_glide_posenum>
320

> <r_i_glide_eff_state_penalty>
0

> <s_user_duplicate_titles>
456950

> <s_m_subgroup_title>
dock_pv

> <s_m_subgroupid>
dock_pv1

> <b_m_subgroup_collapsed>
0

$$$$
4989
                    3D
 Schrodinger Suite 2021-1.
 26 28  0  0  1  0            999 V2000
   17.9211   47.7807   14.9500 C   0  0  0  0  0  0
   18.9669   48.1446   15.7911 C   0  0  0  0  0  0
   20.0447   48.8760   15.2915 C   0  0  0  0  0  0
   20.0778   49.2562   13.9385 C   0  0  0  0  0  0
   19.0246   48.8495   13.0997 C   0  0  0  0  0  0
   17.9471   48.1314   13.6055 C   0  0  0  0  0  0
   21.1154   50.0942   13.4277 N   0  0  0  0  0  0
   21.6898   49.9235   12.2015 C   0  0  0  0  0  0
   21.3988   49.0734   11.3696 O   0  0  0  0  0  0
   22.7389   50.9569   12.0722 C   0  0  0  0  0  0
   23.6512   51.2156   11.0484 C   0  0  0  0  0  0
   24.5492   52.2730   11.2082 C   0  0  0  0  0  0
   24.5008   53.0710   12.3578 C   0  0  0  0  0  0
   23.5491   52.8155   13.3476 C   0  0  0  0  0  0
   22.6951   51.7247   13.1963 C   0  0  0  0  0  0
   21.6479   51.1670   14.0892 C   0  0  0  0  0  0
   21.3229   51.5928   15.1987 O   0  0  0  0  0  0
   17.0786   47.2326   15.3452 H   0  0  0  0  0  0
   18.9230   47.8728   16.8335 H   0  0  0  0  0  0
   20.8365   49.1640   15.9683 H   0  0  0  0  0  0
   19.0000   49.1374   12.0599 H   0  0  0  0  0  0
   17.1223   47.8730   12.9588 H   0  0  0  0  0  0
   23.6819   50.6263   10.1452 H   0  0  0  0  0  0
   25.2745   52.4768   10.4340 H   0  0  0  0  0  0
   25.1831   53.8994   12.4766 H   0  0  0  0  0  0
   23.4870   53.4674   14.1999 H   0  0  0  0  0  0
  1  6  1  0  0  0
  1  2  2  0  0  0
  1 18  1  0  0  0
  2  3  1  0  0  0
  2 19  1  0  0  0
  3  4  2  0  0  0
  3 20  1  0  0  0
  4  5  1  0  0  0
  4  7  1  0  0  0
  5  6  2  0  0  0
  5 21  1  0  0  0
  6 22  1  0  0  0
  7 16  1  0  0  0
  7  8  1  0  0  0
  8  9  2  0  0  0
  8 10  1  0  0  0
 10 15  2  0  0  0
 10 11  1  0  0  0
 11 12  2  0  0  0
 11 23  1  0  0  0
 12 13  1  0  0  0
 12 24  1  0  0  0
 13 14  2  0  0  0
 13 25  1  0  0  0
 14 15  1  0  0  0
 14 26  1  0  0  0
 15 16  1  0  0  0
 16 17  2  0  0  0
M  END
> <s_m_entry_id>
5959

> <s_m_entry_name>
ligand_docking-pose.58

> <s_m_Source_Path>
/home/csk/Desktop/cluster/DUD-E-result/pgh1

> <s_m_Source_File>
ligand_docking-pose.sdf

> <i_m_Source_File_Index>
58

> <i_lp_mmshare_version>
53161

> <i_f3d_flags>
0

> <r_lp_tautomer_probability>
1

> <s_lp_Force_Field>
OPLS_2005

> <r_lp_Energy>
47.798148

> <b_lp_Chiralities_Consistent>
1

> <s_lp_Variant>
4989-1

> <s_i_glide_gridfile>
glide-grid_2oyu

> <i_i_glide_lignum>
134

> <i_i_glide_rotatable_bonds>
1

> <r_i_docking_score>
-8.90094956310968

> <r_i_glide_ligand_efficiency>
-0.523585268418217

> <r_i_glide_ligand_efficiency_sa>
-1.34628516055217

> <r_i_glide_ligand_efficiency_ln>
-2.32205952661401

> <r_i_glide_gscore>
-8.90094956310968

> <r_i_glide_lipo>
-3.53717263820233

> <r_i_glide_hbond>
0

> <r_i_glide_metal>
0

> <r_i_glide_rewards>
-3.88146410413827

> <r_i_glide_evdw>
-31.4309616088867

> <r_i_glide_ecoul>
-1.6688107252121

> <r_i_glide_erotb>
0.339556868457072

> <r_i_glide_esite>
0

> <r_i_glide_emodel>
-49.8063339370441

> <r_i_glide_energy>
-33.0997723340988

> <r_i_glide_einternal>
0.0175916571170092

> <i_i_glide_confnum>
3

> <i_i_glide_posenum>
60

> <r_i_glide_eff_state_penalty>
0

> <s_user_duplicate_titles>
4989

> <s_m_subgroup_title>
dock_pv

> <s_m_subgroupid>
dock_pv1

> <b_m_subgroup_collapsed>
0

$$$$
597688
                    3D
 Schrodinger Suite 2021-1.
 41 43  0  0  1  0            999 V2000
   20.6949   49.6720   16.0516 C   0  0  0  0  0  0
   20.4917   49.4730   14.5630 C   0  0  0  0  0  0
   19.8584   48.4052   13.9543 C   0  0  0  0  0  0
   19.9481   48.6315   12.5497 C   0  0  0  0  0  0
   19.5747   47.8730   11.4392 C   0  0  0  0  0  0
   19.7230   48.3729   10.1488 C   0  0  0  0  0  0
   20.2003   49.6756    9.9767 C   0  0  0  0  0  0
   20.5793   50.4764   11.0585 C   0  0  0  0  0  0
   20.5054   49.9182   12.3511 C   0  0  0  0  0  0
   20.9230   50.3855   13.6050 N   0  0  0  0  0  0
   21.6462   51.5783   13.9389 C   0  0  0  0  0  0
   21.3230   52.2683   14.9075 O   0  0  0  0  0  0
   22.8540   51.9285   13.1188 C   0  0  0  0  0  0
   23.3502   51.0189   12.1829 C   0  0  0  0  0  0
   24.4065   51.3604   11.3855 C   0  0  0  0  0  0
   25.0941   52.5273   11.6252 C   0  0  0  0  0  0
   24.6780   53.4315   12.6000 C   0  0  0  0  0  0
   23.5209   53.1467   13.3198 C   0  0  0  0  0  0
   26.8951   52.6730   10.6000 I   0  0  0  0  0  0
   19.3230   47.5293    9.1270 O   0  0  0  0  0  0
   19.4859   47.8985    7.7560 C   0  0  0  0  0  0
   19.1752   47.2355   14.6399 C   0  0  0  0  0  0
   17.8215   47.6707   15.2001 C   0  0  0  0  0  0
   17.6139   47.8730   16.3934 O   0  0  0  0  0  0
   16.9229   47.8730   14.2000 O   0  0  0  0  0  0
   20.4026   48.7827   16.6000 H   0  0  0  0  0  0
   21.7290   49.8730   16.2973 H   0  0  0  0  0  0
   20.1230   50.5051   16.4540 H   0  0  0  0  0  0
   19.1737   46.8916   11.5925 H   0  0  0  0  0  0
   20.2784   50.0914    8.9831 H   0  0  0  0  0  0
   20.9598   51.4730   10.8868 H   0  0  0  0  0  0
   22.9520   50.0288   12.0355 H   0  0  0  0  0  0
   24.7411   50.6730   10.6324 H   0  0  0  0  0  0
   25.2384   54.3353   12.7929 H   0  0  0  0  0  0
   23.1761   53.8554   14.0614 H   0  0  0  0  0  0
   19.1424   47.0730    7.1369 H   0  0  0  0  0  0
   20.5230   48.0727    7.5029 H   0  0  0  0  0  0
   18.9230   48.7703    7.4287 H   0  0  0  0  0  0
   19.0188   46.3933   13.9655 H   0  0  0  0  0  0
   19.7781   46.8448   15.4596 H   0  0  0  0  0  0
   17.3049   47.7449   13.3307 H   0  0  0  0  0  0
  1  2  1  0  0  0
  1 26  1  0  0  0
  1 27  1  0  0  0
  1 28  1  0  0  0
  2 10  1  0  0  0
  2  3  2  0  0  0
  3  4  1  0  0  0
  3 22  1  0  0  0
  4  9  2  0  0  0
  4  5  1  0  0  0
  5  6  2  0  0  0
  5 29  1  0  0  0
  6  7  1  0  0  0
  6 20  1  0  0  0
  7  8  2  0  0  0
  7 30  1  0  0  0
  8  9  1  0  0  0
  8 31  1  0  0  0
  9 10  1  0  0  0
 10 11  1  0  0  0
 11 12  2  0  0  0
 11 13  1  0  0  0
 13 18  1  0  0  0
 13 14  2  0  0  0
 14 15  1  0  0  0
 14 32  1  0  0  0
 15 16  2  0  0  0
 15 33  1  0  0  0
 16 17  1  0  0  0
 16 19  1  0  0  0
 17 18  2  0  0  0
 17 34  1  0  0  0
 18 35  1  0  0  0
 20 21  1  0  0  0
 21 36  1  0  0  0
 21 37  1  0  0  0
 21 38  1  0  0  0
 22 23  1  0  0  0
 22 39  1  0  0  0
 22 40  1  0  0  0
 23 24  2  0  0  0
 23 25  1  0  0  0
 25 41  1  0  0  0
M  END
> <s_m_entry_id>
5960

> <s_m_entry_name>
ligand_docking-pose.59

> <s_m_Source_Path>
/home/csk/Desktop/cluster/DUD-E-result/pgh1

> <s_m_Source_File>
ligand_docking-pose.sdf

> <i_m_Source_File_Index>
59

> <i_lp_mmshare_version>
53161

> <i_f3d_flags>
0

> <r_lp_tautomer_probability>
1

> <s_lp_Force_Field>
OPLS_2005

> <r_lp_Energy>
28.428501

> <b_lp_Chiralities_Consistent>
1

> <s_lp_Variant>
597688-1

> <s_i_glide_gridfile>
glide-grid_2oyu

> <i_i_glide_lignum>
175

> <i_i_glide_rotatable_bonds>
6

> <r_i_docking_score>
-8.89902130233502

> <r_i_glide_ligand_efficiency>
-0.355960852093401

> <r_i_glide_ligand_efficiency_sa>
-1.0408358445137

> <r_i_glide_ligand_efficiency_ln>
-2.1093347308019

> <r_i_glide_gscore>
-8.89902130233502

> <r_i_glide_lipo>
-4.7544861886772

> <r_i_glide_hbond>
0

> <r_i_glide_metal>
0

> <r_i_glide_rewards>
-2.29752938364883

> <r_i_glide_evdw>
-36.1884307861328

> <r_i_glide_ecoul>
-2.8984260559082

> <r_i_glide_erotb>
0.397179717683896

> <r_i_glide_esite>
0

> <r_i_glide_emodel>
-42.0258962844607

> <r_i_glide_energy>
-39.086856842041

> <r_i_glide_einternal>
15.4689931869507

> <i_i_glide_confnum>
79

> <i_i_glide_posenum>
147

> <r_i_glide_eff_state_penalty>
0

> <s_user_duplicate_titles>
597688

> <s_m_subgroup_title>
dock_pv

> <s_m_subgroupid>
dock_pv1

> <b_m_subgroup_collapsed>
0

$$$$
455930
                    3D
 Schrodinger Suite 2021-1.
 36 38  0  0  1  0            999 V2000
   25.3230   54.2869   13.0401 C   0  0  0  0  0  0
   25.0034   53.1168   12.2914 O   0  0  0  0  0  0
   23.8827   52.3943   12.6379 C   0  0  0  0  0  0
   22.8872   52.8489   13.5124 C   0  0  0  0  0  0
   21.8436   52.0083   13.8833 C   0  0  0  0  0  0
   21.7814   50.6967   13.3998 C   0  0  0  0  0  0
   22.7511   50.2730   12.4845 C   0  0  0  0  0  0
   23.7770   51.1203   12.0904 C   0  0  0  0  0  0
   20.6938   49.7762   13.8408 C   0  0  0  0  0  0
   19.9082   49.0489   13.0023 C   0  0  0  0  0  0
   18.6388   48.0244   13.7253 S   0  0  0  0  0  0
   19.2594   48.2730   15.6179 S   0  0  0  0  0  0
   20.5230   49.5403   15.2809 C   0  0  0  0  0  0
   21.1525   50.1293   16.1597 O   0  0  0  0  0  0
   19.9253   49.1038   11.5155 C   0  0  0  0  0  0
   20.1938   50.2784   10.8064 C   0  0  0  0  0  0
   20.3211   50.2489    9.4250 C   0  0  0  0  0  0
   20.1230   49.0730    8.7099 C   0  0  0  0  0  0
   19.7236   47.9192    9.4000 C   0  0  0  0  0  0
   19.6814   47.9354   10.7904 C   0  0  0  0  0  0
   20.1231   49.1912    7.3346 O   0  0  0  0  0  0
   19.5745   48.1470    6.5431 C   0  0  0  0  0  0
   26.2296   54.7396   12.6397 H   0  0  0  0  0  0
   25.5097   54.0411   14.0855 H   0  0  0  0  0  0
   24.5388   55.0437   13.0000 H   0  0  0  0  0  0
   22.9230   53.8371   13.9450 H   0  0  0  0  0  0
   21.0980   52.3718   14.5760 H   0  0  0  0  0  0
   22.7213   49.2707   12.0824 H   0  0  0  0  0  0
   24.5293   50.7664   11.4000 H   0  0  0  0  0  0
   20.3277   51.2201   11.3165 H   0  0  0  0  0  0
   20.5230   51.1552    8.8802 H   0  0  0  0  0  0
   19.4931   47.0034    8.8798 H   0  0  0  0  0  0
   19.4405   47.0292   11.3147 H   0  0  0  0  0  0
   19.6316   48.4272    5.4911 H   0  0  0  0  0  0
   20.1230   47.2141    6.6661 H   0  0  0  0  0  0
   18.5237   47.9771    6.7839 H   0  0  0  0  0  0
  1  2  1  0  0  0
  1 23  1  0  0  0
  1 24  1  0  0  0
  1 25  1  0  0  0
  2  3  1  0  0  0
  3  8  1  0  0  0
  3  4  2  0  0  0
  4  5  1  0  0  0
  4 26  1  0  0  0
  5  6  2  0  0  0
  5 27  1  0  0  0
  6  7  1  0  0  0
  6  9  1  0  0  0
  7  8  2  0  0  0
  7 28  1  0  0  0
  8 29  1  0  0  0
  9 13  1  0  0  0
  9 10  2  0  0  0
 10 11  1  0  0  0
 10 15  1  0  0  0
 11 12  1  0  0  0
 12 13  1  0  0  0
 13 14  2  0  0  0
 15 20  1  0  0  0
 15 16  2  0  0  0
 16 17  1  0  0  0
 16 30  1  0  0  0
 17 18  2  0  0  0
 17 31  1  0  0  0
 18 19  1  0  0  0
 18 21  1  0  0  0
 19 20  2  0  0  0
 19 32  1  0  0  0
 20 33  1  0  0  0
 21 22  1  0  0  0
 22 34  1  0  0  0
 22 35  1  0  0  0
 22 36  1  0  0  0
M  END
> <s_m_entry_id>
5961

> <s_m_entry_name>
ligand_docking-pose.60

> <s_m_Source_Path>
/home/csk/Desktop/cluster/DUD-E-result/pgh1

> <s_m_Source_File>
ligand_docking-pose.sdf

> <i_m_Source_File_Index>
60

> <i_lp_mmshare_version>
53161

> <i_f3d_flags>
0

> <r_lp_tautomer_probability>
1

> <s_lp_Force_Field>
OPLS_2005

> <r_lp_Energy>
29.324848

> <b_lp_Chiralities_Consistent>
1

> <s_lp_Variant>
455930-1

> <s_i_glide_gridfile>
glide-grid_2oyu

> <i_i_glide_lignum>
590

> <i_i_glide_rotatable_bonds>
4

> <r_i_docking_score>
-8.88813639348424

> <r_i_glide_ligand_efficiency>
-0.404006199703829

> <r_i_glide_ligand_efficiency_sa>
-1.13204126023235

> <r_i_glide_ligand_efficiency_ln>
-2.17258473721973

> <r_i_glide_gscore>
-8.88813639348424

> <r_i_glide_lipo>
-5.16288200180534

> <r_i_glide_hbond>
0

> <r_i_glide_metal>
0

> <r_i_glide_rewards>
-1.79059677946269

> <r_i_glide_evdw>
-40.4102897644043

> <r_i_glide_ecoul>
-1.72450172901154

> <r_i_glide_erotb>
0.344532135355735

> <r_i_glide_esite>
0

> <r_i_glide_emodel>
-61.9062301172686

> <r_i_glide_energy>
-42.1347914934158

> <r_i_glide_einternal>
1.49858856201172

> <i_i_glide_confnum>
12

> <i_i_glide_posenum>
187

> <r_i_glide_eff_state_penalty>
0

> <s_user_duplicate_titles>
455930

> <s_m_subgroup_title>
dock_pv

> <s_m_subgroupid>
dock_pv1

> <b_m_subgroup_collapsed>
0

$$$$
391218
                    3D
 Schrodinger Suite 2021-1.
 39 41  0  0  1  0            999 V2000
   20.2212   51.0238   16.5998 C   0  0  0  0  0  0
   20.9230   49.5615   15.8000 S   0  0  0  0  0  0
   20.0988   49.3457   14.2840 C   0  0  0  0  0  0
   19.0596   48.5561   14.2058 N   0  0  0  0  0  0
   18.8423   48.4123   12.9228 C   0  0  0  0  0  0
   19.7378   49.1311   12.1400 C   0  0  0  0  0  0
   20.5461   49.7873   13.0494 N   0  0  0  0  0  0
   21.6633   50.6131   12.7894 C   0  0  0  0  0  0
   21.7810   51.8559   13.4206 C   0  0  0  0  0  0
   22.9221   52.6275   13.2283 C   0  0  0  0  0  0
   23.9243   52.1676   12.3798 C   0  0  0  0  0  0
   23.7822   50.9635   11.6978 C   0  0  0  0  0  0
   22.6588   50.1751   11.9130 C   0  0  0  0  0  0
   25.3750   53.0730   12.2001 Cl  0  0  0  0  0  0
   19.8579   49.1561   10.6577 C   0  0  0  0  0  0
   19.6464   47.9489    9.9995 C   0  0  0  0  0  0
   19.7231   47.8701    8.6178 C   0  0  0  0  0  0
   19.9800   49.0233    7.8758 C   0  0  0  0  0  0
   20.1230   50.2497    8.5287 C   0  0  0  0  0  0
   20.1224   50.3106    9.9209 C   0  0  0  0  0  0
   19.9945   48.9038    6.1000 S   0  0  0  0  0  0
   20.9229   49.8731    5.5302 O   0  0  0  0  0  0
   20.1230   47.4882    5.7982 O   0  0  0  0  0  0
   18.3054   49.3555    5.5582 C   0  0  0  0  0  0
   20.8653   51.3298   17.4232 H   0  0  0  0  0  0
   20.1233   51.8733   15.9301 H   0  0  0  0  0  0
   19.2467   50.7733   17.0037 H   0  0  0  0  0  0
   18.0445   47.7801   12.5600 H   0  0  0  0  0  0
   21.0012   52.2290   14.0620 H   0  0  0  0  0  0
   23.0333   53.5705   13.7454 H   0  0  0  0  0  0
   24.5559   50.6281   11.0251 H   0  0  0  0  0  0
   22.5728   49.2213   11.4119 H   0  0  0  0  0  0
   19.4218   47.0729   10.5769 H   0  0  0  0  0  0
   19.5622   46.9191    8.1339 H   0  0  0  0  0  0
   20.2557   51.1527    7.9494 H   0  0  0  0  0  0
   20.2573   51.2599   10.4177 H   0  0  0  0  0  0
   18.3609   49.4712    4.4807 H   0  0  0  0  0  0
   17.6925   48.5022    5.7991 H   0  0  0  0  0  0
   17.9800   50.2720    6.0442 H   0  0  0  0  0  0
  1  2  1  0  0  0
  1 25  1  0  0  0
  1 26  1  0  0  0
  1 27  1  0  0  0
  2  3  1  0  0  0
  3  7  1  0  0  0
  3  4  2  0  0  0
  4  5  1  0  0  0
  5  6  2  0  0  0
  5 28  1  0  0  0
  6  7  1  0  0  0
  6 15  1  0  0  0
  7  8  1  0  0  0
  8 13  1  0  0  0
  8  9  2  0  0  0
  9 10  1  0  0  0
  9 29  1  0  0  0
 10 11  2  0  0  0
 10 30  1  0  0  0
 11 12  1  0  0  0
 11 14  1  0  0  0
 12 13  2  0  0  0
 12 31  1  0  0  0
 13 32  1  0  0  0
 15 20  1  0  0  0
 15 16  2  0  0  0
 16 17  1  0  0  0
 16 33  1  0  0  0
 17 18  2  0  0  0
 17 34  1  0  0  0
 18 19  1  0  0  0
 18 21  1  0  0  0
 19 20  2  0  0  0
 19 35  1  0  0  0
 20 36  1  0  0  0
 21 22  2  0  0  0
 21 23  2  0  0  0
 21 24  1  0  0  0
 24 37  1  0  0  0
 24 38  1  0  0  0
 24 39  1  0  0  0
M  END
> <s_m_entry_id>
5962

> <s_m_entry_name>
ligand_docking-pose.61

> <s_m_Source_Path>
/home/csk/Desktop/cluster/DUD-E-result/pgh1

> <s_m_Source_File>
ligand_docking-pose.sdf

> <i_m_Source_File_Index>
61

> <i_lp_mmshare_version>
53161

> <i_f3d_flags>
0

> <r_lp_tautomer_probability>
1

> <s_lp_Force_Field>
OPLS_2005

> <r_lp_Energy>
11.729689

> <b_lp_Chiralities_Consistent>
1

> <s_lp_Variant>
391218-1

> <s_i_glide_gridfile>
glide-grid_2oyu

> <i_i_glide_lignum>
629

> <i_i_glide_rotatable_bonds>
4

> <r_i_docking_score>
-8.87913937106492

> <r_i_glide_ligand_efficiency>
-0.369964140461038

> <r_i_glide_ligand_efficiency_sa>
-1.06716124408767

> <r_i_glide_ligand_efficiency_ln>
-2.12518548865261

> <r_i_glide_gscore>
-8.87913937106492

> <r_i_glide_lipo>
-4.60579461263264

> <r_i_glide_hbond>
0

> <r_i_glide_metal>
0

> <r_i_glide_rewards>
-2.51280099683749

> <r_i_glide_evdw>
-21.5468902587891

> <r_i_glide_ecoul>
-6.23239612579346

> <r_i_glide_erotb>
0.270041771997929

> <r_i_glide_esite>
-0.018381601784252

> <r_i_glide_emodel>
-36.8001541299341

> <r_i_glide_energy>
-27.7792863845825

> <r_i_glide_einternal>
4.38050508499146

> <i_i_glide_confnum>
9

> <i_i_glide_posenum>
368

> <r_i_glide_eff_state_penalty>
0

> <s_user_duplicate_titles>
391218

> <s_m_subgroup_title>
dock_pv

> <s_m_subgroupid>
dock_pv1

> <b_m_subgroup_collapsed>
0

$$$$
456949
                    3D
 Schrodinger Suite 2021-1.
 31 33  0  0  1  0            999 V2000
   25.5301   53.3693   12.5335 C   0  0  0  0  0  0
   24.2178   52.6308   12.6540 C   0  0  0  0  0  0
   24.0782   51.3524   12.1124 C   0  0  0  0  0  0
   22.9824   50.5720   12.4703 C   0  0  0  0  0  0
   22.0147   51.0827   13.3411 C   0  0  0  0  0  0
   22.0914   52.4208   13.7443 C   0  0  0  0  0  0
   23.1897   53.1954   13.4000 C   0  0  0  0  0  0
   20.9564   50.2249   13.9172 C   0  0  0  0  0  0
   20.0975   49.3836   13.2715 C   0  0  0  0  0  0
   19.1996   48.6730   14.1506 C   0  0  0  0  0  0
   17.7743   47.8730   13.9001 S   0  0  0  0  0  0
   19.7575   48.6730   15.8000 S   0  0  0  0  0  0
   20.9230   50.2729   15.6874 S   0  0  0  0  0  0
   20.0091   49.2883   11.7677 C   0  0  0  0  0  0
   19.7230   48.0695   11.1243 C   0  0  0  0  0  0
   19.7230   47.9612    9.7338 C   0  0  0  0  0  0
   20.1230   49.0497    8.9630 C   0  0  0  0  0  0
   20.3310   50.2777    9.5731 C   0  0  0  0  0  0
   20.2499   50.4041   10.9536 C   0  0  0  0  0  0
   20.1221   48.9434    7.2346 Cl  0  0  0  0  0  0
   25.3861   54.4503   12.5343 H   0  0  0  0  0  0
   26.0662   53.0730   11.6299 H   0  0  0  0  0  0
   26.1415   53.1241   13.4002 H   0  0  0  0  0  0
   24.8597   50.9235   11.5004 H   0  0  0  0  0  0
   22.9288   49.5476   12.1305 H   0  0  0  0  0  0
   21.3391   52.8445   14.3942 H   0  0  0  0  0  0
   23.2839   54.1955   13.7999 H   0  0  0  0  0  0
   19.5184   47.1758   11.6939 H   0  0  0  0  0  0
   19.4871   47.0207    9.2605 H   0  0  0  0  0  0
   20.5230   51.1381    8.9556 H   0  0  0  0  0  0
   20.4013   51.3835   11.3800 H   0  0  0  0  0  0
  1  2  1  0  0  0
  1 21  1  0  0  0
  1 22  1  0  0  0
  1 23  1  0  0  0
  2  7  1  0  0  0
  2  3  2  0  0  0
  3  4  1  0  0  0
  3 24  1  0  0  0
  4  5  2  0  0  0
  4 25  1  0  0  0
  5  6  1  0  0  0
  5  8  1  0  0  0
  6  7  2  0  0  0
  6 26  1  0  0  0
  7 27  1  0  0  0
  8 13  1  0  0  0
  8  9  2  0  0  0
  9 10  1  0  0  0
  9 14  1  0  0  0
 10 11  2  0  0  0
 10 12  1  0  0  0
 12 13  1  0  0  0
 14 19  1  0  0  0
 14 15  2  0  0  0
 15 16  1  0  0  0
 15 28  1  0  0  0
 16 17  2  0  0  0
 16 29  1  0  0  0
 17 18  1  0  0  0
 17 20  1  0  0  0
 18 19  2  0  0  0
 18 30  1  0  0  0
 19 31  1  0  0  0
M  END
> <s_m_entry_id>
5963

> <s_m_entry_name>
ligand_docking-pose.62

> <s_m_Source_Path>
/home/csk/Desktop/cluster/DUD-E-result/pgh1

> <s_m_Source_File>
ligand_docking-pose.sdf

> <i_m_Source_File_Index>
62

> <i_lp_mmshare_version>
53161

> <i_f3d_flags>
0

> <r_lp_tautomer_probability>
1

> <s_lp_Force_Field>
OPLS_2005

> <r_lp_Energy>
27.202596

> <b_lp_Chiralities_Consistent>
1

> <s_lp_Variant>
456949-1

> <s_i_glide_gridfile>
glide-grid_2oyu

> <i_i_glide_lignum>
208

> <i_i_glide_rotatable_bonds>
2

> <r_i_docking_score>
-8.87349355874801

> <r_i_glide_ligand_efficiency>
-0.4436746779374

> <r_i_glide_ligand_efficiency_sa>
-1.20431836062775

> <r_i_glide_ligand_efficiency_ln>
-2.2207427703497

> <r_i_glide_gscore>
-8.87349355874801

> <r_i_glide_lipo>
-4.91711098578461

> <r_i_glide_hbond>
0

> <r_i_glide_metal>
0

> <r_i_glide_rewards>
-2.45219289518129

> <r_i_glide_evdw>
-35.7470626831055

> <r_i_glide_ecoul>
-0.354984283447266

> <r_i_glide_erotb>
0.336411098890258

> <r_i_glide_esite>
0

> <r_i_glide_emodel>
-38.126001457309

> <r_i_glide_energy>
-36.1020469665527

> <r_i_glide_einternal>
4.74583673477173

> <i_i_glide_confnum>
10

> <i_i_glide_posenum>
261

> <r_i_glide_eff_state_penalty>
0

> <s_user_duplicate_titles>
456949

> <s_m_subgroup_title>
dock_pv

> <s_m_subgroupid>
dock_pv1

> <b_m_subgroup_collapsed>
0

$$$$
50612
                    3D
 Schrodinger Suite 2021-1.
 34 36  0  0  1  0            999 V2000
   19.1155   48.1656   12.4979 C   0  0  0  0  0  0
   18.8476   48.0409   13.8520 C   0  0  0  0  0  0
   19.6069   48.7411   14.7499 C   0  0  0  0  0  0
   20.5941   49.6229   14.3486 C   0  0  0  0  0  0
   20.8034   49.8739   12.9775 C   0  0  0  0  0  0
   20.0500   49.1120   12.0259 C   0  0  0  0  0  0
   20.1257   49.2862   10.5459 N   0  3  0  0  0  0
   20.5308   50.3360   10.0653 O   0  5  0  0  0  0
   19.7232   48.3655    9.8365 O   0  0  0  0  0  0
   21.7817   51.0152   12.5889 C   0  0  0  0  0  0
   22.1228   52.0177   13.7344 C   0  0  0  0  0  0
   23.0187   53.1795   13.2702 C   0  0  0  0  0  0
   24.2941   52.6720   12.5828 C   0  0  0  0  0  0
   23.9877   51.6698   11.4513 C   0  0  0  0  0  0
   23.0807   50.5063   11.9130 C   0  0  0  0  0  0
   19.1635   48.5986   16.0338 O   0  0  0  0  0  0
   17.9939   47.9285   16.0129 C   0  0  0  0  0  0
   17.2559   47.8732   16.9931 O   0  0  0  0  0  0
   17.7867   47.3297   14.6288 C   0  0  0  0  0  0
   18.5231   47.5951   11.8002 H   0  0  0  0  0  0
   21.1140   50.1682   15.1177 H   0  0  0  0  0  0
   21.2281   51.6180   11.8745 H   0  0  0  0  0  0
   21.2078   52.4506   14.1425 H   0  0  0  0  0  0
   22.6571   51.5143   14.5408 H   0  0  0  0  0  0
   22.4704   53.8361   12.6000 H   0  0  0  0  0  0
   23.2822   53.8046   14.1233 H   0  0  0  0  0  0
   24.8719   53.5138   12.2001 H   0  0  0  0  0  0
   24.9217   52.1940   13.3325 H   0  0  0  0  0  0
   23.5105   52.1945   10.6220 H   0  0  0  0  0  0
   24.9206   51.2744   11.0484 H   0  0  0  0  0  0
   23.6396   49.8707   12.6001 H   0  0  0  0  0  0
   22.8501   49.9072   11.0332 H   0  0  0  0  0  0
   17.9257   46.2505   14.6596 H   0  0  0  0  0  0
   16.7796   47.5464   14.2734 H   0  0  0  0  0  0
  1  6  1  0  0  0
  1  2  2  0  0  0
  1 20  1  0  0  0
  2 19  1  0  0  0
  2  3  1  0  0  0
  3  4  2  0  0  0
  3 16  1  0  0  0
  4  5  1  0  0  0
  4 21  1  0  0  0
  5  6  2  0  0  0
  5 10  1  0  0  0
  6  7  1  0  0  0
  7  8  1  0  0  0
  7  9  2  0  0  0
 10 15  1  0  0  0
 10 11  1  0  0  0
 10 22  1  0  0  0
 11 12  1  0  0  0
 11 23  1  0  0  0
 11 24  1  0  0  0
 12 13  1  0  0  0
 12 25  1  0  0  0
 12 26  1  0  0  0
 13 14  1  0  0  0
 13 27  1  0  0  0
 13 28  1  0  0  0
 14 15  1  0  0  0
 14 29  1  0  0  0
 14 30  1  0  0  0
 15 31  1  0  0  0
 15 32  1  0  0  0
 16 17  1  0  0  0
 17 18  2  0  0  0
 17 19  1  0  0  0
 19 33  1  0  0  0
 19 34  1  0  0  0
M  CHG  2   7   1   8  -1
M  END
> <s_m_entry_id>
5964

> <s_m_entry_name>
ligand_docking-pose.63

> <s_m_Source_Path>
/home/csk/Desktop/cluster/DUD-E-result/pgh1

> <s_m_Source_File>
ligand_docking-pose.sdf

> <i_m_Source_File_Index>
63

> <i_lp_mmshare_version>
53161

> <i_f3d_flags>
0

> <r_lp_tautomer_probability>
1

> <s_lp_Force_Field>
OPLS_2005

> <r_lp_Energy>
31.716634

> <b_lp_Chiralities_Consistent>
1

> <s_lp_Variant>
50612-1

> <s_i_glide_gridfile>
glide-grid_2oyu

> <i_i_glide_lignum>
3

> <i_i_glide_rotatable_bonds>
2

> <r_i_docking_score>
-8.8545667941991

> <r_i_glide_ligand_efficiency>
-0.466029831273637

> <r_i_glide_ligand_efficiency_sa>
-1.24355476890366

> <r_i_glide_ligand_efficiency_ln>
-2.24482286098651

> <r_i_glide_gscore>
-8.8545667941991

> <r_i_glide_lipo>
-3.83176067069623

> <r_i_glide_hbond>
0

> <r_i_glide_metal>
0

> <r_i_glide_rewards>
-3.20658028536006

> <r_i_glide_evdw>
-39.2622375488281

> <r_i_glide_ecoul>
-0.751150608062744

> <r_i_glide_erotb>
0.259558630508007

> <r_i_glide_esite>
0

> <r_i_glide_emodel>
-50.3939168835605

> <r_i_glide_energy>
-40.0133881568909

> <r_i_glide_einternal>
4.10402488708496

> <i_i_glide_confnum>
2

> <i_i_glide_posenum>
45

> <r_i_glide_eff_state_penalty>
0

> <s_user_duplicate_titles>
50612

> <s_m_subgroup_title>
dock_pv

> <s_m_subgroupid>
dock_pv1

> <b_m_subgroup_collapsed>
0

$$$$
4982
                    3D
 Schrodinger Suite 2021-1.
 32 34  0  0  1  0            999 V2000
   19.7230   49.4323   10.9891 C   0  0  0  0  0  0
   19.6202   48.9603   12.4429 C   0  0  0  0  0  0
   18.6911   47.9519   12.7110 C   0  0  0  0  0  0
   18.4577   47.5186   14.0071 C   0  0  0  0  0  0
   19.1600   48.0847   15.0563 C   0  0  0  0  0  0
   20.1230   49.0681   14.8235 C   0  0  0  0  0  0
   20.3851   49.5201   13.5041 C   0  0  0  0  0  0
   21.4346   50.4539   13.2224 N   0  0  0  0  0  0
   22.4441   50.1445   12.3661 C   0  0  0  0  0  0
   22.6142   49.0730   11.8000 O   0  0  0  0  0  0
   23.3230   51.3164   12.2874 C   0  0  0  0  0  0
   24.4791   51.5223   11.5496 C   0  0  0  0  0  0
   25.2193   52.6730   11.8000 C   0  0  0  0  0  0
   24.7729   53.6121   12.7397 C   0  0  0  0  0  0
   23.5553   53.4227   13.4000 C   0  0  0  0  0  0
   22.8593   52.2379   13.1715 C   0  0  0  0  0  0
   21.6157   51.6981   13.7684 C   0  0  0  0  0  0
   20.9230   52.2612   14.6115 O   0  0  0  0  0  0
   20.8539   49.5502   16.0602 C   0  0  0  0  0  0
   19.6843   50.5208   10.9327 H   0  0  0  0  0  0
   20.6312   49.0959   10.4980 H   0  0  0  0  0  0
   18.9230   49.0404   10.3718 H   0  0  0  0  0  0
   18.1230   47.5065   11.9075 H   0  0  0  0  0  0
   17.7227   46.7526   14.2017 H   0  0  0  0  0  0
   18.9596   47.7433   16.0620 H   0  0  0  0  0  0
   24.8347   50.7859   10.8490 H   0  0  0  0  0  0
   26.1514   52.8253   11.2766 H   0  0  0  0  0  0
   25.3524   54.5043   12.9311 H   0  0  0  0  0  0
   23.2025   54.1586   14.1100 H   0  0  0  0  0  0
   21.7230   50.1629   15.8768 H   0  0  0  0  0  0
   20.1718   50.1094   16.6998 H   0  0  0  0  0  0
   21.2013   48.6730   16.6000 H   0  0  0  0  0  0
  1  2  1  0  0  0
  1 20  1  0  0  0
  1 21  1  0  0  0
  1 22  1  0  0  0
  2  7  1  0  0  0
  2  3  2  0  0  0
  3  4  1  0  0  0
  3 23  1  0  0  0
  4  5  2  0  0  0
  4 24  1  0  0  0
  5  6  1  0  0  0
  5 25  1  0  0  0
  6  7  2  0  0  0
  6 19  1  0  0  0
  7  8  1  0  0  0
  8 17  1  0  0  0
  8  9  1  0  0  0
  9 10  2  0  0  0
  9 11  1  0  0  0
 11 16  2  0  0  0
 11 12  1  0  0  0
 12 13  2  0  0  0
 12 26  1  0  0  0
 13 14  1  0  0  0
 13 27  1  0  0  0
 14 15  2  0  0  0
 14 28  1  0  0  0
 15 16  1  0  0  0
 15 29  1  0  0  0
 16 17  1  0  0  0
 17 18  2  0  0  0
 19 30  1  0  0  0
 19 31  1  0  0  0
 19 32  1  0  0  0
M  END
> <s_m_entry_id>
5968

> <s_m_entry_name>
ligand_docking-pose.67

> <s_m_Source_Path>
/home/csk/Desktop/cluster/DUD-E-result/pgh1

> <s_m_Source_File>
ligand_docking-pose.sdf

> <i_m_Source_File_Index>
67

> <i_lp_mmshare_version>
53161

> <i_f3d_flags>
0

> <r_lp_tautomer_probability>
1

> <s_lp_Force_Field>
OPLS_2005

> <r_lp_Energy>
48.383992

> <b_lp_Chiralities_Consistent>
1

> <s_lp_Variant>
4982-1

> <s_i_glide_gridfile>
glide-grid_2oyu

> <i_i_glide_lignum>
243

> <i_i_glide_rotatable_bonds>
1

> <r_i_docking_score>
-8.82569917954304

> <r_i_glide_ligand_efficiency>
-0.464510483133844

> <r_i_glide_ligand_efficiency_sa>
-1.23950053782643

> <r_i_glide_ligand_efficiency_ln>
-2.23750430065168

> <r_i_glide_gscore>
-8.82569917954304

> <r_i_glide_lipo>
-3.85348765291004

> <r_i_glide_hbond>
0

> <r_i_glide_metal>
0

> <r_i_glide_rewards>
-3.69011444028046

> <r_i_glide_evdw>
-25.7442283630371

> <r_i_glide_ecoul>
-1.81629633903503

> <r_i_glide_erotb>
0.277558782654578

> <r_i_glide_esite>
0

> <r_i_glide_emodel>
-39.3989596318933

> <r_i_glide_energy>
-27.5605247020721

> <r_i_glide_einternal>
2.76191353797913

> <i_i_glide_confnum>
2

> <i_i_glide_posenum>
98

> <r_i_glide_eff_state_penalty>
0

> <s_user_duplicate_titles>
4982

> <s_m_subgroup_title>
dock_pv

> <s_m_subgroupid>
dock_pv1

> <b_m_subgroup_collapsed>
0

$$$$
455871
                    3D
 Schrodinger Suite 2021-1.
 31 33  0  0  1  0            999 V2000
   25.0940   53.2721   12.5671 C   0  0  0  0  0  0
   23.8684   52.4026   12.7644 C   0  0  0  0  0  0
   22.8179   52.8649   13.5525 C   0  0  0  0  0  0
   21.7612   52.0174   13.8609 C   0  0  0  0  0  0
   21.7478   50.6990   13.3890 C   0  0  0  0  0  0
   22.7647   50.2731   12.5265 C   0  0  0  0  0  0
   23.8117   51.1280   12.1998 C   0  0  0  0  0  0
   20.6716   49.7676   13.8194 C   0  0  0  0  0  0
   19.8802   49.0506   12.9794 C   0  0  0  0  0  0
   18.6186   48.0190   13.7058 S   0  0  0  0  0  0
   19.2403   48.2730   15.5992 S   0  0  0  0  0  0
   20.5230   49.5176   15.2584 C   0  0  0  0  0  0
   21.1711   50.0901   16.1344 O   0  0  0  0  0  0
   19.8939   49.1141   11.4924 C   0  0  0  0  0  0
   19.6548   47.9441   10.7658 C   0  0  0  0  0  0
   19.7230   47.9222    9.3766 C   0  0  0  0  0  0
   20.1230   49.0730    8.7033 C   0  0  0  0  0  0
   20.2953   50.2634    9.4019 C   0  0  0  0  0  0
   20.1640   50.2913   10.7849 C   0  0  0  0  0  0
   20.2129   49.0699    6.9791 Cl  0  0  0  0  0  0
   25.5628   53.0723   11.6044 H   0  0  0  0  0  0
   25.8229   53.0730   13.3529 H   0  0  0  0  0  0
   24.8395   54.3320   12.6000 H   0  0  0  0  0  0
   22.8476   53.8577   13.9796 H   0  0  0  0  0  0
   20.9753   52.3736   14.5116 H   0  0  0  0  0  0
   22.7644   49.2670   12.1329 H   0  0  0  0  0  0
   24.6100   50.7717   11.5642 H   0  0  0  0  0  0
   19.4118   47.0393   11.2899 H   0  0  0  0  0  0
   19.5234   47.0125    8.8309 H   0  0  0  0  0  0
   20.5230   51.1636    8.8561 H   0  0  0  0  0  0
   20.3011   51.2307   11.2984 H   0  0  0  0  0  0
  1  2  1  0  0  0
  1 21  1  0  0  0
  1 22  1  0  0  0
  1 23  1  0  0  0
  2  7  1  0  0  0
  2  3  2  0  0  0
  3  4  1  0  0  0
  3 24  1  0  0  0
  4  5  2  0  0  0
  4 25  1  0  0  0
  5  6  1  0  0  0
  5  8  1  0  0  0
  6  7  2  0  0  0
  6 26  1  0  0  0
  7 27  1  0  0  0
  8 12  1  0  0  0
  8  9  2  0  0  0
  9 10  1  0  0  0
  9 14  1  0  0  0
 10 11  1  0  0  0
 11 12  1  0  0  0
 12 13  2  0  0  0
 14 19  1  0  0  0
 14 15  2  0  0  0
 15 16  1  0  0  0
 15 28  1  0  0  0
 16 17  2  0  0  0
 16 29  1  0  0  0
 17 18  1  0  0  0
 17 20  1  0  0  0
 18 19  2  0  0  0
 18 30  1  0  0  0
 19 31  1  0  0  0
M  END
> <s_m_entry_id>
5969

> <s_m_entry_name>
ligand_docking-pose.68

> <s_m_Source_Path>
/home/csk/Desktop/cluster/DUD-E-result/pgh1

> <s_m_Source_File>
ligand_docking-pose.sdf

> <i_m_Source_File_Index>
68

> <i_lp_mmshare_version>
53161

> <i_f3d_flags>
0

> <r_lp_tautomer_probability>
1

> <s_lp_Force_Field>
OPLS_2005

> <r_lp_Energy>
22.123956

> <b_lp_Chiralities_Consistent>
1

> <s_lp_Variant>
455871-1

> <s_i_glide_gridfile>
glide-grid_2oyu

> <i_i_glide_lignum>
216

> <i_i_glide_rotatable_bonds>
2

> <r_i_docking_score>
-8.77685494075751

> <r_i_glide_ligand_efficiency>
-0.438842747037875

> <r_i_glide_ligand_efficiency_sa>
-1.191202482285

> <r_i_glide_ligand_efficiency_ln>
-2.19655731162162

> <r_i_glide_gscore>
-8.77685494075751

> <r_i_glide_lipo>
-5.21682058687653

> <r_i_glide_hbond>
0

> <r_i_glide_metal>
0

> <r_i_glide_rewards>
-1.99794666242506

> <r_i_glide_evdw>
-35.1895790100098

> <r_i_glide_ecoul>
-1.13017702102661

> <r_i_glide_erotb>
0.366917812198558

> <r_i_glide_esite>
0

> <r_i_glide_emodel>
-52.3141792306518

> <r_i_glide_energy>
-36.3197560310364

> <r_i_glide_einternal>
0.423618465662003

> <i_i_glide_confnum>
1

> <i_i_glide_posenum>
108

> <r_i_glide_eff_state_penalty>
0

> <s_user_duplicate_titles>
455871

> <s_m_subgroup_title>
dock_pv

> <s_m_subgroupid>
dock_pv1

> <b_m_subgroup_collapsed>
0

$$$$
391221
                    3D
 Schrodinger Suite 2021-1.
 42 44  0  0  1  0            999 V2000
   20.5219   51.8732   17.4000 C   0  0  0  0  0  0
   20.8558   51.4412   15.9778 C   0  0  0  0  0  0
   20.9230   49.6441   15.7999 S   0  0  0  0  0  0
   20.1377   49.3437   14.2621 C   0  0  0  0  0  0
   19.1057   48.5411   14.1968 N   0  0  0  0  0  0
   18.8696   48.3869   12.9168 C   0  0  0  0  0  0
   19.7548   49.0993   12.1190 C   0  0  0  0  0  0
   20.5832   49.7440   13.0127 N   0  0  0  0  0  0
   21.7234   50.5060   12.6997 C   0  0  0  0  0  0
   21.7723   51.8723   12.9867 C   0  0  0  0  0  0
   22.9262   52.5976   12.7058 C   0  0  0  0  0  0
   24.0111   51.9514   12.1211 C   0  0  0  0  0  0
   23.9485   50.6038   11.8019 C   0  0  0  0  0  0
   22.8020   49.8739   12.0814 C   0  0  0  0  0  0
   25.4677   52.7993   11.8005 Cl  0  0  0  0  0  0
   19.8652   49.1388   10.6370 C   0  0  0  0  0  0
   20.1230   50.2983    9.9062 C   0  0  0  0  0  0
   20.1230   50.2464    8.5130 C   0  0  0  0  0  0
   19.9748   49.0248    7.8528 C   0  0  0  0  0  0
   19.7229   47.8698    8.5908 C   0  0  0  0  0  0
   19.6507   47.9396    9.9722 C   0  0  0  0  0  0
   19.9833   48.9072    6.0768 S   0  0  0  0  0  0
   20.9230   49.8730    5.5123 O   0  0  0  0  0  0
   20.1230   47.4925    5.7770 O   0  0  0  0  0  0
   18.2727   49.3508    5.5481 C   0  0  0  0  0  0
   20.5230   52.9590   17.4897 H   0  0  0  0  0  0
   19.5279   51.5258   17.6835 H   0  0  0  0  0  0
   21.2503   51.4732   18.1084 H   0  0  0  0  0  0
   21.8052   51.8577   15.6643 H   0  0  0  0  0  0
   20.1231   51.8723   15.3111 H   0  0  0  0  0  0
   18.0655   47.7544   12.5685 H   0  0  0  0  0  0
   20.9227   52.3867   13.4061 H   0  0  0  0  0  0
   22.9795   53.6502   12.9448 H   0  0  0  0  0  0
   24.8182   50.1119   11.3999 H   0  0  0  0  0  0
   22.7694   48.8212   11.8356 H   0  0  0  0  0  0
   20.2605   51.2443   10.4087 H   0  0  0  0  0  0
   20.2559   51.1526    7.9393 H   0  0  0  0  0  0
   19.5584   46.9219    8.1034 H   0  0  0  0  0  0
   19.4253   47.0667   10.5499 H   0  0  0  0  0  0
   18.3210   49.4656    4.4705 H   0  0  0  0  0  0
   17.6152   48.5264    5.7977 H   0  0  0  0  0  0
   17.9630   50.2730    6.0273 H   0  0  0  0  0  0
  1  2  1  0  0  0
  1 26  1  0  0  0
  1 27  1  0  0  0
  1 28  1  0  0  0
  2  3  1  0  0  0
  2 29  1  0  0  0
  2 30  1  0  0  0
  3  4  1  0  0  0
  4  8  1  0  0  0
  4  5  2  0  0  0
  5  6  1  0  0  0
  6  7  2  0  0  0
  6 31  1  0  0  0
  7  8  1  0  0  0
  7 16  1  0  0  0
  8  9  1  0  0  0
  9 14  1  0  0  0
  9 10  2  0  0  0
 10 11  1  0  0  0
 10 32  1  0  0  0
 11 12  2  0  0  0
 11 33  1  0  0  0
 12 13  1  0  0  0
 12 15  1  0  0  0
 13 14  2  0  0  0
 13 34  1  0  0  0
 14 35  1  0  0  0
 16 21  1  0  0  0
 16 17  2  0  0  0
 17 18  1  0  0  0
 17 36  1  0  0  0
 18 19  2  0  0  0
 18 37  1  0  0  0
 19 20  1  0  0  0
 19 22  1  0  0  0
 20 21  2  0  0  0
 20 38  1  0  0  0
 21 39  1  0  0  0
 22 23  2  0  0  0
 22 24  2  0  0  0
 22 25  1  0  0  0
 25 40  1  0  0  0
 25 41  1  0  0  0
 25 42  1  0  0  0
M  END
> <s_m_entry_id>
5972

> <s_m_entry_name>
ligand_docking-pose.71

> <s_m_Source_Path>
/home/csk/Desktop/cluster/DUD-E-result/pgh1

> <s_m_Source_File>
ligand_docking-pose.sdf

> <i_m_Source_File_Index>
71

> <i_lp_mmshare_version>
53161

> <i_f3d_flags>
0

> <r_lp_tautomer_probability>
1

> <s_lp_Force_Field>
OPLS_2005

> <r_lp_Energy>
10.528238

> <b_lp_Chiralities_Consistent>
1

> <s_lp_Variant>
391221-1

> <s_i_glide_gridfile>
glide-grid_2oyu

> <i_i_glide_lignum>
540

> <i_i_glide_rotatable_bonds>
5

> <r_i_docking_score>
-8.70530354014008

> <r_i_glide_ligand_efficiency>
-0.348212141605603

> <r_i_glide_ligand_efficiency_sa>
-1.01817847762341

> <r_i_glide_ligand_efficiency_ln>
-2.06341781590882

> <r_i_glide_gscore>
-8.70530354014008

> <r_i_glide_lipo>
-4.66827778388539

> <r_i_glide_hbond>
0

> <r_i_glide_metal>
0

> <r_i_glide_rewards>
-2.51029337000537

> <r_i_glide_evdw>
-19.107702255249

> <r_i_glide_ecoul>
-6.21292972564697

> <r_i_glide_erotb>
0.379487840661516

> <r_i_glide_esite>
-0.0188956553013393

> <r_i_glide_emodel>
-34.3269458462564

> <r_i_glide_energy>
-25.320631980896

> <r_i_glide_einternal>
5.08511114120483

> <i_i_glide_confnum>
46

> <i_i_glide_posenum>
391

> <r_i_glide_eff_state_penalty>
0

> <s_user_duplicate_titles>
391221

> <s_m_subgroup_title>
dock_pv

> <s_m_subgroupid>
dock_pv1

> <b_m_subgroup_collapsed>
0

$$$$
455872
                    3D
 Schrodinger Suite 2021-1.
 31 33  0  0  1  0            999 V2000
   20.1231   49.1877    7.0406 C   0  0  0  0  0  0
   20.1230   49.1088    8.5623 C   0  0  0  0  0  0
   20.2413   50.2730    9.3237 C   0  0  0  0  0  0
   20.1230   50.2445   10.7054 C   0  0  0  0  0  0
   19.8942   49.0330   11.3609 C   0  0  0  0  0  0
   19.7230   47.8803   10.5879 C   0  0  0  0  0  0
   19.7920   47.9138    9.1976 C   0  0  0  0  0  0
   19.8317   48.9258   12.8414 C   0  0  0  0  0  0
   20.5661   49.6367   13.7368 C   0  0  0  0  0  0
   20.3386   49.3376   15.1583 C   0  0  0  0  0  0
   20.9230   49.8918   16.0864 O   0  0  0  0  0  0
   19.0832   48.0463   15.4000 S   0  0  0  0  0  0
   18.5409   47.8730   13.4764 S   0  0  0  0  0  0
   21.6468   50.6107   13.3907 C   0  0  0  0  0  0
   21.6400   51.8905   13.9617 C   0  0  0  0  0  0
   22.6725   52.7841   13.7139 C   0  0  0  0  0  0
   23.7230   52.4099   12.8849 C   0  0  0  0  0  0
   23.7135   51.1725   12.2437 C   0  0  0  0  0  0
   22.6821   50.2730   12.5070 C   0  0  0  0  0  0
   25.0678   53.4728   12.7104 Cl  0  0  0  0  0  0
   19.4723   48.4255    6.6104 H   0  0  0  0  0  0
   21.1189   49.0730    6.6107 H   0  0  0  0  0  0
   19.7230   50.1473    6.7085 H   0  0  0  0  0  0
   20.4312   51.2058    8.8197 H   0  0  0  0  0  0
   20.2162   51.1682   11.2562 H   0  0  0  0  0  0
   19.5568   46.9420   11.0827 H   0  0  0  0  0  0
   19.6360   47.0117    8.6252 H   0  0  0  0  0  0
   20.8480   52.1871   14.6339 H   0  0  0  0  0  0
   22.6812   53.7494   14.2000 H   0  0  0  0  0  0
   24.5231   50.8893   11.5864 H   0  0  0  0  0  0
   22.7051   49.2983   12.0414 H   0  0  0  0  0  0
  1  2  1  0  0  0
  1 21  1  0  0  0
  1 22  1  0  0  0
  1 23  1  0  0  0
  2  7  1  0  0  0
  2  3  2  0  0  0
  3  4  1  0  0  0
  3 24  1  0  0  0
  4  5  2  0  0  0
  4 25  1  0  0  0
  5  6  1  0  0  0
  5  8  1  0  0  0
  6  7  2  0  0  0
  6 26  1  0  0  0
  7 27  1  0  0  0
  8 13  1  0  0  0
  8  9  2  0  0  0
  9 10  1  0  0  0
  9 14  1  0  0  0
 10 11  2  0  0  0
 10 12  1  0  0  0
 12 13  1  0  0  0
 14 19  1  0  0  0
 14 15  2  0  0  0
 15 16  1  0  0  0
 15 28  1  0  0  0
 16 17  2  0  0  0
 16 29  1  0  0  0
 17 18  1  0  0  0
 17 20  1  0  0  0
 18 19  2  0  0  0
 18 30  1  0  0  0
 19 31  1  0  0  0
M  END
> <s_m_entry_id>
5974

> <s_m_entry_name>
ligand_docking-pose.73

> <s_m_Source_Path>
/home/csk/Desktop/cluster/DUD-E-result/pgh1

> <s_m_Source_File>
ligand_docking-pose.sdf

> <i_m_Source_File_Index>
73

> <i_lp_mmshare_version>
53161

> <i_f3d_flags>
0

> <r_lp_tautomer_probability>
1

> <s_lp_Force_Field>
OPLS_2005

> <r_lp_Energy>
22.533315

> <b_lp_Chiralities_Consistent>
1

> <s_lp_Variant>
455872-1

> <s_i_glide_gridfile>
glide-grid_2oyu

> <i_i_glide_lignum>
207

> <i_i_glide_rotatable_bonds>
2

> <r_i_docking_score>
-8.69519411889848

> <r_i_glide_ligand_efficiency>
-0.434759705944924

> <r_i_glide_ligand_efficiency_sa>
-1.18011940362408

> <r_i_glide_ligand_efficiency_ln>
-2.17612030126447

> <r_i_glide_gscore>
-8.69519411889848

> <r_i_glide_lipo>
-5.13196655078364

> <r_i_glide_hbond>
0

> <r_i_glide_metal>
0

> <r_i_glide_rewards>
-1.92621856671096

> <r_i_glide_evdw>
-33.8165016174316

> <r_i_glide_ecoul>
-2.08734488487244

> <r_i_glide_erotb>
0.366917812198558

> <r_i_glide_esite>
0

> <r_i_glide_emodel>
-51.4741982092517

> <r_i_glide_energy>
-35.9038465023041

> <r_i_glide_einternal>
0.396762073040009

> <i_i_glide_confnum>
4

> <i_i_glide_posenum>
165

> <r_i_glide_eff_state_penalty>
0

> <s_user_duplicate_titles>
455872

> <s_m_subgroup_title>
dock_pv

> <s_m_subgroupid>
dock_pv1

> <b_m_subgroup_collapsed>
0

$$$$
690550
                    3D
 Schrodinger Suite 2021-1.
 42 45  0  0  1  0            999 V2000
   20.2827   50.5948    6.2411 C   0  0  0  0  0  0
   20.1226   49.4972    7.1586 N   0  0  0  0  0  0
   20.1230   49.5207    8.5080 C   0  0  0  0  0  0
   20.3269   50.5509    9.3949 C   0  0  0  0  0  0
   20.1687   50.3463   10.7426 C   0  0  0  0  0  0
   19.8881   49.0610   11.1929 C   0  0  0  0  0  0
   19.6840   48.0068   10.2848 C   0  0  0  0  0  0
   19.7933   48.2729    8.9253 C   0  0  0  0  0  0
   19.5944   47.4731    7.8388 O   0  0  0  0  0  0
   19.7863   48.2506    6.7133 C   0  0  0  0  0  0
   19.7229   47.8731    5.5555 O   0  0  0  0  0  0
   19.7338   48.8442   12.6273 C   0  0  0  0  0  0
   18.8295   48.0116   13.2126 C   0  0  0  0  0  0
   19.0431   48.1149   14.5692 C   0  0  0  0  0  0
   19.9948   48.9830   14.8529 N   0  0  0  0  0  0
   20.4279   49.4405   13.6660 N   0  0  0  0  0  0
   21.4397   50.4301   13.6058 C   0  0  0  0  0  0
   21.3233   51.5854   14.3829 C   0  0  0  0  0  0
   22.2103   52.6359   14.1992 C   0  0  0  0  0  0
   23.2674   52.5230   13.2997 C   0  0  0  0  0  0
   23.4167   51.3447   12.5549 C   0  0  0  0  0  0
   22.5076   50.3012   12.7080 C   0  0  0  0  0  0
   24.1052   53.6132   13.1997 O   0  0  0  0  0  0
   25.4415   53.4058   12.7666 C   0  0  0  0  0  0
   18.4337   47.2329   15.5962 C   0  0  0  0  0  0
   17.3048   46.6730   15.1570 F   0  0  0  0  0  0
   19.3228   46.2730   15.8000 F   0  0  0  0  0  0
   18.1539   47.8730   16.7286 F   0  0  0  0  0  0
   20.6481   50.2732    5.2642 H   0  0  0  0  0  0
   19.3225   51.0660    6.1142 H   0  0  0  0  0  0
   20.9230   51.3874    6.6000 H   0  0  0  0  0  0
   20.6103   51.4730    8.9807 H   0  0  0  0  0  0
   20.2806   51.1824   11.4162 H   0  0  0  0  0  0
   19.4121   47.0406   10.6486 H   0  0  0  0  0  0
   18.1228   47.3692   12.7096 H   0  0  0  0  0  0
   20.5231   51.7016   15.0967 H   0  0  0  0  0  0
   22.1017   53.5413   14.7789 H   0  0  0  0  0  0
   24.2191   51.2305   11.8421 H   0  0  0  0  0  0
   22.6182   49.4118   12.1036 H   0  0  0  0  0  0
   25.9915   54.3447   12.8393 H   0  0  0  0  0  0
   25.4915   53.0727   11.7309 H   0  0  0  0  0  0
   25.9466   52.6757   13.4002 H   0  0  0  0  0  0
  1  2  1  0  0  0
  1 29  1  0  0  0
  1 30  1  0  0  0
  1 31  1  0  0  0
  2 10  1  0  0  0
  2  3  1  0  0  0
  3  8  2  0  0  0
  3  4  1  0  0  0
  4  5  2  0  0  0
  4 32  1  0  0  0
  5  6  1  0  0  0
  5 33  1  0  0  0
  6  7  2  0  0  0
  6 12  1  0  0  0
  7  8  1  0  0  0
  7 34  1  0  0  0
  8  9  1  0  0  0
  9 10  1  0  0  0
 10 11  2  0  0  0
 12 16  1  0  0  0
 12 13  2  0  0  0
 13 14  1  0  0  0
 13 35  1  0  0  0
 14 15  2  0  0  0
 14 25  1  0  0  0
 15 16  1  0  0  0
 16 17  1  0  0  0
 17 22  1  0  0  0
 17 18  2  0  0  0
 18 19  1  0  0  0
 18 36  1  0  0  0
 19 20  2  0  0  0
 19 37  1  0  0  0
 20 21  1  0  0  0
 20 23  1  0  0  0
 21 22  2  0  0  0
 21 38  1  0  0  0
 22 39  1  0  0  0
 23 24  1  0  0  0
 24 40  1  0  0  0
 24 41  1  0  0  0
 24 42  1  0  0  0
 25 26  1  0  0  0
 25 27  1  0  0  0
 25 28  1  0  0  0
M  END
> <s_m_entry_id>
5976

> <s_m_entry_name>
ligand_docking-pose.75

> <s_m_Source_Path>
/home/csk/Desktop/cluster/DUD-E-result/pgh1

> <s_m_Source_File>
ligand_docking-pose.sdf

> <i_m_Source_File_Index>
75

> <i_lp_mmshare_version>
53161

> <i_f3d_flags>
0

> <r_lp_tautomer_probability>
1

> <s_lp_Force_Field>
OPLS_2005

> <r_lp_Energy>
39.279598

> <b_lp_Chiralities_Consistent>
1

> <s_lp_Variant>
690550-1

> <s_i_glide_gridfile>
glide-grid_2oyu

> <i_i_glide_lignum>
549

> <i_i_glide_rotatable_bonds>
4

> <r_i_docking_score>
-8.68242616267869

> <r_i_glide_ligand_efficiency>
-0.310086648667096

> <r_i_glide_ligand_efficiency_sa>
-0.941605696622513

> <r_i_glide_ligand_efficiency_ln>
-2.00415888545565

> <r_i_glide_gscore>
-8.68242616267869

> <r_i_glide_lipo>
-4.72228944475873

> <r_i_glide_hbond>
-0.223174861934438

> <r_i_glide_metal>
0

> <r_i_glide_rewards>
-2.21574618794601

> <r_i_glide_evdw>
-21.8511619567871

> <r_i_glide_ecoul>
-4.46886491775513

> <r_i_glide_erotb>
0.257205609445926

> <r_i_glide_esite>
-0.0155334419828242

> <r_i_glide_emodel>
-32.4031955560541

> <r_i_glide_energy>
-26.3200268745422

> <r_i_glide_einternal>
4.89149188995361

> <i_i_glide_confnum>
2

> <i_i_glide_posenum>
62

> <r_i_glide_eff_state_penalty>
0

> <s_user_duplicate_titles>
690550

> <s_m_subgroup_title>
dock_pv

> <s_m_subgroupid>
dock_pv1

> <b_m_subgroup_collapsed>
0

$$$$
50567
                    3D
 Schrodinger Suite 2021-1.
 26 28  0  0  1  0            999 V2000
   23.9697   52.5164   12.3120 C   0  0  0  0  0  0
   23.9282   51.3033   11.6320 C   0  0  0  0  0  0
   22.9239   50.3826   11.9220 C   0  0  0  0  0  0
   21.9401   50.6708   12.8771 C   0  0  0  0  0  0
   22.0014   51.8998   13.5505 C   0  0  0  0  0  0
   23.0101   52.8181   13.2728 C   0  0  0  0  0  0
   20.8444   49.7010   13.1960 C   0  0  0  0  0  0
   20.5231   49.4730   14.5465 C   0  0  0  0  0  0
   19.4349   48.6732   14.8722 C   0  0  0  0  0  0
   18.6510   48.0831   13.9102 C   0  0  0  0  0  0
   18.9947   48.2201   12.5699 C   0  0  0  0  0  0
   20.0687   49.0454   12.2062 C   0  0  0  0  0  0
   20.3196   49.2989   10.5113 Cl  0  0  0  0  0  0
   17.4894   47.4605   14.6161 C   0  0  0  0  0  0
   17.7108   47.9458   16.0408 C   0  0  0  0  0  0
   16.9469   47.8733   16.9998 O   0  0  0  0  0  0
   18.9266   48.5175   16.1318 O   0  0  0  0  0  0
   24.7541   53.2267   12.0961 H   0  0  0  0  0  0
   24.6785   51.0739   10.8891 H   0  0  0  0  0  0
   22.9217   49.4375   11.4018 H   0  0  0  0  0  0
   21.2572   52.1560   14.2907 H   0  0  0  0  0  0
   23.0475   53.7611   13.8001 H   0  0  0  0  0  0
   21.0840   49.9612   15.3300 H   0  0  0  0  0  0
   18.3928   47.7590   11.8009 H   0  0  0  0  0  0
   17.5048   46.3719   14.5999 H   0  0  0  0  0  0
   16.5253   47.8072   14.2441 H   0  0  0  0  0  0
  1  6  1  0  0  0
  1  2  2  0  0  0
  1 18  1  0  0  0
  2  3  1  0  0  0
  2 19  1  0  0  0
  3  4  2  0  0  0
  3 20  1  0  0  0
  4  5  1  0  0  0
  4  7  1  0  0  0
  5  6  2  0  0  0
  5 21  1  0  0  0
  6 22  1  0  0  0
  7 12  1  0  0  0
  7  8  2  0  0  0
  8  9  1  0  0  0
  8 23  1  0  0  0
  9 17  1  0  0  0
  9 10  2  0  0  0
 10 11  1  0  0  0
 10 14  1  0  0  0
 11 12  2  0  0  0
 11 24  1  0  0  0
 12 13  1  0  0  0
 14 15  1  0  0  0
 14 25  1  0  0  0
 14 26  1  0  0  0
 15 16  2  0  0  0
 15 17  1  0  0  0
M  END
> <s_m_entry_id>
5977

> <s_m_entry_name>
ligand_docking-pose.76

> <s_m_Source_Path>
/home/csk/Desktop/cluster/DUD-E-result/pgh1

> <s_m_Source_File>
ligand_docking-pose.sdf

> <i_m_Source_File_Index>
76

> <i_lp_mmshare_version>
53161

> <i_f3d_flags>
0

> <r_lp_tautomer_probability>
1

> <s_lp_Force_Field>
OPLS_2005

> <r_lp_Energy>
26.554825

> <b_lp_Chiralities_Consistent>
1

> <s_lp_Variant>
50567-1

> <s_i_glide_gridfile>
glide-grid_2oyu

> <i_i_glide_lignum>
69

> <i_i_glide_rotatable_bonds>
1

> <r_i_docking_score>
-8.67599634107959

> <r_i_glide_ligand_efficiency>
-0.510352725945858

> <r_i_glide_ligand_efficiency_sa>
-1.31226056772753

> <r_i_glide_ligand_efficiency_ln>
-2.26337424044832

> <r_i_glide_gscore>
-8.67599634107959

> <r_i_glide_lipo>
-4.18239576433862

> <r_i_glide_hbond>
0

> <r_i_glide_metal>
0

> <r_i_glide_rewards>
-2.90262439533079

> <r_i_glide_evdw>
-34.167537689209

> <r_i_glide_ecoul>
-1.15411734580994

> <r_i_glide_erotb>
0.290518304921765

> <r_i_glide_esite>
0

> <r_i_glide_emodel>
-50.9135033597244

> <r_i_glide_energy>
-35.3216550350189

> <r_i_glide_einternal>
0.390256494283676

> <i_i_glide_confnum>
1

> <i_i_glide_posenum>
316

> <r_i_glide_eff_state_penalty>
0

> <s_user_duplicate_titles>
50567

> <s_m_subgroup_title>
dock_pv

> <s_m_subgroupid>
dock_pv1

> <b_m_subgroup_collapsed>
0

$$$$
67133
                    3D
 Schrodinger Suite 2021-1.
 48 50  0  0  1  0            999 V2000
   21.0685   50.6998   16.1535 C   0  0  0  0  0  0
   20.7565   50.2144   14.7361 C   0  0  0  0  0  0
   20.0449   49.0840   14.3606 C   0  0  0  0  0  0
   20.0568   49.0495   12.9170 C   0  0  0  0  0  0
   19.6321   48.1351   11.9331 C   0  0  0  0  0  0
   19.7230   48.4547   10.5789 C   0  0  0  0  0  0
   20.1567   49.7260   10.2002 C   0  0  0  0  0  0
   20.5574   50.6730   11.1330 C   0  0  0  0  0  0
   20.5943   50.2877   12.4843 C   0  0  0  0  0  0
   21.1131   50.9346   13.6029 N   0  0  0  0  0  0
   21.8219   52.1667   13.6691 C   0  0  0  0  0  0
   21.4087   53.0783   14.3824 O   0  0  0  0  0  0
   23.1140   52.3129   12.9149 C   0  0  0  0  0  0
   23.4513   51.4485   11.8688 C   0  0  0  0  0  0
   24.5548   51.6979   11.0946 C   0  0  0  0  0  0
   25.4521   52.6730   11.4847 C   0  0  0  0  0  0
   25.2110   53.4730   12.6000 C   0  0  0  0  0  0
   24.0017   53.3382   13.2682 C   0  0  0  0  0  0
   26.9230   52.7558   10.6000 Cl  0  0  0  0  0  0
   19.3230   47.4731    9.6958 O   0  0  0  0  0  0
   19.5141   47.6220    8.2916 C   0  0  0  0  0  0
   19.4290   48.0979   15.3365 C   0  0  2  0  0  0
   19.8522   46.6730   15.0112 C   0  0  0  0  0  0
   17.9756   48.2811   15.5020 N   0  0  0  0  0  0
   17.1005   47.6505   14.7020 C   0  0  0  0  0  0
   16.5230   46.6073   15.0000 O   0  0  0  0  0  0
   16.9230   48.2730   13.5409 N   0  0  0  0  0  0
   17.5676   48.2693   16.8462 O   0  0  0  0  0  0
   20.5229   50.1720   16.9280 H   0  0  0  0  0  0
   22.1230   50.5992   16.3906 H   0  0  0  0  0  0
   20.7940   51.7402   16.3182 H   0  0  0  0  0  0
   19.2173   47.1765   12.1969 H   0  0  0  0  0  0
   20.1990   50.0169    9.1628 H   0  0  0  0  0  0
   20.9158   51.6349   10.7982 H   0  0  0  0  0  0
   22.9000   50.5701   11.5990 H   0  0  0  0  0  0
   24.7731   51.0730   10.2437 H   0  0  0  0  0  0
   25.9207   54.2311   12.8988 H   0  0  0  0  0  0
   23.7739   54.0204   14.0763 H   0  0  0  0  0  0
   18.8280   46.9471    7.7829 H   0  0  0  0  0  0
   19.3230   48.6149    7.8902 H   0  0  0  0  0  0
   20.5230   47.3292    8.0169 H   0  0  0  0  0  0
   19.8760   48.2730   16.3108 H   0  0  0  0  0  0
   20.9230   46.6730   14.8767 H   0  0  0  0  0  0
   19.5893   45.9764   15.8000 H   0  0  0  0  0  0
   19.4016   46.2860   14.1001 H   0  0  0  0  0  0
   16.2651   47.9011   12.8710 H   0  0  0  0  0  0
   17.4141   49.1302   13.3460 H   0  0  0  0  0  0
   17.4283   49.1991   17.0416 H   0  0  0  0  0  0
  1  2  1  0  0  0
  1 29  1  0  0  0
  1 30  1  0  0  0
  1 31  1  0  0  0
  2 10  1  0  0  0
  2  3  2  0  0  0
  3  4  1  0  0  0
  3 22  1  0  0  0
  4  9  2  0  0  0
  4  5  1  0  0  0
  5  6  2  0  0  0
  5 32  1  0  0  0
  6  7  1  0  0  0
  6 20  1  0  0  0
  7  8  2  0  0  0
  7 33  1  0  0  0
  8  9  1  0  0  0
  8 34  1  0  0  0
  9 10  1  0  0  0
 10 11  1  0  0  0
 11 12  2  0  0  0
 11 13  1  0  0  0
 13 18  1  0  0  0
 13 14  2  0  0  0
 14 15  1  0  0  0
 14 35  1  0  0  0
 15 16  2  0  0  0
 15 36  1  0  0  0
 16 17  1  0  0  0
 16 19  1  0  0  0
 17 18  2  0  0  0
 17 37  1  0  0  0
 18 38  1  0  0  0
 20 21  1  0  0  0
 21 39  1  0  0  0
 21 40  1  0  0  0
 21 41  1  0  0  0
 22 23  1  0  0  0
 22 24  1  0  0  0
 22 42  1  0  0  0
 23 43  1  0  0  0
 23 44  1  0  0  0
 23 45  1  0  0  0
 24 25  1  0  0  0
 24 28  1  0  0  0
 25 26  2  0  0  0
 25 27  1  0  0  0
 27 46  1  0  0  0
 27 47  1  0  0  0
 28 48  1  0  0  0
M  END
> <s_m_entry_id>
5979

> <s_m_entry_name>
ligand_docking-pose.78

> <s_m_Source_Path>
/home/csk/Desktop/cluster/DUD-E-result/pgh1

> <s_m_Source_File>
ligand_docking-pose.sdf

> <i_m_Source_File_Index>
78

> <i_lp_mmshare_version>
53161

> <i_f3d_flags>
0

> <r_lp_tautomer_probability>
1

> <s_lp_Force_Field>
OPLS_2005

> <r_lp_Energy>
32.483481

> <b_lp_Chiralities_Consistent>
1

> <s_lp_Variant>
67133-1

> <s_i_glide_gridfile>
glide-grid_2oyu

> <i_i_glide_lignum>
166

> <i_i_glide_rotatable_bonds>
7

> <r_i_docking_score>
-8.65882042045759

> <r_i_glide_ligand_efficiency>
-0.309243586444914

> <r_i_glide_ligand_efficiency_sa>
-0.939045663178873

> <r_i_glide_ligand_efficiency_ln>
-1.99870998705631

> <r_i_glide_gscore>
-8.65882042045759

> <r_i_glide_lipo>
-4.87113984067438

> <r_i_glide_hbond>
0

> <r_i_glide_metal>
0

> <r_i_glide_rewards>
-2.25792905842091

> <r_i_glide_evdw>
-36.0536155700684

> <r_i_glide_ecoul>
-1.42021155357361

> <r_i_glide_erotb>
0.485960990177168

> <r_i_glide_esite>
0

> <r_i_glide_emodel>
-38.1342383116977

> <r_i_glide_energy>
-37.473827123642

> <r_i_glide_einternal>
20.1265029907227

> <i_i_glide_confnum>
56

> <i_i_glide_posenum>
303

> <r_i_glide_eff_state_penalty>
0

> <s_user_duplicate_titles>
67133

> <s_m_subgroup_title>
dock_pv

> <s_m_subgroupid>
dock_pv1

> <b_m_subgroup_collapsed>
0

$$$$
391223
                    3D
 Schrodinger Suite 2021-1.
 39 41  0  0  1  0            999 V2000
   20.2082   50.9278   16.6003 C   0  0  0  0  0  0
   20.9230   49.4730   15.8000 S   0  0  0  0  0  0
   20.0861   49.2678   14.2867 C   0  0  0  0  0  0
   19.0494   48.4754   14.1958 N   0  0  0  0  0  0
   18.8299   48.3576   12.9092 C   0  0  0  0  0  0
   19.7234   49.0932   12.1379 C   0  0  0  0  0  0
   20.5270   49.7324   13.0596 N   0  0  0  0  0  0
   21.6447   50.5537   12.8076 C   0  0  0  0  0  0
   21.7609   51.8004   13.4304 C   0  0  0  0  0  0
   22.9058   52.5654   13.2372 C   0  0  0  0  0  0
   23.9090   52.0910   12.3983 C   0  0  0  0  0  0
   23.7685   50.8814   11.7282 C   0  0  0  0  0  0
   22.6420   50.1010   11.9424 C   0  0  0  0  0  0
   25.5167   53.0730   12.2002 Br  0  0  0  0  0  0
   19.8550   49.1460   10.6560 C   0  0  0  0  0  0
   20.1228   50.3046    9.9259 C   0  0  0  0  0  0
   20.1230   50.2506    8.5320 C   0  0  0  0  0  0
   19.9767   49.0278    7.8716 C   0  0  0  0  0  0
   19.7230   47.8725    8.6087 C   0  0  0  0  0  0
   19.6547   47.9443    9.9897 C   0  0  0  0  0  0
   19.9837   48.9076    6.0955 S   0  0  0  0  0  0
   20.9226   49.8730    5.5299 O   0  0  0  0  0  0
   20.1230   47.4917    5.7993 O   0  0  0  0  0  0
   18.2756   49.3518    5.5607 C   0  0  0  0  0  0
   20.8488   51.2275   17.4278 H   0  0  0  0  0  0
   20.1230   51.7837   15.9377 H   0  0  0  0  0  0
   19.2292   50.6779   17.0000 H   0  0  0  0  0  0
   18.0353   47.7282   12.5353 H   0  0  0  0  0  0
   20.9777   52.1811   14.0634 H   0  0  0  0  0  0
   23.0217   53.5123   13.7454 H   0  0  0  0  0  0
   24.5450   50.5351   11.0653 H   0  0  0  0  0  0
   22.5545   49.1430   11.4497 H   0  0  0  0  0  0
   20.2563   51.2511   10.4285 H   0  0  0  0  0  0
   20.2561   51.1564    7.9576 H   0  0  0  0  0  0
   19.5601   46.9232    8.1225 H   0  0  0  0  0  0
   19.4293   47.0706   10.5654 H   0  0  0  0  0  0
   18.3279   49.4687    4.4838 H   0  0  0  0  0  0
   17.6191   48.5243    5.7998 H   0  0  0  0  0  0
   17.9622   50.2724    6.0419 H   0  0  0  0  0  0
  1  2  1  0  0  0
  1 25  1  0  0  0
  1 26  1  0  0  0
  1 27  1  0  0  0
  2  3  1  0  0  0
  3  7  1  0  0  0
  3  4  2  0  0  0
  4  5  1  0  0  0
  5  6  2  0  0  0
  5 28  1  0  0  0
  6  7  1  0  0  0
  6 15  1  0  0  0
  7  8  1  0  0  0
  8 13  1  0  0  0
  8  9  2  0  0  0
  9 10  1  0  0  0
  9 29  1  0  0  0
 10 11  2  0  0  0
 10 30  1  0  0  0
 11 12  1  0  0  0
 11 14  1  0  0  0
 12 13  2  0  0  0
 12 31  1  0  0  0
 13 32  1  0  0  0
 15 20  1  0  0  0
 15 16  2  0  0  0
 16 17  1  0  0  0
 16 33  1  0  0  0
 17 18  2  0  0  0
 17 34  1  0  0  0
 18 19  1  0  0  0
 18 21  1  0  0  0
 19 20  2  0  0  0
 19 35  1  0  0  0
 20 36  1  0  0  0
 21 22  2  0  0  0
 21 23  2  0  0  0
 21 24  1  0  0  0
 24 37  1  0  0  0
 24 38  1  0  0  0
 24 39  1  0  0  0
M  END
> <s_m_entry_id>
5980

> <s_m_entry_name>
ligand_docking-pose.79

> <s_m_Source_Path>
/home/csk/Desktop/cluster/DUD-E-result/pgh1

> <s_m_Source_File>
ligand_docking-pose.sdf

> <i_m_Source_File_Index>
79

> <i_lp_mmshare_version>
53161

> <i_f3d_flags>
0

> <r_lp_tautomer_probability>
1

> <s_lp_Force_Field>
OPLS_2005

> <r_lp_Energy>
11.714091

> <b_lp_Chiralities_Consistent>
1

> <s_lp_Variant>
391223-1

> <s_i_glide_gridfile>
glide-grid_2oyu

> <i_i_glide_lignum>
627

> <i_i_glide_rotatable_bonds>
4

> <r_i_docking_score>
-8.65413536881934

> <r_i_glide_ligand_efficiency>
-0.360588973700806

> <r_i_glide_ligand_efficiency_sa>
-1.0401185836533

> <r_i_glide_ligand_efficiency_ln>
-2.07133170615435

> <r_i_glide_gscore>
-8.65413536881934

> <r_i_glide_lipo>
-4.57583721090164

> <r_i_glide_hbond>
0

> <r_i_glide_metal>
0

> <r_i_glide_rewards>
-2.27959587345654

> <r_i_glide_evdw>
-20.8009128570557

> <r_i_glide_ecoul>
-6.40898704528809

> <r_i_glide_erotb>
0.221159587873603

> <r_i_glide_esite>
-0.0184681726887707

> <r_i_glide_emodel>
-31.7631017893083

> <r_i_glide_energy>
-27.2098999023438

> <r_i_glide_einternal>
3.55073666572571

> <i_i_glide_confnum>
7

> <i_i_glide_posenum>
234

> <r_i_glide_eff_state_penalty>
0

> <s_user_duplicate_titles>
391223

> <s_m_subgroup_title>
dock_pv

> <s_m_subgroupid>
dock_pv1

> <b_m_subgroup_collapsed>
0

$$$$
50660
                    3D
 Schrodinger Suite 2021-1.
 32 34  0  0  1  0            999 V2000
   19.0797   48.1470   12.5980 C   0  0  0  0  0  0
   18.7487   48.0092   13.9414 C   0  0  0  0  0  0
   19.4914   48.6704   14.8924 C   0  0  0  0  0  0
   20.5241   49.5377   14.5563 C   0  0  0  0  0  0
   20.7849   49.7930   13.1972 C   0  0  0  0  0  0
   20.0707   49.0597   12.2195 C   0  0  0  0  0  0
   20.3058   49.3133   10.5219 Cl  0  0  0  0  0  0
   21.7242   50.9401   12.7824 C   0  0  0  0  0  0
   21.9753   52.0122   13.8781 C   0  0  0  0  0  0
   22.8438   53.1710   13.3583 C   0  0  0  0  0  0
   24.1679   52.6729   12.7564 C   0  0  0  0  0  0
   23.9443   51.5804   11.6917 C   0  0  0  0  0  0
   23.0561   50.4279   12.1990 C   0  0  0  0  0  0
   18.9921   48.4949   16.1533 O   0  0  0  0  0  0
   17.7886   47.8993   16.0600 C   0  0  0  0  0  0
   16.9962   47.8776   16.9989 O   0  0  0  0  0  0
   17.6240   47.3329   14.6569 C   0  0  0  0  0  0
   18.5253   47.6266   11.8332 H   0  0  0  0  0  0
   21.0283   50.0767   15.3423 H   0  0  0  0  0  0
   21.1676   51.4662   12.0041 H   0  0  0  0  0  0
   21.0288   52.4301   14.2227 H   0  0  0  0  0  0
   22.4906   51.5762   14.7338 H   0  0  0  0  0  0
   22.2925   53.7236   12.6000 H   0  0  0  0  0  0
   23.0379   53.8848   14.1599 H   0  0  0  0  0  0
   24.7160   53.5091   12.3204 H   0  0  0  0  0  0
   24.8018   52.2848   13.5546 H   0  0  0  0  0  0
   23.4913   52.0273   10.8051 H   0  0  0  0  0  0
   24.9079   51.1824   11.3707 H   0  0  0  0  0  0
   23.5949   49.8727   12.9658 H   0  0  0  0  0  0
   22.8707   49.7545   11.3641 H   0  0  0  0  0  0
   17.7189   46.2486   14.6759 H   0  0  0  0  0  0
   16.6442   47.5972   14.2580 H   0  0  0  0  0  0
  1  6  1  0  0  0
  1  2  2  0  0  0
  1 18  1  0  0  0
  2 17  1  0  0  0
  2  3  1  0  0  0
  3  4  2  0  0  0
  3 14  1  0  0  0
  4  5  1  0  0  0
  4 19  1  0  0  0
  5  6  2  0  0  0
  5  8  1  0  0  0
  6  7  1  0  0  0
  8 13  1  0  0  0
  8  9  1  0  0  0
  8 20  1  0  0  0
  9 10  1  0  0  0
  9 21  1  0  0  0
  9 22  1  0  0  0
 10 11  1  0  0  0
 10 23  1  0  0  0
 10 24  1  0  0  0
 11 12  1  0  0  0
 11 25  1  0  0  0
 11 26  1  0  0  0
 12 13  1  0  0  0
 12 27  1  0  0  0
 12 28  1  0  0  0
 13 29  1  0  0  0
 13 30  1  0  0  0
 14 15  1  0  0  0
 15 16  2  0  0  0
 15 17  1  0  0  0
 17 31  1  0  0  0
 17 32  1  0  0  0
M  END
> <s_m_entry_id>
5982

> <s_m_entry_name>
ligand_docking-pose.81

> <s_m_Source_Path>
/home/csk/Desktop/cluster/DUD-E-result/pgh1

> <s_m_Source_File>
ligand_docking-pose.sdf

> <i_m_Source_File_Index>
81

> <i_lp_mmshare_version>
53161

> <i_f3d_flags>
0

> <r_lp_tautomer_probability>
1

> <s_lp_Force_Field>
OPLS_2005

> <r_lp_Energy>
26.08506

> <b_lp_Chiralities_Consistent>
1

> <s_lp_Variant>
50660-1

> <s_i_glide_gridfile>
glide-grid_2oyu

> <i_i_glide_lignum>
2

> <i_i_glide_rotatable_bonds>
1

> <r_i_docking_score>
-8.62197009538195

> <r_i_glide_ligand_efficiency>
-0.507174711493056

> <r_i_glide_ligand_efficiency_sa>
-1.30408899767791

> <r_i_glide_ligand_efficiency_ln>
-2.24927999605114

> <r_i_glide_gscore>
-8.62197009538195

> <r_i_glide_lipo>
-4.13057068838909

> <r_i_glide_hbond>
0

> <r_i_glide_metal>
0

> <r_i_glide_rewards>
-2.92943281210865

> <r_i_glide_evdw>
-35.0885581970215

> <r_i_glide_ecoul>
-0.57440447807312

> <r_i_glide_erotb>
0.278621986677824

> <r_i_glide_esite>
0

> <r_i_glide_emodel>
-49.8813511040098

> <r_i_glide_energy>
-35.6629626750946

> <r_i_glide_einternal>
1.87383031845093

> <i_i_glide_confnum>
4

> <i_i_glide_posenum>
217

> <r_i_glide_eff_state_penalty>
0

> <s_user_duplicate_titles>
50660

> <s_m_subgroup_title>
dock_pv

> <s_m_subgroupid>
dock_pv1

> <b_m_subgroup_collapsed>
0

$$$$
456784
                    3D
 Schrodinger Suite 2021-1.
 36 38  0  0  1  0            999 V2000
   25.5922   54.2216   13.0000 C   0  0  0  0  0  0
   25.2815   53.0730   12.2086 O   0  0  0  0  0  0
   24.1230   52.3746   12.4767 C   0  0  0  0  0  0
   23.1543   52.7876   13.4000 C   0  0  0  0  0  0
   22.0771   51.9636   13.7017 C   0  0  0  0  0  0
   21.9465   50.7295   13.0653 C   0  0  0  0  0  0
   22.8741   50.3425   12.0969 C   0  0  0  0  0  0
   23.9518   51.1690   11.8000 C   0  0  0  0  0  0
   20.8405   49.8174   13.4547 C   0  0  0  0  0  0
   20.5230   49.5024   14.7855 C   0  0  0  0  0  0
   19.5493   48.6667   15.0503 N   0  0  0  0  0  0
   18.8758   48.1819   13.5662 S   0  0  0  0  0  0
   19.9948   49.1105   12.6000 C   0  0  0  0  0  0
   19.9367   49.0389   11.1059 C   0  0  0  0  0  0
   19.7230   47.8002   10.5105 C   0  0  0  0  0  0
   19.7230   47.6466    9.1283 C   0  0  0  0  0  0
   19.9635   48.7384    8.3064 C   0  0  0  0  0  0
   20.1230   50.0059    8.9002 C   0  0  0  0  0  0
   20.1230   50.1540   10.2879 C   0  0  0  0  0  0
   19.9453   48.4964    6.9469 O   0  0  0  0  0  0
   19.9896   49.5948    6.0442 C   0  0  0  0  0  0
   26.5230   54.6730   12.6562 H   0  0  0  0  0  0
   25.7230   53.9503   14.0473 H   0  0  0  0  0  0
   24.8232   54.9916   12.9326 H   0  0  0  0  0  0
   23.2416   53.7237   13.9298 H   0  0  0  0  0  0
   21.3580   52.2807   14.4433 H   0  0  0  0  0  0
   22.7786   49.3896   11.5976 H   0  0  0  0  0  0
   24.6845   50.8544   11.0723 H   0  0  0  0  0  0
   21.0544   49.9129   15.6317 H   0  0  0  0  0  0
   19.6075   46.9319   11.1352 H   0  0  0  0  0  0
   19.5689   46.6730    8.6904 H   0  0  0  0  0  0
   20.2413   50.8904    8.2928 H   0  0  0  0  0  0
   20.2691   51.1324   10.7221 H   0  0  0  0  0  0
   19.9211   49.2229    5.0221 H   0  0  0  0  0  0
   19.1502   50.2730    6.2000 H   0  0  0  0  0  0
   20.9230   50.1505    6.1294 H   0  0  0  0  0  0
  1  2  1  0  0  0
  1 22  1  0  0  0
  1 23  1  0  0  0
  1 24  1  0  0  0
  2  3  1  0  0  0
  3  8  1  0  0  0
  3  4  2  0  0  0
  4  5  1  0  0  0
  4 25  1  0  0  0
  5  6  2  0  0  0
  5 26  1  0  0  0
  6  7  1  0  0  0
  6  9  1  0  0  0
  7  8  2  0  0  0
  7 27  1  0  0  0
  8 28  1  0  0  0
  9 13  2  0  0  0
  9 10  1  0  0  0
 10 11  2  0  0  0
 10 29  1  0  0  0
 11 12  1  0  0  0
 12 13  1  0  0  0
 13 14  1  0  0  0
 14 19  1  0  0  0
 14 15  2  0  0  0
 15 16  1  0  0  0
 15 30  1  0  0  0
 16 17  2  0  0  0
 16 31  1  0  0  0
 17 18  1  0  0  0
 17 20  1  0  0  0
 18 19  2  0  0  0
 18 32  1  0  0  0
 19 33  1  0  0  0
 20 21  1  0  0  0
 21 34  1  0  0  0
 21 35  1  0  0  0
 21 36  1  0  0  0
M  END
> <s_m_entry_id>
5983

> <s_m_entry_name>
ligand_docking-pose.82

> <s_m_Source_Path>
/home/csk/Desktop/cluster/DUD-E-result/pgh1

> <s_m_Source_File>
ligand_docking-pose.sdf

> <i_m_Source_File_Index>
82

> <i_lp_mmshare_version>
53161

> <i_f3d_flags>
0

> <r_lp_tautomer_probability>
1

> <s_lp_Force_Field>
OPLS_2005

> <r_lp_Energy>
21.868589

> <b_lp_Chiralities_Consistent>
1

> <s_lp_Variant>
456784-1

> <s_i_glide_gridfile>
glide-grid_2oyu

> <i_i_glide_lignum>
585

> <i_i_glide_rotatable_bonds>
4

> <r_i_docking_score>
-8.62024238730241

> <r_i_glide_ligand_efficiency>
-0.410487732728686

> <r_i_glide_ligand_efficiency_sa>
-1.13250452878373

> <r_i_glide_ligand_efficiency_ln>
-2.13133751142065

> <r_i_glide_gscore>
-8.62024238730241

> <r_i_glide_lipo>
-5.07644991068226

> <r_i_glide_hbond>
0

> <r_i_glide_metal>
0

> <r_i_glide_rewards>
-1.89751938052705

> <r_i_glide_evdw>
-33.9717330932617

> <r_i_glide_ecoul>
-2.4156768321991

> <r_i_glide_erotb>
0.41466508339985

> <r_i_glide_esite>
0

> <r_i_glide_emodel>
-53.4182394009114

> <r_i_glide_energy>
-36.3874099254608

> <r_i_glide_einternal>
0.522325456142426

> <i_i_glide_confnum>
11

> <i_i_glide_posenum>
323

> <r_i_glide_eff_state_penalty>
0

> <s_user_duplicate_titles>
456784

> <s_m_subgroup_title>
dock_pv

> <s_m_subgroupid>
dock_pv1

> <b_m_subgroup_collapsed>
0

$$$$
50616
                    3D
 Schrodinger Suite 2021-1.
 35 37  0  0  1  0            999 V2000
   18.5231   45.8375   14.6296 C   0  0  0  0  0  0
   18.1222   47.3156   14.4614 C   0  0  2  0  0  0
   19.1309   48.1389   13.7271 C   0  0  0  0  0  0
   19.4513   48.2799   12.3804 C   0  0  0  0  0  0
   20.3890   49.2454   11.9917 C   0  0  0  0  0  0
   21.0587   50.0337   12.9612 C   0  0  0  0  0  0
   20.7492   49.8373   14.3198 C   0  0  0  0  0  0
   19.7801   48.9077   14.6640 C   0  0  0  0  0  0
   19.2696   48.7397   15.9205 O   0  0  0  0  0  0
   18.1582   47.9816   15.8347 C   0  0  0  0  0  0
   17.3615   47.8731   16.7649 O   0  0  0  0  0  0
   22.0135   51.1708   12.5515 C   0  0  0  0  0  0
   22.3261   52.1831   13.6906 C   0  0  0  0  0  0
   23.1962   53.3402   13.1960 C   0  0  0  0  0  0
   24.5030   52.8389   12.5671 C   0  0  0  0  0  0
   24.2164   51.8496   11.4223 C   0  0  0  0  0  0
   23.3223   50.6765   11.8813 C   0  0  0  0  0  0
   20.6210   49.4761   10.2909 Cl  0  0  0  0  0  0
   19.3229   45.7047   15.3565 H   0  0  0  0  0  0
   18.8796   45.4074   13.6928 H   0  0  0  0  0  0
   17.6802   45.2414   14.9847 H   0  0  0  0  0  0
   17.1273   47.4120   14.0254 H   0  0  0  0  0  0
   18.9342   47.7008   11.6292 H   0  0  0  0  0  0
   21.1928   50.4274   15.1051 H   0  0  0  0  0  0
   21.4331   51.7292   11.8154 H   0  0  0  0  0  0
   21.4018   52.6139   14.0807 H   0  0  0  0  0  0
   22.8573   51.6976   14.5108 H   0  0  0  0  0  0
   22.6165   53.8731   12.4516 H   0  0  0  0  0  0
   23.3975   54.0496   13.9993 H   0  0  0  0  0  0
   25.0898   53.6816   12.2037 H   0  0  0  0  0  0
   25.1094   52.3567   13.3339 H   0  0  0  0  0  0
   23.7257   52.3789   10.6034 H   0  0  0  0  0  0
   25.1521   51.4726   11.0079 H   0  0  0  0  0  0
   23.8809   50.0406   12.5667 H   0  0  0  0  0  0
   23.1027   50.0877   10.9959 H   0  0  0  0  0  0
  1  2  1  0  0  0
  1 19  1  0  0  0
  1 20  1  0  0  0
  1 21  1  0  0  0
  2 10  1  0  0  0
  2  3  1  0  0  0
  2 22  1  0  0  0
  3  8  2  0  0  0
  3  4  1  0  0  0
  4  5  2  0  0  0
  4 23  1  0  0  0
  5  6  1  0  0  0
  5 18  1  0  0  0
  6  7  2  0  0  0
  6 12  1  0  0  0
  7  8  1  0  0  0
  7 24  1  0  0  0
  8  9  1  0  0  0
  9 10  1  0  0  0
 10 11  2  0  0  0
 12 17  1  0  0  0
 12 13  1  0  0  0
 12 25  1  0  0  0
 13 14  1  0  0  0
 13 26  1  0  0  0
 13 27  1  0  0  0
 14 15  1  0  0  0
 14 28  1  0  0  0
 14 29  1  0  0  0
 15 16  1  0  0  0
 15 30  1  0  0  0
 15 31  1  0  0  0
 16 17  1  0  0  0
 16 32  1  0  0  0
 16 33  1  0  0  0
 17 34  1  0  0  0
 17 35  1  0  0  0
M  END
> <s_m_entry_id>
5985

> <s_m_entry_name>
ligand_docking-pose.84

> <s_m_Source_Path>
/home/csk/Desktop/cluster/DUD-E-result/pgh1

> <s_m_Source_File>
ligand_docking-pose.sdf

> <i_m_Source_File_Index>
84

> <i_lp_mmshare_version>
53161

> <i_f3d_flags>
0

> <r_lp_tautomer_probability>
1

> <s_lp_Force_Field>
OPLS_2005

> <r_lp_Energy>
27.175407

> <b_lp_Chiralities_Consistent>
1

> <s_lp_Variant>
50616-1

> <s_i_glide_gridfile>
glide-grid_2oyu

> <i_i_glide_lignum>
157

> <i_i_glide_rotatable_bonds>
1

> <r_i_docking_score>
-8.60534308055087

> <r_i_glide_ligand_efficiency>
-0.478074615586159

> <r_i_glide_ligand_efficiency_sa>
-1.25290993338003

> <r_i_glide_ligand_efficiency_ln>
-2.21195906614448

> <r_i_glide_gscore>
-8.60534308055087

> <r_i_glide_lipo>
-4.11702542819432

> <r_i_glide_hbond>
0

> <r_i_glide_metal>
0

> <r_i_glide_rewards>
-2.94784702942605

> <r_i_glide_evdw>
-34.9158592224121

> <r_i_glide_ecoul>
-0.322606921195984

> <r_i_glide_erotb>
0.25371337636951

> <r_i_glide_esite>
0

> <r_i_glide_emodel>
-44.2586760401134

> <r_i_glide_energy>
-35.2384661436081

> <r_i_glide_einternal>
0.931040942668915

> <i_i_glide_confnum>
4

> <i_i_glide_posenum>
151

> <r_i_glide_eff_state_penalty>
0

> <s_user_duplicate_titles>
50616

> <s_m_subgroup_title>
dock_pv

> <s_m_subgroupid>
dock_pv1

> <b_m_subgroup_collapsed>
0

$$$$
690352
                    3D
 Schrodinger Suite 2021-1.
 40 43  0  0  1  0            999 V2000
   25.1887   54.2476   12.9526 C   0  0  0  0  0  0
   24.4713   53.0764   12.4545 N   0  0  0  0  0  0
   23.3835   52.4874   13.0288 C   0  0  0  0  0  0
   22.5169   52.8443   14.0558 C   0  0  0  0  0  0
   21.6013   51.8884   14.5005 C   0  0  0  0  0  0
   21.5526   50.6189   13.9047 C   0  0  0  0  0  0
   22.4145   50.3050   12.8479 C   0  0  0  0  0  0
   23.2867   51.2749   12.4184 C   0  0  0  0  0  0
   24.1407   51.1786   11.3827 O   0  0  0  0  0  0
   24.9230   52.2730   11.4000 C   0  0  0  0  0  0
   25.8917   52.3801   10.6592 O   0  0  0  0  0  0
   20.5230   49.6663   14.3037 C   0  0  0  0  0  0
   19.7427   48.9529   13.4781 C   0  0  0  0  0  0
   18.8206   48.1874   14.3115 C   0  0  0  0  0  0
   17.8931   47.4730   13.9465 O   0  0  0  0  0  0
   19.1495   48.3869   15.6031 O   0  0  0  0  0  0
   20.2293   49.2886   15.7249 C   0  0  0  0  0  0
   19.7230   49.0022   11.9855 C   0  0  0  0  0  0
   19.9241   50.1854   11.2563 C   0  0  0  0  0  0
   20.1243   50.1499    9.8757 C   0  0  0  0  0  0
   20.0567   48.9319    9.1865 C   0  0  0  0  0  0
   19.7230   47.7852    9.8937 C   0  0  0  0  0  0
   19.5980   47.8126   11.2771 C   0  0  0  0  0  0
   20.1230   48.7776    7.8159 O   0  0  0  0  0  0
   19.8080   49.8576    6.9416 C   0  0  0  0  0  0
   25.5558   54.0557   13.9602 H   0  0  0  0  0  0
   24.5232   55.1092   13.0000 H   0  0  0  0  0  0
   26.0494   54.5061   12.3338 H   0  0  0  0  0  0
   22.5593   53.8120   14.5356 H   0  0  0  0  0  0
   20.9175   52.1474   15.2958 H   0  0  0  0  0  0
   22.3753   49.3530   12.3411 H   0  0  0  0  0  0
   21.0789   48.7991   16.2001 H   0  0  0  0  0  0
   19.9447   50.1383   16.3453 H   0  0  0  0  0  0
   19.9881   51.1356   11.7651 H   0  0  0  0  0  0
   20.3244   51.0730    9.3600 H   0  0  0  0  0  0
   19.6115   46.8514    9.3647 H   0  0  0  0  0  0
   19.4198   46.8858   11.8006 H   0  0  0  0  0  0
   20.2947   49.6812    5.9825 H   0  0  0  0  0  0
   18.7356   49.8730    6.7493 H   0  0  0  0  0  0
   20.1230   50.8429    7.2774 H   0  0  0  0  0  0
  1  2  1  0  0  0
  1 26  1  0  0  0
  1 27  1  0  0  0
  1 28  1  0  0  0
  2 10  1  0  0  0
  2  3  1  0  0  0
  3  8  2  0  0  0
  3  4  1  0  0  0
  4  5  2  0  0  0
  4 29  1  0  0  0
  5  6  1  0  0  0
  5 30  1  0  0  0
  6  7  2  0  0  0
  6 12  1  0  0  0
  7  8  1  0  0  0
  7 31  1  0  0  0
  8  9  1  0  0  0
  9 10  1  0  0  0
 10 11  2  0  0  0
 12 17  1  0  0  0
 12 13  2  0  0  0
 13 14  1  0  0  0
 13 18  1  0  0  0
 14 15  2  0  0  0
 14 16  1  0  0  0
 16 17  1  0  0  0
 17 32  1  0  0  0
 17 33  1  0  0  0
 18 23  1  0  0  0
 18 19  2  0  0  0
 19 20  1  0  0  0
 19 34  1  0  0  0
 20 21  2  0  0  0
 20 35  1  0  0  0
 21 22  1  0  0  0
 21 24  1  0  0  0
 22 23  2  0  0  0
 22 36  1  0  0  0
 23 37  1  0  0  0
 24 25  1  0  0  0
 25 38  1  0  0  0
 25 39  1  0  0  0
 25 40  1  0  0  0
M  END
> <s_m_entry_id>
5986

> <s_m_entry_name>
ligand_docking-pose.85

> <s_m_Source_Path>
/home/csk/Desktop/cluster/DUD-E-result/pgh1

> <s_m_Source_File>
ligand_docking-pose.sdf

> <i_m_Source_File_Index>
85

> <i_lp_mmshare_version>
53161

> <i_f3d_flags>
0

> <r_lp_tautomer_probability>
0.999841193423406

> <s_lp_Force_Field>
OPLS_2005

> <r_lp_Energy>
44.985165

> <b_lp_Chiralities_Consistent>
1

> <s_lp_Variant>
690352-1

> <s_i_glide_gridfile>
glide-grid_2oyu

> <i_i_glide_lignum>
550

> <i_i_glide_rotatable_bonds>
3

> <r_i_docking_score>
-8.60407644678736

> <r_i_glide_ligand_efficiency>
-0.344163057871495

> <r_i_glide_ligand_efficiency_sa>
-1.00633888497407

> <r_i_glide_ligand_efficiency_ln>
-2.03942396125303

> <r_i_glide_gscore>
-8.60407644678736

> <r_i_glide_lipo>
-4.59269587565245

> <r_i_glide_hbond>
0

> <r_i_glide_metal>
0

> <r_i_glide_rewards>
-2.52909137322481

> <r_i_glide_evdw>
-34.780143737793

> <r_i_glide_ecoul>
-0.502913117408752

> <r_i_glide_erotb>
0.332154956590861

> <r_i_glide_esite>
0

> <r_i_glide_emodel>
-40.9485179436609

> <r_i_glide_energy>
-35.2830568552017

> <r_i_glide_einternal>
7.53574848175049

> <i_i_glide_confnum>
11

> <i_i_glide_posenum>
96

> <r_i_glide_eff_state_penalty>
0

> <s_user_duplicate_titles>
690352

> <s_m_subgroup_title>
dock_pv

> <s_m_subgroupid>
dock_pv1

> <b_m_subgroup_collapsed>
0

$$$$
4969
                    3D
 Schrodinger Suite 2021-1.
 35 37  0  0  1  0            999 V2000
   22.1257   54.8128   14.3670 C   0  0  0  0  0  0
   22.4295   53.4527   13.8000 C   0  0  0  0  0  0
   23.5039   53.3249   12.9368 C   0  0  0  0  0  0
   23.7332   52.1322   12.2663 C   0  0  0  0  0  0
   22.9156   51.0137   12.5303 C   0  0  0  0  0  0
   21.8541   51.1187   13.4594 C   0  0  0  0  0  0
   21.6279   52.3550   14.0825 C   0  0  0  0  0  0
   20.9625   50.0515   13.7663 N   0  0  0  0  0  0
   20.6724   49.6759   15.0490 C   0  0  0  0  0  0
   21.2423   50.0494   16.0751 O   0  0  0  0  0  0
   19.5017   48.7740   14.9604 C   0  0  0  0  0  0
   18.7195   48.1889   15.9555 C   0  0  0  0  0  0
   17.5317   47.5571   15.5920 C   0  0  0  0  0  0
   17.1765   47.4732   14.2469 C   0  0  0  0  0  0
   18.0204   47.9786   13.2553 C   0  0  0  0  0  0
   19.1610   48.6722   13.6444 C   0  0  0  0  0  0
   20.1235   49.4730   12.8533 C   0  0  0  0  0  0
   20.1266   49.6188   11.6296 O   0  0  0  0  0  0
   23.1957   49.7191   11.8001 C   0  0  0  0  0  0
   24.8656   52.1285   11.2475 C   0  0  0  0  0  0
   21.1700   54.8819   14.8821 H   0  0  0  0  0  0
   22.9224   55.1605   15.0174 H   0  0  0  0  0  0
   22.1186   55.4736   13.5087 H   0  0  0  0  0  0
   24.1294   54.1839   12.7391 H   0  0  0  0  0  0
   20.8043   52.4741   14.7708 H   0  0  0  0  0  0
   18.9640   48.2729   16.9999 H   0  0  0  0  0  0
   16.8706   47.1598   16.3474 H   0  0  0  0  0  0
   16.2315   47.0316   13.9746 H   0  0  0  0  0  0
   17.7372   47.8850   12.2169 H   0  0  0  0  0  0
   22.6614   48.8512   12.1710 H   0  0  0  0  0  0
   24.2529   49.4730   11.8702 H   0  0  0  0  0  0
   22.9230   49.8732   10.7545 H   0  0  0  0  0  0
   25.6745   52.7882   11.5619 H   0  0  0  0  0  0
   25.3227   51.1557   11.1380 H   0  0  0  0  0  0
   24.5088   52.4564   10.2711 H   0  0  0  0  0  0
  1  2  1  0  0  0
  1 21  1  0  0  0
  1 22  1  0  0  0
  1 23  1  0  0  0
  2  7  1  0  0  0
  2  3  2  0  0  0
  3  4  1  0  0  0
  3 24  1  0  0  0
  4  5  2  0  0  0
  4 20  1  0  0  0
  5  6  1  0  0  0
  5 19  1  0  0  0
  6  7  2  0  0  0
  6  8  1  0  0  0
  7 25  1  0  0  0
  8 17  1  0  0  0
  8  9  1  0  0  0
  9 10  2  0  0  0
  9 11  1  0  0  0
 11 16  2  0  0  0
 11 12  1  0  0  0
 12 13  2  0  0  0
 12 26  1  0  0  0
 13 14  1  0  0  0
 13 27  1  0  0  0
 14 15  2  0  0  0
 14 28  1  0  0  0
 15 16  1  0  0  0
 15 29  1  0  0  0
 16 17  1  0  0  0
 17 18  2  0  0  0
 19 30  1  0  0  0
 19 31  1  0  0  0
 19 32  1  0  0  0
 20 33  1  0  0  0
 20 34  1  0  0  0
 20 35  1  0  0  0
M  END
> <s_m_entry_id>
5987

> <s_m_entry_name>
ligand_docking-pose.86

> <s_m_Source_Path>
/home/csk/Desktop/cluster/DUD-E-result/pgh1

> <s_m_Source_File>
ligand_docking-pose.sdf

> <i_m_Source_File_Index>
86

> <i_lp_mmshare_version>
53161

> <i_f3d_flags>
0

> <r_lp_tautomer_probability>
1

> <s_lp_Force_Field>
OPLS_2005

> <r_lp_Energy>
49.911112

> <b_lp_Chiralities_Consistent>
1

> <s_lp_Variant>
4969-1

> <s_i_glide_gridfile>
glide-grid_2oyu

> <i_i_glide_lignum>
244

> <i_i_glide_rotatable_bonds>
1

> <r_i_docking_score>
-8.60003086637909

> <r_i_glide_ligand_efficiency>
-0.430001543318954

> <r_i_glide_ligand_efficiency_sa>
-1.16720376318242

> <r_i_glide_ligand_efficiency_ln>
-2.152304077853

> <r_i_glide_gscore>
-8.60003086637909

> <r_i_glide_lipo>
-3.70396976326101

> <r_i_glide_hbond>
0

> <r_i_glide_metal>
0

> <r_i_glide_rewards>
-3.56167678477166

> <r_i_glide_evdw>
-27.2528781890869

> <r_i_glide_ecoul>
-1.4968729019165

> <r_i_glide_erotb>
0.252790526395398

> <r_i_glide_esite>
0

> <r_i_glide_emodel>
-29.0289499059697

> <r_i_glide_energy>
-28.7497510910034

> <r_i_glide_einternal>
0.118729069828987

> <i_i_glide_confnum>
2

> <i_i_glide_posenum>
19

> <r_i_glide_eff_state_penalty>
0

> <s_user_duplicate_titles>
4969

> <s_m_subgroup_title>
dock_pv

> <s_m_subgroupid>
dock_pv1

> <b_m_subgroup_collapsed>
0

$$$$
68479
                    3D
 Schrodinger Suite 2021-1.
 44 46  0  0  1  0            999 V2000
   25.4338   53.5033   12.7934 C   0  0  0  0  0  0
   24.0779   53.7296   13.1579 O   0  0  0  0  0  0
   23.2521   52.6380   13.3213 C   0  0  0  0  0  0
   23.4310   51.4180   12.6566 C   0  0  0  0  0  0
   22.5497   50.3656   12.8817 C   0  0  0  0  0  0
   21.4791   50.5264   13.7697 C   0  0  0  0  0  0
   21.3232   51.7285   14.4614 C   0  0  0  0  0  0
   22.1808   52.7884   14.1994 C   0  0  0  0  0  0
   20.4749   49.5357   13.8512 N   0  0  0  0  0  0
   19.7669   48.9759   12.8075 C   0  0  0  0  0  0
   18.8174   48.1850   13.3804 C   0  0  0  0  0  0
   19.0620   48.2249   14.7329 C   0  0  0  0  0  0
   20.0373   49.0661   15.0344 N   0  0  0  0  0  0
   18.4563   47.2833   15.7098 C   0  0  0  0  0  0
   18.2159   47.8500   16.8896 F   0  0  0  0  0  0
   17.2955   46.7930   15.2681 F   0  0  0  0  0  0
   19.3188   46.2730   15.7997 F   0  0  0  0  0  0
   19.9525   49.1763   11.3755 C   0  0  0  0  0  0
   19.7016   48.0955   10.5331 C   0  0  0  0  0  0
   19.7341   48.2658    9.1620 C   0  0  0  0  0  0
   20.1230   49.5053    8.6551 C   0  0  0  0  0  0
   20.4336   50.5449    9.5120 C   0  0  0  0  0  0
   20.2943   50.4171   10.8683 C   0  0  0  0  0  0
   20.1227   49.8746    7.3153 N   0  0  0  0  0  0
   19.9874   48.8545    5.9371 S   0  0  0  0  0  0
   20.1216   47.4730    6.3751 O   0  0  0  0  0  0
   20.9196   49.4738    5.0002 O   0  0  0  0  0  0
   18.2146   49.0735    5.3954 C   0  0  0  0  0  0
   25.9646   54.4560   12.7869 H   0  0  0  0  0  0
   25.9302   52.8571   13.5177 H   0  0  0  0  0  0
   25.5296   53.0643   11.8005 H   0  0  0  0  0  0
   24.2354   51.2747   11.9518 H   0  0  0  0  0  0
   22.6806   49.4496   12.3242 H   0  0  0  0  0  0
   20.5130   51.8718   15.1588 H   0  0  0  0  0  0
   22.0462   53.7290   14.7137 H   0  0  0  0  0  0
   18.0808   47.5780   12.8716 H   0  0  0  0  0  0
   19.4084   47.1403   10.9366 H   0  0  0  0  0  0
   19.4344   47.4391    8.5439 H   0  0  0  0  0  0
   20.7540   51.4725    9.1018 H   0  0  0  0  0  0
   20.4555   51.2780   11.5001 H   0  0  0  0  0  0
   20.4144   50.8168    7.1041 H   0  0  0  0  0  0
   18.1682   49.0689    4.3076 H   0  0  0  0  0  0
   17.8415   50.0123    5.8001 H   0  0  0  0  0  0
   17.6337   48.2490    5.7978 H   0  0  0  0  0  0
  1  2  1  0  0  0
  1 29  1  0  0  0
  1 30  1  0  0  0
  1 31  1  0  0  0
  2  3  1  0  0  0
  3  8  1  0  0  0
  3  4  2  0  0  0
  4  5  1  0  0  0
  4 32  1  0  0  0
  5  6  2  0  0  0
  5 33  1  0  0  0
  6  7  1  0  0  0
  6  9  1  0  0  0
  7  8  2  0  0  0
  7 34  1  0  0  0
  8 35  1  0  0  0
  9 13  1  0  0  0
  9 10  1  0  0  0
 10 11  2  0  0  0
 10 18  1  0  0  0
 11 12  1  0  0  0
 11 36  1  0  0  0
 12 13  2  0  0  0
 12 14  1  0  0  0
 14 15  1  0  0  0
 14 16  1  0  0  0
 14 17  1  0  0  0
 18 23  1  0  0  0
 18 19  2  0  0  0
 19 20  1  0  0  0
 19 37  1  0  0  0
 20 21  2  0  0  0
 20 38  1  0  0  0
 21 22  1  0  0  0
 21 24  1  0  0  0
 22 23  2  0  0  0
 22 39  1  0  0  0
 23 40  1  0  0  0
 24 25  1  0  0  0
 24 41  1  0  0  0
 25 26  2  0  0  0
 25 27  2  0  0  0
 25 28  1  0  0  0
 28 42  1  0  0  0
 28 43  1  0  0  0
 28 44  1  0  0  0
M  END
> <s_m_entry_id>
5988

> <s_m_entry_name>
ligand_docking-pose.87

> <s_m_Source_Path>
/home/csk/Desktop/cluster/DUD-E-result/pgh1

> <s_m_Source_File>
ligand_docking-pose.sdf

> <i_m_Source_File_Index>
87

> <i_lp_mmshare_version>
53161

> <i_f3d_flags>
0

> <r_lp_tautomer_probability>
1

> <s_lp_Force_Field>
OPLS_2005

> <r_lp_Energy>
13.906631

> <b_lp_Chiralities_Consistent>
1

> <s_lp_Variant>
68479-1

> <s_i_glide_gridfile>
glide-grid_2oyu

> <i_i_glide_lignum>
599

> <i_i_glide_rotatable_bonds>
6

> <r_i_docking_score>
-8.59056047999704

> <r_i_glide_ligand_efficiency>
-0.306805731428466

> <r_i_glide_ligand_efficiency_sa>
-0.931642899529117

> <r_i_glide_ligand_efficiency_ln>
-1.98295358859908

> <r_i_glide_gscore>
-8.59056047999704

> <r_i_glide_lipo>
-4.39066630513371

> <r_i_glide_hbond>
0

> <r_i_glide_metal>
0

> <r_i_glide_rewards>
-2.33009073976213

> <r_i_glide_evdw>
-28.8635425567627

> <r_i_glide_ecoul>
-4.88730669021606

> <r_i_glide_erotb>
0.349352575319196

> <r_i_glide_esite>
-0.042882879049852

> <r_i_glide_emodel>
-41.6364105668584

> <r_i_glide_energy>
-33.7508492469788

> <r_i_glide_einternal>
7.57481813430786

> <i_i_glide_confnum>
19

> <i_i_glide_posenum>
229

> <r_i_glide_eff_state_penalty>
0

> <s_user_duplicate_titles>
68479

> <s_m_subgroup_title>
dock_pv

> <s_m_subgroupid>
dock_pv1

> <b_m_subgroup_collapsed>
0

$$$$
456852
                    3D
 Schrodinger Suite 2021-1.
 31 33  0  0  1  0            999 V2000
   24.8136   53.9251   13.0362 C   0  0  0  0  0  0
   23.6802   52.9169   13.0587 C   0  0  0  0  0  0
   22.5365   53.2045   13.8000 C   0  0  0  0  0  0
   21.6076   52.2039   14.0546 C   0  0  0  0  0  0
   21.7857   50.9327   13.5099 C   0  0  0  0  0  0
   22.8635   50.6849   12.6528 C   0  0  0  0  0  0
   23.8102   51.6809   12.4234 C   0  0  0  0  0  0
   20.8198   49.8563   13.8654 C   0  0  0  0  0  0
   20.5230   49.4730   15.1824 C   0  0  0  0  0  0
   19.6696   48.5042   15.4087 N   0  0  0  0  0  0
   19.0899   47.9647   13.9055 S   0  0  0  0  0  0
   20.0734   49.0731   12.9827 C   0  0  0  0  0  0
   20.0156   49.0828   11.4884 C   0  0  0  0  0  0
   19.7139   47.9198   10.7759 C   0  0  0  0  0  0
   19.7233   47.9092    9.3830 C   0  0  0  0  0  0
   20.1230   49.0581    8.7011 C   0  0  0  0  0  0
   20.3357   50.2415    9.4000 C   0  0  0  0  0  0
   20.2759   50.2604   10.7846 C   0  0  0  0  0  0
   20.1230   49.0730    6.9717 Cl  0  0  0  0  0  0
   25.4884   53.7684   12.2000 H   0  0  0  0  0  0
   25.3952   53.8328   13.9524 H   0  0  0  0  0  0
   24.4390   54.9484   13.0000 H   0  0  0  0  0  0
   22.4249   54.1679   14.2774 H   0  0  0  0  0  0
   20.7668   52.4095   14.7002 H   0  0  0  0  0  0
   22.9958   49.7094   12.2065 H   0  0  0  0  0  0
   24.6755   51.4620   11.8143 H   0  0  0  0  0  0
   20.9780   49.9344   16.0468 H   0  0  0  0  0  0
   19.4730   47.0180   11.3078 H   0  0  0  0  0  0
   19.4797   47.0093    8.8392 H   0  0  0  0  0  0
   20.5230   51.1476    8.8496 H   0  0  0  0  0  0
   20.4446   51.1946   11.2973 H   0  0  0  0  0  0
  1  2  1  0  0  0
  1 20  1  0  0  0
  1 21  1  0  0  0
  1 22  1  0  0  0
  2  7  1  0  0  0
  2  3  2  0  0  0
  3  4  1  0  0  0
  3 23  1  0  0  0
  4  5  2  0  0  0
  4 24  1  0  0  0
  5  6  1  0  0  0
  5  8  1  0  0  0
  6  7  2  0  0  0
  6 25  1  0  0  0
  7 26  1  0  0  0
  8 12  2  0  0  0
  8  9  1  0  0  0
  9 10  2  0  0  0
  9 27  1  0  0  0
 10 11  1  0  0  0
 11 12  1  0  0  0
 12 13  1  0  0  0
 13 18  1  0  0  0
 13 14  2  0  0  0
 14 15  1  0  0  0
 14 28  1  0  0  0
 15 16  2  0  0  0
 15 29  1  0  0  0
 16 17  1  0  0  0
 16 19  1  0  0  0
 17 18  2  0  0  0
 17 30  1  0  0  0
 18 31  1  0  0  0
M  END
> <s_m_entry_id>
5991

> <s_m_entry_name>
ligand_docking-pose.90

> <s_m_Source_Path>
/home/csk/Desktop/cluster/DUD-E-result/pgh1

> <s_m_Source_File>
ligand_docking-pose.sdf

> <i_m_Source_File_Index>
90

> <i_lp_mmshare_version>
53161

> <i_f3d_flags>
0

> <r_lp_tautomer_probability>
1

> <s_lp_Force_Field>
OPLS_2005

> <r_lp_Energy>
14.602667

> <b_lp_Chiralities_Consistent>
1

> <s_lp_Variant>
456852-1

> <s_i_glide_gridfile>
glide-grid_2oyu

> <i_i_glide_lignum>
211

> <i_i_glide_rotatable_bonds>
2

> <r_i_docking_score>
-8.55267591780775

> <r_i_glide_ligand_efficiency>
-0.450140837779355

> <r_i_glide_ligand_efficiency_sa>
-1.2011565525086

> <r_i_glide_ligand_efficiency_ln>
-2.1682870397998

> <r_i_glide_gscore>
-8.55267591780775

> <r_i_glide_lipo>
-4.8701909771762

> <r_i_glide_hbond>
0

> <r_i_glide_metal>
0

> <r_i_glide_rewards>
-2.35220352025057

> <r_i_glide_evdw>
-34.7346839904785

> <r_i_glide_ecoul>
-0.253111511468887

> <r_i_glide_erotb>
0.444419505863284

> <r_i_glide_esite>
0

> <r_i_glide_emodel>
-49.2906573723475

> <r_i_glide_energy>
-34.9877955019474

> <r_i_glide_einternal>
1.40396988391876

> <i_i_glide_confnum>
5

> <i_i_glide_posenum>
15

> <r_i_glide_eff_state_penalty>
0

> <s_user_duplicate_titles>
456852

> <s_m_subgroup_title>
dock_pv

> <s_m_subgroupid>
dock_pv1

> <b_m_subgroup_collapsed>
0

$$$$
456856
                    3D
 Schrodinger Suite 2021-1.
 32 34  0  0  1  0            999 V2000
   19.5764   48.0487    6.5592 C   0  0  0  0  0  0
   20.1230   49.1098    7.3288 O   0  0  0  0  0  0
   20.1230   49.0146    8.7055 C   0  0  0  0  0  0
   20.3500   50.1969    9.4000 C   0  0  0  0  0  0
   20.2918   50.2374   10.7841 C   0  0  0  0  0  0
   20.0258   49.0732   11.5058 C   0  0  0  0  0  0
   19.7213   47.9016   10.8113 C   0  0  0  0  0  0
   19.7230   47.8731    9.4188 C   0  0  0  0  0  0
   20.0769   49.0861   12.9994 C   0  0  0  0  0  0
   20.8344   49.8698   13.8718 C   0  0  0  0  0  0
   20.5230   49.5129   15.1935 C   0  0  0  0  0  0
   19.6478   48.5670   15.4320 N   0  0  0  0  0  0
   19.0643   48.0151   13.9343 S   0  0  0  0  0  0
   21.8289   50.9147   13.4992 C   0  0  0  0  0  0
   22.8733   50.6290   12.6117 C   0  0  0  0  0  0
   23.8607   51.5795   12.3707 C   0  0  0  0  0  0
   23.8016   52.8070   13.0261 C   0  0  0  0  0  0
   22.6957   53.1424   13.8000 C   0  0  0  0  0  0
   21.7231   52.1867   14.0624 C   0  0  0  0  0  0
   25.1558   53.8730   13.0000 Cl  0  0  0  0  0  0
   19.6388   48.3042    5.5014 H   0  0  0  0  0  0
   18.5240   47.8860    6.7991 H   0  0  0  0  0  0
   20.1230   47.1181    6.7065 H   0  0  0  0  0  0
   20.5230   51.0993    8.8393 H   0  0  0  0  0  0
   20.4609   51.1791   11.2829 H   0  0  0  0  0  0
   19.4796   47.0073   11.3570 H   0  0  0  0  0  0
   19.4660   46.9551    8.9153 H   0  0  0  0  0  0
   20.9848   49.9765   16.0532 H   0  0  0  0  0  0
   22.9516   49.6524   12.1557 H   0  0  0  0  0  0
   24.7049   51.3321   11.7431 H   0  0  0  0  0  0
   22.6462   54.1062   14.2857 H   0  0  0  0  0  0
   20.9103   52.4270   14.7311 H   0  0  0  0  0  0
  1  2  1  0  0  0
  1 21  1  0  0  0
  1 22  1  0  0  0
  1 23  1  0  0  0
  2  3  1  0  0  0
  3  8  1  0  0  0
  3  4  2  0  0  0
  4  5  1  0  0  0
  4 24  1  0  0  0
  5  6  2  0  0  0
  5 25  1  0  0  0
  6  7  1  0  0  0
  6  9  1  0  0  0
  7  8  2  0  0  0
  7 26  1  0  0  0
  8 27  1  0  0  0
  9 13  1  0  0  0
  9 10  2  0  0  0
 10 11  1  0  0  0
 10 14  1  0  0  0
 11 12  2  0  0  0
 11 28  1  0  0  0
 12 13  1  0  0  0
 14 19  1  0  0  0
 14 15  2  0  0  0
 15 16  1  0  0  0
 15 29  1  0  0  0
 16 17  2  0  0  0
 16 30  1  0  0  0
 17 18  1  0  0  0
 17 20  1  0  0  0
 18 19  2  0  0  0
 18 31  1  0  0  0
 19 32  1  0  0  0
M  END
> <s_m_entry_id>
5993

> <s_m_entry_name>
ligand_docking-pose.92

> <s_m_Source_Path>
/home/csk/Desktop/cluster/DUD-E-result/pgh1

> <s_m_Source_File>
ligand_docking-pose.sdf

> <i_m_Source_File_Index>
92

> <i_lp_mmshare_version>
53161

> <i_f3d_flags>
0

> <r_lp_tautomer_probability>
1

> <s_lp_Force_Field>
OPLS_2005

> <r_lp_Energy>
18.065455

> <b_lp_Chiralities_Consistent>
1

> <s_lp_Variant>
456856-1

> <s_i_glide_gridfile>
glide-grid_2oyu

> <i_i_glide_lignum>
581

> <i_i_glide_rotatable_bonds>
3

> <r_i_docking_score>
-8.53313065331949

> <r_i_glide_ligand_efficiency>
-0.426656532665974

> <r_i_glide_ligand_efficiency_sa>
-1.15812400734734

> <r_i_glide_ligand_efficiency_ln>
-2.13556116104088

> <r_i_glide_gscore>
-8.53313065331949

> <r_i_glide_lipo>
-4.81357735524813

> <r_i_glide_hbond>
0

> <r_i_glide_metal>
0

> <r_i_glide_rewards>
-2.22848246359277

> <r_i_glide_evdw>
-36.7250099182129

> <r_i_glide_ecoul>
-0.392802476882935

> <r_i_glide_erotb>
0.404100032964502

> <r_i_glide_esite>
0

> <r_i_glide_emodel>
-51.686281119721

> <r_i_glide_energy>
-37.1178123950958

> <r_i_glide_einternal>
4.68746137619019

> <i_i_glide_confnum>
6

> <i_i_glide_posenum>
240

> <r_i_glide_eff_state_penalty>
0

> <s_user_duplicate_titles>
456856

> <s_m_subgroup_title>
dock_pv

> <s_m_subgroupid>
dock_pv1

> <b_m_subgroup_collapsed>
0

$$$$
391215
                    3D
 Schrodinger Suite 2021-1.
 42 44  0  0  1  0            999 V2000
   20.5225   51.8729   17.4004 C   0  0  0  0  0  0
   20.8569   51.4437   15.9791 C   0  0  0  0  0  0
   20.9230   49.6485   15.8002 S   0  0  0  0  0  0
   20.1766   49.3528   14.2387 C   0  0  0  0  0  0
   19.1459   48.5491   14.1576 N   0  0  0  0  0  0
   18.9232   48.3965   12.8756 C   0  0  0  0  0  0
   19.8207   49.1065   12.0902 C   0  0  0  0  0  0
   20.6423   49.7546   12.9933 N   0  0  0  0  0  0
   21.7735   50.5444   12.6956 C   0  0  0  0  0  0
   22.8762   49.9577   12.0721 C   0  0  0  0  0  0
   24.0020   50.7280   11.7996 C   0  0  0  0  0  0
   24.0228   52.0791   12.1313 C   0  0  0  0  0  0
   22.9175   52.6721   12.7322 C   0  0  0  0  0  0
   21.7864   51.9066   13.0000 C   0  0  0  0  0  0
   19.9178   49.1421   10.6070 C   0  0  0  0  0  0
   19.7229   47.9352    9.9464 C   0  0  0  0  0  0
   19.7233   47.8718    8.5616 C   0  0  0  0  0  0
   19.9628   49.0294    7.8188 C   0  0  0  0  0  0
   20.1231   50.2518    8.4770 C   0  0  0  0  0  0
   20.1238   50.3076    9.8711 C   0  0  0  0  0  0
   19.9805   48.9065    6.0408 S   0  0  0  0  0  0
   20.9232   49.8730    5.4782 O   0  0  0  0  0  0
   20.1231   47.4904    5.7521 O   0  0  0  0  0  0
   18.2708   49.3240    5.4914 C   0  0  0  0  0  0
   20.5234   52.9583   17.4935 H   0  0  0  0  0  0
   19.5287   51.5233   17.6829 H   0  0  0  0  0  0
   21.2502   51.4723   18.1088 H   0  0  0  0  0  0
   21.8053   51.8628   15.6681 H   0  0  0  0  0  0
   20.1234   51.8712   15.3113 H   0  0  0  0  0  0
   18.1202   47.7680   12.5170 H   0  0  0  0  0  0
   22.8740   48.9078   11.8129 H   0  0  0  0  0  0
   24.8734   50.2725   11.3596 H   0  0  0  0  0  0
   24.9050   52.6677   11.9238 H   0  0  0  0  0  0
   22.9316   53.7237   12.9813 H   0  0  0  0  0  0
   20.9221   52.3944   13.4188 H   0  0  0  0  0  0
   19.5469   47.0485   10.5247 H   0  0  0  0  0  0
   19.5621   46.9211    8.0781 H   0  0  0  0  0  0
   20.2445   51.1582    7.9020 H   0  0  0  0  0  0
   20.2506   51.2561   10.3700 H   0  0  0  0  0  0
   18.3023   49.3703    4.4081 H   0  0  0  0  0  0
   17.6169   48.5185    5.8000 H   0  0  0  0  0  0
   17.9684   50.2727    5.9166 H   0  0  0  0  0  0
  1  2  1  0  0  0
  1 25  1  0  0  0
  1 26  1  0  0  0
  1 27  1  0  0  0
  2  3  1  0  0  0
  2 28  1  0  0  0
  2 29  1  0  0  0
  3  4  1  0  0  0
  4  8  1  0  0  0
  4  5  2  0  0  0
  5  6  1  0  0  0
  6  7  2  0  0  0
  6 30  1  0  0  0
  7  8  1  0  0  0
  7 15  1  0  0  0
  8  9  1  0  0  0
  9 14  1  0  0  0
  9 10  2  0  0  0
 10 11  1  0  0  0
 10 31  1  0  0  0
 11 12  2  0  0  0
 11 32  1  0  0  0
 12 13  1  0  0  0
 12 33  1  0  0  0
 13 14  2  0  0  0
 13 34  1  0  0  0
 14 35  1  0  0  0
 15 20  1  0  0  0
 15 16  2  0  0  0
 16 17  1  0  0  0
 16 36  1  0  0  0
 17 18  2  0  0  0
 17 37  1  0  0  0
 18 19  1  0  0  0
 18 21  1  0  0  0
 19 20  2  0  0  0
 19 38  1  0  0  0
 20 39  1  0  0  0
 21 22  2  0  0  0
 21 23  2  0  0  0
 21 24  1  0  0  0
 24 40  1  0  0  0
 24 41  1  0  0  0
 24 42  1  0  0  0
M  END
> <s_m_entry_id>
5994

> <s_m_entry_name>
ligand_docking-pose.93

> <s_m_Source_Path>
/home/csk/Desktop/cluster/DUD-E-result/pgh1

> <s_m_Source_File>
ligand_docking-pose.sdf

> <i_m_Source_File_Index>
93

> <i_lp_mmshare_version>
53161

> <i_f3d_flags>
0

> <r_lp_tautomer_probability>
1

> <s_lp_Force_Field>
OPLS_2005

> <r_lp_Energy>
11.972176

> <b_lp_Chiralities_Consistent>
1

> <s_lp_Variant>
391215-1

> <s_i_glide_gridfile>
glide-grid_2oyu

> <i_i_glide_lignum>
539

> <i_i_glide_rotatable_bonds>
5

> <r_i_docking_score>
-8.52280258325214

> <r_i_glide_ligand_efficiency>
-0.355116774302173

> <r_i_glide_ligand_efficiency_sa>
-1.02433402920739

> <r_i_glide_ligand_efficiency_ln>
-2.03989774409928

> <r_i_glide_gscore>
-8.52280258325214

> <r_i_glide_lipo>
-4.41322630091079

> <r_i_glide_hbond>
0

> <r_i_glide_metal>
0

> <r_i_glide_rewards>
-2.67293468472282

> <r_i_glide_evdw>
-19.2431335449219

> <r_i_glide_ecoul>
-6.01606130599976

> <r_i_glide_erotb>
0.447200846734027

> <r_i_glide_esite>
-0.0192765712065123

> <r_i_glide_emodel>
-37.1395399247942

> <r_i_glide_energy>
-25.2591948509216

> <r_i_glide_einternal>
4.3565936088562

> <i_i_glide_confnum>
36

> <i_i_glide_posenum>
260

> <r_i_glide_eff_state_penalty>
0

> <s_user_duplicate_titles>
391215

> <s_m_subgroup_title>
dock_pv

> <s_m_subgroupid>
dock_pv1

> <b_m_subgroup_collapsed>
0

$$$$
79614
                    3D
 Schrodinger Suite 2021-1.
 36 38  0  0  1  0            999 V2000
   24.5952   54.3583   13.6774 C   0  0  0  0  0  0
   24.0963   53.1457   12.9031 C   0  0  0  0  0  0
   24.9383   52.6759   11.8995 C   0  0  0  0  0  0
   24.5230   51.7216   11.0005 C   0  0  0  0  0  0
   23.3103   51.0951   11.1844 C   0  0  0  0  0  0
   22.4494   51.5029   12.2094 C   0  0  0  0  0  0
   22.8361   52.5391   13.0864 C   0  0  0  0  0  0
   21.8803   52.9743   14.2028 C   0  0  0  0  0  0
   21.2159   50.8619   12.3825 N   0  0  0  0  0  0
   20.5818   49.9070   11.5800 C   0  0  0  0  0  0
   20.6362   50.0005   10.1854 C   0  0  0  0  0  0
   20.1230   48.9895    9.3814 C   0  0  0  0  0  0
   19.4639   47.9144    9.9682 C   0  0  0  0  0  0
   19.3230   47.8730   11.3538 C   0  0  0  0  0  0
   19.8815   48.8495   12.1747 C   0  0  0  0  0  0
   19.6981   48.6936   13.6464 C   0  0  0  0  0  0
   20.5204   49.0194   14.6169 N   0  0  0  0  0  0
   19.8585   48.7216   15.8000 N   0  0  0  0  0  0
   18.6841   48.2730   15.4437 C   0  0  0  0  0  0
   18.5142   48.2135   14.1036 O   0  0  0  0  0  0
   17.3230   47.8730   16.4553 S   0  0  0  0  0  0
   25.1084   55.0422   12.9999 H   0  0  0  0  0  0
   23.8141   54.9626   14.1317 H   0  0  0  0  0  0
   25.3230   54.0626   14.4257 H   0  0  0  0  0  0
   25.9166   53.1133   11.7701 H   0  0  0  0  0  0
   25.1746   51.4730   10.1822 H   0  0  0  0  0  0
   23.0727   50.2881   10.5132 H   0  0  0  0  0  0
   21.8227   52.1981   14.9664 H   0  0  0  0  0  0
   20.8776   53.1048   13.8000 H   0  0  0  0  0  0
   22.1229   53.9139   14.6893 H   0  0  0  0  0  0
   20.8527   50.9279   13.3218 H   0  0  0  0  0  0
   21.0963   50.8564    9.7177 H   0  0  0  0  0  0
   20.1967   49.0601    8.3057 H   0  0  0  0  0  0
   19.0275   47.1418    9.3522 H   0  0  0  0  0  0
   18.7598   47.0730   11.8002 H   0  0  0  0  0  0
   16.4215   47.8735   15.4421 H   0  0  0  0  0  0
  1  2  1  0  0  0
  1 22  1  0  0  0
  1 23  1  0  0  0
  1 24  1  0  0  0
  2  7  1  0  0  0
  2  3  2  0  0  0
  3  4  1  0  0  0
  3 25  1  0  0  0
  4  5  2  0  0  0
  4 26  1  0  0  0
  5  6  1  0  0  0
  5 27  1  0  0  0
  6  7  2  0  0  0
  6  9  1  0  0  0
  7  8  1  0  0  0
  8 28  1  0  0  0
  8 29  1  0  0  0
  8 30  1  0  0  0
  9 10  1  0  0  0
  9 31  1  0  0  0
 10 15  1  0  0  0
 10 11  2  0  0  0
 11 12  1  0  0  0
 11 32  1  0  0  0
 12 13  2  0  0  0
 12 33  1  0  0  0
 13 14  1  0  0  0
 13 34  1  0  0  0
 14 15  2  0  0  0
 14 35  1  0  0  0
 15 16  1  0  0  0
 16 20  1  0  0  0
 16 17  2  0  0  0
 17 18  1  0  0  0
 18 19  2  0  0  0
 19 20  1  0  0  0
 19 21  1  0  0  0
 21 36  1  0  0  0
M  END
> <s_m_entry_id>
5995

> <s_m_entry_name>
ligand_docking-pose.94

> <s_m_Source_Path>
/home/csk/Desktop/cluster/DUD-E-result/pgh1

> <s_m_Source_File>
ligand_docking-pose.sdf

> <i_m_Source_File_Index>
94

> <i_lp_mmshare_version>
53161

> <i_f3d_flags>
0

> <r_lp_tautomer_probability>
1

> <s_lp_Force_Field>
OPLS_2005

> <r_lp_Energy>
20.874452

> <b_lp_Chiralities_Consistent>
1

> <s_lp_Variant>
79614-1

> <s_i_glide_gridfile>
glide-grid_2oyu

> <i_i_glide_lignum>
235

> <i_i_glide_rotatable_bonds>
4

> <r_i_docking_score>
-8.50440219934611

> <r_i_glide_ligand_efficiency>
-0.404971533302196

> <r_i_glide_ligand_efficiency_sa>
-1.11728575283969

> <r_i_glide_ligand_efficiency_ln>
-2.10269625902559

> <r_i_glide_gscore>
-8.50440219934611

> <r_i_glide_lipo>
-4.50193008718443

> <r_i_glide_hbond>
0

> <r_i_glide_metal>
0

> <r_i_glide_rewards>
-2.48206057582704

> <r_i_glide_evdw>
-37.5444679260254

> <r_i_glide_ecoul>
-1.76782464981079

> <r_i_glide_erotb>
0.621985557438251

> <r_i_glide_esite>
0

> <r_i_glide_emodel>
-52.9016490170787

> <r_i_glide_energy>
-39.3122925758362

> <r_i_glide_einternal>
5.56309413909912

> <i_i_glide_confnum>
24

> <i_i_glide_posenum>
381

> <r_i_glide_eff_state_penalty>
0

> <s_user_duplicate_titles>
79614

> <s_m_subgroup_title>
dock_pv

> <s_m_subgroupid>
dock_pv1

> <b_m_subgroup_collapsed>
0

$$$$
5021
                    3D
 Schrodinger Suite 2021-1.
 29 31  0  0  1  0            999 V2000
   21.6996   53.8816   14.1356 C   0  0  0  0  0  0
   22.9160   53.3454   13.4023 C   0  0  0  0  0  0
   24.0528   54.1548   13.4000 C   0  0  0  0  0  0
   25.1761   53.7985   12.6707 C   0  0  0  0  0  0
   25.1354   52.6730   11.8597 C   0  0  0  0  0  0
   24.0368   51.8187   11.9013 C   0  0  0  0  0  0
   22.9230   52.1116   12.7102 C   0  0  0  0  0  0
   21.8873   51.1367   12.8436 N   0  0  0  0  0  0
   21.3669   50.4260   11.7987 C   0  0  0  0  0  0
   21.5711   50.6078   10.5999 O   0  0  0  0  0  0
   20.5050   49.3789   12.3942 C   0  0  0  0  0  0
   19.7687   48.3568   11.8032 C   0  0  0  0  0  0
   19.0745   47.4802   12.6391 C   0  0  0  0  0  0
   19.0911   47.6386   14.0290 C   0  0  0  0  0  0
   19.8295   48.6771   14.5985 C   0  0  0  0  0  0
   20.5329   49.5318   13.7478 C   0  0  0  0  0  0
   21.4245   50.6730   14.0468 C   0  0  0  0  0  0
   21.7023   51.0810   15.1728 O   0  0  0  0  0  0
   20.7913   53.4684   13.7059 H   0  0  0  0  0  0
   21.7341   53.6565   15.2012 H   0  0  0  0  0  0
   21.6297   54.9639   14.0247 H   0  0  0  0  0  0
   24.0636   55.0730   13.9685 H   0  0  0  0  0  0
   26.0461   54.4398   12.6726 H   0  0  0  0  0  0
   25.9841   52.4226   11.2390 H   0  0  0  0  0  0
   24.0814   50.9052   11.3250 H   0  0  0  0  0  0
   19.7432   48.2221   10.7310 H   0  0  0  0  0  0
   18.5230   46.6730   12.2000 H   0  0  0  0  0  0
   18.5367   46.9585   14.6592 H   0  0  0  0  0  0
   19.8557   48.8026   15.6718 H   0  0  0  0  0  0
  1  2  1  0  0  0
  1 19  1  0  0  0
  1 20  1  0  0  0
  1 21  1  0  0  0
  2  7  1  0  0  0
  2  3  2  0  0  0
  3  4  1  0  0  0
  3 22  1  0  0  0
  4  5  2  0  0  0
  4 23  1  0  0  0
  5  6  1  0  0  0
  5 24  1  0  0  0
  6  7  2  0  0  0
  6 25  1  0  0  0
  7  8  1  0  0  0
  8 17  1  0  0  0
  8  9  1  0  0  0
  9 10  2  0  0  0
  9 11  1  0  0  0
 11 16  2  0  0  0
 11 12  1  0  0  0
 12 13  2  0  0  0
 12 26  1  0  0  0
 13 14  1  0  0  0
 13 27  1  0  0  0
 14 15  2  0  0  0
 14 28  1  0  0  0
 15 16  1  0  0  0
 15 29  1  0  0  0
 16 17  1  0  0  0
 17 18  2  0  0  0
M  END
> <s_m_entry_id>
5996

> <s_m_entry_name>
ligand_docking-pose.95

> <s_m_Source_Path>
/home/csk/Desktop/cluster/DUD-E-result/pgh1

> <s_m_Source_File>
ligand_docking-pose.sdf

> <i_m_Source_File_Index>
95

> <i_lp_mmshare_version>
53161

> <i_f3d_flags>
0

> <r_lp_tautomer_probability>
1

> <s_lp_Force_Field>
OPLS_2005

> <r_lp_Energy>
47.617864

> <b_lp_Chiralities_Consistent>
1

> <s_lp_Variant>
5021-1

> <s_i_glide_gridfile>
glide-grid_2oyu

> <i_i_glide_lignum>
242

> <i_i_glide_rotatable_bonds>
1

> <r_i_docking_score>
-8.4979739369699

> <r_i_glide_ligand_efficiency>
-0.472109663164995

> <r_i_glide_ligand_efficiency_sa>
-1.23727733567046

> <r_i_glide_ligand_efficiency_ln>
-2.18436038142675

> <r_i_glide_gscore>
-8.4979739369699

> <r_i_glide_lipo>
-3.14566005495582

> <r_i_glide_hbond>
0

> <r_i_glide_metal>
0

> <r_i_glide_rewards>
-3.84330407372032

> <r_i_glide_evdw>
-28.6078643798828

> <r_i_glide_ecoul>
-2.56540775299072

> <r_i_glide_erotb>
0.306194573648988

> <r_i_glide_esite>
0

> <r_i_glide_emodel>
-45.008800975894

> <r_i_glide_energy>
-31.1732721328735

> <r_i_glide_einternal>
0.753231644630432

> <i_i_glide_confnum>
3

> <i_i_glide_posenum>
90

> <r_i_glide_eff_state_penalty>
0

> <s_user_duplicate_titles>
5021

> <s_m_subgroup_title>
dock_pv

> <s_m_subgroupid>
dock_pv1

> <b_m_subgroup_collapsed>
0

$$$$
456853
                    3D
 Schrodinger Suite 2021-1.
 31 33  0  0  1  0            999 V2000
   24.9500   53.8089   12.9000 C   0  0  0  0  0  0
   23.7934   52.8325   13.0000 C   0  0  0  0  0  0
   22.6962   53.1500   13.8000 C   0  0  0  0  0  0
   21.7230   52.1914   14.0554 C   0  0  0  0  0  0
   21.8297   50.9218   13.4844 C   0  0  0  0  0  0
   22.8754   50.6415   12.6000 C   0  0  0  0  0  0
   23.8523   51.5995   12.3494 C   0  0  0  0  0  0
   20.8227   49.8730   13.8086 C   0  0  0  0  0  0
   20.0249   49.0730   12.9885 C   0  0  0  0  0  0
   19.2468   48.2303   13.8001 C   0  0  0  0  0  0
   19.3738   48.2731   15.1052 N   0  0  0  0  0  0
   20.5230   49.4730   15.4728 S   0  0  0  0  0  0
   19.9935   49.0960   11.4951 C   0  0  0  0  0  0
   19.6943   47.9270   10.7933 C   0  0  0  0  0  0
   19.7230   47.9023    9.4000 C   0  0  0  0  0  0
   20.1230   49.0467    8.7104 C   0  0  0  0  0  0
   20.3315   50.2364    9.4000 C   0  0  0  0  0  0
   20.2605   50.2680   10.7842 C   0  0  0  0  0  0
   20.1230   49.0499    6.9809 Cl  0  0  0  0  0  0
   25.7146   53.4731   12.2000 H   0  0  0  0  0  0
   25.4161   53.9290   13.8773 H   0  0  0  0  0  0
   24.6037   54.7949   12.6000 H   0  0  0  0  0  0
   22.6354   54.1146   14.2838 H   0  0  0  0  0  0
   20.9075   52.4290   14.7217 H   0  0  0  0  0  0
   22.9526   49.6687   12.1354 H   0  0  0  0  0  0
   24.6820   51.3552   11.7015 H   0  0  0  0  0  0
   18.5290   47.5242   13.4087 H   0  0  0  0  0  0
   19.4426   47.0345   11.3358 H   0  0  0  0  0  0
   19.4826   46.9979    8.8621 H   0  0  0  0  0  0
   20.5230   51.1377    8.8432 H   0  0  0  0  0  0
   20.4256   51.2056   11.2920 H   0  0  0  0  0  0
  1  2  1  0  0  0
  1 20  1  0  0  0
  1 21  1  0  0  0
  1 22  1  0  0  0
  2  7  1  0  0  0
  2  3  2  0  0  0
  3  4  1  0  0  0
  3 23  1  0  0  0
  4  5  2  0  0  0
  4 24  1  0  0  0
  5  6  1  0  0  0
  5  8  1  0  0  0
  6  7  2  0  0  0
  6 25  1  0  0  0
  7 26  1  0  0  0
  8 12  1  0  0  0
  8  9  2  0  0  0
  9 10  1  0  0  0
  9 13  1  0  0  0
 10 11  2  0  0  0
 10 27  1  0  0  0
 11 12  1  0  0  0
 13 18  1  0  0  0
 13 14  2  0  0  0
 14 15  1  0  0  0
 14 28  1  0  0  0
 15 16  2  0  0  0
 15 29  1  0  0  0
 16 17  1  0  0  0
 16 19  1  0  0  0
 17 18  2  0  0  0
 17 30  1  0  0  0
 18 31  1  0  0  0
M  END
> <s_m_entry_id>
5998

> <s_m_entry_name>
ligand_docking-pose.97

> <s_m_Source_Path>
/home/csk/Desktop/cluster/DUD-E-result/pgh1

> <s_m_Source_File>
ligand_docking-pose.sdf

> <i_m_Source_File_Index>
97

> <i_lp_mmshare_version>
53161

> <i_f3d_flags>
0

> <r_lp_tautomer_probability>
1

> <s_lp_Force_Field>
OPLS_2005

> <r_lp_Energy>
14.527827

> <b_lp_Chiralities_Consistent>
1

> <s_lp_Variant>
456853-1

> <s_i_glide_gridfile>
glide-grid_2oyu

> <i_i_glide_lignum>
205

> <i_i_glide_rotatable_bonds>
2

> <r_i_docking_score>
-8.44404890698242

> <r_i_glide_ligand_efficiency>
-0.444423626683285

> <r_i_glide_ligand_efficiency_sa>
-1.18590073700873

> <r_i_glide_ligand_efficiency_ln>
-2.14074775946131

> <r_i_glide_gscore>
-8.44404890698242

> <r_i_glide_lipo>
-4.87051835802529

> <r_i_glide_hbond>
0

> <r_i_glide_metal>
0

> <r_i_glide_rewards>
-2.26387181561792

> <r_i_glide_evdw>
-32.874755859375

> <r_i_glide_ecoul>
-0.735602974891663

> <r_i_glide_erotb>
0.444419505863284

> <r_i_glide_esite>
0

> <r_i_glide_emodel>
-47.2570643628923

> <r_i_glide_energy>
-33.6103588342667

> <r_i_glide_einternal>
1.20156836509705

> <i_i_glide_confnum>
5

> <i_i_glide_posenum>
383

> <r_i_glide_eff_state_penalty>
0

> <s_user_duplicate_titles>
456853

> <s_m_subgroup_title>
dock_pv

> <s_m_subgroupid>
dock_pv1

> <b_m_subgroup_collapsed>
0

$$$$
456855
                    3D
 Schrodinger Suite 2021-1.
 32 34  0  0  1  0            999 V2000
   25.4291   54.2035   13.0307 C   0  0  0  0  0  0
   25.1735   53.0730   12.2003 O   0  0  0  0  0  0
   24.0344   52.3280   12.4160 C   0  0  0  0  0  0
   23.0771   52.6132   13.4000 C   0  0  0  0  0  0
   21.9990   51.7571   13.5975 C   0  0  0  0  0  0
   21.8621   50.6140   12.8077 C   0  0  0  0  0  0
   22.7904   50.3534   11.8000 C   0  0  0  0  0  0
   23.8645   51.2119   11.6012 C   0  0  0  0  0  0
   20.7698   49.6376   13.0739 C   0  0  0  0  0  0
   20.4144   49.2271   14.3679 C   0  0  0  0  0  0
   19.4893   48.3160   14.5391 N   0  0  0  0  0  0
   18.9230   47.8730   13.0000 S   0  0  0  0  0  0
   19.9859   48.9544   12.1372 C   0  0  0  0  0  0
   19.9397   49.0171   10.6367 C   0  0  0  0  0  0
   19.7230   47.8578    9.8859 C   0  0  0  0  0  0
   19.7230   47.8758    8.4933 C   0  0  0  0  0  0
   19.9759   49.0730    7.8294 C   0  0  0  0  0  0
   20.1230   50.2497    8.5686 C   0  0  0  0  0  0
   20.1230   50.2253    9.9623 C   0  0  0  0  0  0
   20.0242   49.1114    6.1044 Cl  0  0  0  0  0  0
   26.3330   54.7096   12.6927 H   0  0  0  0  0  0
   25.5873   53.9005   14.0656 H   0  0  0  0  0  0
   24.6184   54.9329   13.0000 H   0  0  0  0  0  0
   23.1675   53.4761   14.0421 H   0  0  0  0  0  0
   21.2840   51.9771   14.3771 H   0  0  0  0  0  0
   22.6901   49.4730   11.1849 H   0  0  0  0  0  0
   24.5882   50.9963   10.8297 H   0  0  0  0  0  0
   20.8885   49.6092   15.2601 H   0  0  0  0  0  0
   19.6028   46.9169   10.3897 H   0  0  0  0  0  0
   19.5724   46.9674    7.9329 H   0  0  0  0  0  0
   20.2469   51.1881    8.0488 H   0  0  0  0  0  0
   20.2613   51.1451   10.5116 H   0  0  0  0  0  0
  1  2  1  0  0  0
  1 21  1  0  0  0
  1 22  1  0  0  0
  1 23  1  0  0  0
  2  3  1  0  0  0
  3  8  1  0  0  0
  3  4  2  0  0  0
  4  5  1  0  0  0
  4 24  1  0  0  0
  5  6  2  0  0  0
  5 25  1  0  0  0
  6  7  1  0  0  0
  6  9  1  0  0  0
  7  8  2  0  0  0
  7 26  1  0  0  0
  8 27  1  0  0  0
  9 13  2  0  0  0
  9 10  1  0  0  0
 10 11  2  0  0  0
 10 28  1  0  0  0
 11 12  1  0  0  0
 12 13  1  0  0  0
 13 14  1  0  0  0
 14 19  1  0  0  0
 14 15  2  0  0  0
 15 16  1  0  0  0
 15 29  1  0  0  0
 16 17  2  0  0  0
 16 30  1  0  0  0
 17 18  1  0  0  0
 17 20  1  0  0  0
 18 19  2  0  0  0
 18 31  1  0  0  0
 19 32  1  0  0  0
M  END
> <s_m_entry_id>
5999

> <s_m_entry_name>
ligand_docking-pose.98

> <s_m_Source_Path>
/home/csk/Desktop/cluster/DUD-E-result/pgh1

> <s_m_Source_File>
ligand_docking-pose.sdf

> <i_m_Source_File_Index>
98

> <i_lp_mmshare_version>
53161

> <i_f3d_flags>
0

> <r_lp_tautomer_probability>
1

> <s_lp_Force_Field>
OPLS_2005

> <r_lp_Energy>
18.13208

> <b_lp_Chiralities_Consistent>
1

> <s_lp_Variant>
456855-1

> <s_i_glide_gridfile>
glide-grid_2oyu

> <i_i_glide_lignum>
584

> <i_i_glide_rotatable_bonds>
3

> <r_i_docking_score>
-8.43900065847519

> <r_i_glide_ligand_efficiency>
-0.421950032923759

> <r_i_glide_ligand_efficiency_sa>
-1.14534860154733

> <r_i_glide_ligand_efficiency_ln>
-2.11200352794637

> <r_i_glide_gscore>
-8.43900065847519

> <r_i_glide_lipo>
-5.04001807345946

> <r_i_glide_hbond>
0

> <r_i_glide_metal>
0

> <r_i_glide_rewards>
-1.95385371730922

> <r_i_glide_evdw>
-33.2056884765625

> <r_i_glide_ecoul>
-1.2596298456192

> <r_i_glide_erotb>
0.404100032964502

> <r_i_glide_esite>
0

> <r_i_glide_emodel>
-50.6979986781303

> <r_i_glide_energy>
-34.4653183221817

> <r_i_glide_einternal>
0.284722328186035

> <i_i_glide_confnum>
1

> <i_i_glide_posenum>
118

> <r_i_glide_eff_state_penalty>
0

> <s_user_duplicate_titles>
456855

> <s_m_subgroup_title>
dock_pv

> <s_m_subgroupid>
dock_pv1

> <b_m_subgroup_collapsed>
0

$$$$
357051
                    3D
 Schrodinger Suite 2021-1.
 35 38  0  0  1  0            999 V2000
   24.0697   53.0265   12.5384 C   0  0  0  0  0  0
   24.0991   51.7017   12.1114 C   0  0  0  0  0  0
   23.1461   50.8052   12.5897 C   0  0  0  0  0  0
   22.1507   51.2307   13.4806 C   0  0  0  0  0  0
   22.1194   52.5734   13.8726 C   0  0  0  0  0  0
   23.0721   53.4707   13.4000 C   0  0  0  0  0  0
   21.1301   50.2728   13.9812 C   0  0  0  0  0  0
   20.3530   49.4217   13.2805 C   0  0  0  0  0  0
   19.5538   48.5992   14.2520 C   0  0  0  0  0  0
   19.9864   49.0528   15.5146 O   0  0  0  0  0  0
   20.8798   50.0481   15.3968 C   0  0  0  0  0  0
   21.3230   50.6730   16.3534 O   0  0  0  0  0  0
   20.1723   49.3294   11.8133 C   0  0  0  0  0  0
   19.7245   48.1396   11.2259 C   0  0  0  0  0  0
   19.7172   48.0018    9.8392 C   0  0  0  0  0  0
   20.1230   49.0599    9.0194 C   0  0  0  0  0  0
   20.4668   50.2720    9.6113 C   0  0  0  0  0  0
   20.4843   50.4104   10.9863 C   0  0  0  0  0  0
   20.0139   48.9545    7.5274 C   0  0  0  0  0  0
   19.7230   47.8733    6.8466 N   0  0  0  0  0  0
   19.7103   48.2726    5.5112 N   0  0  0  0  0  0
   19.9488   49.6148    5.4006 N   0  0  0  0  0  0
   20.1230   50.0076    6.6546 N   0  0  0  0  0  0
   20.2749   50.9728    6.9050 H   0  0  0  0  0  0
   24.8259   53.7191   12.2006 H   0  0  0  0  0  0
   24.8653   51.3664   11.4266 H   0  0  0  0  0  0
   23.1840   49.7739   12.2645 H   0  0  0  0  0  0
   21.3590   52.9241   14.5544 H   0  0  0  0  0  0
   23.0537   54.5005   13.7252 H   0  0  0  0  0  0
   19.7522   47.5322   14.1577 H   0  0  0  0  0  0
   18.4786   48.7520   14.1433 H   0  0  0  0  0  0
   19.4359   47.2931   11.8308 H   0  0  0  0  0  0
   19.3828   47.0720    9.4042 H   0  0  0  0  0  0
   20.7095   51.1248    9.0028 H   0  0  0  0  0  0
   20.7533   51.3730   11.3904 H   0  0  0  0  0  0
  1  6  1  0  0  0
  1  2  2  0  0  0
  1 25  1  0  0  0
  2  3  1  0  0  0
  2 26  1  0  0  0
  3  4  2  0  0  0
  3 27  1  0  0  0
  4  5  1  0  0  0
  4  7  1  0  0  0
  5  6  2  0  0  0
  5 28  1  0  0  0
  6 29  1  0  0  0
  7 11  1  0  0  0
  7  8  2  0  0  0
  8  9  1  0  0  0
  8 13  1  0  0  0
  9 10  1  0  0  0
  9 30  1  0  0  0
  9 31  1  0  0  0
 10 11  1  0  0  0
 11 12  2  0  0  0
 13 18  1  0  0  0
 13 14  2  0  0  0
 14 15  1  0  0  0
 14 32  1  0  0  0
 15 16  2  0  0  0
 15 33  1  0  0  0
 16 17  1  0  0  0
 16 19  1  0  0  0
 17 18  2  0  0  0
 17 34  1  0  0  0
 18 35  1  0  0  0
 19 20  2  0  0  0
 19 23  1  0  0  0
 20 21  1  0  0  0
 21 22  2  0  0  0
 22 23  1  0  0  0
 23 24  1  0  0  0
M  END
> <s_m_entry_id>
6001

> <s_m_entry_name>
ligand_docking-pose.100

> <s_m_Source_Path>
/home/csk/Desktop/cluster/DUD-E-result/pgh1

> <s_m_Source_File>
ligand_docking-pose.sdf

> <i_m_Source_File_Index>
100

> <i_lp_mmshare_version>
53161

> <i_f3d_flags>
0

> <r_lp_tautomer_probability>
0.299952358027022

> <s_lp_Force_Field>
OPLS_2005

> <r_lp_Energy>
26.427437

> <b_lp_Chiralities_Consistent>
1

> <s_lp_Variant>
357051-1

> <s_i_glide_gridfile>
glide-grid_2oyu

> <i_i_glide_lignum>
90

> <i_i_glide_rotatable_bonds>
3

> <r_i_docking_score>
-8.42304941849499

> <r_i_glide_ligand_efficiency>
-0.366219539934565

> <r_i_glide_ligand_efficiency_sa>
-1.04147965590782

> <r_i_glide_ligand_efficiency_ln>
-2.03676972538155

> <r_i_glide_gscore>
-8.42304941849499

> <r_i_glide_lipo>
-4.11601069750133

> <r_i_glide_hbond>
0

> <r_i_glide_metal>
0

> <r_i_glide_rewards>
-2.53782881556407

> <r_i_glide_evdw>
-37.8561248779297

> <r_i_glide_ecoul>
-3.15877795219421

> <r_i_glide_erotb>
0.59741303129603

> <r_i_glide_esite>
0

> <r_i_glide_emodel>
-59.1571023476742

> <r_i_glide_energy>
-41.0149028301239

> <r_i_glide_einternal>
0.404136270284653

> <i_i_glide_confnum>
16

> <i_i_glide_posenum>
11

> <r_i_glide_eff_state_penalty>
0

> <s_user_duplicate_titles>
357051

> <s_m_subgroup_title>
dock_pv

> <s_m_subgroupid>
dock_pv1

> <b_m_subgroup_collapsed>
0

$$$$
5028
                    3D
 Schrodinger Suite 2021-1.
 29 31  0  0  1  0            999 V2000
   17.6982   47.4729   14.2629 C   0  0  0  0  0  0
   18.2583   47.6604   15.5258 C   0  0  0  0  0  0
   19.3864   48.4630   15.6590 C   0  0  0  0  0  0
   19.9077   49.0831   14.5385 C   0  0  0  0  0  0
   19.3980   48.8772   13.2941 C   0  0  0  0  0  0
   18.2952   48.0376   13.1248 C   0  0  0  0  0  0
   20.1870   49.7144   12.3443 C   0  0  0  0  0  0
   20.0774   49.7646   11.1191 O   0  0  0  0  0  0
   21.0454   50.4380   13.1253 N   0  0  0  0  0  0
   20.9232   50.1441   14.4552 C   0  0  0  0  0  0
   21.4931   50.6722   15.4114 O   0  0  0  0  0  0
   22.0062   51.4210   12.5380 C   0  0  2  0  0  0
   23.3615   50.8166   12.1134 C   0  0  0  0  0  0
   24.3329   51.8866   11.5728 C   0  0  0  0  0  0
   24.5248   52.9865   12.6364 C   0  0  0  0  0  0
   25.5876   53.5653   12.8357 O   0  0  0  0  0  0
   23.4223   53.2897   13.3458 N   0  0  0  0  0  0
   22.2032   52.7217   13.3974 C   0  0  0  0  0  0
   21.3247   53.2430   14.0722 O   0  0  0  0  0  0
   16.7976   46.8818   14.1999 H   0  0  0  0  0  0
   17.8019   47.2166   16.3968 H   0  0  0  0  0  0
   19.8253   48.6739   16.6073 H   0  0  0  0  0  0
   17.8552   47.8686   12.1543 H   0  0  0  0  0  0
   21.5308   51.8020   11.6324 H   0  0  0  0  0  0
   23.7985   50.2750   12.9513 H   0  0  0  0  0  0
   23.1921   50.0683   11.3380 H   0  0  0  0  0  0
   23.9514   52.3526   10.6643 H   0  0  0  0  0  0
   25.3092   51.4695   11.3248 H   0  0  0  0  0  0
   23.5366   54.0625   13.9851 H   0  0  0  0  0  0
  1  6  1  0  0  0
  1  2  2  0  0  0
  1 20  1  0  0  0
  2  3  1  0  0  0
  2 21  1  0  0  0
  3  4  2  0  0  0
  3 22  1  0  0  0
  4 10  1  0  0  0
  4  5  1  0  0  0
  5  6  2  0  0  0
  5  7  1  0  0  0
  6 23  1  0  0  0
  7  8  2  0  0  0
  7  9  1  0  0  0
  9 10  1  0  0  0
  9 12  1  0  0  0
 10 11  2  0  0  0
 12 18  1  0  0  0
 12 13  1  0  0  0
 12 24  1  0  0  0
 13 14  1  0  0  0
 13 25  1  0  0  0
 13 26  1  0  0  0
 14 15  1  0  0  0
 14 27  1  0  0  0
 14 28  1  0  0  0
 15 16  2  0  0  0
 15 17  1  0  0  0
 17 18  1  0  0  0
 17 29  1  0  0  0
 18 19  2  0  0  0
M  END
> <s_m_entry_id>
6002

> <s_m_entry_name>
ligand_docking-pose.101

> <s_m_Source_Path>
/home/csk/Desktop/cluster/DUD-E-result/pgh1

> <s_m_Source_File>
ligand_docking-pose.sdf

> <i_m_Source_File_Index>
101

> <i_lp_mmshare_version>
53161

> <i_f3d_flags>
0

> <r_lp_tautomer_probability>
0.99995

> <s_lp_Force_Field>
OPLS_2005

> <r_lp_Energy>
30.453072

> <b_lp_Chiralities_Consistent>
1

> <s_lp_Variant>
5028-1

> <s_i_glide_gridfile>
glide-grid_2oyu

> <i_i_glide_lignum>
31

> <i_i_glide_rotatable_bonds>
1

> <r_i_docking_score>
-8.38042606593946

> <r_i_glide_ligand_efficiency>
-0.441075056102077

> <r_i_glide_ligand_efficiency_sa>
-1.17696540575774

> <r_i_glide_ligand_efficiency_ln>
-2.12461800276359

> <r_i_glide_gscore>
-8.38042606593946

> <r_i_glide_lipo>
-2.49590673123265

> <r_i_glide_hbond>
-0.0306570920873065

> <r_i_glide_metal>
0

> <r_i_glide_rewards>
-4.00555189500654

> <r_i_glide_evdw>
-33.9493255615234

> <r_i_glide_ecoul>
-2.77128934860229

> <r_i_glide_erotb>
0.264849332753555

> <r_i_glide_esite>
0

> <r_i_glide_emodel>
-49.5905332196506

> <r_i_glide_energy>
-36.7206149101257

> <r_i_glide_einternal>
6.86460638046265

> <i_i_glide_confnum>
5

> <i_i_glide_posenum>
87

> <r_i_glide_eff_state_penalty>
0

> <s_user_duplicate_titles>
5028

> <s_m_subgroup_title>
dock_pv

> <s_m_subgroupid>
dock_pv1

> <b_m_subgroup_collapsed>
0

$$$$
49991
                    3D
 Schrodinger Suite 2021-1.
 29 31  0  0  1  0            999 V2000
   17.2168   48.0383   13.7530 C   0  0  0  0  0  0
   18.6666   47.7699   14.1779 C   0  0  1  0  0  0
   19.6776   48.6540   13.5223 C   0  0  0  0  0  0
   19.9975   48.9247   12.1937 C   0  0  0  0  0  0
   20.9611   49.8965   11.8966 C   0  0  0  0  0  0
   21.6255   50.5878   12.9367 C   0  0  0  0  0  0
   21.3043   50.2749   14.2652 C   0  0  0  0  0  0
   20.3431   49.3155   14.5295 C   0  0  0  0  0  0
   19.9025   48.9728   15.7783 O   0  0  0  0  0  0
   18.8329   48.1636   15.6457 C   0  0  0  0  0  0
   18.1183   47.8719   16.5997 O   0  0  0  0  0  0
   22.6598   51.6342   12.7167 C   0  0  0  0  0  0
   23.7378   51.4213   11.8529 C   0  0  0  0  0  0
   24.7765   52.3439   11.7866 C   0  0  0  0  0  0
   24.7477   53.4728   12.6003 C   0  0  0  0  0  0
   23.6446   53.7405   13.3999 C   0  0  0  0  0  0
   22.6041   52.8229   13.4550 C   0  0  0  0  0  0
   21.2426   50.2488   10.2263 Cl  0  0  0  0  0  0
   16.9238   49.0666   13.9489 H   0  0  0  0  0  0
   16.5206   47.3819   14.2755 H   0  0  0  0  0  0
   17.0870   47.8735   12.6835 H   0  0  0  0  0  0
   18.9076   46.7138   14.0541 H   0  0  0  0  0  0
   19.4791   48.4193   11.3904 H   0  0  0  0  0  0
   21.7851   50.7913   15.0847 H   0  0  0  0  0  0
   23.8072   50.5162   11.2672 H   0  0  0  0  0  0
   25.6184   52.1636   11.1334 H   0  0  0  0  0  0
   25.5712   54.1731   12.5939 H   0  0  0  0  0  0
   23.6131   54.6399   13.9989 H   0  0  0  0  0  0
   21.7745   53.0241   14.1161 H   0  0  0  0  0  0
  1  2  1  0  0  0
  1 19  1  0  0  0
  1 20  1  0  0  0
  1 21  1  0  0  0
  2 10  1  0  0  0
  2  3  1  0  0  0
  2 22  1  0  0  0
  3  8  2  0  0  0
  3  4  1  0  0  0
  4  5  2  0  0  0
  4 23  1  0  0  0
  5  6  1  0  0  0
  5 18  1  0  0  0
  6  7  2  0  0  0
  6 12  1  0  0  0
  7  8  1  0  0  0
  7 24  1  0  0  0
  8  9  1  0  0  0
  9 10  1  0  0  0
 10 11  2  0  0  0
 12 17  1  0  0  0
 12 13  2  0  0  0
 13 14  1  0  0  0
 13 25  1  0  0  0
 14 15  2  0  0  0
 14 26  1  0  0  0
 15 16  1  0  0  0
 15 27  1  0  0  0
 16 17  2  0  0  0
 16 28  1  0  0  0
 17 29  1  0  0  0
M  END
> <s_m_entry_id>
6003

> <s_m_entry_name>
ligand_docking-pose.102

> <s_m_Source_Path>
/home/csk/Desktop/cluster/DUD-E-result/pgh1

> <s_m_Source_File>
ligand_docking-pose.sdf

> <i_m_Source_File_Index>
102

> <i_lp_mmshare_version>
53161

> <i_f3d_flags>
0

> <r_lp_tautomer_probability>
1

> <s_lp_Force_Field>
OPLS_2005

> <r_lp_Energy>
27.707507

> <b_lp_Chiralities_Consistent>
1

> <s_lp_Variant>
49991-2

> <s_i_glide_gridfile>
glide-grid_2oyu

> <i_i_glide_lignum>
156

> <i_i_glide_rotatable_bonds>
1

> <r_i_docking_score>
-8.37642503693471

> <r_i_glide_ligand_efficiency>
-0.465356946496373

> <r_i_glide_ligand_efficiency_sa>
-1.21958021159069

> <r_i_glide_ligand_efficiency_ln>
-2.15311686342914

> <r_i_glide_gscore>
-8.37642503693471

> <r_i_glide_lipo>
-4.18246805729355

> <r_i_glide_hbond>
0

> <r_i_glide_metal>
0

> <r_i_glide_rewards>
-2.61179618677664

> <r_i_glide_evdw>
-32.9113731384277

> <r_i_glide_ecoul>
-1.33742785453796

> <r_i_glide_erotb>
0.264022042237553

> <r_i_glide_esite>
0

> <r_i_glide_emodel>
-48.2522765916432

> <r_i_glide_energy>
-34.2488009929657

> <r_i_glide_einternal>
0.491834700107574

> <i_i_glide_confnum>
1

> <i_i_glide_posenum>
396

> <r_i_glide_eff_state_penalty>
0

> <s_user_duplicate_titles>
49991

> <s_m_subgroup_title>
dock_pv

> <s_m_subgroupid>
dock_pv1

> <b_m_subgroup_collapsed>
0

$$$$
249120
                    3D
 Schrodinger Suite 2021-1.
 38 39  0  0  1  0            999 V2000
   19.5179   47.1580   14.8041 C   0  0  0  0  0  0
   19.8551   48.0382   13.6075 C   0  0  0  0  0  0
   19.4858   47.6188   12.3312 C   0  0  0  0  0  0
   19.7230   48.4259   11.2226 C   0  0  0  0  0  0
   20.3326   49.6703   11.3742 C   0  0  0  0  0  0
   20.7440   50.0947   12.6496 C   0  0  0  0  0  0
   20.4973   49.2751   13.7693 C   0  0  0  0  0  0
   20.9230   49.8019   15.3720 Cl  0  0  0  0  0  0
   21.2631   51.3807   12.8584 N   0  0  0  0  0  0
   22.5230   51.9528   12.6311 C   0  0  0  0  0  0
   23.3874   51.3894   11.6904 C   0  0  0  0  0  0
   24.6299   51.9631   11.4519 C   0  0  0  0  0  0
   25.0476   53.0626   12.2000 C   0  0  0  0  0  0
   24.1894   53.6505   13.1149 C   0  0  0  0  0  0
   22.9115   53.1205   13.3355 C   0  0  0  0  0  0
   22.0282   53.7471   14.3903 C   0  0  0  0  0  0
   21.3230   53.0237   15.0833 O   0  0  0  0  0  0
   22.1230   55.0730   14.6078 N   0  0  0  0  0  0
   21.3460   55.8729   15.5823 C   0  0  0  0  0  0
   21.5869   55.6468   17.0816 C   0  0  0  0  0  0
   22.9400   55.8730   17.4002 O   0  0  0  0  0  0
   20.5039   50.6714    9.9703 Cl  0  0  0  0  0  0
   18.9879   46.2487   14.5178 H   0  0  0  0  0  0
   20.4243   46.8808   15.3420 H   0  0  0  0  0  0
   18.8837   47.7057   15.5025 H   0  0  0  0  0  0
   18.9826   46.6730   12.2000 H   0  0  0  0  0  0
   19.4039   48.0955   10.2445 H   0  0  0  0  0  0
   20.7687   51.8876   13.5839 H   0  0  0  0  0  0
   23.1001   50.5110   11.1334 H   0  0  0  0  0  0
   25.2928   51.5250   10.7208 H   0  0  0  0  0  0
   26.0354   53.4730   12.0514 H   0  0  0  0  0  0
   24.5418   54.5108   13.6677 H   0  0  0  0  0  0
   22.8275   55.5954   14.1026 H   0  0  0  0  0  0
   20.2829   55.7442   15.4000 H   0  0  0  0  0  0
   21.5334   56.9304   15.4001 H   0  0  0  0  0  0
   21.3230   54.6290   17.3588 H   0  0  0  0  0  0
   20.9673   56.3181   17.6756 H   0  0  0  0  0  0
   23.4557   55.1847   16.9507 H   0  0  0  0  0  0
  1  2  1  0  0  0
  1 23  1  0  0  0
  1 24  1  0  0  0
  1 25  1  0  0  0
  2  7  1  0  0  0
  2  3  2  0  0  0
  3  4  1  0  0  0
  3 26  1  0  0  0
  4  5  2  0  0  0
  4 27  1  0  0  0
  5  6  1  0  0  0
  5 22  1  0  0  0
  6  7  2  0  0  0
  6  9  1  0  0  0
  7  8  1  0  0  0
  9 10  1  0  0  0
  9 28  1  0  0  0
 10 15  1  0  0  0
 10 11  2  0  0  0
 11 12  1  0  0  0
 11 29  1  0  0  0
 12 13  2  0  0  0
 12 30  1  0  0  0
 13 14  1  0  0  0
 13 31  1  0  0  0
 14 15  2  0  0  0
 14 32  1  0  0  0
 15 16  1  0  0  0
 16 17  2  0  0  0
 16 18  1  0  0  0
 18 19  1  0  0  0
 18 33  1  0  0  0
 19 20  1  0  0  0
 19 34  1  0  0  0
 19 35  1  0  0  0
 20 21  1  0  0  0
 20 36  1  0  0  0
 20 37  1  0  0  0
 21 38  1  0  0  0
M  END
> <s_m_entry_id>
6004

> <s_m_entry_name>
ligand_docking-pose.103

> <s_m_Source_Path>
/home/csk/Desktop/cluster/DUD-E-result/pgh1

> <s_m_Source_File>
ligand_docking-pose.sdf

> <i_m_Source_File_Index>
103

> <i_lp_mmshare_version>
53161

> <i_f3d_flags>
0

> <r_lp_tautomer_probability>
1

> <s_lp_Force_Field>
OPLS_2005

> <r_lp_Energy>
23.937778

> <b_lp_Chiralities_Consistent>
1

> <s_lp_Variant>
249120-1

> <s_i_glide_gridfile>
glide-grid_2oyu

> <i_i_glide_lignum>
227

> <i_i_glide_rotatable_bonds>
7

> <r_i_docking_score>
-8.37425240700857

> <r_i_glide_ligand_efficiency>
-0.380647836682208

> <r_i_glide_ligand_efficiency_sa>
-1.06659020841348

> <r_i_glide_ligand_efficiency_ln>
-2.04697274655123

> <r_i_glide_gscore>
-8.37425240700857

> <r_i_glide_lipo>
-4.49654712328812

> <r_i_glide_hbond>
-0.523497883763375

> <r_i_glide_metal>
0

> <r_i_glide_rewards>
-1.62564121710299

> <r_i_glide_evdw>
-27.8417911529541

> <r_i_glide_ecoul>
-8.66111183166504

> <r_i_glide_erotb>
0.986650219103612

> <r_i_glide_esite>
-0.0239600695602421

> <r_i_glide_emodel>
-47.839824608105

> <r_i_glide_energy>
-36.5029029846191

> <r_i_glide_einternal>
3.06249713897705

> <i_i_glide_confnum>
145

> <i_i_glide_posenum>
152

> <r_i_glide_eff_state_penalty>
0

> <s_user_duplicate_titles>
249120

> <s_m_subgroup_title>
dock_pv

> <s_m_subgroupid>
dock_pv1

> <b_m_subgroup_collapsed>
0

$$$$
50526
                    3D
 Schrodinger Suite 2021-1.
 29 31  0  0  1  0            999 V2000
   16.9230   48.0181   13.7993 C   0  0  0  0  0  0
   18.3519   47.6590   14.2278 C   0  0  1  0  0  0
   19.4160   48.4623   13.5487 C   0  0  0  0  0  0
   19.7451   48.6839   12.2121 C   0  0  0  0  0  0
   20.7683   49.5895   11.9031 C   0  0  0  0  0  0
   21.4679   50.2779   12.9146 C   0  0  0  0  0  0
   21.1253   50.0209   14.2532 C   0  0  0  0  0  0
   20.1230   49.1065   14.5397 C   0  0  0  0  0  0
   19.6750   48.8071   15.7983 O   0  0  0  0  0  0
   18.5461   48.0782   15.6880 C   0  0  0  0  0  0
   17.8079   47.8729   16.6488 O   0  0  0  0  0  0
   22.5674   51.2416   12.6037 C   0  0  0  0  0  0
   22.8303   52.3214   13.4590 C   0  0  0  0  0  0
   23.9343   53.1402   13.2557 C   0  0  0  0  0  0
   24.7940   52.8807   12.2000 C   0  0  0  0  0  0
   24.5070   51.8739   11.2870 C   0  0  0  0  0  0
   23.3924   51.0654   11.4838 C   0  0  0  0  0  0
   16.7106   49.0660   13.9929 H   0  0  0  0  0  0
   16.1811   47.4099   14.3166 H   0  0  0  0  0  0
   16.7843   47.8742   12.7272 H   0  0  0  0  0  0
   18.5241   46.5891   14.1291 H   0  0  0  0  0  0
   19.2061   48.1913   11.4169 H   0  0  0  0  0  0
   21.0006   49.7711   10.8643 H   0  0  0  0  0  0
   21.6397   50.5136   15.0649 H   0  0  0  0  0  0
   22.1983   52.5260   14.3099 H   0  0  0  0  0  0
   24.1355   53.9623   13.9256 H   0  0  0  0  0  0
   25.6864   53.4730   12.0773 H   0  0  0  0  0  0
   25.1618   51.7008   10.4461 H   0  0  0  0  0  0
   23.2098   50.2731   10.7776 H   0  0  0  0  0  0
  1  2  1  0  0  0
  1 18  1  0  0  0
  1 19  1  0  0  0
  1 20  1  0  0  0
  2 10  1  0  0  0
  2  3  1  0  0  0
  2 21  1  0  0  0
  3  8  2  0  0  0
  3  4  1  0  0  0
  4  5  2  0  0  0
  4 22  1  0  0  0
  5  6  1  0  0  0
  5 23  1  0  0  0
  6  7  2  0  0  0
  6 12  1  0  0  0
  7  8  1  0  0  0
  7 24  1  0  0  0
  8  9  1  0  0  0
  9 10  1  0  0  0
 10 11  2  0  0  0
 12 17  1  0  0  0
 12 13  2  0  0  0
 13 14  1  0  0  0
 13 25  1  0  0  0
 14 15  2  0  0  0
 14 26  1  0  0  0
 15 16  1  0  0  0
 15 27  1  0  0  0
 16 17  2  0  0  0
 16 28  1  0  0  0
 17 29  1  0  0  0
M  END
> <s_m_entry_id>
6005

> <s_m_entry_name>
ligand_docking-pose.104

> <s_m_Source_Path>
/home/csk/Desktop/cluster/DUD-E-result/pgh1

> <s_m_Source_File>
ligand_docking-pose.sdf

> <i_m_Source_File_Index>
104

> <i_lp_mmshare_version>
53161

> <i_f3d_flags>
0

> <r_lp_tautomer_probability>
1

> <s_lp_Force_Field>
OPLS_2005

> <r_lp_Energy>
25.785994

> <b_lp_Chiralities_Consistent>
1

> <s_lp_Variant>
50526-2

> <s_i_glide_gridfile>
glide-grid_2oyu

> <i_i_glide_lignum>
152

> <i_i_glide_rotatable_bonds>
1

> <r_i_docking_score>
-8.36705470279436

> <r_i_glide_ligand_efficiency>
-0.492179688399668

> <r_i_glide_ligand_efficiency_sa>
-1.2655325708828

> <r_i_glide_ligand_efficiency_ln>
-2.18277824681173

> <r_i_glide_gscore>
-8.36705470279436

> <r_i_glide_lipo>
-4.00862022488954

> <r_i_glide_hbond>
0

> <r_i_glide_metal>
0

> <r_i_glide_rewards>
-3.00317428897013

> <r_i_glide_evdw>
-30.3702754974365

> <r_i_glide_ecoul>
-1.15783739089966

> <r_i_glide_erotb>
0.336929194572088

> <r_i_glide_esite>
0

> <r_i_glide_emodel>
-44.4753554145577

> <r_i_glide_energy>
-31.5281128883362

> <r_i_glide_einternal>
0.177031934261322

> <i_i_glide_confnum>
4

> <i_i_glide_posenum>
93

> <r_i_glide_eff_state_penalty>
0

> <s_user_duplicate_titles>
50526

> <s_m_subgroup_title>
dock_pv

> <s_m_subgroupid>
dock_pv1

> <b_m_subgroup_collapsed>
0

$$$$
456785
                    3D
 Schrodinger Suite 2021-1.
 35 37  0  0  1  0            999 V2000
   24.6414   54.0653   13.0664 C   0  0  0  0  0  0
   23.5575   53.0102   13.1711 C   0  0  0  0  0  0
   22.4047   53.2804   13.9056 C   0  0  0  0  0  0
   21.5164   52.2526   14.1997 C   0  0  0  0  0  0
   21.7428   50.9716   13.6984 C   0  0  0  0  0  0
   22.8377   50.7321   12.8639 C   0  0  0  0  0  0
   23.7421   51.7536   12.5966 C   0  0  0  0  0  0
   20.8108   49.8699   14.0539 C   0  0  0  0  0  0
   20.5230   49.4853   15.3705 C   0  0  0  0  0  0
   19.6847   48.5043   15.5992 N   0  0  0  0  0  0
   19.1314   47.9371   14.0958 S   0  0  0  0  0  0
   20.0947   49.0598   13.1683 C   0  0  0  0  0  0
   20.0490   49.0517   11.6702 C   0  0  0  0  0  0
   20.3474   50.2107   10.9503 C   0  0  0  0  0  0
   20.4072   50.1787    9.5661 C   0  0  0  0  0  0
   20.1230   49.0145    8.8628 C   0  0  0  0  0  0
   19.7230   47.8737    9.5722 C   0  0  0  0  0  0
   19.7226   47.8899   10.9656 C   0  0  0  0  0  0
   20.1230   49.1133    7.4858 O   0  0  0  0  0  0
   19.5747   48.0553    6.7104 C   0  0  0  0  0  0
   25.2737   53.8941   12.2000 H   0  0  0  0  0  0
   25.2760   54.0368   13.9520 H   0  0  0  0  0  0
   24.2202   55.0689   13.0000 H   0  0  0  0  0  0
   22.2522   54.2585   14.3393 H   0  0  0  0  0  0
   20.6639   52.4451   14.8328 H   0  0  0  0  0  0
   23.0093   49.7479   12.4519 H   0  0  0  0  0  0
   24.6147   51.5458   11.9945 H   0  0  0  0  0  0
   20.9634   49.9645   16.2319 H   0  0  0  0  0  0
   20.5435   51.1472   11.4467 H   0  0  0  0  0  0
   20.6302   51.0756    9.0153 H   0  0  0  0  0  0
   19.4478   46.9650    9.0623 H   0  0  0  0  0  0
   19.4638   46.9917   11.4987 H   0  0  0  0  0  0
   19.6333   48.3175    5.6538 H   0  0  0  0  0  0
   20.1231   47.1245    6.8497 H   0  0  0  0  0  0
   18.5232   47.8894    6.9524 H   0  0  0  0  0  0
  1  2  1  0  0  0
  1 21  1  0  0  0
  1 22  1  0  0  0
  1 23  1  0  0  0
  2  7  1  0  0  0
  2  3  2  0  0  0
  3  4  1  0  0  0
  3 24  1  0  0  0
  4  5  2  0  0  0
  4 25  1  0  0  0
  5  6  1  0  0  0
  5  8  1  0  0  0
  6  7  2  0  0  0
  6 26  1  0  0  0
  7 27  1  0  0  0
  8 12  2  0  0  0
  8  9  1  0  0  0
  9 10  2  0  0  0
  9 28  1  0  0  0
 10 11  1  0  0  0
 11 12  1  0  0  0
 12 13  1  0  0  0
 13 18  1  0  0  0
 13 14  2  0  0  0
 14 15  1  0  0  0
 14 29  1  0  0  0
 15 16  2  0  0  0
 15 30  1  0  0  0
 16 17  1  0  0  0
 16 19  1  0  0  0
 17 18  2  0  0  0
 17 31  1  0  0  0
 18 32  1  0  0  0
 19 20  1  0  0  0
 20 33  1  0  0  0
 20 34  1  0  0  0
 20 35  1  0  0  0
M  END
> <s_m_entry_id>
6006

> <s_m_entry_name>
ligand_docking-pose.105

> <s_m_Source_Path>
/home/csk/Desktop/cluster/DUD-E-result/pgh1

> <s_m_Source_File>
ligand_docking-pose.sdf

> <i_m_Source_File_Index>
105

> <i_lp_mmshare_version>
53161

> <i_f3d_flags>
0

> <r_lp_tautomer_probability>
1

> <s_lp_Force_Field>
OPLS_2005

> <r_lp_Energy>
18.360872

> <b_lp_Chiralities_Consistent>
1

> <s_lp_Variant>
456785-1

> <s_i_glide_gridfile>
glide-grid_2oyu

> <i_i_glide_lignum>
212

> <i_i_glide_rotatable_bonds>
3

> <r_i_docking_score>
-8.34615799323272

> <r_i_glide_ligand_efficiency>
-0.417307899661636

> <r_i_glide_ligand_efficiency_sa>
-1.13274791325463

> <r_i_glide_ligand_efficiency_ln>
-2.08876807099222

> <r_i_glide_gscore>
-8.34615799323272

> <r_i_glide_lipo>
-4.87868688226116

> <r_i_glide_hbond>
0

> <r_i_glide_metal>
0

> <r_i_glide_rewards>
-2.18825540960494

> <r_i_glide_evdw>
-34.7563514709473

> <r_i_glide_ecoul>
0.0131527753546834

> <r_i_glide_erotb>
0.456628955877537

> <r_i_glide_esite>
0

> <r_i_glide_emodel>
-49.9479556800854

> <r_i_glide_energy>
-34.7431986955926

> <r_i_glide_einternal>
1.49291944503784

> <i_i_glide_confnum>
6

> <i_i_glide_posenum>
216

> <r_i_glide_eff_state_penalty>
0

> <s_user_duplicate_titles>
456785

> <s_m_subgroup_title>
dock_pv

> <s_m_subgroupid>
dock_pv1

> <b_m_subgroup_collapsed>
0

$$$$
456854
                    3D
 Schrodinger Suite 2021-1.
 28 30  0  0  1  0            999 V2000
   21.7298   52.1476   14.1072 C   0  0  0  0  0  0
   22.6984   53.0953   13.7966 C   0  0  0  0  0  0
   23.7335   52.7640   12.9234 C   0  0  0  0  0  0
   23.7647   51.5250   12.2908 C   0  0  0  0  0  0
   22.7990   50.5777   12.6002 C   0  0  0  0  0  0
   21.7950   50.8807   13.5247 C   0  0  0  0  0  0
   20.7994   49.8468   13.8974 C   0  0  0  0  0  0
   20.5167   49.4730   15.2181 C   0  0  0  0  0  0
   19.6327   48.5342   15.4546 N   0  0  0  0  0  0
   19.0195   48.0075   13.9575 S   0  0  0  0  0  0
   20.0298   49.0783   13.0207 C   0  0  0  0  0  0
   19.9798   49.0727   11.5230 C   0  0  0  0  0  0
   19.7080   47.8900   10.8319 C   0  0  0  0  0  0
   19.7252   47.8549    9.4392 C   0  0  0  0  0  0
   20.1231   48.9900    8.7367 C   0  0  0  0  0  0
   20.3189   50.1908    9.4089 C   0  0  0  0  0  0
   20.2340   50.2388   10.7946 C   0  0  0  0  0  0
   20.1508   48.9568    7.0105 Cl  0  0  0  0  0  0
   25.0224   53.8732   12.6571 Cl  0  0  0  0  0  0
   20.9464   52.3928   14.8092 H   0  0  0  0  0  0
   22.6763   54.0686   14.2663 H   0  0  0  0  0  0
   24.5591   51.2810   11.6000 H   0  0  0  0  0  0
   22.8472   49.6003   12.1411 H   0  0  0  0  0  0
   20.9989   49.9193   16.0756 H   0  0  0  0  0  0
   19.4831   46.9926   11.3805 H   0  0  0  0  0  0
   19.5001   46.9402    8.9124 H   0  0  0  0  0  0
   20.5152   51.0853    8.8431 H   0  0  0  0  0  0
   20.3900   51.1828   11.2939 H   0  0  0  0  0  0
  1  6  1  0  0  0
  1  2  2  0  0  0
  1 20  1  0  0  0
  2  3  1  0  0  0
  2 21  1  0  0  0
  3  4  2  0  0  0
  3 19  1  0  0  0
  4  5  1  0  0  0
  4 22  1  0  0  0
  5  6  2  0  0  0
  5 23  1  0  0  0
  6  7  1  0  0  0
  7 11  2  0  0  0
  7  8  1  0  0  0
  8  9  2  0  0  0
  8 24  1  0  0  0
  9 10  1  0  0  0
 10 11  1  0  0  0
 11 12  1  0  0  0
 12 17  1  0  0  0
 12 13  2  0  0  0
 13 14  1  0  0  0
 13 25  1  0  0  0
 14 15  2  0  0  0
 14 26  1  0  0  0
 15 16  1  0  0  0
 15 18  1  0  0  0
 16 17  2  0  0  0
 16 27  1  0  0  0
 17 28  1  0  0  0
M  END
> <s_m_entry_id>
6007

> <s_m_entry_name>
ligand_docking-pose.106

> <s_m_Source_Path>
/home/csk/Desktop/cluster/DUD-E-result/pgh1

> <s_m_Source_File>
ligand_docking-pose.sdf

> <i_m_Source_File_Index>
106

> <i_lp_mmshare_version>
53161

> <i_f3d_flags>
0

> <r_lp_tautomer_probability>
1

> <s_lp_Force_Field>
OPLS_2005

> <r_lp_Energy>
14.209404

> <b_lp_Chiralities_Consistent>
1

> <s_lp_Variant>
456854-1

> <s_i_glide_gridfile>
glide-grid_2oyu

> <i_i_glide_lignum>
94

> <i_i_glide_rotatable_bonds>
2

> <r_i_docking_score>
-8.33032948007665

> <r_i_glide_ligand_efficiency>
-0.438438393688245

> <r_i_glide_ligand_efficiency_sa>
-1.16992973143245

> <r_i_glide_ligand_efficiency_ln>
-2.11191744227136

> <r_i_glide_gscore>
-8.33032948007665

> <r_i_glide_lipo>
-4.78751584774516

> <r_i_glide_hbond>
0

> <r_i_glide_metal>
0

> <r_i_glide_rewards>
-2.1645264166191

> <r_i_glide_evdw>
-33.3501853942871

> <r_i_glide_ecoul>
-0.698094666004181

> <r_i_glide_erotb>
0.393936253902591

> <r_i_glide_esite>
0

> <r_i_glide_emodel>
-48.176538210945

> <r_i_glide_energy>
-34.0482800602913

> <r_i_glide_einternal>
1.20569539070129

> <i_i_glide_confnum>
11

> <i_i_glide_posenum>
113

> <r_i_glide_eff_state_penalty>
0

> <s_user_duplicate_titles>
456854

> <s_m_subgroup_title>
dock_pv

> <s_m_subgroupid>
dock_pv1

> <b_m_subgroup_collapsed>
0

$$$$
50659
                    3D
 Schrodinger Suite 2021-1.
 32 34  0  0  1  0            999 V2000
   19.5337   48.4774   12.2281 C   0  0  0  0  0  0
   19.2227   48.2662   13.5677 C   0  0  0  0  0  0
   19.9324   48.9317   14.5423 C   0  0  0  0  0  0
   20.9184   49.8612   14.2388 C   0  0  0  0  0  0
   21.1824   50.1622   12.8901 C   0  0  0  0  0  0
   20.4857   49.4462   11.8859 C   0  0  0  0  0  0
   20.7205   49.8126   10.0271 Br  0  0  0  0  0  0
   22.1212   51.3266   12.5318 C   0  0  0  0  0  0
   22.3622   52.3209   13.7045 C   0  0  0  0  0  0
   23.2167   53.5196   13.2862 C   0  0  0  0  0  0
   24.5428   53.0733   12.6426 C   0  0  0  0  0  0
   24.3175   52.0894   11.4777 C   0  0  0  0  0  0
   23.4617   50.8760   11.8992 C   0  0  0  0  0  0
   19.4590   48.6742   15.7997 O   0  0  0  0  0  0
   18.3004   47.9914   15.6869 C   0  0  0  0  0  0
   17.5191   47.8731   16.6260 O   0  0  0  0  0  0
   18.1611   47.4742   14.2611 C   0  0  0  0  0  0
   18.9919   47.9618   11.4480 H   0  0  0  0  0  0
   21.3823   50.3924   15.0525 H   0  0  0  0  0  0
   21.5673   51.8726   11.7680 H   0  0  0  0  0  0
   21.4113   52.7043   14.0798 H   0  0  0  0  0  0
   22.8849   51.8306   14.5273 H   0  0  0  0  0  0
   22.6351   54.1330   12.6001 H   0  0  0  0  0  0
   23.4084   54.1631   14.1449 H   0  0  0  0  0  0
   25.0976   53.9442   12.2969 H   0  0  0  0  0  0
   25.1713   52.6061   13.4010 H   0  0  0  0  0  0
   23.8245   52.6120   10.6562 H   0  0  0  0  0  0
   25.2764   51.7530   11.0812 H   0  0  0  0  0  0
   24.0281   50.2639   12.5998 H   0  0  0  0  0  0
   23.2927   50.2732   11.0078 H   0  0  0  0  0  0
   18.3385   46.4005   14.2285 H   0  0  0  0  0  0
   17.1589   47.6790   13.8835 H   0  0  0  0  0  0
  1  6  1  0  0  0
  1  2  2  0  0  0
  1 18  1  0  0  0
  2 17  1  0  0  0
  2  3  1  0  0  0
  3  4  2  0  0  0
  3 14  1  0  0  0
  4  5  1  0  0  0
  4 19  1  0  0  0
  5  6  2  0  0  0
  5  8  1  0  0  0
  6  7  1  0  0  0
  8 13  1  0  0  0
  8  9  1  0  0  0
  8 20  1  0  0  0
  9 10  1  0  0  0
  9 21  1  0  0  0
  9 22  1  0  0  0
 10 11  1  0  0  0
 10 23  1  0  0  0
 10 24  1  0  0  0
 11 12  1  0  0  0
 11 25  1  0  0  0
 11 26  1  0  0  0
 12 13  1  0  0  0
 12 27  1  0  0  0
 12 28  1  0  0  0
 13 29  1  0  0  0
 13 30  1  0  0  0
 14 15  1  0  0  0
 15 16  2  0  0  0
 15 17  1  0  0  0
 17 31  1  0  0  0
 17 32  1  0  0  0
M  END
> <s_m_entry_id>
6008

> <s_m_entry_name>
ligand_docking-pose.107

> <s_m_Source_Path>
/home/csk/Desktop/cluster/DUD-E-result/pgh1

> <s_m_Source_File>
ligand_docking-pose.sdf

> <i_m_Source_File_Index>
107

> <i_lp_mmshare_version>
53161

> <i_f3d_flags>
0

> <r_lp_tautomer_probability>
1

> <s_lp_Force_Field>
OPLS_2005

> <r_lp_Energy>
25.846881

> <b_lp_Chiralities_Consistent>
1

> <s_lp_Variant>
50659-1

> <s_i_glide_gridfile>
glide-grid_2oyu

> <i_i_glide_lignum>
1

> <i_i_glide_rotatable_bonds>
1

> <r_i_docking_score>
-8.29635622206846

> <r_i_glide_ligand_efficiency>
-0.488020954239321

> <r_i_glide_ligand_efficiency_sa>
-1.25483929430596

> <r_i_glide_ligand_efficiency_ln>
-2.1643345875681

> <r_i_glide_gscore>
-8.29635622206846

> <r_i_glide_lipo>
-4.03906405455067

> <r_i_glide_hbond>
0

> <r_i_glide_metal>
0

> <r_i_glide_rewards>
-2.55213977268108

> <r_i_glide_evdw>
-37.2573661804199

> <r_i_glide_ecoul>
-0.348838597536087

> <r_i_glide_erotb>
0.210041703814697

> <r_i_glide_esite>
0

> <r_i_glide_emodel>
-48.9200122993454

> <r_i_glide_energy>
-37.606204777956

> <r_i_glide_einternal>
5.02188968658447

> <i_i_glide_confnum>
1

> <i_i_glide_posenum>
233

> <r_i_glide_eff_state_penalty>
0

> <s_user_duplicate_titles>
50659

> <s_m_subgroup_title>
dock_pv

> <s_m_subgroupid>
dock_pv1

> <b_m_subgroup_collapsed>
0

$$$$
143013
                    3D
 Schrodinger Suite 2021-1.
 42 43  0  0  1  0            999 V2000
   20.9969   56.3063   16.1762 C   0  0  0  0  0  0
   21.9002   55.1939   15.6369 C   0  0  0  0  0  0
   21.7990   54.9396   14.1204 C   0  0  0  0  0  0
   22.4498   53.6623   13.6338 C   0  0  0  0  0  0
   23.7349   53.6715   13.0884 C   0  0  0  0  0  0
   24.2354   52.5311   12.4707 C   0  0  0  0  0  0
   23.4620   51.3723   12.4156 C   0  0  0  0  0  0
   22.1843   51.3352   13.0029 C   0  0  0  0  0  0
   21.7079   52.4863   13.6299 C   0  0  0  0  0  0
   21.3223   50.1268   12.9835 C   0  0  0  0  0  0
   21.0100   49.4731   11.7879 C   0  0  0  0  0  0
   20.2766   48.2878   11.8001 C   0  0  0  0  0  0
   19.8783   47.7239   13.0071 C   0  0  0  0  0  0
   20.1021   48.4117   14.2076 C   0  0  0  0  0  0
   20.8137   49.6146   14.1806 C   0  0  0  0  0  0
   19.6575   47.8496   15.5527 C   0  0  0  0  0  0
   18.2040   48.1746   15.9551 C   0  0  0  0  0  0
   17.1325   47.6362   14.9965 C   0  0  0  0  0  0
   19.3229   46.4731   13.0000 O   0  0  0  0  0  0
   23.9941   50.2733   11.7999 O   0  0  0  0  0  0
   21.0396   56.3488   17.2649 H   0  0  0  0  0  0
   21.2989   57.2839   15.8000 H   0  0  0  0  0  0
   19.9636   56.1325   15.8882 H   0  0  0  0  0  0
   21.6662   54.2738   16.1717 H   0  0  0  0  0  0
   22.9228   55.4730   15.8830 H   0  0  0  0  0  0
   22.2465   55.7402   13.5429 H   0  0  0  0  0  0
   20.7575   54.9203   13.8003 H   0  0  0  0  0  0
   24.3238   54.5779   13.0988 H   0  0  0  0  0  0
   25.2191   52.5583   12.0260 H   0  0  0  0  0  0
   20.7178   52.4894   14.0604 H   0  0  0  0  0  0
   21.3678   49.8664   10.8469 H   0  0  0  0  0  0
   20.0834   47.7770   10.8685 H   0  0  0  0  0  0
   21.0266   50.1283   15.1076 H   0  0  0  0  0  0
   20.3242   48.2731   16.3019 H   0  0  0  0  0  0
   19.8312   46.7731   15.5802 H   0  0  0  0  0  0
   18.0795   49.2503   16.0660 H   0  0  0  0  0  0
   18.0189   47.7612   16.9476 H   0  0  0  0  0  0
   16.1365   47.8749   15.3606 H   0  0  0  0  0  0
   17.1976   46.5526   14.8972 H   0  0  0  0  0  0
   17.2205   48.0767   14.0029 H   0  0  0  0  0  0
   19.0706   46.1474   12.1231 H   0  0  0  0  0  0
   24.8341   50.4425   11.3633 H   0  0  0  0  0  0
  1  2  1  0  0  0
  1 21  1  0  0  0
  1 22  1  0  0  0
  1 23  1  0  0  0
  2  3  1  0  0  0
  2 24  1  0  0  0
  2 25  1  0  0  0
  3  4  1  0  0  0
  3 26  1  0  0  0
  3 27  1  0  0  0
  4  9  1  0  0  0
  4  5  2  0  0  0
  5  6  1  0  0  0
  5 28  1  0  0  0
  6  7  2  0  0  0
  6 29  1  0  0  0
  7  8  1  0  0  0
  7 20  1  0  0  0
  8  9  2  0  0  0
  8 10  1  0  0  0
  9 30  1  0  0  0
 10 15  1  0  0  0
 10 11  2  0  0  0
 11 12  1  0  0  0
 11 31  1  0  0  0
 12 13  2  0  0  0
 12 32  1  0  0  0
 13 14  1  0  0  0
 13 19  1  0  0  0
 14 15  2  0  0  0
 14 16  1  0  0  0
 15 33  1  0  0  0
 16 17  1  0  0  0
 16 34  1  0  0  0
 16 35  1  0  0  0
 17 18  1  0  0  0
 17 36  1  0  0  0
 17 37  1  0  0  0
 18 38  1  0  0  0
 18 39  1  0  0  0
 18 40  1  0  0  0
 19 41  1  0  0  0
 20 42  1  0  0  0
M  END
> <s_m_entry_id>
6009

> <s_m_entry_name>
ligand_docking-pose.108

> <s_m_Source_Path>
/home/csk/Desktop/cluster/DUD-E-result/pgh1

> <s_m_Source_File>
ligand_docking-pose.sdf

> <i_m_Source_File_Index>
108

> <i_lp_mmshare_version>
53161

> <i_f3d_flags>
0

> <r_lp_tautomer_probability>
0.99999999999473

> <s_lp_Force_Field>
OPLS_2005

> <r_lp_Energy>
13.487901

> <b_lp_Chiralities_Consistent>
1

> <s_lp_Variant>
143013-1

> <s_i_glide_gridfile>
glide-grid_2oyu

> <i_i_glide_lignum>
387

> <i_i_glide_rotatable_bonds>
7

> <r_i_docking_score>
-8.29051485787087

> <r_i_glide_ligand_efficiency>
-0.414525742893544

> <r_i_glide_ligand_efficiency_sa>
-1.12519597791873

> <r_i_glide_ligand_efficiency_ln>
-2.07484242944458

> <r_i_glide_gscore>
-8.29051485787087

> <r_i_glide_lipo>
-3.91873601072401

> <r_i_glide_hbond>
-0.561500439736125

> <r_i_glide_metal>
0

> <r_i_glide_rewards>
-2.46568581818182

> <r_i_glide_evdw>
-25.7859287261963

> <r_i_glide_ecoul>
-5.26206302642822

> <r_i_glide_erotb>
0.734013301045124

> <r_i_glide_esite>
0

> <r_i_glide_emodel>
-42.1606054483036

> <r_i_glide_energy>
-31.0479917526245

> <r_i_glide_einternal>
2.25618505477905

> <i_i_glide_confnum>
46

> <i_i_glide_posenum>
306

> <r_i_glide_eff_state_penalty>
0

> <s_user_duplicate_titles>
143013

> <s_m_subgroup_title>
dock_pv

> <s_m_subgroupid>
dock_pv1

> <b_m_subgroup_collapsed>
0

$$$$
380546
                    3D
 Schrodinger Suite 2021-1.
 31 33  0  0  1  0            999 V2000
   19.5817   47.7819   10.5168 C   0  0  0  0  0  0
   19.8445   48.8068   11.4679 O   0  0  0  0  0  0
   19.6223   48.5622   12.8122 C   0  0  0  0  0  0
   18.6851   47.6251   13.2529 C   0  0  0  0  0  0
   18.4393   47.4217   14.6069 C   0  0  0  0  0  0
   19.1542   48.1501   15.5488 C   0  0  0  0  0  0
   20.1112   49.0731   15.1332 C   0  0  0  0  0  0
   20.3327   49.3101   13.7688 C   0  0  0  0  0  0
   21.3744   50.2729   13.3692 C   0  0  0  0  0  0
   22.1965   50.0959   12.3196 C   0  0  0  0  0  0
   23.1101   51.2155   12.2456 C   0  0  0  0  0  0
   24.1716   51.4404   11.3844 C   0  0  0  0  0  0
   24.9709   52.5581   11.5843 C   0  0  0  0  0  0
   24.6786   53.4730   12.6000 C   0  0  0  0  0  0
   23.5560   53.2796   13.4000 C   0  0  0  0  0  0
   22.8001   52.1189   13.2540 C   0  0  0  0  0  0
   21.6402   51.5984   14.0518 C   0  0  0  0  0  0
   19.9301   48.1058    9.5361 H   0  0  0  0  0  0
   20.1230   46.8703   10.7750 H   0  0  0  0  0  0
   18.5232   47.5470   10.4243 H   0  0  0  0  0  0
   18.1230   47.0730   12.5293 H   0  0  0  0  0  0
   17.6928   46.7077   14.9230 H   0  0  0  0  0  0
   18.9593   47.9996   16.5998 H   0  0  0  0  0  0
   20.6661   49.6187   15.8824 H   0  0  0  0  0  0
   22.2357   49.2510   11.6486 H   0  0  0  0  0  0
   24.4243   50.7369   10.6044 H   0  0  0  0  0  0
   25.8413   52.6732   10.9557 H   0  0  0  0  0  0
   25.3035   54.3422   12.7470 H   0  0  0  0  0  0
   23.3230   54.0000   14.1716 H   0  0  0  0  0  0
   20.7848   52.2709   14.0033 H   0  0  0  0  0  0
   21.9048   51.4735   15.1009 H   0  0  0  0  0  0
  1  2  1  0  0  0
  1 18  1  0  0  0
  1 19  1  0  0  0
  1 20  1  0  0  0
  2  3  1  0  0  0
  3  8  1  0  0  0
  3  4  2  0  0  0
  4  5  1  0  0  0
  4 21  1  0  0  0
  5  6  2  0  0  0
  5 22  1  0  0  0
  6  7  1  0  0  0
  6 23  1  0  0  0
  7  8  2  0  0  0
  7 24  1  0  0  0
  8  9  1  0  0  0
  9 17  1  0  0  0
  9 10  2  0  0  0
 10 11  1  0  0  0
 10 25  1  0  0  0
 11 16  2  0  0  0
 11 12  1  0  0  0
 12 13  2  0  0  0
 12 26  1  0  0  0
 13 14  1  0  0  0
 13 27  1  0  0  0
 14 15  2  0  0  0
 14 28  1  0  0  0
 15 16  1  0  0  0
 15 29  1  0  0  0
 16 17  1  0  0  0
 17 30  1  0  0  0
 17 31  1  0  0  0
M  END
> <s_m_entry_id>
6011

> <s_m_entry_name>
ligand_docking-pose.110

> <s_m_Source_Path>
/home/csk/Desktop/cluster/DUD-E-result/pgh1

> <s_m_Source_File>
ligand_docking-pose.sdf

> <i_m_Source_File_Index>
110

> <i_lp_mmshare_version>
53161

> <i_f3d_flags>
0

> <r_lp_tautomer_probability>
0.5

> <s_lp_Force_Field>
OPLS_2005

> <r_lp_Energy>
39.255719

> <b_lp_Chiralities_Consistent>
1

> <s_lp_Variant>
380546-1

> <s_i_glide_gridfile>
glide-grid_2oyu

> <i_i_glide_lignum>
571

> <i_i_glide_rotatable_bonds>
2

> <r_i_docking_score>
-8.28585968217084

> <r_i_glide_ligand_efficiency>
-0.487403510715932

> <r_i_glide_ligand_efficiency_sa>
-1.25325167314249

> <r_i_glide_ligand_efficiency_ln>
-2.16159627405527

> <r_i_glide_gscore>
-8.28585968217084

> <r_i_glide_lipo>
-4.47159572674524

> <r_i_glide_hbond>
0

> <r_i_glide_metal>
0

> <r_i_glide_rewards>
-2.55036103997296

> <r_i_glide_evdw>
-28.3344268798828

> <r_i_glide_ecoul>
-1.26121270656586

> <r_i_glide_erotb>
0.342000334526377

> <r_i_glide_esite>
0

> <r_i_glide_emodel>
-43.779358256082

> <r_i_glide_energy>
-29.5956395864487

> <r_i_glide_einternal>
1.51639759540558

> <i_i_glide_confnum>
2

> <i_i_glide_posenum>
304

> <r_i_glide_eff_state_penalty>
0

> <s_user_duplicate_titles>
380546

> <s_m_subgroup_title>
dock_pv

> <s_m_subgroupid>
dock_pv1

> <b_m_subgroup_collapsed>
0

$$$$
50704
                    3D
 Schrodinger Suite 2021-1.
 26 28  0  0  1  0            999 V2000
   24.5230   52.4922   11.8664 C   0  0  0  0  0  0
   23.8177   52.7334   13.0376 C   0  0  0  0  0  0
   22.7335   51.9262   13.3610 C   0  0  0  0  0  0
   22.3508   50.8688   12.5206 C   0  0  0  0  0  0
   23.0524   50.6749   11.3279 C   0  0  0  0  0  0
   24.1283   51.4841   10.9997 C   0  0  0  0  0  0
   21.2342   49.9518   12.8865 C   0  0  0  0  0  0
   20.4778   49.2849   11.8994 C   0  0  0  0  0  0
   19.4221   48.4323   12.2359 C   0  0  0  0  0  0
   19.0899   48.2717   13.5758 C   0  0  0  0  0  0
   19.8431   48.8979   14.5444 C   0  0  0  0  0  0
   20.9188   49.7251   14.2354 C   0  0  0  0  0  0
   19.3571   48.6741   15.8027 O   0  0  0  0  0  0
   18.1811   48.0181   15.7067 C   0  0  0  0  0  0
   17.4289   47.8734   16.6661 O   0  0  0  0  0  0
   17.9869   47.5479   14.2730 C   0  0  0  0  0  0
   25.3997   53.0726   11.6269 H   0  0  0  0  0  0
   24.1209   53.5289   13.7036 H   0  0  0  0  0  0
   22.2039   52.1276   14.2794 H   0  0  0  0  0  0
   22.7915   49.8748   10.6530 H   0  0  0  0  0  0
   24.6776   51.3093   10.0877 H   0  0  0  0  0  0
   20.6844   49.4353   10.8517 H   0  0  0  0  0  0
   18.8550   47.9451   11.4564 H   0  0  0  0  0  0
   21.4702   50.2046   15.0288 H   0  0  0  0  0  0
   18.0986   46.4674   14.2114 H   0  0  0  0  0  0
   16.9979   47.8262   13.9110 H   0  0  0  0  0  0
  1  6  1  0  0  0
  1  2  2  0  0  0
  1 17  1  0  0  0
  2  3  1  0  0  0
  2 18  1  0  0  0
  3  4  2  0  0  0
  3 19  1  0  0  0
  4  5  1  0  0  0
  4  7  1  0  0  0
  5  6  2  0  0  0
  5 20  1  0  0  0
  6 21  1  0  0  0
  7 12  1  0  0  0
  7  8  2  0  0  0
  8  9  1  0  0  0
  8 22  1  0  0  0
  9 10  2  0  0  0
  9 23  1  0  0  0
 10 16  1  0  0  0
 10 11  1  0  0  0
 11 12  2  0  0  0
 11 13  1  0  0  0
 12 24  1  0  0  0
 13 14  1  0  0  0
 14 15  2  0  0  0
 14 16  1  0  0  0
 16 25  1  0  0  0
 16 26  1  0  0  0
M  END
> <s_m_entry_id>
6012

> <s_m_entry_name>
ligand_docking-pose.111

> <s_m_Source_Path>
/home/csk/Desktop/cluster/DUD-E-result/pgh1

> <s_m_Source_File>
ligand_docking-pose.sdf

> <i_m_Source_File_Index>
111

> <i_lp_mmshare_version>
53161

> <i_f3d_flags>
0

> <r_lp_tautomer_probability>
1

> <s_lp_Force_Field>
OPLS_2005

> <r_lp_Energy>
24.477142

> <b_lp_Chiralities_Consistent>
1

> <s_lp_Variant>
50704-1

> <s_i_glide_gridfile>
glide-grid_2oyu

> <i_i_glide_lignum>
77

> <i_i_glide_rotatable_bonds>
1

> <r_i_docking_score>
-8.28536256550052

> <r_i_glide_ligand_efficiency>
-0.517835160343782

> <r_i_glide_ligand_efficiency_sa>
-1.30486283657969

> <r_i_glide_ligand_efficiency_ln>
-2.19620085186002

> <r_i_glide_gscore>
-8.28536256550052

> <r_i_glide_lipo>
-3.83525732116819

> <r_i_glide_hbond>
0

> <r_i_glide_metal>
0

> <r_i_glide_rewards>
-3.10924806908895

> <r_i_glide_evdw>
-32.2456893920898

> <r_i_glide_ecoul>
-0.694882273674011

> <r_i_glide_erotb>
0.375659635412213

> <r_i_glide_esite>
0

> <r_i_glide_emodel>
-47.8766040742456

> <r_i_glide_energy>
-32.9405716657639

> <r_i_glide_einternal>
0.37070831656456

> <i_i_glide_confnum>
2

> <i_i_glide_posenum>
247

> <r_i_glide_eff_state_penalty>
0

> <s_user_duplicate_titles>
50704

> <s_m_subgroup_title>
dock_pv

> <s_m_subgroupid>
dock_pv1

> <b_m_subgroup_collapsed>
0

$$$$
49942
                    3D
 Schrodinger Suite 2021-1.
 35 37  0  0  1  0            999 V2000
   20.9472   49.9550   10.1667 C   0  0  0  0  0  0
   20.6690   49.6276   11.6299 C   0  0  0  0  0  0
   19.7227   48.6238   11.8888 C   0  0  0  0  0  0
   19.3460   48.3498   13.1988 C   0  0  0  0  0  0
   19.9609   49.0085   14.2365 C   0  0  0  0  0  0
   20.9226   49.9806   14.0225 C   0  0  0  0  0  0
   21.2731   50.3318   12.7062 C   0  0  0  0  0  0
   22.2337   51.5144   12.4660 C   0  0  0  0  0  0
   22.4074   52.4658   13.6861 C   0  0  0  0  0  0
   23.2853   53.6750   13.3418 C   0  0  0  0  0  0
   24.6626   53.2285   12.8187 C   0  0  0  0  0  0
   24.5153   52.3005   11.5969 C   0  0  0  0  0  0
   23.6127   51.0835   11.8985 C   0  0  0  0  0  0
   19.4558   48.6631   15.4598 O   0  0  0  0  0  0
   18.4085   47.8354   15.2734 C   0  0  0  0  0  0
   17.6899   47.4738   16.1987 O   0  0  0  0  0  0
   18.3055   47.4660   13.8000 C   0  0  0  0  0  0
   20.1300   49.6251    9.5236 H   0  0  0  0  0  0
   21.0318   51.0264    9.9941 H   0  0  0  0  0  0
   21.8615   49.4724    9.8249 H   0  0  0  0  0  0
   19.2434   48.1055   11.0704 H   0  0  0  0  0  0
   21.3396   50.4840   14.8789 H   0  0  0  0  0  0
   21.7262   52.1128   11.7117 H   0  0  0  0  0  0
   21.4363   52.8426   14.0132 H   0  0  0  0  0  0
   22.8790   51.9482   14.5230 H   0  0  0  0  0  0
   22.7572   54.2714   12.6017 H   0  0  0  0  0  0
   23.4002   54.3328   14.1998 H   0  0  0  0  0  0
   25.2726   54.1005   12.5817 H   0  0  0  0  0  0
   25.1970   52.6975   13.6090 H   0  0  0  0  0  0
   24.0879   52.8653   10.7664 H   0  0  0  0  0  0
   25.4937   51.9681   11.2509 H   0  0  0  0  0  0
   24.1196   50.4205   12.5993 H   0  0  0  0  0  0
   23.4973   50.5424   10.9621 H   0  0  0  0  0  0
   18.5230   46.4083   13.6636 H   0  0  0  0  0  0
   17.3029   47.6755   13.4272 H   0  0  0  0  0  0
  1  2  1  0  0  0
  1 18  1  0  0  0
  1 19  1  0  0  0
  1 20  1  0  0  0
  2  7  1  0  0  0
  2  3  2  0  0  0
  3  4  1  0  0  0
  3 21  1  0  0  0
  4 17  1  0  0  0
  4  5  2  0  0  0
  5  6  1  0  0  0
  5 14  1  0  0  0
  6  7  2  0  0  0
  6 22  1  0  0  0
  7  8  1  0  0  0
  8 13  1  0  0  0
  8  9  1  0  0  0
  8 23  1  0  0  0
  9 10  1  0  0  0
  9 24  1  0  0  0
  9 25  1  0  0  0
 10 11  1  0  0  0
 10 26  1  0  0  0
 10 27  1  0  0  0
 11 12  1  0  0  0
 11 28  1  0  0  0
 11 29  1  0  0  0
 12 13  1  0  0  0
 12 30  1  0  0  0
 12 31  1  0  0  0
 13 32  1  0  0  0
 13 33  1  0  0  0
 14 15  1  0  0  0
 15 16  2  0  0  0
 15 17  1  0  0  0
 17 34  1  0  0  0
 17 35  1  0  0  0
M  END
> <s_m_entry_id>
6014

> <s_m_entry_name>
ligand_docking-pose.113

> <s_m_Source_Path>
/home/csk/Desktop/cluster/DUD-E-result/pgh1

> <s_m_Source_File>
ligand_docking-pose.sdf

> <i_m_Source_File_Index>
113

> <i_lp_mmshare_version>
53161

> <i_f3d_flags>
0

> <r_lp_tautomer_probability>
1

> <s_lp_Force_Field>
OPLS_2005

> <r_lp_Energy>
26.197555

> <b_lp_Chiralities_Consistent>
1

> <s_lp_Variant>
49942-1

> <s_i_glide_gridfile>
glide-grid_2oyu

> <i_i_glide_lignum>
159

> <i_i_glide_rotatable_bonds>
1

> <r_i_docking_score>
-8.27033162116509

> <r_i_glide_ligand_efficiency>
-0.486490095362652

> <r_i_glide_ligand_efficiency_sa>
-1.2509030250622

> <r_i_glide_ligand_efficiency_ln>
-2.15754534873178

> <r_i_glide_gscore>
-8.27033162116509

> <r_i_glide_lipo>
-3.95459779723759

> <r_i_glide_hbond>
0

> <r_i_glide_metal>
0

> <r_i_glide_rewards>
-3.04638414448885

> <r_i_glide_evdw>
-31.2736053466797

> <r_i_glide_ecoul>
-0.184960037469864

> <r_i_glide_erotb>
0.322074593515818

> <r_i_glide_esite>
0

> <r_i_glide_emodel>
-43.4268944945191

> <r_i_glide_energy>
-31.4585653841496

> <r_i_glide_einternal>
2.70035219192505

> <i_i_glide_confnum>
2

> <i_i_glide_posenum>
102

> <r_i_glide_eff_state_penalty>
0

> <s_user_duplicate_titles>
49942

> <s_m_subgroup_title>
dock_pv

> <s_m_subgroupid>
dock_pv1

> <b_m_subgroup_collapsed>
0

$$$$
269454
                    3D
 Schrodinger Suite 2021-1.
 32 34  0  0  1  0            999 V2000
   21.7230   53.4245   14.3476 C   0  0  0  0  0  0
   22.6707   53.4203   13.3316 C   0  0  0  0  0  0
   23.0801   52.2156   12.7504 C   0  0  0  0  0  0
   22.5253   51.0105   13.2018 C   0  0  0  0  0  0
   21.5745   51.0123   14.2215 C   0  0  0  0  0  0
   21.2112   52.2185   14.8135 C   0  0  0  0  0  0
   21.1120   49.8225   14.7882 N   0  0  0  0  0  0
   19.9450   49.0730   14.6128 C   0  0  0  0  0  0
   19.2886   48.7884   13.3959 C   0  0  0  0  0  0
   18.0780   48.0835   13.4708 C   0  0  0  0  0  0
   17.5782   47.6466   14.6941 C   0  0  0  0  0  0
   18.3192   47.9177   15.8359 C   0  0  0  0  0  0
   19.4815   48.6105   15.8000 N   0  0  0  0  0  0
   19.7232   49.1074   12.0073 C   0  0  0  0  0  0
   20.1409   50.2350   11.4847 N   0  0  0  0  0  0
   20.2968   49.9982   10.1196 N   0  0  0  0  0  0
   19.9352   48.7537    9.9324 C   0  0  0  0  0  0
   19.5813   48.1292   11.0762 O   0  0  0  0  0  0
   19.7230   47.8730    8.4284 S   0  0  0  0  0  0
   24.1200   52.2420   11.6426 C   0  0  0  0  0  0
   24.2918   51.0454   11.0915 F   0  0  0  0  0  0
   25.2836   52.6730   12.1255 F   0  0  0  0  0  0
   23.7230   53.0730   10.6905 F   0  0  0  0  0  0
   21.4311   54.3570   14.8082 H   0  0  0  0  0  0
   23.0944   54.3573   13.0016 H   0  0  0  0  0  0
   22.8401   50.0676   12.7781 H   0  0  0  0  0  0
   20.5230   52.2262   15.6444 H   0  0  0  0  0  0
   21.3725   49.7691   15.7608 H   0  0  0  0  0  0
   17.5092   47.8730   12.5768 H   0  0  0  0  0  0
   16.6438   47.1071   14.7501 H   0  0  0  0  0  0
   17.9798   47.5906   16.8085 H   0  0  0  0  0  0
   19.7356   48.9766    7.6395 H   0  0  0  0  0  0
  1  6  1  0  0  0
  1  2  2  0  0  0
  1 24  1  0  0  0
  2  3  1  0  0  0
  2 25  1  0  0  0
  3  4  2  0  0  0
  3 20  1  0  0  0
  4  5  1  0  0  0
  4 26  1  0  0  0
  5  6  2  0  0  0
  5  7  1  0  0  0
  6 27  1  0  0  0
  7  8  1  0  0  0
  7 28  1  0  0  0
  8 13  1  0  0  0
  8  9  2  0  0  0
  9 10  1  0  0  0
  9 14  1  0  0  0
 10 11  2  0  0  0
 10 29  1  0  0  0
 11 12  1  0  0  0
 11 30  1  0  0  0
 12 13  2  0  0  0
 12 31  1  0  0  0
 14 18  1  0  0  0
 14 15  2  0  0  0
 15 16  1  0  0  0
 16 17  2  0  0  0
 17 18  1  0  0  0
 17 19  1  0  0  0
 19 32  1  0  0  0
 20 21  1  0  0  0
 20 22  1  0  0  0
 20 23  1  0  0  0
M  END
> <s_m_entry_id>
6015

> <s_m_entry_name>
ligand_docking-pose.114

> <s_m_Source_Path>
/home/csk/Desktop/cluster/DUD-E-result/pgh1

> <s_m_Source_File>
ligand_docking-pose.sdf

> <i_m_Source_File_Index>
114

> <i_lp_mmshare_version>
53161

> <i_f3d_flags>
0

> <r_lp_tautomer_probability>
0.999999772200052

> <s_lp_Force_Field>
OPLS_2005

> <r_lp_Energy>
16.875418

> <b_lp_Chiralities_Consistent>
1

> <s_lp_Variant>
269454-1

> <s_i_glide_gridfile>
glide-grid_2oyu

> <i_i_glide_lignum>
135

> <i_i_glide_rotatable_bonds>
5

> <r_i_docking_score>
-8.26384939755

> <r_i_glide_ligand_efficiency>
-0.359297799893478

> <r_i_glide_ligand_efficiency_sa>
-1.02179514798243

> <r_i_glide_ligand_efficiency_ln>
-1.99827371677107

> <r_i_glide_gscore>
-8.26384939755

> <r_i_glide_lipo>
-3.8747501193824

> <r_i_glide_hbond>
0

> <r_i_glide_metal>
0

> <r_i_glide_rewards>
-3.05266969224825

> <r_i_glide_evdw>
-34.6982192993164

> <r_i_glide_ecoul>
-0.647935688495636

> <r_i_glide_erotb>
0.495671732320812

> <r_i_glide_esite>
0

> <r_i_glide_emodel>
-39.3114937440362

> <r_i_glide_energy>
-35.346154987812

> <r_i_glide_einternal>
15.7801084518433

> <i_i_glide_confnum>
36

> <i_i_glide_posenum>
251

> <r_i_glide_eff_state_penalty>
0

> <s_user_duplicate_titles>
269454

> <s_m_subgroup_title>
dock_pv

> <s_m_subgroupid>
dock_pv1

> <b_m_subgroup_collapsed>
0

$$$$
3667
                    3D
 Schrodinger Suite 2021-1.
 26 27  0  0  1  0            999 V2000
   19.7717   48.5036   11.3999 C   0  0  0  0  0  0
   19.3699   48.1655   12.6883 C   0  0  0  0  0  0
   19.9343   48.8052   13.7962 C   0  0  0  0  0  0
   20.9008   49.8031   13.5895 C   0  0  0  0  0  0
   21.3395   50.1354   12.2980 C   0  0  0  0  0  0
   20.7532   49.4760   11.2098 C   0  0  0  0  0  0
   22.3061   51.1280   12.0604 N   0  0  0  0  0  0
   23.3974   51.0322   11.1142 C   0  0  0  0  0  0
   24.1684   52.3086   11.3075 C   0  0  0  0  0  0
   23.7360   52.6676   12.7028 C   0  0  0  0  0  0
   22.7098   52.0201   13.0819 N   0  0  0  0  0  0
   24.4069   53.6402   13.4000 N   0  0  0  0  0  0
   19.4896   48.3994   15.2016 C   0  0  0  0  0  0
   20.1393   49.0802   16.1459 F   0  0  0  0  0  0
   19.7230   47.0999   15.3912 F   0  0  0  0  0  0
   18.1839   48.6211   15.3499 F   0  0  0  0  0  0
   19.3276   48.0078   10.5489 H   0  0  0  0  0  0
   18.6145   47.4033   12.8231 H   0  0  0  0  0  0
   21.3326   50.3091   14.4404 H   0  0  0  0  0  0
   21.0481   49.7252   10.2013 H   0  0  0  0  0  0
   24.0435   50.2029   11.4036 H   0  0  0  0  0  0
   23.0675   50.8299   10.0969 H   0  0  0  0  0  0
   25.2456   52.1472   11.2476 H   0  0  0  0  0  0
   23.8817   53.0718   10.5853 H   0  0  0  0  0  0
   24.0968   53.8887   14.3334 H   0  0  0  0  0  0
   25.1663   54.1573   12.9818 H   0  0  0  0  0  0
  1  6  1  0  0  0
  1  2  2  0  0  0
  1 17  1  0  0  0
  2  3  1  0  0  0
  2 18  1  0  0  0
  3  4  2  0  0  0
  3 13  1  0  0  0
  4  5  1  0  0  0
  4 19  1  0  0  0
  5  6  2  0  0  0
  5  7  1  0  0  0
  6 20  1  0  0  0
  7 11  1  0  0  0
  7  8  1  0  0  0
  8  9  1  0  0  0
  8 21  1  0  0  0
  8 22  1  0  0  0
  9 10  1  0  0  0
  9 23  1  0  0  0
  9 24  1  0  0  0
 10 11  2  0  0  0
 10 12  1  0  0  0
 12 25  1  0  0  0
 12 26  1  0  0  0
 13 14  1  0  0  0
 13 15  1  0  0  0
 13 16  1  0  0  0
M  END
> <s_m_entry_id>
6016

> <s_m_entry_name>
ligand_docking-pose.115

> <s_m_Source_Path>
/home/csk/Desktop/cluster/DUD-E-result/pgh1

> <s_m_Source_File>
ligand_docking-pose.sdf

> <i_m_Source_File_Index>
115

> <i_lp_mmshare_version>
53161

> <i_f3d_flags>
0

> <r_lp_tautomer_probability>
1

> <s_lp_Force_Field>
OPLS_2005

> <r_lp_Energy>
15.460388

> <b_lp_Chiralities_Consistent>
1

> <s_lp_Variant>
3667-1

> <s_i_glide_gridfile>
glide-grid_2oyu

> <i_i_glide_lignum>
132

> <i_i_glide_rotatable_bonds>
2

> <r_i_docking_score>
-8.24492347295385

> <r_i_glide_ligand_efficiency>
-0.515307717059616

> <r_i_glide_ligand_efficiency_sa>
-1.2984940785933

> <r_i_glide_ligand_efficiency_ln>
-2.18548166259132

> <r_i_glide_gscore>
-8.24492347295385

> <r_i_glide_lipo>
-2.68154363436315

> <r_i_glide_hbond>
-0.32

> <r_i_glide_metal>
0

> <r_i_glide_rewards>
-3.62216120289397

> <r_i_glide_evdw>
-31.6109943389893

> <r_i_glide_ecoul>
-2.35195279121399

> <r_i_glide_erotb>
0.324702888239127

> <r_i_glide_esite>
-0.0125788883043011

> <r_i_glide_emodel>
-47.789417634916

> <r_i_glide_energy>
-33.9629471302032

> <r_i_glide_einternal>
4.29911279678345

> <i_i_glide_confnum>
2

> <i_i_glide_posenum>
369

> <r_i_glide_eff_state_penalty>
0

> <s_user_duplicate_titles>
3667

> <s_m_subgroup_title>
dock_pv

> <s_m_subgroupid>
dock_pv1

> <b_m_subgroup_collapsed>
0

$$$$
4985
                    3D
 Schrodinger Suite 2021-1.
 30 32  0  0  1  0            999 V2000
   18.0844   47.4723   14.2451 C   0  0  0  0  0  0
   18.5951   47.7682   15.5098 C   0  0  0  0  0  0
   19.6454   48.6730   15.6348 C   0  0  0  0  0  0
   20.1455   49.2800   14.4904 C   0  0  0  0  0  0
   19.6762   48.9797   13.2467 C   0  0  0  0  0  0
   18.6383   48.0547   13.0921 C   0  0  0  0  0  0
   20.4431   49.8047   12.2685 C   0  0  0  0  0  0
   20.3365   49.7959   11.0413 O   0  0  0  0  0  0
   21.2844   50.5797   13.0180 N   0  0  0  0  0  0
   21.1557   50.3448   14.3575 C   0  0  0  0  0  0
   21.7230   50.9104   15.2892 O   0  0  0  0  0  0
   22.2393   51.5447   12.3871 C   0  0  2  0  0  0
   23.5651   50.9381   11.8797 C   0  0  0  0  0  0
   24.5230   52.0234   11.3921 C   0  0  0  0  0  0
   24.8516   52.9809   12.5464 C   0  0  0  0  0  0
   23.6172   53.4923   13.1427 N   0  0  0  0  0  0
   22.4158   52.8852   13.1881 C   0  0  0  0  0  0
   21.5086   53.4380   13.8000 O   0  0  0  0  0  0
   17.2509   46.7891   14.2000 H   0  0  0  0  0  0
   18.1665   47.3126   16.3904 H   0  0  0  0  0  0
   20.0414   48.9321   16.5999 H   0  0  0  0  0  0
   18.2391   47.8106   12.1181 H   0  0  0  0  0  0
   21.7205   51.8910   11.4924 H   0  0  0  0  0  0
   24.0346   50.3226   12.6447 H   0  0  0  0  0  0
   23.3477   50.2730   11.0449 H   0  0  0  0  0  0
   24.0875   52.5782   10.5594 H   0  0  0  0  0  0
   25.4352   51.5795   10.9992 H   0  0  0  0  0  0
   25.4752   53.8068   12.2047 H   0  0  0  0  0  0
   25.3862   52.4682   13.3448 H   0  0  0  0  0  0
   23.6669   54.3619   13.6559 H   0  0  0  0  0  0
  1  6  1  0  0  0
  1  2  2  0  0  0
  1 19  1  0  0  0
  2  3  1  0  0  0
  2 20  1  0  0  0
  3  4  2  0  0  0
  3 21  1  0  0  0
  4 10  1  0  0  0
  4  5  1  0  0  0
  5  6  2  0  0  0
  5  7  1  0  0  0
  6 22  1  0  0  0
  7  8  2  0  0  0
  7  9  1  0  0  0
  9 10  1  0  0  0
  9 12  1  0  0  0
 10 11  2  0  0  0
 12 17  1  0  0  0
 12 13  1  0  0  0
 12 23  1  0  0  0
 13 14  1  0  0  0
 13 24  1  0  0  0
 13 25  1  0  0  0
 14 15  1  0  0  0
 14 26  1  0  0  0
 14 27  1  0  0  0
 15 16  1  0  0  0
 15 28  1  0  0  0
 15 29  1  0  0  0
 16 17  1  0  0  0
 16 30  1  0  0  0
 17 18  2  0  0  0
M  END
> <s_m_entry_id>
6018

> <s_m_entry_name>
ligand_docking-pose.117

> <s_m_Source_Path>
/home/csk/Desktop/cluster/DUD-E-result/pgh1

> <s_m_Source_File>
ligand_docking-pose.sdf

> <i_m_Source_File_Index>
117

> <i_lp_mmshare_version>
53161

> <i_f3d_flags>
0

> <r_lp_tautomer_probability>
1

> <s_lp_Force_Field>
OPLS_2005

> <r_lp_Energy>
39.811802

> <b_lp_Chiralities_Consistent>
1

> <s_lp_Variant>
4985-1

> <s_i_glide_gridfile>
glide-grid_2oyu

> <i_i_glide_lignum>
29

> <i_i_glide_rotatable_bonds>
1

> <r_i_docking_score>
-8.1848381496387

> <r_i_glide_ligand_efficiency>
-0.454713230535483

> <r_i_glide_ligand_efficiency_sa>
-1.19168578461065

> <r_i_glide_ligand_efficiency_ln>
-2.103870441951

> <r_i_glide_gscore>
-8.1848381496387

> <r_i_glide_lipo>
-2.84674671466666

> <r_i_glide_hbond>
0

> <r_i_glide_metal>
0

> <r_i_glide_rewards>
-3.81551741865215

> <r_i_glide_evdw>
-32.2021980285645

> <r_i_glide_ecoul>
-1.35900568962097

> <r_i_glide_erotb>
0.291386738551484

> <r_i_glide_esite>
0

> <r_i_glide_emodel>
-46.9862594872777

> <r_i_glide_energy>
-33.5612037181854

> <r_i_glide_einternal>
6.17774486541748

> <i_i_glide_confnum>
5

> <i_i_glide_posenum>
150

> <r_i_glide_eff_state_penalty>
0

> <s_user_duplicate_titles>
4985

> <s_m_subgroup_title>
dock_pv

> <s_m_subgroupid>
dock_pv1

> <b_m_subgroup_collapsed>
0

$$$$
235467
                    3D
 Schrodinger Suite 2021-1.
 39 43  0  0  1  0            999 V2000
   20.1773   49.0283   14.9073 C   0  0  0  0  0  0
   19.5598   48.6730   16.0866 C   0  0  0  0  0  0
   18.2652   48.1530   16.0755 C   0  0  0  0  0  0
   17.6063   47.9325   14.8711 C   0  0  0  0  0  0
   18.2348   48.2730   13.6781 C   0  0  0  0  0  0
   19.5161   48.8422   13.7012 C   0  0  0  0  0  0
   20.1995   49.2982   12.4750 C   0  0  0  0  0  0
   21.3772   49.9796   12.2286 C   0  0  0  0  0  0
   21.5848   50.1167   10.8631 C   0  0  0  0  0  0
   20.5231   49.4730   10.2240 C   0  0  0  0  0  0
   19.7230   49.0174   11.2339 N   0  0  0  0  0  0
   20.1230   49.1258    8.8495 C   0  0  0  0  0  0
   19.6222   47.8496    8.5902 C   0  0  0  0  0  0
   19.0548   47.5890    7.3558 C   0  0  0  0  0  0
   19.1113   48.5370    6.3387 C   0  0  0  0  0  0
   19.6846   49.7744    6.5706 C   0  0  0  0  0  0
   20.1230   50.0864    7.8484 C   0  0  0  0  0  0
   18.5573   48.2732    5.1371 F   0  0  0  0  0  0
   22.9599   50.7937   10.7121 C   0  0  2  0  0  0
   23.6473   50.1547   11.8807 C   0  0  0  0  0  0
   22.6041   50.5459   12.8946 C   0  0  1  0  0  0
   22.6295   52.0399   12.6790 C   0  0  0  0  0  0
   22.9242   52.1798   11.3748 C   0  0  0  0  0  0
   17.6371   47.8730   17.2374 F   0  0  0  0  0  0
   18.8811   48.4865   11.0719 H   0  0  0  0  0  0
   21.1640   49.4596   14.9497 H   0  0  0  0  0  0
   20.1223   48.8256   16.9943 H   0  0  0  0  0  0
   16.6058   47.5254   14.8660 H   0  0  0  0  0  0
   17.7040   48.1210   12.7503 H   0  0  0  0  0  0
   19.5769   47.0970    9.3637 H   0  0  0  0  0  0
   18.5225   46.6730    7.1941 H   0  0  0  0  0  0
   19.6684   50.5232    5.8000 H   0  0  0  0  0  0
   20.4570   51.0913    8.0606 H   0  0  0  0  0  0
   23.5314   50.6734    9.7979 H   0  0  0  0  0  0
   23.7259   49.0730   11.8103 H   0  0  0  0  0  0
   24.6532   50.5319   12.0824 H   0  0  0  0  0  0
   22.9230   50.1340   13.8001 H   0  0  0  0  0  0
   22.5175   52.7893   13.4494 H   0  0  0  0  0  0
   23.1456   53.0730   10.8282 H   0  0  0  0  0  0
  1  6  1  0  0  0
  1  2  2  0  0  0
  1 26  1  0  0  0
  2  3  1  0  0  0
  2 27  1  0  0  0
  3  4  2  0  0  0
  3 24  1  0  0  0
  4  5  1  0  0  0
  4 28  1  0  0  0
  5  6  2  0  0  0
  5 29  1  0  0  0
  6  7  1  0  0  0
  7 11  1  0  0  0
  7  8  2  0  0  0
  8 21  1  0  0  0
  8  9  1  0  0  0
  9 10  2  0  0  0
  9 19  1  0  0  0
 10 11  1  0  0  0
 10 12  1  0  0  0
 11 25  1  0  0  0
 12 17  1  0  0  0
 12 13  2  0  0  0
 13 14  1  0  0  0
 13 30  1  0  0  0
 14 15  2  0  0  0
 14 31  1  0  0  0
 15 16  1  0  0  0
 15 18  1  0  0  0
 16 17  2  0  0  0
 16 32  1  0  0  0
 17 33  1  0  0  0
 19 23  1  0  0  0
 19 20  1  0  0  0
 19 34  1  0  0  0
 20 21  1  0  0  0
 20 35  1  0  0  0
 20 36  1  0  0  0
 21 22  1  0  0  0
 21 37  1  0  0  0
 22 23  2  0  0  0
 22 38  1  0  0  0
 23 39  1  0  0  0
M  END
> <s_m_entry_id>
6019

> <s_m_entry_name>
ligand_docking-pose.118

> <s_m_Source_Path>
/home/csk/Desktop/cluster/DUD-E-result/pgh1

> <s_m_Source_File>
ligand_docking-pose.sdf

> <i_m_Source_File_Index>
118

> <i_lp_mmshare_version>
53161

> <i_f3d_flags>
0

> <r_lp_tautomer_probability>
1

> <s_lp_Force_Field>
OPLS_2005

> <r_lp_Energy>
90.181219

> <b_lp_Chiralities_Consistent>
1

> <s_lp_Variant>
235467-1

> <s_i_glide_gridfile>
glide-grid_2oyu

> <i_i_glide_lignum>
61

> <i_i_glide_rotatable_bonds>
2

> <r_i_docking_score>
-8.18324468749807

> <r_i_glide_ligand_efficiency>
-0.340968528645753

> <r_i_glide_ligand_efficiency_sa>
-0.983523426813476

> <r_i_glide_ligand_efficiency_ln>
-1.95862595834879

> <r_i_glide_gscore>
-8.18324468749807

> <r_i_glide_lipo>
-5.21101424511392

> <r_i_glide_hbond>
0

> <r_i_glide_metal>
0

> <r_i_glide_rewards>
-2.54557678952765

> <r_i_glide_evdw>
-12.6429901123047

> <r_i_glide_ecoul>
-0.402674973011017

> <r_i_glide_erotb>
0.365897098710381

> <r_i_glide_esite>
-0.1

> <r_i_glide_emodel>
-28.6648461343317

> <r_i_glide_energy>
-13.0456650853157

> <r_i_glide_einternal>
1.82027697563171

> <i_i_glide_confnum>
3

> <i_i_glide_posenum>
87

> <r_i_glide_eff_state_penalty>
0

> <s_user_duplicate_titles>
235467

> <s_m_subgroup_title>
dock_pv

> <s_m_subgroupid>
dock_pv1

> <b_m_subgroup_collapsed>
0

$$$$
202004
                    3D
 Schrodinger Suite 2021-1.
 49 50  0  0  1  0            999 V2000
   23.3501   51.5662   13.9513 C   0  0  0  0  0  0
   22.1036   51.8070   13.1164 C   0  0  0  0  0  0
   21.3199   52.9653   13.7894 C   0  0  0  0  0  0
   22.6754   52.2729   11.7540 C   0  0  0  0  0  0
   21.2193   50.5221   12.9692 C   0  0  0  0  0  0
   20.9988   49.9764   11.6952 C   0  0  0  0  0  0
   20.1226   48.9291   11.4846 C   0  0  0  0  0  0
   19.4373   48.3914   12.5629 C   0  0  0  0  0  0
   19.6680   48.8192   13.8734 C   0  0  0  0  0  0
   20.5973   49.8732   14.0654 C   0  0  0  0  0  0
   20.9229   50.2825   15.3304 O   0  0  0  0  0  0
   19.0079   48.0231   15.0375 C   0  0  0  0  0  0
   17.8696   47.0753   14.5784 C   0  0  0  0  0  0
   18.3598   48.8927   16.1442 C   0  0  0  0  0  0
   20.1210   47.1379   15.6060 C   0  0  0  0  0  0
   19.9496   48.3431   10.1338 C   0  0  0  0  0  0
   20.1230   48.9907    9.0161 N   0  0  0  0  0  0
   19.7266   48.1015    8.1190 C   0  0  0  0  0  0
   19.5335   46.8813    8.6416 O   0  0  0  0  0  0
   19.7230   47.0731    9.9922 N   0  0  0  0  0  0
   19.4226   48.2042    6.8105 N   0  0  0  0  0  0
   19.5178   49.3011    6.2151 C   0  0  0  0  0  0
   18.9230   49.4709    4.9979 N   0  0  0  0  0  0
   20.1230   50.4832    6.6374 N   0  0  0  0  0  0
   24.0714   52.3835   13.8801 H   0  0  0  0  0  0
   23.8298   50.6731   13.5831 H   0  0  0  0  0  0
   23.1194   51.4731   15.0000 H   0  0  0  0  0  0
   20.3118   53.0735   13.4000 H   0  0  0  0  0  0
   21.2087   52.8243   14.8642 H   0  0  0  0  0  0
   21.8236   53.9248   13.6633 H   0  0  0  0  0  0
   21.9018   52.2730   10.9985 H   0  0  0  0  0  0
   23.1231   53.2653   11.8046 H   0  0  0  0  0  0
   23.4502   51.5991   11.3818 H   0  0  0  0  0  0
   21.5122   50.3234   10.8156 H   0  0  0  0  0  0
   18.7622   47.5788   12.3477 H   0  0  0  0  0  0
   21.4872   51.0567   15.3010 H   0  0  0  0  0  0
   18.2725   46.2719   13.9689 H   0  0  0  0  0  0
   17.3646   46.5893   15.4125 H   0  0  0  0  0  0
   17.1029   47.6005   14.0059 H   0  0  0  0  0  0
   19.0482   49.5949   16.6001 H   0  0  0  0  0  0
   17.5082   49.4608   15.7698 H   0  0  0  0  0  0
   17.9785   48.2732   16.9578 H   0  0  0  0  0  0
   20.8216   47.7269   16.1999 H   0  0  0  0  0  0
   19.7243   46.3205   16.1998 H   0  0  0  0  0  0
   20.6821   46.6738   14.7989 H   0  0  0  0  0  0
   18.3486   48.7102    4.6698 H   0  0  0  0  0  0
   18.4318   50.3448    4.8134 H   0  0  0  0  0  0
   20.4449   50.4825    7.5926 H   0  0  0  0  0  0
   19.5575   51.3135    6.5081 H   0  0  0  0  0  0
  1  2  1  0  0  0
  1 25  1  0  0  0
  1 26  1  0  0  0
  1 27  1  0  0  0
  2  3  1  0  0  0
  2  4  1  0  0  0
  2  5  1  0  0  0
  3 28  1  0  0  0
  3 29  1  0  0  0
  3 30  1  0  0  0
  4 31  1  0  0  0
  4 32  1  0  0  0
  4 33  1  0  0  0
  5 10  1  0  0  0
  5  6  2  0  0  0
  6  7  1  0  0  0
  6 34  1  0  0  0
  7  8  2  0  0  0
  7 16  1  0  0  0
  8  9  1  0  0  0
  8 35  1  0  0  0
  9 10  2  0  0  0
  9 12  1  0  0  0
 10 11  1  0  0  0
 11 36  1  0  0  0
 12 13  1  0  0  0
 12 14  1  0  0  0
 12 15  1  0  0  0
 13 37  1  0  0  0
 13 38  1  0  0  0
 13 39  1  0  0  0
 14 40  1  0  0  0
 14 41  1  0  0  0
 14 42  1  0  0  0
 15 43  1  0  0  0
 15 44  1  0  0  0
 15 45  1  0  0  0
 16 20  2  0  0  0
 16 17  1  0  0  0
 17 18  2  0  0  0
 18 19  1  0  0  0
 18 21  1  0  0  0
 19 20  1  0  0  0
 21 22  2  3  0  0
 22 23  1  0  0  0
 22 24  1  0  0  0
 23 46  1  0  0  0
 23 47  1  0  0  0
 24 48  1  0  0  0
 24 49  1  0  0  0
M  END
> <s_m_entry_id>
6020

> <s_m_entry_name>
ligand_docking-pose.119

> <s_m_Source_Path>
/home/csk/Desktop/cluster/DUD-E-result/pgh1

> <s_m_Source_File>
ligand_docking-pose.sdf

> <i_m_Source_File_Index>
119

> <i_lp_mmshare_version>
53161

> <i_f3d_flags>
0

> <r_lp_tautomer_probability>
0.999999999997365

> <s_lp_Force_Field>
OPLS_2005

> <r_lp_Energy>
31.817287

> <b_lp_Chiralities_Consistent>
1

> <s_lp_Variant>
202004-1

> <s_i_glide_gridfile>
glide-grid_2oyu

> <i_i_glide_lignum>
411

> <i_i_glide_rotatable_bonds>
5

> <r_i_docking_score>
-8.15616214897418

> <r_i_glide_ligand_efficiency>
-0.339840089540591

> <r_i_glide_ligand_efficiency_sa>
-0.980268445187847

> <r_i_glide_ligand_efficiency_ln>
-1.95214386414331

> <r_i_glide_gscore>
-8.15616214897418

> <r_i_glide_lipo>
-3.97300649823308

> <r_i_glide_hbond>
-0.498658445544956

> <r_i_glide_metal>
0

> <r_i_glide_rewards>
-2.23908892174394

> <r_i_glide_evdw>
-8.52581596374512

> <r_i_glide_ecoul>
-9.07888793945312

> <r_i_glide_erotb>
0.342715705653023

> <r_i_glide_esite>
0

> <r_i_glide_emodel>
-48.331590476396

> <r_i_glide_energy>
-17.6047039031982

> <r_i_glide_einternal>
3.60174798965454

> <i_i_glide_confnum>
2

> <i_i_glide_posenum>
286

> <r_i_glide_eff_state_penalty>
0

> <s_user_duplicate_titles>
202004

> <s_m_subgroup_title>
dock_pv

> <s_m_subgroupid>
dock_pv1

> <b_m_subgroup_collapsed>
0

$$$$
380536
                    3D
 Schrodinger Suite 2021-1.
 42 44  0  0  1  0            999 V2000
   17.6726   45.8603   15.0000 C   0  0  0  0  0  0
   17.3050   47.0730   14.3437 O   0  0  0  0  0  0
   18.3626   47.8524   13.9560 C   0  0  0  0  0  0
   18.6663   47.9793   12.6063 C   0  0  0  0  0  0
   19.7261   48.7768   12.2000 C   0  0  0  0  0  0
   20.5190   49.4345   13.1437 C   0  0  0  0  0  0
   20.2317   49.2931   14.5186 C   0  0  0  0  0  0
   19.1308   48.5210   14.9116 C   0  0  0  0  0  0
   18.8534   48.3400   16.2377 O   0  0  0  0  0  0
   17.5882   48.8145   16.7017 C   0  0  0  0  0  0
   21.1043   49.8168   15.4566 O   0  0  0  0  0  0
   20.6298   50.8018   16.3726 C   0  0  0  0  0  0
   21.6304   50.2784   12.6772 C   0  0  0  0  0  0
   21.7589   51.5195   13.1693 C   0  0  0  0  0  0
   22.8964   52.3719   12.8842 C   0  0  0  0  0  0
   22.9548   53.6293   13.4712 C   0  0  0  0  0  0
   24.1326   54.3573   13.4000 C   0  0  0  0  0  0
   25.2183   53.8730   12.6837 C   0  0  0  0  0  0
   25.1031   52.6730   11.9885 C   0  0  0  0  0  0
   23.9648   51.8822   12.1218 C   0  0  0  0  0  0
   23.9130   50.4685   11.5584 C   0  0  0  0  0  0
   22.4815   49.8716   11.4765 C   0  0  0  0  0  0
   16.7792   45.3809   15.4000 H   0  0  0  0  0  0
   18.3886   46.0215   15.8000 H   0  0  0  0  0  0
   18.1391   45.1601   14.3063 H   0  0  0  0  0  0
   18.0732   47.4730   11.8633 H   0  0  0  0  0  0
   19.9267   48.8780   11.1430 H   0  0  0  0  0  0
   17.3230   48.2772   17.6123 H   0  0  0  0  0  0
   17.6293   49.8730   16.9526 H   0  0  0  0  0  0
   16.7698   48.6729   16.0026 H   0  0  0  0  0  0
   21.4411   51.0730   17.0460 H   0  0  0  0  0  0
   20.3184   51.7217   15.8821 H   0  0  0  0  0  0
   19.8155   50.4581   17.0000 H   0  0  0  0  0  0
   21.0554   51.8624   13.9074 H   0  0  0  0  0  0
   22.1349   54.0085   14.0643 H   0  0  0  0  0  0
   24.1931   55.2990   13.9179 H   0  0  0  0  0  0
   26.1230   54.4585   12.6214 H   0  0  0  0  0  0
   25.9373   52.3184   11.4000 H   0  0  0  0  0  0
   24.5230   49.8342   12.2000 H   0  0  0  0  0  0
   24.3841   50.4707   10.5762 H   0  0  0  0  0  0
   22.5230   48.7865   11.4000 H   0  0  0  0  0  0
   22.0044   50.2658   10.5779 H   0  0  0  0  0  0
  1  2  1  0  0  0
  1 23  1  0  0  0
  1 24  1  0  0  0
  1 25  1  0  0  0
  2  3  1  0  0  0
  3  8  1  0  0  0
  3  4  2  0  0  0
  4  5  1  0  0  0
  4 26  1  0  0  0
  5  6  2  0  0  0
  5 27  1  0  0  0
  6  7  1  0  0  0
  6 13  1  0  0  0
  7  8  2  0  0  0
  7 11  1  0  0  0
  8  9  1  0  0  0
  9 10  1  0  0  0
 10 28  1  0  0  0
 10 29  1  0  0  0
 10 30  1  0  0  0
 11 12  1  0  0  0
 12 31  1  0  0  0
 12 32  1  0  0  0
 12 33  1  0  0  0
 13 22  1  0  0  0
 13 14  2  0  0  0
 14 15  1  0  0  0
 14 34  1  0  0  0
 15 20  2  0  0  0
 15 16  1  0  0  0
 16 17  2  0  0  0
 16 35  1  0  0  0
 17 18  1  0  0  0
 17 36  1  0  0  0
 18 19  2  0  0  0
 18 37  1  0  0  0
 19 20  1  0  0  0
 19 38  1  0  0  0
 20 21  1  0  0  0
 21 22  1  0  0  0
 21 39  1  0  0  0
 21 40  1  0  0  0
 22 41  1  0  0  0
 22 42  1  0  0  0
M  END
> <s_m_entry_id>
6021

> <s_m_entry_name>
ligand_docking-pose.120

> <s_m_Source_Path>
/home/csk/Desktop/cluster/DUD-E-result/pgh1

> <s_m_Source_File>
ligand_docking-pose.sdf

> <i_m_Source_File_Index>
120

> <i_lp_mmshare_version>
53161

> <i_f3d_flags>
0

> <r_lp_tautomer_probability>
1

> <s_lp_Force_Field>
OPLS_2005

> <r_lp_Energy>
36.94075

> <b_lp_Chiralities_Consistent>
1

> <s_lp_Variant>
380536-1

> <s_i_glide_gridfile>
glide-grid_2oyu

> <i_i_glide_lignum>
609

> <i_i_glide_rotatable_bonds>
4

> <r_i_docking_score>
-8.15367553963676

> <r_i_glide_ligand_efficiency>
-0.370621615438034

> <r_i_glide_ligand_efficiency_sa>
-1.0384963421784

> <r_i_glide_ligand_efficiency_ln>
-1.99305571442884

> <r_i_glide_gscore>
-8.15367553963676

> <r_i_glide_lipo>
-4.73548519464186

> <r_i_glide_hbond>
0

> <r_i_glide_metal>
0

> <r_i_glide_rewards>
-2.27850729069945

> <r_i_glide_evdw>
-23.9369945526123

> <r_i_glide_ecoul>
-1.00936853885651

> <r_i_glide_erotb>
0.208571954163642

> <r_i_glide_esite>
0

> <r_i_glide_emodel>
-23.8320125644181

> <r_i_glide_energy>
-24.9463630914688

> <r_i_glide_einternal>
8.23310375213623

> <i_i_glide_confnum>
7

> <i_i_glide_posenum>
151

> <r_i_glide_eff_state_penalty>
0

> <s_user_duplicate_titles>
380536

> <s_m_subgroup_title>
dock_pv

> <s_m_subgroupid>
dock_pv1

> <b_m_subgroup_collapsed>
0

$$$$
50527
                    3D
 Schrodinger Suite 2021-1.
 38 40  0  0  1  0            999 V2000
   21.0260   50.1379   10.2015 C   0  0  0  0  0  0
   20.8178   49.8087   11.6729 C   0  0  0  0  0  0
   19.8532   48.8328   11.9678 C   0  0  0  0  0  0
   19.5663   48.5196   13.2915 C   0  0  0  0  0  0
   20.2697   49.1321   14.3013 C   0  0  0  0  0  0
   21.2291   50.1027   14.0495 C   0  0  0  0  0  0
   21.5146   50.4693   12.7212 C   0  0  0  0  0  0
   22.5296   51.6024   12.4445 C   0  0  0  0  0  0
   22.8817   52.4755   13.6823 C   0  0  0  0  0  0
   23.7781   53.6579   13.2943 C   0  0  0  0  0  0
   25.0784   53.1883   12.6228 C   0  0  0  0  0  0
   24.7867   52.2733   11.4142 C   0  0  0  0  0  0
   23.8295   51.1085   11.7547 C   0  0  0  0  0  0
   19.8821   48.7186   15.5450 O   0  0  0  0  0  0
   18.8286   47.8869   15.4145 C   0  0  0  0  0  0
   18.2026   47.4734   16.3861 O   0  0  0  0  0  0
   18.5531   47.6295   13.9335 C   0  0  1  0  0  0
   17.0959   48.0199   13.6386 C   0  0  0  0  0  0
   20.1359   49.9085    9.6125 H   0  0  0  0  0  0
   21.2111   51.1978   10.0463 H   0  0  0  0  0  0
   21.8604   49.5626    9.8002 H   0  0  0  0  0  0
   19.3108   48.3500   11.1691 H   0  0  0  0  0  0
   21.7227   50.5662   14.8874 H   0  0  0  0  0  0
   22.0096   52.2713   11.7606 H   0  0  0  0  0  0
   21.9740   52.8837   14.1334 H   0  0  0  0  0  0
   23.4087   51.8870   14.4355 H   0  0  0  0  0  0
   23.2057   54.2729   12.6063 H   0  0  0  0  0  0
   23.9915   54.2888   14.1567 H   0  0  0  0  0  0
   25.6676   54.0496   12.3122 H   0  0  0  0  0  0
   25.6999   52.6732   13.3546 H   0  0  0  0  0  0
   24.3335   52.8661   10.6188 H   0  0  0  0  0  0
   25.7184   51.8894   10.9986 H   0  0  0  0  0  0
   24.3432   50.3861   12.3877 H   0  0  0  0  0  0
   23.6059   50.6166   10.8105 H   0  0  0  0  0  0
   18.7227   46.5781   13.7051 H   0  0  0  0  0  0
   16.9242   49.0725   13.8596 H   0  0  0  0  0  0
   16.3890   47.4263   14.2188 H   0  0  0  0  0  0
   16.8548   47.8737   12.5898 H   0  0  0  0  0  0
  1  2  1  0  0  0
  1 19  1  0  0  0
  1 20  1  0  0  0
  1 21  1  0  0  0
  2  7  1  0  0  0
  2  3  2  0  0  0
  3  4  1  0  0  0
  3 22  1  0  0  0
  4 17  1  0  0  0
  4  5  2  0  0  0
  5  6  1  0  0  0
  5 14  1  0  0  0
  6  7  2  0  0  0
  6 23  1  0  0  0
  7  8  1  0  0  0
  8 13  1  0  0  0
  8  9  1  0  0  0
  8 24  1  0  0  0
  9 10  1  0  0  0
  9 25  1  0  0  0
  9 26  1  0  0  0
 10 11  1  0  0  0
 10 27  1  0  0  0
 10 28  1  0  0  0
 11 12  1  0  0  0
 11 29  1  0  0  0
 11 30  1  0  0  0
 12 13  1  0  0  0
 12 31  1  0  0  0
 12 32  1  0  0  0
 13 33  1  0  0  0
 13 34  1  0  0  0
 14 15  1  0  0  0
 15 16  2  0  0  0
 15 17  1  0  0  0
 17 18  1  0  0  0
 17 35  1  0  0  0
 18 36  1  0  0  0
 18 37  1  0  0  0
 18 38  1  0  0  0
M  END
> <s_m_entry_id>
6022

> <s_m_entry_name>
ligand_docking-pose.121

> <s_m_Source_Path>
/home/csk/Desktop/cluster/DUD-E-result/pgh1

> <s_m_Source_File>
ligand_docking-pose.sdf

> <i_m_Source_File_Index>
121

> <i_lp_mmshare_version>
53161

> <i_f3d_flags>
0

> <r_lp_tautomer_probability>
1

> <s_lp_Force_Field>
OPLS_2005

> <r_lp_Energy>
27.407248

> <b_lp_Chiralities_Consistent>
1

> <s_lp_Variant>
50527-1

> <s_i_glide_gridfile>
glide-grid_2oyu

> <i_i_glide_lignum>
160

> <i_i_glide_rotatable_bonds>
1

> <r_i_docking_score>
-8.14236594939759

> <r_i_glide_ligand_efficiency>
-0.452353663855422

> <r_i_glide_ligand_efficiency_sa>
-1.18550197054578

> <r_i_glide_ligand_efficiency_ln>
-2.09295318188327

> <r_i_glide_gscore>
-8.14236594939759

> <r_i_glide_lipo>
-4.16163536321862

> <r_i_glide_hbond>
0

> <r_i_glide_metal>
0

> <r_i_glide_rewards>
-2.71237155292024

> <r_i_glide_evdw>
-30.5607318878174

> <r_i_glide_ecoul>
-0.210268959403038

> <r_i_glide_erotb>
0.291217905042589

> <r_i_glide_esite>
0

> <r_i_glide_emodel>
-41.8053198139948

> <r_i_glide_energy>
-30.7710008472204

> <r_i_glide_einternal>
3.07914614677429

> <i_i_glide_confnum>
2

> <i_i_glide_posenum>
365

> <r_i_glide_eff_state_penalty>
0

> <s_user_duplicate_titles>
50527

> <s_m_subgroup_title>
dock_pv

> <s_m_subgroupid>
dock_pv1

> <b_m_subgroup_collapsed>
0

$$$$
87056
                    3D
 Schrodinger Suite 2021-1.
 35 36  0  0  1  0            999 V2000
   24.5621   51.8875   10.5790 C   0  0  0  0  0  0
   23.3373   51.5300   11.4004 C   0  0  0  0  0  0
   22.4630   50.5456   10.9225 C   0  0  0  0  0  0
   21.2966   50.2321   11.6182 C   0  0  0  0  0  0
   21.0207   50.9138   12.7920 C   0  0  0  0  0  0
   21.8846   51.8741   13.3069 C   0  0  0  0  0  0
   23.0590   52.1868   12.6092 C   0  0  0  0  0  0
   23.9244   53.1335   13.1014 O   0  0  0  0  0  0
   21.4960   52.5608   14.6005 C   0  0  0  0  0  0
   20.3233   49.1687   11.1217 C   0  0  0  0  0  0
   20.2578   47.9125   12.0220 C   0  0  0  0  0  0
   19.4794   48.0790   13.3262 C   0  0  0  0  0  0
   18.1012   47.8730   13.3306 C   0  0  0  0  0  0
   17.3757   47.9502   14.5160 C   0  0  0  0  0  0
   18.0281   48.2727   15.6999 C   0  0  0  0  0  0
   19.3974   48.5260   15.6977 C   0  0  0  0  0  0
   20.1226   48.4246   14.5165 C   0  0  0  0  0  0
   17.3230   48.3578   16.8510 F   0  0  0  0  0  0
   24.7081   51.1960    9.7492 H   0  0  0  0  0  0
   24.4578   52.8956   10.1805 H   0  0  0  0  0  0
   25.4588   51.8729   11.1951 H   0  0  0  0  0  0
   22.6806   50.0363    9.9957 H   0  0  0  0  0  0
   20.1230   50.6725   13.3236 H   0  0  0  0  0  0
   23.6602   53.4701   13.9627 H   0  0  0  0  0  0
   22.1332   52.2218   15.4000 H   0  0  0  0  0  0
   20.4880   52.2970   14.9077 H   0  0  0  0  0  0
   21.5692   53.6446   14.5196 H   0  0  0  0  0  0
   19.3276   49.6074   11.0163 H   0  0  0  0  0  0
   20.6039   48.8735   10.1098 H   0  0  0  0  0  0
   19.7934   47.1016   11.4581 H   0  0  0  0  0  0
   21.2638   47.5501   12.2371 H   0  0  0  0  0  0
   17.5944   47.6401   12.4090 H   0  0  0  0  0  0
   16.3109   47.7753   14.5122 H   0  0  0  0  0  0
   19.9056   48.8165   16.5999 H   0  0  0  0  0  0
   21.1729   48.6697   14.5295 H   0  0  0  0  0  0
  1  2  1  0  0  0
  1 19  1  0  0  0
  1 20  1  0  0  0
  1 21  1  0  0  0
  2  7  1  0  0  0
  2  3  2  0  0  0
  3  4  1  0  0  0
  3 22  1  0  0  0
  4  5  2  0  0  0
  4 10  1  0  0  0
  5  6  1  0  0  0
  5 23  1  0  0  0
  6  7  2  0  0  0
  6  9  1  0  0  0
  7  8  1  0  0  0
  8 24  1  0  0  0
  9 25  1  0  0  0
  9 26  1  0  0  0
  9 27  1  0  0  0
 10 11  1  0  0  0
 10 28  1  0  0  0
 10 29  1  0  0  0
 11 12  1  0  0  0
 11 30  1  0  0  0
 11 31  1  0  0  0
 12 17  1  0  0  0
 12 13  2  0  0  0
 13 14  1  0  0  0
 13 32  1  0  0  0
 14 15  2  0  0  0
 14 33  1  0  0  0
 15 16  1  0  0  0
 15 18  1  0  0  0
 16 17  2  0  0  0
 16 34  1  0  0  0
 17 35  1  0  0  0
M  END
> <s_m_entry_id>
6023

> <s_m_entry_name>
ligand_docking-pose.122

> <s_m_Source_Path>
/home/csk/Desktop/cluster/DUD-E-result/pgh1

> <s_m_Source_File>
ligand_docking-pose.sdf

> <i_m_Source_File_Index>
122

> <i_lp_mmshare_version>
53161

> <i_f3d_flags>
0

> <r_lp_tautomer_probability>
0.999999999997365

> <s_lp_Force_Field>
OPLS_2005

> <r_lp_Energy>
8.777244

> <b_lp_Chiralities_Consistent>
1

> <s_lp_Variant>
87056-1

> <s_i_glide_gridfile>
glide-grid_2oyu

> <i_i_glide_lignum>
256

> <i_i_glide_rotatable_bonds>
4

> <r_i_docking_score>
-8.14216280761372

> <r_i_glide_ligand_efficiency>
-0.452342378200762

> <r_i_glide_ligand_efficiency_sa>
-1.18547239376348

> <r_i_glide_ligand_efficiency_ln>
-2.09290096533521

> <r_i_glide_gscore>
-8.14216280761372

> <r_i_glide_lipo>
-4.4790201799159

> <r_i_glide_hbond>
-0.0888726203167979

> <r_i_glide_metal>
0

> <r_i_glide_rewards>
-2.67772715607741

> <r_i_glide_evdw>
-30.0271015167236

> <r_i_glide_ecoul>
-1.79328811168671

> <r_i_glide_erotb>
0.873805441285578

> <r_i_glide_esite>
0

> <r_i_glide_emodel>
-45.4927991348875

> <r_i_glide_energy>
-31.8203896284103

> <r_i_glide_einternal>
0.713311195373535

> <i_i_glide_confnum>
1

> <i_i_glide_posenum>
322

> <r_i_glide_eff_state_penalty>
0

> <s_user_duplicate_titles>
87056

> <s_m_subgroup_title>
dock_pv

> <s_m_subgroupid>
dock_pv1

> <b_m_subgroup_collapsed>
0

$$$$
50661
                    3D
 Schrodinger Suite 2021-1.
 35 37  0  0  1  0            999 V2000
   18.3956   45.7335   14.8357 C   0  0  0  0  0  0
   17.9963   47.2011   14.6106 C   0  0  2  0  0  0
   19.0264   47.9939   13.8713 C   0  0  0  0  0  0
   19.3937   48.0851   12.5305 C   0  0  0  0  0  0
   20.3397   49.0480   12.1512 C   0  0  0  0  0  0
   20.9315   49.8997   13.1037 C   0  0  0  0  0  0
   20.5952   49.7422   14.4559 C   0  0  0  0  0  0
   19.6435   48.7998   14.8036 C   0  0  0  0  0  0
   19.1026   48.6733   16.0512 O   0  0  0  0  0  0
   17.9945   47.9197   15.9603 C   0  0  0  0  0  0
   17.1600   47.8733   16.8609 O   0  0  0  0  0  0
   21.8542   51.0369   12.6443 C   0  0  0  0  0  0
   22.1537   52.1277   13.7124 C   0  0  0  0  0  0
   23.0625   53.2477   13.1821 C   0  0  0  0  0  0
   24.3409   52.6818   12.5501 C   0  0  0  0  0  0
   24.0165   51.6800   11.4255 C   0  0  0  0  0  0
   23.1186   50.5263   11.9140 C   0  0  0  0  0  0
   19.3228   45.6324   15.4001 H   0  0  0  0  0  0
   18.5251   45.2160   13.8861 H   0  0  0  0  0  0
   17.6142   45.1890   15.3637 H   0  0  0  0  0  0
   17.0098   47.2782   14.1509 H   0  0  0  0  0  0
   18.9234   47.4684   11.7781 H   0  0  0  0  0  0
   20.5802   49.1576   11.1031 H   0  0  0  0  0  0
   21.0018   50.3805   15.2249 H   0  0  0  0  0  0
   21.2665   51.4975   11.8474 H   0  0  0  0  0  0
   21.2237   52.5941   14.0425 H   0  0  0  0  0  0
   22.6493   51.6868   14.5785 H   0  0  0  0  0  0
   22.5230   53.8456   12.4519 H   0  0  0  0  0  0
   23.3193   53.9364   13.9881 H   0  0  0  0  0  0
   24.9599   53.4938   12.1709 H   0  0  0  0  0  0
   24.9280   52.1999   13.3295 H   0  0  0  0  0  0
   23.5271   52.2032   10.6032 H   0  0  0  0  0  0
   24.9323   51.2709   11.0048 H   0  0  0  0  0  0
   23.6925   49.8771   12.5760 H   0  0  0  0  0  0
   22.8382   49.9455   11.0359 H   0  0  0  0  0  0
  1  2  1  0  0  0
  1 18  1  0  0  0
  1 19  1  0  0  0
  1 20  1  0  0  0
  2 10  1  0  0  0
  2  3  1  0  0  0
  2 21  1  0  0  0
  3  8  2  0  0  0
  3  4  1  0  0  0
  4  5  2  0  0  0
  4 22  1  0  0  0
  5  6  1  0  0  0
  5 23  1  0  0  0
  6  7  2  0  0  0
  6 12  1  0  0  0
  7  8  1  0  0  0
  7 24  1  0  0  0
  8  9  1  0  0  0
  9 10  1  0  0  0
 10 11  2  0  0  0
 12 17  1  0  0  0
 12 13  1  0  0  0
 12 25  1  0  0  0
 13 14  1  0  0  0
 13 26  1  0  0  0
 13 27  1  0  0  0
 14 15  1  0  0  0
 14 28  1  0  0  0
 14 29  1  0  0  0
 15 16  1  0  0  0
 15 30  1  0  0  0
 15 31  1  0  0  0
 16 17  1  0  0  0
 16 32  1  0  0  0
 16 33  1  0  0  0
 17 34  1  0  0  0
 17 35  1  0  0  0
M  END
> <s_m_entry_id>
6024

> <s_m_entry_name>
ligand_docking-pose.123

> <s_m_Source_Path>
/home/csk/Desktop/cluster/DUD-E-result/pgh1

> <s_m_Source_File>
ligand_docking-pose.sdf

> <i_m_Source_File_Index>
123

> <i_lp_mmshare_version>
53161

> <i_f3d_flags>
0

> <r_lp_tautomer_probability>
1

> <s_lp_Force_Field>
OPLS_2005

> <r_lp_Energy>
25.975542

> <b_lp_Chiralities_Consistent>
1

> <s_lp_Variant>
50661-1

> <s_i_glide_gridfile>
glide-grid_2oyu

> <i_i_glide_lignum>
153

> <i_i_glide_rotatable_bonds>
1

> <r_i_docking_score>
-8.13612761626564

> <r_i_glide_ligand_efficiency>
-0.478595742133273

> <r_i_glide_ligand_efficiency_sa>
-1.23060441995251

> <r_i_glide_ligand_efficiency_ln>
-2.12253451242977

> <r_i_glide_gscore>
-8.13612761626564

> <r_i_glide_lipo>
-3.82506150543856

> <r_i_glide_hbond>
0

> <r_i_glide_metal>
0

> <r_i_glide_rewards>
-3.05738345415312

> <r_i_glide_evdw>
-30.543794631958

> <r_i_glide_ecoul>
-0.323783457279205

> <r_i_glide_erotb>
0.322074593515818

> <r_i_glide_esite>
0

> <r_i_glide_emodel>
-37.9235418567841

> <r_i_glide_energy>
-30.8675780892372

> <r_i_glide_einternal>
2.2762348651886

> <i_i_glide_confnum>
1

> <i_i_glide_posenum>
133

> <r_i_glide_eff_state_penalty>
0

> <s_user_duplicate_titles>
50661

> <s_m_subgroup_title>
dock_pv

> <s_m_subgroupid>
dock_pv1

> <b_m_subgroup_collapsed>
0

$$$$
563960
                    3D
 Schrodinger Suite 2021-1.
 38 39  0  0  1  0            999 V2000
   21.2053   55.8267   16.1994 C   0  0  0  0  0  0
   21.5511   54.5846   15.4051 C   0  0  0  0  0  0
   22.3025   54.5489   14.2884 C   0  0  0  0  0  0
   22.6346   53.3327   13.5184 C   0  0  0  0  0  0
   21.7245   52.2707   13.4378 C   0  0  0  0  0  0
   22.0123   51.1245   12.6903 C   0  0  0  0  0  0
   23.2318   51.0505   12.0123 C   0  0  0  0  0  0
   24.1578   52.0835   12.1082 C   0  0  0  0  0  0
   23.8799   53.2049   12.8841 C   0  0  0  0  0  0
   24.8595   54.1583   13.0132 O   0  0  0  0  0  0
   21.0359   50.0063   12.6220 C   0  0  0  0  0  0
   20.5227   49.4613   13.8084 C   0  0  0  0  0  0
   19.6111   48.4017   13.7789 C   0  0  0  0  0  0
   19.2262   47.8722   12.5457 C   0  0  0  0  0  0
   19.7232   48.4010   11.3609 C   0  0  0  0  0  0
   20.6077   49.4739   11.3942 C   0  0  0  0  0  0
   21.0270   49.9975   10.1993 O   0  0  0  0  0  0
   19.0542   47.8183   15.0718 C   0  0  0  0  0  0
   17.5513   47.5858   15.0362 C   0  0  0  0  0  0
   16.9692   46.3770   15.0000 C   0  0  0  0  0  0
   20.1232   55.9783   16.1991 H   0  0  0  0  0  0
   21.6849   56.7173   15.7977 H   0  0  0  0  0  0
   21.5345   55.7092   17.2319 H   0  0  0  0  0  0
   21.1593   53.6599   15.8005 H   0  0  0  0  0  0
   22.6918   55.4726   13.8984 H   0  0  0  0  0  0
   20.7714   52.3458   13.9415 H   0  0  0  0  0  0
   23.4727   50.1834   11.4120 H   0  0  0  0  0  0
   25.1017   52.0014   11.5940 H   0  0  0  0  0  0
   24.5859   54.8829   13.5820 H   0  0  0  0  0  0
   20.8376   49.8639   14.7593 H   0  0  0  0  0  0
   18.5239   47.0533   12.4975 H   0  0  0  0  0  0
   19.3932   47.9843   10.4206 H   0  0  0  0  0  0
   20.5762   49.6093    9.4444 H   0  0  0  0  0  0
   19.5713   46.8779   15.2720 H   0  0  0  0  0  0
   19.2739   48.4730   15.9160 H   0  0  0  0  0  0
   16.9281   48.4704   15.0360 H   0  0  0  0  0  0
   15.8950   46.2719   14.9698 H   0  0  0  0  0  0
   17.5597   45.4723   15.0000 H   0  0  0  0  0  0
  1  2  1  0  0  0
  1 21  1  0  0  0
  1 22  1  0  0  0
  1 23  1  0  0  0
  2  3  2  0  0  0
  2 24  1  0  0  0
  3  4  1  0  0  0
  3 25  1  0  0  0
  4  9  1  0  0  0
  4  5  2  0  0  0
  5  6  1  0  0  0
  5 26  1  0  0  0
  6  7  2  0  0  0
  6 11  1  0  0  0
  7  8  1  0  0  0
  7 27  1  0  0  0
  8  9  2  0  0  0
  8 28  1  0  0  0
  9 10  1  0  0  0
 10 29  1  0  0  0
 11 16  1  0  0  0
 11 12  2  0  0  0
 12 13  1  0  0  0
 12 30  1  0  0  0
 13 14  2  0  0  0
 13 18  1  0  0  0
 14 15  1  0  0  0
 14 31  1  0  0  0
 15 16  2  0  0  0
 15 32  1  0  0  0
 16 17  1  0  0  0
 17 33  1  0  0  0
 18 19  1  0  0  0
 18 34  1  0  0  0
 18 35  1  0  0  0
 19 20  2  0  0  0
 19 36  1  0  0  0
 20 37  1  0  0  0
 20 38  1  0  0  0
M  END
> <s_m_entry_id>
6025

> <s_m_entry_name>
ligand_docking-pose.124

> <s_m_Source_Path>
/home/csk/Desktop/cluster/DUD-E-result/pgh1

> <s_m_Source_File>
ligand_docking-pose.sdf

> <i_m_Source_File_Index>
124

> <i_lp_mmshare_version>
53161

> <i_f3d_flags>
0

> <r_lp_tautomer_probability>
0.999999999997365

> <s_lp_Force_Field>
OPLS_2005

> <r_lp_Energy>
18.149315

> <b_lp_Chiralities_Consistent>
1

> <s_lp_Variant>
563960-1

> <s_i_glide_gridfile>
glide-grid_2oyu

> <i_i_glide_lignum>
388

> <i_i_glide_rotatable_bonds>
6

> <r_i_docking_score>
-8.10473291782537

> <r_i_glide_ligand_efficiency>
-0.405236645891269

> <r_i_glide_ligand_efficiency_sa>
-1.09998148939867

> <r_i_glide_ligand_efficiency_ln>
-2.02834733734967

> <r_i_glide_gscore>
-8.10473291782537

> <r_i_glide_lipo>
-4.54542714985708

> <r_i_glide_hbond>
0

> <r_i_glide_metal>
0

> <r_i_glide_rewards>
-2.49317509090909

> <r_i_glide_evdw>
-37.1379852294922

> <r_i_glide_ecoul>
-1.4244350194931

> <r_i_glide_erotb>
1.00443383733938

> <r_i_glide_esite>
0

> <r_i_glide_emodel>
-55.7414573906929

> <r_i_glide_energy>
-38.5624202489853

> <r_i_glide_einternal>
2.1322193145752

> <i_i_glide_confnum>
97

> <i_i_glide_posenum>
156

> <r_i_glide_eff_state_penalty>
0

> <s_user_duplicate_titles>
563960

> <s_m_subgroup_title>
dock_pv

> <s_m_subgroupid>
dock_pv1

> <b_m_subgroup_collapsed>
0

$$$$
5032
                    3D
 Schrodinger Suite 2021-1.
 26 28  0  0  1  0            999 V2000
   24.9223   52.2731   11.3954 C   0  0  0  0  0  0
   24.7903   53.1177   12.5043 C   0  0  0  0  0  0
   23.7289   52.9483   13.3947 C   0  0  0  0  0  0
   22.8648   51.8736   13.2027 C   0  0  0  0  0  0
   22.9982   51.0451   12.1282 C   0  0  0  0  0  0
   24.0052   51.2436   11.1849 C   0  0  0  0  0  0
   21.9259   50.0297   12.2093 C   0  0  0  0  0  0
   21.6984   49.1371   11.4000 O   0  0  0  0  0  0
   21.2519   50.2752   13.3719 N   0  0  0  0  0  0
   21.7027   51.4117   13.9945 C   0  0  0  0  0  0
   21.2530   51.9522   15.0041 O   0  0  0  0  0  0
   20.1985   49.4729   13.8182 C   0  0  0  0  0  0
   19.2123   49.0576   12.9810 C   0  0  0  0  0  0
   18.1613   48.2729   13.3655 N   0  0  0  0  0  0
   18.0378   47.8143   14.6405 C   0  0  0  0  0  0
   19.0360   48.2301   15.4759 N   0  0  0  0  0  0
   20.1228   49.0108   15.2126 C   0  0  0  0  0  0
   20.9230   49.2662   16.1008 O   0  0  0  0  0  0
   17.1300   47.0728   15.0002 O   0  0  0  0  0  0
   25.7286   52.4212   10.6908 H   0  0  0  0  0  0
   25.4856   53.9324   12.6471 H   0  0  0  0  0  0
   23.5907   53.6488   14.2000 H   0  0  0  0  0  0
   24.1034   50.6257   10.3071 H   0  0  0  0  0  0
   19.1507   49.3153   11.9328 H   0  0  0  0  0  0
   17.4211   48.0094   12.7299 H   0  0  0  0  0  0
   18.9620   47.9070   16.4275 H   0  0  0  0  0  0
  1  6  1  0  0  0
  1  2  2  0  0  0
  1 20  1  0  0  0
  2  3  1  0  0  0
  2 21  1  0  0  0
  3  4  2  0  0  0
  3 22  1  0  0  0
  4 10  1  0  0  0
  4  5  1  0  0  0
  5  6  2  0  0  0
  5  7  1  0  0  0
  6 23  1  0  0  0
  7  8  2  0  0  0
  7  9  1  0  0  0
  9 10  1  0  0  0
  9 12  1  0  0  0
 10 11  2  0  0  0
 12 17  1  0  0  0
 12 13  2  0  0  0
 13 24  1  0  0  0
 13 14  1  0  0  0
 14 15  1  0  0  0
 14 25  1  0  0  0
 15 19  2  0  0  0
 15 16  1  0  0  0
 16 26  1  0  0  0
 16 17  1  0  0  0
 17 18  2  0  0  0
M  END
> <s_m_entry_id>
6026

> <s_m_entry_name>
ligand_docking-pose.125

> <s_m_Source_Path>
/home/csk/Desktop/cluster/DUD-E-result/pgh1

> <s_m_Source_File>
ligand_docking-pose.sdf

> <i_m_Source_File_Index>
125

> <i_lp_mmshare_version>
53161

> <i_f3d_flags>
0

> <r_lp_tautomer_probability>
0.999513966058628

> <s_lp_Force_Field>
OPLS_2005

> <r_lp_Energy>
37.661994

> <b_lp_Chiralities_Consistent>
1

> <s_lp_Variant>
5032-1

> <s_i_glide_gridfile>
glide-grid_2oyu

> <i_i_glide_lignum>
33

> <i_i_glide_rotatable_bonds>
1

> <r_i_docking_score>
-8.09107826480756

> <r_i_glide_ligand_efficiency>
-0.425846224463556

> <r_i_glide_ligand_efficiency_sa>
-1.13632876634528

> <r_i_glide_ligand_efficiency_ln>
-2.05126212055571

> <r_i_glide_gscore>
-8.09107826480756

> <r_i_glide_lipo>
-2.52657269981295

> <r_i_glide_hbond>
0

> <r_i_glide_metal>
0

> <r_i_glide_rewards>
-3.68611870296619

> <r_i_glide_evdw>
-34.876163482666

> <r_i_glide_ecoul>
-2.67501020431519

> <r_i_glide_erotb>
0.266672842752169

> <r_i_glide_esite>
0

> <r_i_glide_emodel>
-54.3544571422802

> <r_i_glide_energy>
-37.5511736869812

> <r_i_glide_einternal>
1.10778486728668

> <i_i_glide_confnum>
2

> <i_i_glide_posenum>
120

> <r_i_glide_eff_state_penalty>
0

> <s_user_duplicate_titles>
5032

> <s_m_subgroup_title>
dock_pv

> <s_m_subgroupid>
dock_pv1

> <b_m_subgroup_collapsed>
0

$$$$
5000
                    3D
 Schrodinger Suite 2021-1.
 34 36  0  0  1  0            999 V2000
   20.5215   47.3454   12.9319 C   0  0  0  0  0  0
   20.0819   48.7522   13.4997 C   0  0  1  0  0  0
   18.6531   48.9112   12.9756 C   0  0  0  0  0  0
   17.5650   48.0406   13.5977 C   0  0  0  0  0  0
   17.7212   47.8019   15.0975 C   0  0  0  0  0  0
   16.8594   47.3068   15.7996 O   0  0  0  0  0  0
   18.9053   48.1140   15.6180 N   0  0  0  0  0  0
   20.0313   48.5812   15.0718 C   0  0  0  0  0  0
   20.9230   48.8527   15.8588 O   0  0  0  0  0  0
   21.0159   49.8796   13.0593 N   0  0  0  0  0  0
   21.5788   49.9375   11.8124 C   0  0  0  0  0  0
   21.2415   49.3136   10.8142 O   0  0  0  0  0  0
   22.6708   50.9340   11.8891 C   0  0  0  0  0  0
   23.6947   51.2705   11.0015 C   0  0  0  0  0  0
   24.5968   52.2730   11.3777 C   0  0  0  0  0  0
   24.4206   52.9700   12.5832 C   0  0  0  0  0  0
   23.3342   52.6669   13.4004 C   0  0  0  0  0  0
   22.5127   51.6029   13.0580 C   0  0  0  0  0  0
   21.4073   50.9724   13.8024 C   0  0  0  0  0  0
   20.9690   51.3745   14.8805 O   0  0  0  0  0  0
   25.3230   53.9460   12.9998 N   0  0  0  0  0  0
   19.9635   46.5325   13.3969 H   0  0  0  0  0  0
   20.2966   47.2440   11.8705 H   0  0  0  0  0  0
   21.5610   47.0721   13.0000 H   0  0  0  0  0  0
   18.6580   48.6731   11.9098 H   0  0  0  0  0  0
   18.3452   49.9311   12.9819 H   0  0  0  0  0  0
   16.5548   48.3671   13.3454 H   0  0  0  0  0  0
   17.7231   47.0752   13.1535 H   0  0  0  0  0  0
   18.9593   47.9880   16.6163 H   0  0  0  0  0  0
   23.8284   50.7499   10.0642 H   0  0  0  0  0  0
   25.4291   52.5024   10.7286 H   0  0  0  0  0  0
   23.1649   53.2110   14.3124 H   0  0  0  0  0  0
   25.0442   54.5528   13.7593 H   0  0  0  0  0  0
   26.0475   54.2467   12.3647 H   0  0  0  0  0  0
  1  2  1  0  0  0
  1 22  1  0  0  0
  1 23  1  0  0  0
  1 24  1  0  0  0
  2  8  1  0  0  0
  2  3  1  0  0  0
  2 10  1  0  0  0
  3  4  1  0  0  0
  3 25  1  0  0  0
  3 26  1  0  0  0
  4  5  1  0  0  0
  4 27  1  0  0  0
  4 28  1  0  0  0
  5  6  2  0  0  0
  5  7  1  0  0  0
  7  8  1  0  0  0
  7 29  1  0  0  0
  8  9  2  0  0  0
 10 19  1  0  0  0
 10 11  1  0  0  0
 11 12  2  0  0  0
 11 13  1  0  0  0
 13 18  2  0  0  0
 13 14  1  0  0  0
 14 15  2  0  0  0
 14 30  1  0  0  0
 15 16  1  0  0  0
 15 31  1  0  0  0
 16 17  2  0  0  0
 16 21  1  0  0  0
 17 18  1  0  0  0
 17 32  1  0  0  0
 18 19  1  0  0  0
 19 20  2  0  0  0
 21 33  1  0  0  0
 21 34  1  0  0  0
M  END
> <s_m_entry_id>
6027

> <s_m_entry_name>
ligand_docking-pose.126

> <s_m_Source_Path>
/home/csk/Desktop/cluster/DUD-E-result/pgh1

> <s_m_Source_File>
ligand_docking-pose.sdf

> <i_m_Source_File_Index>
126

> <i_lp_mmshare_version>
53161

> <i_f3d_flags>
0

> <r_lp_tautomer_probability>
0.99995

> <s_lp_Force_Field>
OPLS_2005

> <r_lp_Energy>
40.354174

> <b_lp_Chiralities_Consistent>
1

> <s_lp_Variant>
5000-1

> <s_i_glide_gridfile>
glide-grid_2oyu

> <i_i_glide_lignum>
267

> <i_i_glide_rotatable_bonds>
1

> <r_i_docking_score>
-8.06851229760885

> <r_i_glide_ligand_efficiency>
-0.384214871314707

> <r_i_glide_ligand_efficiency_sa>
-1.06001969631956

> <r_i_glide_ligand_efficiency_ln>
-1.99492336161954

> <r_i_glide_gscore>
-8.06851229760885

> <r_i_glide_lipo>
-2.65234470669807

> <r_i_glide_hbond>
0

> <r_i_glide_metal>
0

> <r_i_glide_rewards>
-3.85060494831922

> <r_i_glide_evdw>
-27.4968528747559

> <r_i_glide_ecoul>
-2.73961114883423

> <r_i_glide_erotb>
0.22022167347137

> <r_i_glide_esite>
0

> <r_i_glide_emodel>
-29.1866621032277

> <r_i_glide_energy>
-30.2364640235901

> <r_i_glide_einternal>
4.42734289169312

> <i_i_glide_confnum>
8

> <i_i_glide_posenum>
109

> <r_i_glide_eff_state_penalty>
0

> <s_user_duplicate_titles>
5000

> <s_m_subgroup_title>
dock_pv

> <s_m_subgroupid>
dock_pv1

> <b_m_subgroup_collapsed>
0

$$$$
50657
                    3D
 Schrodinger Suite 2021-1.
 32 34  0  0  1  0            999 V2000
   20.2140   49.0624   12.1898 C   0  0  0  0  0  0
   19.1101   48.2717   12.5437 C   0  0  0  0  0  0
   18.7457   48.1638   13.8854 C   0  0  0  0  0  0
   19.5105   48.7900   14.8432 C   0  0  0  0  0  0
   20.6245   49.5535   14.5216 C   0  0  0  0  0  0
   20.9809   49.7187   13.1735 C   0  0  0  0  0  0
   22.2444   50.5367   12.8385 C   0  0  0  0  0  0
   22.7235   50.5342   11.3706 C   0  0  0  0  0  0
   24.1135   51.2026   11.2356 C   0  0  0  0  0  0
   24.1110   52.6355   11.7951 C   0  0  0  0  0  0
   23.5852   52.6993   13.2398 C   0  0  0  0  0  0
   22.2404   51.9665   13.4436 C   0  0  0  0  0  0
   18.9862   48.6666   16.0992 O   0  0  0  0  0  0
   17.8079   48.0130   16.0230 C   0  0  0  0  0  0
   17.0718   47.8734   16.9960 O   0  0  0  0  0  0
   17.5964   47.5219   14.5988 C   0  0  0  0  0  0
   20.4681   49.1496   11.1443 H   0  0  0  0  0  0
   18.5313   47.7850   11.7717 H   0  0  0  0  0  0
   21.1931   50.0308   15.3040 H   0  0  0  0  0  0
   23.0091   50.0089   13.4010 H   0  0  0  0  0  0
   22.8029   49.5071   11.0211 H   0  0  0  0  0  0
   22.0018   51.0504   10.7344 H   0  0  0  0  0  0
   24.8541   50.5985   11.7612 H   0  0  0  0  0  0
   24.4228   51.2172   10.1893 H   0  0  0  0  0  0
   25.1102   53.0719   11.7510 H   0  0  0  0  0  0
   23.4824   53.2521   11.1549 H   0  0  0  0  0  0
   24.3357   52.2697   13.9031 H   0  0  0  0  0  0
   23.4860   53.7409   13.5499 H   0  0  0  0  0  0
   21.4377   52.5539   13.0006 H   0  0  0  0  0  0
   22.0690   51.9352   14.5198 H   0  0  0  0  0  0
   17.6307   46.4351   14.5891 H   0  0  0  0  0  0
   16.6253   47.8474   14.2277 H   0  0  0  0  0  0
  1  6  1  0  0  0
  1  2  2  0  0  0
  1 17  1  0  0  0
  2  3  1  0  0  0
  2 18  1  0  0  0
  3 16  1  0  0  0
  3  4  2  0  0  0
  4  5  1  0  0  0
  4 13  1  0  0  0
  5  6  2  0  0  0
  5 19  1  0  0  0
  6  7  1  0  0  0
  7 12  1  0  0  0
  7  8  1  0  0  0
  7 20  1  0  0  0
  8  9  1  0  0  0
  8 21  1  0  0  0
  8 22  1  0  0  0
  9 10  1  0  0  0
  9 23  1  0  0  0
  9 24  1  0  0  0
 10 11  1  0  0  0
 10 25  1  0  0  0
 10 26  1  0  0  0
 11 12  1  0  0  0
 11 27  1  0  0  0
 11 28  1  0  0  0
 12 29  1  0  0  0
 12 30  1  0  0  0
 13 14  1  0  0  0
 14 15  2  0  0  0
 14 16  1  0  0  0
 16 31  1  0  0  0
 16 32  1  0  0  0
M  END
> <s_m_entry_id>
6029

> <s_m_entry_name>
ligand_docking-pose.128

> <s_m_Source_Path>
/home/csk/Desktop/cluster/DUD-E-result/pgh1

> <s_m_Source_File>
ligand_docking-pose.sdf

> <i_m_Source_File_Index>
128

> <i_lp_mmshare_version>
53161

> <i_f3d_flags>
0

> <r_lp_tautomer_probability>
1

> <s_lp_Force_Field>
OPLS_2005

> <r_lp_Energy>
24.763792

> <b_lp_Chiralities_Consistent>
1

> <s_lp_Variant>
50657-1

> <s_i_glide_gridfile>
glide-grid_2oyu

> <i_i_glide_lignum>
8

> <i_i_glide_rotatable_bonds>
1

> <r_i_docking_score>
-8.04517110194017

> <r_i_glide_ligand_efficiency>
-0.50282319387126

> <r_i_glide_ligand_efficiency_sa>
-1.26703505149655

> <r_i_glide_ligand_efficiency_ln>
-2.13253330650995

> <r_i_glide_gscore>
-8.04517110194017

> <r_i_glide_lipo>
-3.7650282506397

> <r_i_glide_hbond>
0

> <r_i_glide_metal>
0

> <r_i_glide_rewards>
-3.03998377634313

> <r_i_glide_evdw>
-31.1332149505615

> <r_i_glide_ecoul>
-0.277808248996735

> <r_i_glide_erotb>
0.358172909920248

> <r_i_glide_esite>
0

> <r_i_glide_emodel>
-44.0559588762003

> <r_i_glide_energy>
-31.4110231995583

> <r_i_glide_einternal>
2.64614009857178

> <i_i_glide_confnum>
4

> <i_i_glide_posenum>
198

> <r_i_glide_eff_state_penalty>
0

> <s_user_duplicate_titles>
50657

> <s_m_subgroup_title>
dock_pv

> <s_m_subgroupid>
dock_pv1

> <b_m_subgroup_collapsed>
0

$$$$
234906
                    3D
 Schrodinger Suite 2021-1.
 37 40  0  0  1  0            999 V2000
   17.0038   47.4729   15.8640 C   0  0  0  0  0  0
   18.1230   47.9453   16.5224 C   0  0  0  0  0  0
   19.1811   48.4973   15.7943 C   0  0  0  0  0  0
   19.1023   48.5629   14.3976 C   0  0  0  0  0  0
   17.9878   48.0255   13.7547 C   0  0  0  0  0  0
   16.9495   47.4779   14.4834 C   0  0  0  0  0  0
   20.1218   49.2477   13.5527 C   0  0  0  0  0  0
   20.3395   49.1928   12.1788 C   0  0  0  0  0  0
   21.3471   50.0936   11.8628 C   0  0  0  0  0  0
   21.7050   50.7901   12.9981 C   0  0  0  0  0  0
   20.9674   50.2336   14.0184 N   0  0  0  0  0  0
   22.6007   51.9631   13.1373 C   0  0  0  0  0  0
   22.1121   53.1261   13.7351 C   0  0  0  0  0  0
   22.9112   54.2620   13.7999 C   0  0  0  0  0  0
   24.2282   54.2039   13.3521 C   0  0  0  0  0  0
   24.7129   53.0590   12.7260 C   0  0  0  0  0  0
   23.8889   51.9417   12.5985 C   0  0  0  0  0  0
   21.6439   50.0748   10.3982 C   0  0  0  0  0  0
   20.3680   49.4500    9.8321 C   0  0  0  0  0  0
   19.8128   48.5269   10.9258 C   0  0  0  0  0  0
   20.9912   50.5570   14.9740 H   0  0  0  0  0  0
   16.1938   47.0606   16.4435 H   0  0  0  0  0  0
   18.1283   47.8726   17.5977 H   0  0  0  0  0  0
   20.0400   48.8932   16.3159 H   0  0  0  0  0  0
   17.8817   48.0460   12.6858 H   0  0  0  0  0  0
   16.1181   47.0722   13.9490 H   0  0  0  0  0  0
   21.1026   53.1625   14.1167 H   0  0  0  0  0  0
   22.5345   55.1661   14.2559 H   0  0  0  0  0  0
   24.8620   55.0734   13.4387 H   0  0  0  0  0  0
   25.7204   53.0417   12.3368 H   0  0  0  0  0  0
   24.2581   51.0549   12.1032 H   0  0  0  0  0  0
   21.8110   51.0729   10.0020 H   0  0  0  0  0  0
   22.5192   49.4730   10.1628 H   0  0  0  0  0  0
   19.6547   50.2531    9.6372 H   0  0  0  0  0  0
   20.5242   48.9321    8.8862 H   0  0  0  0  0  0
   20.1231   47.4920   10.8128 H   0  0  0  0  0  0
   18.7388   48.4883   10.8454 H   0  0  0  0  0  0
  1  6  1  0  0  0
  1  2  2  0  0  0
  1 22  1  0  0  0
  2  3  1  0  0  0
  2 23  1  0  0  0
  3  4  2  0  0  0
  3 24  1  0  0  0
  4  5  1  0  0  0
  4  7  1  0  0  0
  5  6  2  0  0  0
  5 25  1  0  0  0
  6 26  1  0  0  0
  7 11  1  0  0  0
  7  8  2  0  0  0
  8 20  1  0  0  0
  8  9  1  0  0  0
  9 10  2  0  0  0
  9 18  1  0  0  0
 10 11  1  0  0  0
 10 12  1  0  0  0
 11 21  1  0  0  0
 12 17  1  0  0  0
 12 13  2  0  0  0
 13 14  1  0  0  0
 13 27  1  0  0  0
 14 15  2  0  0  0
 14 28  1  0  0  0
 15 16  1  0  0  0
 15 29  1  0  0  0
 16 17  2  0  0  0
 16 30  1  0  0  0
 17 31  1  0  0  0
 18 19  1  0  0  0
 18 32  1  0  0  0
 18 33  1  0  0  0
 19 20  1  0  0  0
 19 34  1  0  0  0
 19 35  1  0  0  0
 20 36  1  0  0  0
 20 37  1  0  0  0
M  END
> <s_m_entry_id>
6032

> <s_m_entry_name>
ligand_docking-pose.131

> <s_m_Source_Path>
/home/csk/Desktop/cluster/DUD-E-result/pgh1

> <s_m_Source_File>
ligand_docking-pose.sdf

> <i_m_Source_File_Index>
131

> <i_lp_mmshare_version>
53161

> <i_f3d_flags>
0

> <r_lp_tautomer_probability>
1

> <s_lp_Force_Field>
OPLS_2005

> <r_lp_Energy>
32.25015

> <b_lp_Chiralities_Consistent>
1

> <s_lp_Variant>
234906-1

> <s_i_glide_gridfile>
glide-grid_2oyu

> <i_i_glide_lignum>
58

> <i_i_glide_rotatable_bonds>
2

> <r_i_docking_score>
-7.99096872380047

> <r_i_glide_ligand_efficiency>
-0.399548436190024

> <r_i_glide_ligand_efficiency_sa>
-1.08454131279415

> <r_i_glide_ligand_efficiency_ln>
-1.99987591177948

> <r_i_glide_gscore>
-7.99096872380047

> <r_i_glide_lipo>
-4.70621725383113

> <r_i_glide_hbond>
0

> <r_i_glide_metal>
0

> <r_i_glide_rewards>
-2.52858020054679

> <r_i_glide_evdw>
-26.8381175994873

> <r_i_glide_ecoul>
0.399676501750946

> <r_i_glide_erotb>
0.525783135289171

> <r_i_glide_esite>
0

> <r_i_glide_emodel>
-36.518076617943

> <r_i_glide_energy>
-26.4384410977364

> <r_i_glide_einternal>
1.8112485408783

> <i_i_glide_confnum>
1

> <i_i_glide_posenum>
74

> <r_i_glide_eff_state_penalty>
0

> <s_user_duplicate_titles>
234906

> <s_m_subgroup_title>
dock_pv

> <s_m_subgroupid>
dock_pv1

> <b_m_subgroup_collapsed>
0

$$$$
391208
                    3D
 Schrodinger Suite 2021-1.
 39 41  0  0  1  0            999 V2000
   20.2139   50.9362   16.5998 C   0  0  0  0  0  0
   20.9230   49.4743   15.7997 S   0  0  0  0  0  0
   20.1221   49.2477   14.2545 C   0  0  0  0  0  0
   19.1079   48.4261   14.1506 N   0  0  0  0  0  0
   18.9156   48.2759   12.8622 C   0  0  0  0  0  0
   19.8007   49.0177   12.0921 C   0  0  0  0  0  0
   20.5803   49.6935   13.0199 N   0  0  0  0  0  0
   21.6716   50.5589   12.7630 C   0  0  0  0  0  0
   22.6821   50.1576   11.8844 C   0  0  0  0  0  0
   23.7458   51.0113   11.6110 C   0  0  0  0  0  0
   23.8081   52.2593   12.2265 C   0  0  0  0  0  0
   22.8085   52.6651   13.1077 C   0  0  0  0  0  0
   21.7340   51.8182   13.3694 C   0  0  0  0  0  0
   19.9085   49.0633   10.6014 C   0  0  0  0  0  0
   19.7229   47.8742    9.8933 C   0  0  0  0  0  0
   19.7232   47.8441    8.5001 C   0  0  0  0  0  0
   19.9278   49.0264    7.7968 C   0  0  0  0  0  0
   20.1230   50.2213    8.5026 C   0  0  0  0  0  0
   20.1237   50.2444    9.8949 C   0  0  0  0  0  0
   19.8779   49.0607    6.0078 S   0  0  0  0  0  0
   20.5498   50.2729    5.6064 O   0  0  0  0  0  0
   20.3855   47.8249    5.4643 O   0  0  0  0  0  0
   18.1040   49.0726    5.4878 C   0  0  0  0  0  0
   20.8686   51.2445   17.4133 H   0  0  0  0  0  0
   20.1235   51.7846   15.9278 H   0  0  0  0  0  0
   19.2421   50.6964   17.0219 H   0  0  0  0  0  0
   18.1379   47.6265   12.4858 H   0  0  0  0  0  0
   22.6426   49.1875   11.4105 H   0  0  0  0  0  0
   24.5224   50.6968   10.9285 H   0  0  0  0  0  0
   24.6389   52.9174   12.0186 H   0  0  0  0  0  0
   22.8614   53.6363   13.5790 H   0  0  0  0  0  0
   20.9471   52.1592   14.0204 H   0  0  0  0  0  0
   19.5729   46.9632   10.4407 H   0  0  0  0  0  0
   19.5634   46.9158    7.9740 H   0  0  0  0  0  0
   20.2359   51.1509    7.9628 H   0  0  0  0  0  0
   20.2491   51.1824   10.4153 H   0  0  0  0  0  0
   18.0651   49.0733    4.3994 H   0  0  0  0  0  0
   17.7109   48.1259    5.8312 H   0  0  0  0  0  0
   17.5802   49.9226    5.9164 H   0  0  0  0  0  0
  1  2  1  0  0  0
  1 24  1  0  0  0
  1 25  1  0  0  0
  1 26  1  0  0  0
  2  3  1  0  0  0
  3  7  1  0  0  0
  3  4  2  0  0  0
  4  5  1  0  0  0
  5  6  2  0  0  0
  5 27  1  0  0  0
  6  7  1  0  0  0
  6 14  1  0  0  0
  7  8  1  0  0  0
  8 13  1  0  0  0
  8  9  2  0  0  0
  9 10  1  0  0  0
  9 28  1  0  0  0
 10 11  2  0  0  0
 10 29  1  0  0  0
 11 12  1  0  0  0
 11 30  1  0  0  0
 12 13  2  0  0  0
 12 31  1  0  0  0
 13 32  1  0  0  0
 14 19  1  0  0  0
 14 15  2  0  0  0
 15 16  1  0  0  0
 15 33  1  0  0  0
 16 17  2  0  0  0
 16 34  1  0  0  0
 17 18  1  0  0  0
 17 20  1  0  0  0
 18 19  2  0  0  0
 18 35  1  0  0  0
 19 36  1  0  0  0
 20 21  2  0  0  0
 20 22  2  0  0  0
 20 23  1  0  0  0
 23 37  1  0  0  0
 23 38  1  0  0  0
 23 39  1  0  0  0
M  END
> <s_m_entry_id>
6034

> <s_m_entry_name>
ligand_docking-pose.133

> <s_m_Source_Path>
/home/csk/Desktop/cluster/DUD-E-result/pgh1

> <s_m_Source_File>
ligand_docking-pose.sdf

> <i_m_Source_File_Index>
133

> <i_lp_mmshare_version>
53161

> <i_f3d_flags>
0

> <r_lp_tautomer_probability>
1

> <s_lp_Force_Field>
OPLS_2005

> <r_lp_Energy>
13.112098

> <b_lp_Chiralities_Consistent>
1

> <s_lp_Variant>
391208-1

> <s_i_glide_gridfile>
glide-grid_2oyu

> <i_i_glide_lignum>
628

> <i_i_glide_rotatable_bonds>
4

> <r_i_docking_score>
-7.96896487913848

> <r_i_glide_ligand_efficiency>
-0.346476733875586

> <r_i_glide_ligand_efficiency_sa>
-0.985333741725761

> <r_i_glide_ligand_efficiency_ln>
-1.92696796635418

> <r_i_glide_gscore>
-7.96896487913848

> <r_i_glide_lipo>
-4.27433185716191

> <r_i_glide_hbond>
0

> <r_i_glide_metal>
0

> <r_i_glide_rewards>
-2.46982440761533

> <r_i_glide_evdw>
-19.075325012207

> <r_i_glide_ecoul>
-3.79553651809692

> <r_i_glide_erotb>
0.320066302780551

> <r_i_glide_esite>
-0.021778188816899

> <r_i_glide_emodel>
-20.8094999328165

> <r_i_glide_energy>
-22.870861530304

> <r_i_glide_einternal>
4.21930694580078

> <i_i_glide_confnum>
11

> <i_i_glide_posenum>
133

> <r_i_glide_eff_state_penalty>
0

> <s_user_duplicate_titles>
391208

> <s_m_subgroup_title>
dock_pv

> <s_m_subgroupid>
dock_pv1

> <b_m_subgroup_collapsed>
0

$$$$
563945
                    3D
 Schrodinger Suite 2021-1.
 41 42  0  0  1  0            999 V2000
   21.1709   55.9875   16.2624 C   0  0  0  0  0  0
   21.4012   54.6673   15.5591 C   0  0  0  0  0  0
   22.1217   54.5428   14.4309 C   0  0  0  0  0  0
   22.4322   53.2945   13.6939 C   0  0  0  0  0  0
   21.5598   52.2010   13.6887 C   0  0  0  0  0  0
   21.8570   51.0383   12.9642 C   0  0  0  0  0  0
   23.0671   50.9738   12.2695 C   0  0  0  0  0  0
   23.9596   52.0358   12.2919 C   0  0  0  0  0  0
   23.6556   53.1981   13.0139 C   0  0  0  0  0  0
   24.5163   54.2723   13.1128 O   0  0  0  0  0  0
   25.9011   54.0297   12.9997 C   0  0  0  0  0  0
   20.9143   49.8914   12.9082 C   0  0  0  0  0  0
   20.4410   49.3234   14.0984 C   0  0  0  0  0  0
   19.5764   48.2278   14.0775 C   0  0  0  0  0  0
   19.1915   47.6795   12.8557 C   0  0  0  0  0  0
   19.6469   48.2319   11.6618 C   0  0  0  0  0  0
   20.4927   49.3375   11.6821 C   0  0  0  0  0  0
   20.8821   49.8708   10.4807 O   0  0  0  0  0  0
   19.0678   47.6070   15.3703 C   0  0  0  0  0  0
   17.6382   47.9991   15.6985 C   0  0  0  0  0  0
   17.1385   48.0905   16.9401 C   0  0  0  0  0  0
   20.1221   56.2594   16.1984 H   0  0  0  0  0  0
   21.7417   56.7934   15.8016 H   0  0  0  0  0  0
   21.4538   55.9198   17.3120 H   0  0  0  0  0  0
   20.9667   53.7961   16.0285 H   0  0  0  0  0  0
   22.5244   55.4468   13.9937 H   0  0  0  0  0  0
   20.6249   52.2691   14.2218 H   0  0  0  0  0  0
   23.3219   50.0894   11.7074 H   0  0  0  0  0  0
   24.8741   51.9291   11.7344 H   0  0  0  0  0  0
   26.4565   54.9649   13.0798 H   0  0  0  0  0  0
   26.2393   53.3537   13.7871 H   0  0  0  0  0  0
   26.1231   53.5898   12.0328 H   0  0  0  0  0  0
   20.7563   49.7370   15.0466 H   0  0  0  0  0  0
   18.5310   46.8265   12.8229 H   0  0  0  0  0  0
   19.3275   47.7987   10.7252 H   0  0  0  0  0  0
   20.4936   49.4252    9.7251 H   0  0  0  0  0  0
   19.1109   46.5202   15.2849 H   0  0  0  0  0  0
   19.7215   47.8749   16.1985 H   0  0  0  0  0  0
   16.9883   48.2052   14.8585 H   0  0  0  0  0  0
   16.1146   48.3821   17.1074 H   0  0  0  0  0  0
   17.7290   47.8730   17.8141 H   0  0  0  0  0  0
  1  2  1  0  0  0
  1 22  1  0  0  0
  1 23  1  0  0  0
  1 24  1  0  0  0
  2  3  2  0  0  0
  2 25  1  0  0  0
  3  4  1  0  0  0
  3 26  1  0  0  0
  4  9  1  0  0  0
  4  5  2  0  0  0
  5  6  1  0  0  0
  5 27  1  0  0  0
  6  7  2  0  0  0
  6 12  1  0  0  0
  7  8  1  0  0  0
  7 28  1  0  0  0
  8  9  2  0  0  0
  8 29  1  0  0  0
  9 10  1  0  0  0
 10 11  1  0  0  0
 11 30  1  0  0  0
 11 31  1  0  0  0
 11 32  1  0  0  0
 12 17  1  0  0  0
 12 13  2  0  0  0
 13 14  1  0  0  0
 13 33  1  0  0  0
 14 15  2  0  0  0
 14 19  1  0  0  0
 15 16  1  0  0  0
 15 34  1  0  0  0
 16 17  2  0  0  0
 16 35  1  0  0  0
 17 18  1  0  0  0
 18 36  1  0  0  0
 19 20  1  0  0  0
 19 37  1  0  0  0
 19 38  1  0  0  0
 20 21  2  0  0  0
 20 39  1  0  0  0
 21 40  1  0  0  0
 21 41  1  0  0  0
M  END
> <s_m_entry_id>
6035

> <s_m_entry_name>
ligand_docking-pose.134

> <s_m_Source_Path>
/home/csk/Desktop/cluster/DUD-E-result/pgh1

> <s_m_Source_File>
ligand_docking-pose.sdf

> <i_m_Source_File_Index>
134

> <i_lp_mmshare_version>
53161

> <i_f3d_flags>
0

> <r_lp_tautomer_probability>
0.999999999997365

> <s_lp_Force_Field>
OPLS_2005

> <r_lp_Energy>
22.403799

> <b_lp_Chiralities_Consistent>
1

> <s_lp_Variant>
563945-1

> <s_i_glide_gridfile>
glide-grid_2oyu

> <i_i_glide_lignum>
389

> <i_i_glide_rotatable_bonds>
6

> <r_i_docking_score>
-7.96519465592603

> <r_i_glide_ligand_efficiency>
-0.379294983615525

> <r_i_glide_ligand_efficiency_sa>
-1.04644609921498

> <r_i_glide_ligand_efficiency_ln>
-1.96937828348641

> <r_i_glide_gscore>
-7.96519465592603

> <r_i_glide_lipo>
-4.70307689176889

> <r_i_glide_hbond>
0

> <r_i_glide_metal>
0

> <r_i_glide_rewards>
-2.39753931818182

> <r_i_glide_evdw>
-38.7365112304688

> <r_i_glide_ecoul>
1.02168619632721

> <r_i_glide_erotb>
0.918994186099033

> <r_i_glide_esite>
0

> <r_i_glide_emodel>
-51.9315708285227

> <r_i_glide_energy>
-37.7148250341415

> <r_i_glide_einternal>
4.75532913208008

> <i_i_glide_confnum>
133

> <i_i_glide_posenum>
11

> <r_i_glide_eff_state_penalty>
0

> <s_user_duplicate_titles>
563945

> <s_m_subgroup_title>
dock_pv

> <s_m_subgroupid>
dock_pv1

> <b_m_subgroup_collapsed>
0

$$$$
4859
                    3D
 Schrodinger Suite 2021-1.
 38 40  0  0  1  0            999 V2000
   23.2739   55.0008   13.8000 C   0  0  0  0  0  0
   23.2778   53.5497   13.4000 C   0  0  0  0  0  0
   24.2254   53.1666   12.4899 C   0  0  0  0  0  0
   24.1230   51.9488   11.8719 C   0  0  0  0  0  0
   23.2221   50.9892   12.3716 C   0  0  0  0  0  0
   22.2747   51.3229   13.3663 C   0  0  0  0  0  0
   22.3214   52.6440   13.8685 C   0  0  0  0  0  0
   21.3230   53.1966   14.8470 C   0  0  0  0  0  0
   21.2328   50.3960   13.7185 N   0  0  0  0  0  0
   20.9230   49.9656   14.9858 C   0  0  0  0  0  0
   21.3928   50.3392   16.0577 O   0  0  0  0  0  0
   19.8139   48.9962   14.8451 C   0  0  0  0  0  0
   19.0908   48.2779   15.8000 C   0  0  0  0  0  0
   17.9525   47.5823   15.4104 C   0  0  0  0  0  0
   17.5829   47.5728   14.0710 C   0  0  0  0  0  0
   18.3762   48.2056   13.1060 C   0  0  0  0  0  0
   19.4689   48.9543   13.5310 C   0  0  0  0  0  0
   20.3764   49.8595   12.7891 C   0  0  0  0  0  0
   20.3343   50.0954   11.5798 O   0  0  0  0  0  0
   23.3050   49.6076   11.7996 C   0  0  0  0  0  0
   24.9230   51.8193   10.5898 C   0  0  0  0  0  0
   24.2108   55.4730   13.5201 H   0  0  0  0  0  0
   22.4493   55.4758   13.2769 H   0  0  0  0  0  0
   23.1294   55.1476   14.8683 H   0  0  0  0  0  0
   24.9665   53.8823   12.1786 H   0  0  0  0  0  0
   20.5137   52.5205   15.0504 H   0  0  0  0  0  0
   20.9230   54.0890   14.3712 H   0  0  0  0  0  0
   21.7230   53.5191   15.7999 H   0  0  0  0  0  0
   19.3313   48.2730   16.8438 H   0  0  0  0  0  0
   17.3462   47.0737   16.1449 H   0  0  0  0  0  0
   16.6682   47.0730   13.8000 H   0  0  0  0  0  0
   18.1194   48.1541   12.0617 H   0  0  0  0  0  0
   22.7260   48.7907   12.2000 H   0  0  0  0  0  0
   22.9230   49.7144   10.7830 H   0  0  0  0  0  0
   24.3570   49.3373   11.8000 H   0  0  0  0  0  0
   24.6456   50.9549    9.9924 H   0  0  0  0  0  0
   24.7031   52.6730    9.9494 H   0  0  0  0  0  0
   25.9942   51.8730   10.7832 H   0  0  0  0  0  0
  1  2  1  0  0  0
  1 22  1  0  0  0
  1 23  1  0  0  0
  1 24  1  0  0  0
  2  7  1  0  0  0
  2  3  2  0  0  0
  3  4  1  0  0  0
  3 25  1  0  0  0
  4  5  2  0  0  0
  4 21  1  0  0  0
  5  6  1  0  0  0
  5 20  1  0  0  0
  6  7  2  0  0  0
  6  9  1  0  0  0
  7  8  1  0  0  0
  8 26  1  0  0  0
  8 27  1  0  0  0
  8 28  1  0  0  0
  9 18  1  0  0  0
  9 10  1  0  0  0
 10 11  2  0  0  0
 10 12  1  0  0  0
 12 17  2  0  0  0
 12 13  1  0  0  0
 13 14  2  0  0  0
 13 29  1  0  0  0
 14 15  1  0  0  0
 14 30  1  0  0  0
 15 16  2  0  0  0
 15 31  1  0  0  0
 16 17  1  0  0  0
 16 32  1  0  0  0
 17 18  1  0  0  0
 18 19  2  0  0  0
 20 33  1  0  0  0
 20 34  1  0  0  0
 20 35  1  0  0  0
 21 36  1  0  0  0
 21 37  1  0  0  0
 21 38  1  0  0  0
M  END
> <s_m_entry_id>
6036

> <s_m_entry_name>
ligand_docking-pose.135

> <s_m_Source_Path>
/home/csk/Desktop/cluster/DUD-E-result/pgh1

> <s_m_Source_File>
ligand_docking-pose.sdf

> <i_m_Source_File_Index>
135

> <i_lp_mmshare_version>
53161

> <i_f3d_flags>
0

> <r_lp_tautomer_probability>
1

> <s_lp_Force_Field>
OPLS_2005

> <r_lp_Energy>
51.876882

> <b_lp_Chiralities_Consistent>
1

> <s_lp_Variant>
4859-1

> <s_i_glide_gridfile>
glide-grid_2oyu

> <i_i_glide_lignum>
234

> <i_i_glide_rotatable_bonds>
1

> <r_i_docking_score>
-7.96468704586185

> <r_i_glide_ligand_efficiency>
-0.379270811707707

> <r_i_glide_ligand_efficiency_sa>
-1.04637941075418

> <r_i_glide_ligand_efficiency_ln>
-1.96925277792376

> <r_i_glide_gscore>
-7.96468704586185

> <r_i_glide_lipo>
-3.64252808442024

> <r_i_glide_hbond>
0

> <r_i_glide_metal>
0

> <r_i_glide_rewards>
-3.39621664465469

> <r_i_glide_evdw>
-19.2597579956055

> <r_i_glide_ecoul>
-1.29448759555817

> <r_i_glide_erotb>
0.231218722327089

> <r_i_glide_esite>
0

> <r_i_glide_emodel>
-36.6291914421427

> <r_i_glide_energy>
-20.5542455911636

> <r_i_glide_einternal>
1.90214967727661

> <i_i_glide_confnum>
2

> <i_i_glide_posenum>
221

> <r_i_glide_eff_state_penalty>
0

> <s_user_duplicate_titles>
4859

> <s_m_subgroup_title>
dock_pv

> <s_m_subgroupid>
dock_pv1

> <b_m_subgroup_collapsed>
0

$$$$
234078
                    3D
 Schrodinger Suite 2021-1.
 40 43  0  0  1  0            999 V2000
   17.8459   48.0017   13.5431 C   0  0  0  0  0  0
   17.0725   47.6316   14.6232 C   0  0  0  0  0  0
   17.5500   47.7737   15.9067 C   0  0  0  0  0  0
   18.8794   48.1256   16.0791 C   0  0  0  0  0  0
   19.7029   48.4127   15.0152 C   0  0  0  0  0  0
   19.1563   48.4257   13.7543 C   0  0  0  0  0  0
   19.9725   48.9372   12.6620 C   0  0  0  0  0  0
   20.9724   49.9022   12.5969 C   0  0  0  0  0  0
   21.4067   49.9086   11.2494 C   0  0  0  0  0  0
   20.4848   49.1532   10.5115 C   0  0  0  0  0  0
   19.7226   48.4970   11.4117 N   0  0  0  0  0  0
   20.1439   48.9287    9.0863 C   0  0  0  0  0  0
   19.6556   47.6898    8.6708 C   0  0  0  0  0  0
   19.1150   47.5558    7.3999 C   0  0  0  0  0  0
   19.2070   48.5922    6.4874 C   0  0  0  0  0  0
   19.7373   49.8126    6.8729 C   0  0  0  0  0  0
   20.1213   49.9955    8.1966 C   0  0  0  0  0  0
   18.7177   48.4514    5.2393 F   0  0  0  0  0  0
   22.5930   50.7473   10.8241 C   0  0  0  0  0  0
   22.8853   51.8857   11.8105 C   0  0  0  0  0  0
   22.9510   51.3562   13.2371 C   0  0  0  0  0  0
   21.5920   50.7953   13.6797 C   0  0  0  0  0  0
   16.7364   47.5644   16.9655 F   0  0  0  0  0  0
   19.0068   47.8255   11.1770 H   0  0  0  0  0  0
   17.4076   47.9425   12.5610 H   0  0  0  0  0  0
   16.1021   47.2420   14.4514 H   0  0  0  0  0  0
   19.3201   48.2730   17.0002 H   0  0  0  0  0  0
   20.7280   48.6644   15.2014 H   0  0  0  0  0  0
   19.5971   46.8555    9.3530 H   0  0  0  0  0  0
   18.5665   46.6727    7.1327 H   0  0  0  0  0  0
   19.7602   50.6331    6.1815 H   0  0  0  0  0  0
   20.4187   50.9832    8.5246 H   0  0  0  0  0  0
   23.5068   50.1806   10.7972 H   0  0  0  0  0  0
   22.4362   51.0748    9.8172 H   0  0  0  0  0  0
   23.8154   52.3785   11.5410 H   0  0  0  0  0  0
   22.1154   52.6602   11.7760 H   0  0  0  0  0  0
   23.7080   50.5771   13.2901 H   0  0  0  0  0  0
   23.2694   52.1420   13.9252 H   0  0  0  0  0  0
   20.9233   51.6272   13.8772 H   0  0  0  0  0  0
   21.7250   50.3065   14.6364 H   0  0  0  0  0  0
  1  6  1  0  0  0
  1  2  2  0  0  0
  1 25  1  0  0  0
  2  3  1  0  0  0
  2 26  1  0  0  0
  3  4  2  0  0  0
  3 23  1  0  0  0
  4  5  1  0  0  0
  4 27  1  0  0  0
  5  6  2  0  0  0
  5 28  1  0  0  0
  6  7  1  0  0  0
  7 11  1  0  0  0
  7  8  2  0  0  0
  8 22  1  0  0  0
  8  9  1  0  0  0
  9 10  2  0  0  0
  9 19  1  0  0  0
 10 11  1  0  0  0
 10 12  1  0  0  0
 11 24  1  0  0  0
 12 17  1  0  0  0
 12 13  2  0  0  0
 13 14  1  0  0  0
 13 29  1  0  0  0
 14 15  2  0  0  0
 14 30  1  0  0  0
 15 16  1  0  0  0
 15 18  1  0  0  0
 16 17  2  0  0  0
 16 31  1  0  0  0
 17 32  1  0  0  0
 19 20  1  0  0  0
 19 33  1  0  0  0
 19 34  1  0  0  0
 20 21  1  0  0  0
 20 35  1  0  0  0
 20 36  1  0  0  0
 21 22  1  0  0  0
 21 37  1  0  0  0
 21 38  1  0  0  0
 22 39  1  0  0  0
 22 40  1  0  0  0
M  END
> <s_m_entry_id>
6041

> <s_m_entry_name>
ligand_docking-pose.140

> <s_m_Source_Path>
/home/csk/Desktop/cluster/DUD-E-result/pgh1

> <s_m_Source_File>
ligand_docking-pose.sdf

> <i_m_Source_File_Index>
140

> <i_lp_mmshare_version>
53161

> <i_f3d_flags>
0

> <r_lp_tautomer_probability>
1

> <s_lp_Force_Field>
OPLS_2005

> <r_lp_Energy>
15.804018

> <b_lp_Chiralities_Consistent>
1

> <s_lp_Variant>
234078-1

> <s_i_glide_gridfile>
glide-grid_2oyu

> <i_i_glide_lignum>
65

> <i_i_glide_rotatable_bonds>
2

> <r_i_docking_score>
-7.93049603969877

> <r_i_glide_ligand_efficiency>
-0.344804175639077

> <r_i_glide_ligand_efficiency_sa>
-0.980577208590046

> <r_i_glide_ligand_efficiency_ln>
-1.91766585216151

> <r_i_glide_gscore>
-7.93049603969877

> <r_i_glide_lipo>
-4.81955021208673

> <r_i_glide_hbond>
0

> <r_i_glide_metal>
0

> <r_i_glide_rewards>
-2.48955988243572

> <r_i_glide_evdw>
-17.5941734313965

> <r_i_glide_ecoul>
-0.233386769890785

> <r_i_glide_erotb>
0.386941256329767

> <r_i_glide_esite>
-0.0936105144526491

> <r_i_glide_emodel>
-29.6978202772098

> <r_i_glide_energy>
-17.8275602012873

> <r_i_glide_einternal>
0.571844220161438

> <i_i_glide_confnum>
15

> <i_i_glide_posenum>
187

> <r_i_glide_eff_state_penalty>
0

> <s_user_duplicate_titles>
234078

> <s_m_subgroup_title>
dock_pv

> <s_m_subgroupid>
dock_pv1

> <b_m_subgroup_collapsed>
0

$$$$
40580
                    3D
 Schrodinger Suite 2021-1.
 32 33  0  0  1  0            999 V2000
   23.3978   52.6879   13.3056 C   0  0  0  0  0  0
   24.5329   53.0637   12.5957 C   0  0  0  0  0  0
   24.9227   52.3090   11.4928 C   0  0  0  0  0  0
   24.1793   51.2240   11.0739 C   0  0  0  0  0  0
   23.1078   50.7964   11.8294 C   0  0  0  0  0  0
   22.6788   51.5364   12.9425 C   0  0  0  0  0  0
   21.5273   51.0929   13.7997 C   0  0  0  0  0  0
   21.3227   51.6682   14.8733 O   0  0  0  0  0  0
   20.7124   49.8731   13.4373 C   0  0  0  0  0  0
   20.3319   49.6784   12.0978 C   0  0  0  0  0  0
   19.6912   48.5169   11.6944 C   0  0  0  0  0  0
   19.2985   47.5868   12.6424 C   0  0  0  0  0  0
   19.5274   47.8149   13.9998 C   0  0  0  0  0  0
   20.2483   48.9542   14.4062 C   0  0  0  0  0  0
   20.4994   49.1456   15.7711 N   0  0  0  0  0  0
   18.9049   46.8452   14.9988 C   0  0  0  0  0  0
   17.5646   47.3953   15.4859 C   0  0  0  0  0  0
   17.4567   48.3633   16.2316 O   0  0  0  0  0  0
   16.5231   46.6730   15.0000 O   0  0  0  0  0  0
   19.4261   48.3025   10.3863 F   0  0  0  0  0  0
   26.5544   52.6730   10.6000 Br  0  0  0  0  0  0
   23.1119   53.2793   14.1656 H   0  0  0  0  0  0
   25.1157   53.9175   12.9104 H   0  0  0  0  0  0
   24.5071   50.6730   10.2077 H   0  0  0  0  0  0
   22.6706   49.8614   11.5251 H   0  0  0  0  0  0
   20.5651   50.4067   11.3338 H   0  0  0  0  0  0
   18.7670   46.7071   12.3166 H   0  0  0  0  0  0
   20.8434   50.0687   16.0070 H   0  0  0  0  0  0
   19.8567   48.7004   16.4106 H   0  0  0  0  0  0
   18.7619   45.8669   14.5369 H   0  0  0  0  0  0
   19.5614   46.6738   15.8495 H   0  0  0  0  0  0
   15.6968   47.0549   15.3018 H   0  0  0  0  0  0
  1  6  1  0  0  0
  1  2  2  0  0  0
  1 22  1  0  0  0
  2  3  1  0  0  0
  2 23  1  0  0  0
  3  4  2  0  0  0
  3 21  1  0  0  0
  4  5  1  0  0  0
  4 24  1  0  0  0
  5  6  2  0  0  0
  5 25  1  0  0  0
  6  7  1  0  0  0
  7  8  2  0  0  0
  7  9  1  0  0  0
  9 14  1  0  0  0
  9 10  2  0  0  0
 10 11  1  0  0  0
 10 26  1  0  0  0
 11 12  2  0  0  0
 11 20  1  0  0  0
 12 13  1  0  0  0
 12 27  1  0  0  0
 13 14  2  0  0  0
 13 16  1  0  0  0
 14 15  1  0  0  0
 15 28  1  0  0  0
 15 29  1  0  0  0
 16 17  1  0  0  0
 16 30  1  0  0  0
 16 31  1  0  0  0
 17 18  2  0  0  0
 17 19  1  0  0  0
 19 32  1  0  0  0
M  END
> <s_m_entry_id>
6044

> <s_m_entry_name>
ligand_docking-pose.143

> <s_m_Source_Path>
/home/csk/Desktop/cluster/DUD-E-result/pgh1

> <s_m_Source_File>
ligand_docking-pose.sdf

> <i_m_Source_File_Index>
143

> <i_lp_mmshare_version>
53161

> <i_f3d_flags>
0

> <r_lp_tautomer_probability>
1

> <s_lp_Force_Field>
OPLS_2005

> <r_lp_Energy>
24.017516

> <b_lp_Chiralities_Consistent>
1

> <s_lp_Variant>
40580-1

> <s_i_glide_gridfile>
glide-grid_2oyu

> <i_i_glide_lignum>
124

> <i_i_glide_rotatable_bonds>
5

> <r_i_docking_score>
-7.92179367551218

> <r_i_glide_ligand_efficiency>
-0.377228270262485

> <r_i_glide_ligand_efficiency_sa>
-1.04074419378541

> <r_i_glide_ligand_efficiency_ln>
-1.95864747877903

> <r_i_glide_gscore>
-7.92179367551218

> <r_i_glide_lipo>
-3.32547469767449

> <r_i_glide_hbond>
0

> <r_i_glide_metal>
0

> <r_i_glide_rewards>
-3.0460298408039

> <r_i_glide_evdw>
-37.439079284668

> <r_i_glide_ecoul>
-1.95867919921875

> <r_i_glide_erotb>
0.615466707082419

> <r_i_glide_esite>
0

> <r_i_glide_emodel>
-53.3846656979192

> <r_i_glide_energy>
-39.3977584838867

> <r_i_glide_einternal>
5.29564476013184

> <i_i_glide_confnum>
95

> <i_i_glide_posenum>
398

> <r_i_glide_eff_state_penalty>
0

> <s_user_duplicate_titles>
40580

> <s_m_subgroup_title>
dock_pv

> <s_m_subgroupid>
dock_pv1

> <b_m_subgroup_collapsed>
0

$$$$
291591
                    3D
 Schrodinger Suite 2021-1.
 35 37  0  0  1  0            999 V2000
   16.4225   46.1128   15.0129 C   0  0  0  0  0  0
   17.5770   47.0947   14.9971 C   0  0  0  0  0  0
   18.1316   47.5379   16.1919 C   0  0  0  0  0  0
   19.2392   48.3666   16.1221 C   0  0  0  0  0  0
   19.7365   48.8085   14.9140 C   0  0  0  0  0  0
   19.1216   48.3242   13.7558 C   0  0  0  0  0  0
   18.0634   47.4730   13.7826 N   0  0  0  0  0  0
   19.5527   48.6850   12.4975 O   0  0  0  0  0  0
   20.6044   49.5718   12.3627 C   0  0  0  0  0  0
   21.0028   49.8743   11.0668 C   0  0  0  0  0  0
   22.0355   50.7858   10.8657 C   0  0  0  0  0  0
   22.6695   51.4283   11.9367 C   0  0  0  0  0  0
   22.2794   51.0736   13.2315 C   0  0  0  0  0  0
   21.2576   50.1591   13.4594 C   0  0  0  0  0  0
   20.8518   49.8228   14.8716 C   0  0  0  0  0  0
   23.7630   52.4824   11.6580 C   0  0  2  0  0  0
   24.9277   51.8734   10.8629 C   0  0  0  0  0  0
   24.2384   53.2783   12.9024 C   0  0  0  0  0  0
   25.3555   53.1809   13.3999 O   0  0  0  0  0  0
   23.2553   54.0786   13.4001 O   0  0  0  0  0  0
   15.8452   46.2144   15.9293 H   0  0  0  0  0  0
   15.7232   46.2731   14.2000 H   0  0  0  0  0  0
   16.7929   45.0877   14.9802 H   0  0  0  0  0  0
   17.7472   47.2371   17.1531 H   0  0  0  0  0  0
   19.7664   48.6731   16.9999 H   0  0  0  0  0  0
   20.5109   49.4131   10.2233 H   0  0  0  0  0  0
   22.3287   51.0068    9.8553 H   0  0  0  0  0  0
   22.7565   51.5123   14.0950 H   0  0  0  0  0  0
   21.7035   49.4571   15.4418 H   0  0  0  0  0  0
   20.5236   50.7361   15.3702 H   0  0  0  0  0  0
   23.3230   53.2266   11.0013 H   0  0  0  0  0  0
   25.3229   51.0185   11.4000 H   0  0  0  0  0  0
   24.6108   51.5233    9.8800 H   0  0  0  0  0  0
   25.7467   52.5761   10.7040 H   0  0  0  0  0  0
   23.5478   54.4971   14.2165 H   0  0  0  0  0  0
  1  2  1  0  0  0
  1 21  1  0  0  0
  1 22  1  0  0  0
  1 23  1  0  0  0
  2  7  1  0  0  0
  2  3  2  0  0  0
  3  4  1  0  0  0
  3 24  1  0  0  0
  4  5  2  0  0  0
  4 25  1  0  0  0
  5 15  1  0  0  0
  5  6  1  0  0  0
  6  7  2  0  0  0
  6  8  1  0  0  0
  8  9  1  0  0  0
  9 14  2  0  0  0
  9 10  1  0  0  0
 10 11  2  0  0  0
 10 26  1  0  0  0
 11 12  1  0  0  0
 11 27  1  0  0  0
 12 13  2  0  0  0
 12 16  1  0  0  0
 13 14  1  0  0  0
 13 28  1  0  0  0
 14 15  1  0  0  0
 15 29  1  0  0  0
 15 30  1  0  0  0
 16 17  1  0  0  0
 16 18  1  0  0  0
 16 31  1  0  0  0
 17 32  1  0  0  0
 17 33  1  0  0  0
 17 34  1  0  0  0
 18 19  2  0  0  0
 18 20  1  0  0  0
 20 35  1  0  0  0
M  END
> <s_m_entry_id>
6045

> <s_m_entry_name>
ligand_docking-pose.144

> <s_m_Source_Path>
/home/csk/Desktop/cluster/DUD-E-result/pgh1

> <s_m_Source_File>
ligand_docking-pose.sdf

> <i_m_Source_File_Index>
144

> <i_lp_mmshare_version>
53161

> <i_f3d_flags>
0

> <r_lp_tautomer_probability>
1

> <s_lp_Force_Field>
OPLS_2005

> <r_lp_Energy>
13.547256

> <b_lp_Chiralities_Consistent>
1

> <s_lp_Variant>
291591-1

> <s_i_glide_gridfile>
glide-grid_2oyu

> <i_i_glide_lignum>
186

> <i_i_glide_rotatable_bonds>
3

> <r_i_docking_score>
-7.91875235903757

> <r_i_glide_ligand_efficiency>
-0.395937617951878

> <r_i_glide_ligand_efficiency_sa>
-1.07474004416799

> <r_i_glide_ligand_efficiency_ln>
-1.98180253753444

> <r_i_glide_gscore>
-7.91875235903757

> <r_i_glide_lipo>
-3.97658104696432

> <r_i_glide_hbond>
0

> <r_i_glide_metal>
0

> <r_i_glide_rewards>
-2.91289963245968

> <r_i_glide_evdw>
-23.4494400024414

> <r_i_glide_ecoul>
-2.33008289337158

> <r_i_glide_erotb>
0.492712754514241

> <r_i_glide_esite>
0

> <r_i_glide_emodel>
-24.7193896245497

> <r_i_glide_energy>
-25.779522895813

> <r_i_glide_einternal>
5.45808029174805

> <i_i_glide_confnum>
5

> <i_i_glide_posenum>
179

> <r_i_glide_eff_state_penalty>
0

> <s_user_duplicate_titles>
291591

> <s_m_subgroup_title>
dock_pv

> <s_m_subgroupid>
dock_pv1

> <b_m_subgroup_collapsed>
0

$$$$
41751
                    3D
 Schrodinger Suite 2021-1.
 32 33  0  0  1  0            999 V2000
   23.4294   52.6989   13.2312 C   0  0  0  0  0  0
   24.5616   53.0724   12.5146 C   0  0  0  0  0  0
   24.9514   52.3217   11.4080 C   0  0  0  0  0  0
   24.2040   51.2326   10.9999 C   0  0  0  0  0  0
   23.1334   50.8074   11.7616 C   0  0  0  0  0  0
   22.7061   51.5491   12.8746 C   0  0  0  0  0  0
   21.5460   51.1180   13.7317 C   0  0  0  0  0  0
   21.3233   51.7164   14.7885 O   0  0  0  0  0  0
   20.7390   49.8874   13.3919 C   0  0  0  0  0  0
   20.3541   49.6782   12.0578 C   0  0  0  0  0  0
   19.7065   48.5146   11.6715 C   0  0  0  0  0  0
   19.3217   47.5910   12.6307 C   0  0  0  0  0  0
   19.5584   47.8328   13.9845 C   0  0  0  0  0  0
   20.2771   48.9803   14.3738 C   0  0  0  0  0  0
   20.5228   49.1944   15.7364 N   0  0  0  0  0  0
   18.9353   46.8765   15.0004 C   0  0  0  0  0  0
   17.6419   47.4732   15.5485 C   0  0  0  0  0  0
   17.5151   47.8737   16.7003 O   0  0  0  0  0  0
   16.6739   47.5181   14.5996 O   0  0  0  0  0  0
   19.3525   48.2330   10.0082 Cl  0  0  0  0  0  0
   26.4419   52.6730   10.6018 Cl  0  0  0  0  0  0
   23.1482   53.2937   14.0905 H   0  0  0  0  0  0
   25.1426   53.9279   12.8285 H   0  0  0  0  0  0
   24.5229   50.6731   10.1352 H   0  0  0  0  0  0
   22.6910   49.8743   11.4586 H   0  0  0  0  0  0
   20.5844   50.4023   11.2880 H   0  0  0  0  0  0
   18.7851   46.7077   12.3223 H   0  0  0  0  0  0
   20.8548   50.1215   15.9736 H   0  0  0  0  0  0
   19.9429   48.7002   16.3990 H   0  0  0  0  0  0
   18.7067   45.9113   14.5470 H   0  0  0  0  0  0
   19.6300   46.6719   15.8127 H   0  0  0  0  0  0
   15.8816   47.9310   14.9509 H   0  0  0  0  0  0
  1  6  1  0  0  0
  1  2  2  0  0  0
  1 22  1  0  0  0
  2  3  1  0  0  0
  2 23  1  0  0  0
  3  4  2  0  0  0
  3 21  1  0  0  0
  4  5  1  0  0  0
  4 24  1  0  0  0
  5  6  2  0  0  0
  5 25  1  0  0  0
  6  7  1  0  0  0
  7  8  2  0  0  0
  7  9  1  0  0  0
  9 14  1  0  0  0
  9 10  2  0  0  0
 10 11  1  0  0  0
 10 26  1  0  0  0
 11 12  2  0  0  0
 11 20  1  0  0  0
 12 13  1  0  0  0
 12 27  1  0  0  0
 13 14  2  0  0  0
 13 16  1  0  0  0
 14 15  1  0  0  0
 15 28  1  0  0  0
 15 29  1  0  0  0
 16 17  1  0  0  0
 16 30  1  0  0  0
 16 31  1  0  0  0
 17 18  2  0  0  0
 17 19  1  0  0  0
 19 32  1  0  0  0
M  END
> <s_m_entry_id>
6046

> <s_m_entry_name>
ligand_docking-pose.145

> <s_m_Source_Path>
/home/csk/Desktop/cluster/DUD-E-result/pgh1

> <s_m_Source_File>
ligand_docking-pose.sdf

> <i_m_Source_File_Index>
145

> <i_lp_mmshare_version>
53161

> <i_f3d_flags>
0

> <r_lp_tautomer_probability>
1

> <s_lp_Force_Field>
OPLS_2005

> <r_lp_Energy>
24.078065

> <b_lp_Chiralities_Consistent>
1

> <s_lp_Variant>
41751-1

> <s_i_glide_gridfile>
glide-grid_2oyu

> <i_i_glide_lignum>
121

> <i_i_glide_rotatable_bonds>
5

> <r_i_docking_score>
-7.91861854964354

> <r_i_glide_ligand_efficiency>
-0.377077073792549

> <r_i_glide_ligand_efficiency_sa>
-1.04032705418955

> <r_i_glide_ligand_efficiency_ln>
-1.95786243532395

> <r_i_glide_gscore>
-7.91861854964354

> <r_i_glide_lipo>
-3.61907729113963

> <r_i_glide_hbond>
0

> <r_i_glide_metal>
0

> <r_i_glide_rewards>
-2.76912270313923

> <r_i_glide_evdw>
-38.0268363952637

> <r_i_glide_ecoul>
-2.27888989448547

> <r_i_glide_erotb>
0.712756748571325

> <r_i_glide_esite>
0

> <r_i_glide_emodel>
-54.183646032079

> <r_i_glide_energy>
-40.3057262897491

> <r_i_glide_einternal>
5.9531455039978

> <i_i_glide_confnum>
89

> <i_i_glide_posenum>
338

> <r_i_glide_eff_state_penalty>
0

> <s_user_duplicate_titles>
41751

> <s_m_subgroup_title>
dock_pv

> <s_m_subgroupid>
dock_pv1

> <b_m_subgroup_collapsed>
0

$$$$
40736
                    3D
 Schrodinger Suite 2021-1.
 32 33  0  0  1  0            999 V2000
   23.6471   52.7513   13.2526 C   0  0  0  0  0  0
   24.8253   53.0737   12.5879 C   0  0  0  0  0  0
   25.1392   52.4192   11.4002 C   0  0  0  0  0  0
   24.2855   51.4717   10.8710 C   0  0  0  0  0  0
   23.1619   51.0867   11.5747 C   0  0  0  0  0  0
   22.8082   51.7340   12.7684 C   0  0  0  0  0  0
   21.5906   51.3579   13.5668 C   0  0  0  0  0  0
   21.3232   51.9959   14.5898 O   0  0  0  0  0  0
   20.8139   50.0995   13.2637 C   0  0  0  0  0  0
   20.3815   49.8562   11.9488 C   0  0  0  0  0  0
   19.7448   48.6701   11.6077 C   0  0  0  0  0  0
   19.4299   47.7485   12.5938 C   0  0  0  0  0  0
   19.7089   48.0232   13.9346 C   0  0  0  0  0  0
   20.4053   49.2006   14.2780 C   0  0  0  0  0  0
   20.6583   49.4695   15.6308 N   0  0  0  0  0  0
   19.1455   47.0739   14.9931 C   0  0  0  0  0  0
   17.8600   47.6463   15.5896 C   0  0  0  0  0  0
   17.7197   47.8745   16.7864 O   0  0  0  0  0  0
   16.9221   47.8732   14.6305 O   0  0  0  0  0  0
   19.4272   48.4145   10.3196 F   0  0  0  0  0  0
   26.3087   52.6682   10.7726 F   0  0  0  0  0  0
   23.4131   53.2792   14.1676 H   0  0  0  0  0  0
   25.4904   53.8258   12.9857 H   0  0  0  0  0  0
   24.5269   50.9741    9.9442 H   0  0  0  0  0  0
   22.6223   50.2617   11.1481 H   0  0  0  0  0  0
   20.5503   50.5752   11.1593 H   0  0  0  0  0  0
   18.9222   46.8405   12.3047 H   0  0  0  0  0  0
   20.9468   50.4188   15.8353 H   0  0  0  0  0  0
   20.1243   48.9633   16.3226 H   0  0  0  0  0  0
   18.9231   46.0915   14.5746 H   0  0  0  0  0  0
   19.8751   46.9073   15.7860 H   0  0  0  0  0  0
   17.2561   47.7165   13.7458 H   0  0  0  0  0  0
  1  6  1  0  0  0
  1  2  2  0  0  0
  1 22  1  0  0  0
  2  3  1  0  0  0
  2 23  1  0  0  0
  3  4  2  0  0  0
  3 21  1  0  0  0
  4  5  1  0  0  0
  4 24  1  0  0  0
  5  6  2  0  0  0
  5 25  1  0  0  0
  6  7  1  0  0  0
  7  8  2  0  0  0
  7  9  1  0  0  0
  9 14  1  0  0  0
  9 10  2  0  0  0
 10 11  1  0  0  0
 10 26  1  0  0  0
 11 12  2  0  0  0
 11 20  1  0  0  0
 12 13  1  0  0  0
 12 27  1  0  0  0
 13 14  2  0  0  0
 13 16  1  0  0  0
 14 15  1  0  0  0
 15 28  1  0  0  0
 15 29  1  0  0  0
 16 17  1  0  0  0
 16 30  1  0  0  0
 16 31  1  0  0  0
 17 18  2  0  0  0
 17 19  1  0  0  0
 19 32  1  0  0  0
M  END
> <s_m_entry_id>
6048

> <s_m_entry_name>
ligand_docking-pose.147

> <s_m_Source_Path>
/home/csk/Desktop/cluster/DUD-E-result/pgh1

> <s_m_Source_File>
ligand_docking-pose.sdf

> <i_m_Source_File_Index>
147

> <i_lp_mmshare_version>
53161

> <i_f3d_flags>
0

> <r_lp_tautomer_probability>
1

> <s_lp_Force_Field>
OPLS_2005

> <r_lp_Energy>
24.201922

> <b_lp_Chiralities_Consistent>
1

> <s_lp_Variant>
40736-1

> <s_i_glide_gridfile>
glide-grid_2oyu

> <i_i_glide_lignum>
126

> <i_i_glide_rotatable_bonds>
5

> <r_i_docking_score>
-7.9106735675857

> <r_i_glide_ligand_efficiency>
-0.376698741313605

> <r_i_glide_ligand_efficiency_sa>
-1.03928326356773

> <r_i_glide_ligand_efficiency_ln>
-1.9558980545645

> <r_i_glide_gscore>
-7.9106735675857

> <r_i_glide_lipo>
-3.29126573723959

> <r_i_glide_hbond>
0

> <r_i_glide_metal>
0

> <r_i_glide_rewards>
-3.43896888470188

> <r_i_glide_evdw>
-35.2800445556641

> <r_i_glide_ecoul>
-1.82429993152618

> <r_i_glide_erotb>
0.860016873224981

> <r_i_glide_esite>
-0.00280860135707956

> <r_i_glide_emodel>
-50.6490328127022

> <r_i_glide_energy>
-37.1043444871902

> <r_i_glide_einternal>
5.71295022964478

> <i_i_glide_confnum>
78

> <i_i_glide_posenum>
362

> <r_i_glide_eff_state_penalty>
0

> <s_user_duplicate_titles>
40736

> <s_m_subgroup_title>
dock_pv

> <s_m_subgroupid>
dock_pv1

> <b_m_subgroup_collapsed>
0

$$$$
40894
                    3D
 Schrodinger Suite 2021-1.
 32 33  0  0  1  0            999 V2000
   23.4199   52.6953   13.2281 C   0  0  0  0  0  0
   24.5525   53.0719   12.5123 C   0  0  0  0  0  0
   24.9471   52.3212   11.4067 C   0  0  0  0  0  0
   24.2027   51.2301   11.0001 C   0  0  0  0  0  0
   23.1327   50.8012   11.7612 C   0  0  0  0  0  0
   22.7005   51.5423   12.8723 C   0  0  0  0  0  0
   21.5428   51.1037   13.7303 C   0  0  0  0  0  0
   21.3231   51.6959   14.7916 O   0  0  0  0  0  0
   20.7333   49.8737   13.3850 C   0  0  0  0  0  0
   20.3569   49.6624   12.0478 C   0  0  0  0  0  0
   19.7175   48.4963   11.6571 C   0  0  0  0  0  0
   19.3219   47.5763   12.6151 C   0  0  0  0  0  0
   19.5495   47.8157   13.9713 C   0  0  0  0  0  0
   20.2673   48.9635   14.3642 C   0  0  0  0  0  0
   20.5218   49.1698   15.7257 N   0  0  0  0  0  0
   18.9569   46.8276   14.9775 C   0  0  0  0  0  0
   17.5489   47.2429   15.3986 C   0  0  0  0  0  0
   16.5405   46.6728   15.0000 O   0  0  0  0  0  0
   17.5538   48.2729   16.2861 O   0  0  0  0  0  0
   19.4537   48.2705   10.3508 F   0  0  0  0  0  0
   26.4391   52.6728   10.6003 Cl  0  0  0  0  0  0
   23.1361   53.2894   14.0871 H   0  0  0  0  0  0
   25.1308   53.9295   12.8261 H   0  0  0  0  0  0
   24.5229   50.6728   10.1351 H   0  0  0  0  0  0
   22.6952   49.8652   11.4600 H   0  0  0  0  0  0
   20.5897   50.3820   11.2753 H   0  0  0  0  0  0
   18.7976   46.6892   12.2968 H   0  0  0  0  0  0
   20.8612   50.0957   15.9562 H   0  0  0  0  0  0
   19.8996   48.7097   16.3750 H   0  0  0  0  0  0
   18.9019   45.8308   14.5377 H   0  0  0  0  0  0
   19.5919   46.7236   15.8552 H   0  0  0  0  0  0
   16.6501   48.4993   16.5154 H   0  0  0  0  0  0
  1  6  1  0  0  0
  1  2  2  0  0  0
  1 22  1  0  0  0
  2  3  1  0  0  0
  2 23  1  0  0  0
  3  4  2  0  0  0
  3 21  1  0  0  0
  4  5  1  0  0  0
  4 24  1  0  0  0
  5  6  2  0  0  0
  5 25  1  0  0  0
  6  7  1  0  0  0
  7  8  2  0  0  0
  7  9  1  0  0  0
  9 14  1  0  0  0
  9 10  2  0  0  0
 10 11  1  0  0  0
 10 26  1  0  0  0
 11 12  2  0  0  0
 11 20  1  0  0  0
 12 13  1  0  0  0
 12 27  1  0  0  0
 13 14  2  0  0  0
 13 16  1  0  0  0
 14 15  1  0  0  0
 15 28  1  0  0  0
 15 29  1  0  0  0
 16 17  1  0  0  0
 16 30  1  0  0  0
 16 31  1  0  0  0
 17 18  2  0  0  0
 17 19  1  0  0  0
 19 32  1  0  0  0
M  END
> <s_m_entry_id>
6049

> <s_m_entry_name>
ligand_docking-pose.148

> <s_m_Source_Path>
/home/csk/Desktop/cluster/DUD-E-result/pgh1

> <s_m_Source_File>
ligand_docking-pose.sdf

> <i_m_Source_File_Index>
148

> <i_lp_mmshare_version>
53161

> <i_f3d_flags>
0

> <r_lp_tautomer_probability>
1

> <s_lp_Force_Field>
OPLS_2005

> <r_lp_Energy>
24.252184

> <b_lp_Chiralities_Consistent>
1

> <s_lp_Variant>
40894-1

> <s_i_glide_gridfile>
glide-grid_2oyu

> <i_i_glide_lignum>
125

> <i_i_glide_rotatable_bonds>
5

> <r_i_docking_score>
-7.90170769725016

> <r_i_glide_ligand_efficiency>
-0.376271795107151

> <r_i_glide_ligand_efficiency_sa>
-1.03810535135793

> <r_i_glide_ligand_efficiency_ln>
-1.95368126124128

> <r_i_glide_gscore>
-7.90170769725016

> <r_i_glide_lipo>
-3.26656140856503

> <r_i_glide_hbond>
0

> <r_i_glide_metal>
0

> <r_i_glide_rewards>
-3.33924279891914

> <r_i_glide_evdw>
-36.8261642456055

> <r_i_glide_ecoul>
-1.57180202007294

> <r_i_glide_erotb>
0.781175025525217

> <r_i_glide_esite>
0

> <r_i_glide_emodel>
-52.2072942716047

> <r_i_glide_energy>
-38.3979662656784

> <r_i_glide_einternal>
5.55066585540771

> <i_i_glide_confnum>
89

> <i_i_glide_posenum>
397

> <r_i_glide_eff_state_penalty>
0

> <s_user_duplicate_titles>
40894

> <s_m_subgroup_title>
dock_pv

> <s_m_subgroupid>
dock_pv1

> <b_m_subgroup_collapsed>
0

$$$$
41103
                    3D
 Schrodinger Suite 2021-1.
 32 33  0  0  1  0            999 V2000
   24.9228   52.2730   11.1704 C   0  0  0  0  0  0
   24.1248   51.2125   10.7842 C   0  0  0  0  0  0
   23.0825   50.8117   11.5908 C   0  0  0  0  0  0
   22.7220   51.5639   12.7200 C   0  0  0  0  0  0
   23.5090   52.6725   13.0704 C   0  0  0  0  0  0
   24.6224   53.0111   12.3121 C   0  0  0  0  0  0
   21.5478   51.1991   13.5817 C   0  0  0  0  0  0
   21.3231   51.8452   14.6099 O   0  0  0  0  0  0
   20.7424   49.9594   13.2883 C   0  0  0  0  0  0
   20.3224   49.7105   11.9705 C   0  0  0  0  0  0
   19.7230   48.5095   11.6242 C   0  0  0  0  0  0
   19.4108   47.5879   12.6115 C   0  0  0  0  0  0
   19.6575   47.8812   13.9552 C   0  0  0  0  0  0
   20.3281   49.0703   14.3030 C   0  0  0  0  0  0
   20.5584   49.3496   15.6571 N   0  0  0  0  0  0
   19.0698   46.9548   15.0168 C   0  0  0  0  0  0
   17.8197   47.5997   15.6118 C   0  0  0  0  0  0
   17.6936   47.8730   16.8009 O   0  0  0  0  0  0
   16.9164   47.8798   14.6393 O   0  0  0  0  0  0
   19.4186   48.2505   10.3331 F   0  0  0  0  0  0
   25.7798   52.5399   10.5691 H   0  0  0  0  0  0
   24.3727   50.6730    9.8842 H   0  0  0  0  0  0
   22.6000   49.9001   11.2880 H   0  0  0  0  0  0
   23.2812   53.2718   13.9420 H   0  0  0  0  0  0
   25.2392   53.8510   12.5991 H   0  0  0  0  0  0
   20.5044   50.4235   11.1781 H   0  0  0  0  0  0
   18.9185   46.6729   12.3234 H   0  0  0  0  0  0
   20.8641   50.2940   15.8585 H   0  0  0  0  0  0
   20.0082   48.8548   16.3448 H   0  0  0  0  0  0
   18.8021   45.9816   14.6039 H   0  0  0  0  0  0
   19.8035   46.7635   15.7987 H   0  0  0  0  0  0
   17.2500   47.6855   13.7625 H   0  0  0  0  0  0
  1  6  1  0  0  0
  1  2  2  0  0  0
  1 21  1  0  0  0
  2  3  1  0  0  0
  2 22  1  0  0  0
  3  4  2  0  0  0
  3 23  1  0  0  0
  4  5  1  0  0  0
  4  7  1  0  0  0
  5  6  2  0  0  0
  5 24  1  0  0  0
  6 25  1  0  0  0
  7  8  2  0  0  0
  7  9  1  0  0  0
  9 14  1  0  0  0
  9 10  2  0  0  0
 10 11  1  0  0  0
 10 26  1  0  0  0
 11 12  2  0  0  0
 11 20  1  0  0  0
 12 13  1  0  0  0
 12 27  1  0  0  0
 13 14  2  0  0  0
 13 16  1  0  0  0
 14 15  1  0  0  0
 15 28  1  0  0  0
 15 29  1  0  0  0
 16 17  1  0  0  0
 16 30  1  0  0  0
 16 31  1  0  0  0
 17 18  2  0  0  0
 17 19  1  0  0  0
 19 32  1  0  0  0
M  END
> <s_m_entry_id>
6050

> <s_m_entry_name>
ligand_docking-pose.149

> <s_m_Source_Path>
/home/csk/Desktop/cluster/DUD-E-result/pgh1

> <s_m_Source_File>
ligand_docking-pose.sdf

> <i_m_Source_File_Index>
149

> <i_lp_mmshare_version>
53161

> <i_f3d_flags>
0

> <r_lp_tautomer_probability>
1

> <s_lp_Force_Field>
OPLS_2005

> <r_lp_Energy>
24.143406

> <b_lp_Chiralities_Consistent>
1

> <s_lp_Variant>
41103-1

> <s_i_glide_gridfile>
glide-grid_2oyu

> <i_i_glide_lignum>
123

> <i_i_glide_rotatable_bonds>
5

> <r_i_docking_score>
-7.90111867124783

> <r_i_glide_ligand_efficiency>
-0.395055933562391

> <r_i_glide_ligand_efficiency_sa>
-1.07234678453128

> <r_i_glide_ligand_efficiency_ln>
-1.97738940707862

> <r_i_glide_gscore>
-7.90111867124783

> <r_i_glide_lipo>
-3.19710754356753

> <r_i_glide_hbond>
0

> <r_i_glide_metal>
0

> <r_i_glide_rewards>
-3.49706157216993

> <r_i_glide_evdw>
-37.8856010437012

> <r_i_glide_ecoul>
-1.82324934005737

> <r_i_glide_erotb>
0.960817897683288

> <r_i_glide_esite>
0

> <r_i_glide_emodel>
-53.6212211453555

> <r_i_glide_energy>
-39.7088503837585

> <r_i_glide_einternal>
6.92293310165405

> <i_i_glide_confnum>
90

> <i_i_glide_posenum>
26

> <r_i_glide_eff_state_penalty>
0

> <s_user_duplicate_titles>
41103

> <s_m_subgroup_title>
dock_pv

> <s_m_subgroupid>
dock_pv1

> <b_m_subgroup_collapsed>
0

$$$$
380548
                    3D
 Schrodinger Suite 2021-1.
 39 41  0  0  1  0            999 V2000
   16.4254   46.0512   15.0000 C   0  0  0  0  0  0
   16.5315   47.3841   14.5256 O   0  0  0  0  0  0
   17.7860   47.8937   14.2934 C   0  0  0  0  0  0
   18.1301   48.1554   12.9845 C   0  0  0  0  0  0
   19.3057   48.8148   12.6579 C   0  0  0  0  0  0
   20.1432   49.3126   13.6569 C   0  0  0  0  0  0
   19.8217   49.0246   15.0051 C   0  0  0  0  0  0
   18.6631   48.2725   15.3137 C   0  0  0  0  0  0
   18.3814   47.8872   16.5999 O   0  0  0  0  0  0
   17.2863   48.5741   17.1975 C   0  0  0  0  0  0
   20.6376   49.4718   16.0191 O   0  0  0  0  0  0
   20.2586   50.7107   16.6303 C   0  0  0  0  0  0
   21.3235   50.1149   13.2347 C   0  0  0  0  0  0
   21.9933   49.9682   12.0705 C   0  0  0  0  0  0
   23.0380   50.9920   11.9751 C   0  0  0  0  0  0
   24.0003   51.2481   11.0002 C   0  0  0  0  0  0
   24.9224   52.2730   11.1982 C   0  0  0  0  0  0
   24.8537   53.0730   12.3421 C   0  0  0  0  0  0
   23.8528   52.8525   13.2841 C   0  0  0  0  0  0
   22.9634   51.7965   13.1030 C   0  0  0  0  0  0
   21.8472   51.3258   13.9727 C   0  0  0  0  0  0
   15.9621   46.0747   15.9804 H   0  0  0  0  0  0
   17.3714   45.5072   15.0354 H   0  0  0  0  0  0
   15.7233   45.4968   14.3757 H   0  0  0  0  0  0
   17.4479   47.8725   12.2002 H   0  0  0  0  0  0
   19.5071   49.0094   11.6145 H   0  0  0  0  0  0
   17.3230   48.4150   18.2702 H   0  0  0  0  0  0
   17.3123   49.6494   17.0184 H   0  0  0  0  0  0
   16.3214   48.2029   16.8617 H   0  0  0  0  0  0
   21.0158   51.0168   17.3522 H   0  0  0  0  0  0
   20.1545   51.5354   15.9324 H   0  0  0  0  0  0
   19.3100   50.6731   17.1539 H   0  0  0  0  0  0
   21.8227   49.2203   11.3111 H   0  0  0  0  0  0
   24.0629   50.6717   10.0920 H   0  0  0  0  0  0
   25.6895   52.4508   10.4593 H   0  0  0  0  0  0
   25.5638   53.8730   12.4931 H   0  0  0  0  0  0
   23.7850   53.4907   14.1518 H   0  0  0  0  0  0
   21.0875   52.1011   14.0687 H   0  0  0  0  0  0
   22.2268   51.0742   14.9589 H   0  0  0  0  0  0
  1  2  1  0  0  0
  1 22  1  0  0  0
  1 23  1  0  0  0
  1 24  1  0  0  0
  2  3  1  0  0  0
  3  8  1  0  0  0
  3  4  2  0  0  0
  4  5  1  0  0  0
  4 25  1  0  0  0
  5  6  2  0  0  0
  5 26  1  0  0  0
  6  7  1  0  0  0
  6 13  1  0  0  0
  7  8  2  0  0  0
  7 11  1  0  0  0
  8  9  1  0  0  0
  9 10  1  0  0  0
 10 27  1  0  0  0
 10 28  1  0  0  0
 10 29  1  0  0  0
 11 12  1  0  0  0
 12 30  1  0  0  0
 12 31  1  0  0  0
 12 32  1  0  0  0
 13 21  1  0  0  0
 13 14  2  0  0  0
 14 15  1  0  0  0
 14 33  1  0  0  0
 15 20  2  0  0  0
 15 16  1  0  0  0
 16 17  2  0  0  0
 16 34  1  0  0  0
 17 18  1  0  0  0
 17 35  1  0  0  0
 18 19  2  0  0  0
 18 36  1  0  0  0
 19 20  1  0  0  0
 19 37  1  0  0  0
 20 21  1  0  0  0
 21 38  1  0  0  0
 21 39  1  0  0  0
M  END
> <s_m_entry_id>
6051

> <s_m_entry_name>
ligand_docking-pose.150

> <s_m_Source_Path>
/home/csk/Desktop/cluster/DUD-E-result/pgh1

> <s_m_Source_File>
ligand_docking-pose.sdf

> <i_m_Source_File_Index>
150

> <i_lp_mmshare_version>
53161

> <i_f3d_flags>
0

> <r_lp_tautomer_probability>
0.5

> <s_lp_Force_Field>
OPLS_2005

> <r_lp_Energy>
54.084063

> <b_lp_Chiralities_Consistent>
1

> <s_lp_Variant>
380548-1

> <s_i_glide_gridfile>
glide-grid_2oyu

> <i_i_glide_lignum>
608

> <i_i_glide_rotatable_bonds>
4

> <r_i_docking_score>
-7.89636693947935

> <r_i_glide_ligand_efficiency>
-0.37601747330854

> <r_i_glide_ligand_efficiency_sa>
-1.03740369679988

> <r_i_glide_ligand_efficiency_ln>
-1.95236076967447

> <r_i_glide_gscore>
-7.89636693947935

> <r_i_glide_lipo>
-4.59772886596081

> <r_i_glide_hbond>
0

> <r_i_glide_metal>
0

> <r_i_glide_rewards>
-2.14109885028243

> <r_i_glide_evdw>
-27.1251544952393

> <r_i_glide_ecoul>
-0.188316404819489

> <r_i_glide_erotb>
0.226965962248775

> <r_i_glide_esite>
0

> <r_i_glide_emodel>
-30.9905228485953

> <r_i_glide_energy>
-27.3134709000587

> <r_i_glide_einternal>
7.90333652496338

> <i_i_glide_confnum>
1

> <i_i_glide_posenum>
219

> <r_i_glide_eff_state_penalty>
0

> <s_user_duplicate_titles>
380548

> <s_m_subgroup_title>
dock_pv

> <s_m_subgroupid>
dock_pv1

> <b_m_subgroup_collapsed>
0

$$$$
299970
                    3D
 Schrodinger Suite 2021-1.
 42 44  0  0  1  0            999 V2000
   18.1230   48.7172    5.2417 C   0  0  0  0  0  0
   19.9736   48.7143    5.4478 S   0  0  0  0  0  0
   20.5230   47.4730    4.9299 O   0  0  0  0  0  0
   20.5956   49.9449    5.0000 O   0  0  0  0  0  0
   19.9838   48.7387    7.2086 C   0  0  0  0  0  0
   19.7230   47.5833    7.9198 C   0  0  0  0  0  0
   19.7230   47.6101    9.2997 C   0  0  0  0  0  0
   19.9892   48.8040    9.9833 C   0  0  0  0  0  0
   20.1230   49.9886    9.2565 C   0  0  0  0  0  0
   20.1230   49.9487    7.8704 C   0  0  0  0  0  0
   20.0487   48.8438   11.4597 C   0  0  0  0  0  0
   19.1123   48.0976   12.1025 C   0  0  0  0  0  0
   18.8249   47.9324   13.5185 C   0  0  0  0  0  0
   19.8331   47.9339   14.4717 C   0  0  0  0  0  0
   19.4934   48.0739   15.8000 C   0  0  0  0  0  0
   18.1611   48.0023   16.2000 C   0  0  0  0  0  0
   17.1566   47.8730   15.2523 C   0  0  0  0  0  0
   17.4854   47.8730   13.9058 C   0  0  0  0  0  0
   21.1093   49.7397   12.0570 C   0  0  0  0  0  0
   22.3319   49.9315   11.3941 C   0  0  0  0  0  0
   23.3065   50.7948   11.8874 C   0  0  0  0  0  0
   23.0727   51.4833   13.0725 C   0  0  0  0  0  0
   21.8840   51.2954   13.7683 C   0  0  0  0  0  0
   20.9230   50.4256   13.2601 C   0  0  0  0  0  0
   17.8202   48.6730    4.2000 H   0  0  0  0  0  0
   17.7438   49.5997    5.7550 H   0  0  0  0  0  0
   17.7230   47.8730    5.7781 H   0  0  0  0  0  0
   19.5419   46.6730    7.4000 H   0  0  0  0  0  0
   19.5958   46.6780    9.8243 H   0  0  0  0  0  0
   20.2473   50.9398    9.7547 H   0  0  0  0  0  0
   20.2195   50.8713    7.3141 H   0  0  0  0  0  0
   18.4351   47.5119   11.4989 H   0  0  0  0  0  0
   20.8722   47.9695   14.1830 H   0  0  0  0  0  0
   20.2726   48.2730   16.5187 H   0  0  0  0  0  0
   17.8954   48.0679   17.2441 H   0  0  0  0  0  0
   16.1232   47.8451   15.5511 H   0  0  0  0  0  0
   16.6931   47.8730   13.1693 H   0  0  0  0  0  0
   22.5230   49.4320   10.4578 H   0  0  0  0  0  0
   24.2334   50.9329   11.3486 H   0  0  0  0  0  0
   23.8217   52.1574   13.4625 H   0  0  0  0  0  0
   21.7087   51.8193   14.6967 H   0  0  0  0  0  0
   20.0180   50.2730   13.8176 H   0  0  0  0  0  0
  1  2  1  0  0  0
  1 25  1  0  0  0
  1 26  1  0  0  0
  1 27  1  0  0  0
  2  3  2  0  0  0
  2  4  2  0  0  0
  2  5  1  0  0  0
  5 10  1  0  0  0
  5  6  2  0  0  0
  6  7  1  0  0  0
  6 28  1  0  0  0
  7  8  2  0  0  0
  7 29  1  0  0  0
  8  9  1  0  0  0
  8 11  1  0  0  0
  9 10  2  0  0  0
  9 30  1  0  0  0
 10 31  1  0  0  0
 11 12  2  0  0  0
 11 19  1  0  0  0
 12 13  1  0  0  0
 12 32  1  0  0  0
 13 18  1  0  0  0
 13 14  2  0  0  0
 14 15  1  0  0  0
 14 33  1  0  0  0
 15 16  2  0  0  0
 15 34  1  0  0  0
 16 17  1  0  0  0
 16 35  1  0  0  0
 17 18  2  0  0  0
 17 36  1  0  0  0
 18 37  1  0  0  0
 19 24  1  0  0  0
 19 20  2  0  0  0
 20 21  1  0  0  0
 20 38  1  0  0  0
 21 22  2  0  0  0
 21 39  1  0  0  0
 22 23  1  0  0  0
 22 40  1  0  0  0
 23 24  2  0  0  0
 23 41  1  0  0  0
 24 42  1  0  0  0
M  END
> <s_m_entry_id>
6052

> <s_m_entry_name>
ligand_docking-pose.151

> <s_m_Source_Path>
/home/csk/Desktop/cluster/DUD-E-result/pgh1

> <s_m_Source_File>
ligand_docking-pose.sdf

> <i_m_Source_File_Index>
151

> <i_lp_mmshare_version>
53161

> <i_f3d_flags>
0

> <r_lp_tautomer_probability>
1

> <s_lp_Force_Field>
OPLS_2005

> <r_lp_Energy>
23.577139

> <b_lp_Chiralities_Consistent>
1

> <s_lp_Variant>
299970-1

> <s_i_glide_gridfile>
glide-grid_2oyu

> <i_i_glide_lignum>
659

> <i_i_glide_rotatable_bonds>
4

> <r_i_docking_score>
-7.88371390651626

> <r_i_glide_ligand_efficiency>
-0.328488079438177

> <r_i_glide_ligand_efficiency_sa>
-0.947523581837874

> <r_i_glide_ligand_efficiency_ln>
-1.88693449788791

> <r_i_glide_gscore>
-7.88371390651626

> <r_i_glide_lipo>
-5.06480137025497

> <r_i_glide_hbond>
0

> <r_i_glide_metal>
0

> <r_i_glide_rewards>
-2.47886986363636

> <r_i_glide_evdw>
-10.0807209014893

> <r_i_glide_ecoul>
-2.22198581695557

> <r_i_glide_erotb>
0.505890751778433

> <r_i_glide_esite>
-0.00859950678555549

> <r_i_glide_emodel>
-9.63072511475336

> <r_i_glide_energy>
-12.3027067184448

> <r_i_glide_einternal>
16.7658061981201

> <i_i_glide_confnum>
58

> <i_i_glide_posenum>
68

> <r_i_glide_eff_state_penalty>
0

> <s_user_duplicate_titles>
299970

> <s_m_subgroup_title>
dock_pv

> <s_m_subgroupid>
dock_pv1

> <b_m_subgroup_collapsed>
0

$$$$
40807
                    3D
 Schrodinger Suite 2021-1.
 32 33  0  0  1  0            999 V2000
   23.4209   52.6988   13.2101 C   0  0  0  0  0  0
   24.5585   53.0714   12.5021 C   0  0  0  0  0  0
   24.9558   52.3176   11.4007 C   0  0  0  0  0  0
   24.2108   51.2269   10.9931 C   0  0  0  0  0  0
   23.1367   50.8010   11.7475 C   0  0  0  0  0  0
   22.7018   51.5463   12.8521 C   0  0  0  0  0  0
   21.5405   51.1146   13.7037 C   0  0  0  0  0  0
   21.3183   51.7209   14.7566 O   0  0  0  0  0  0
   20.7384   49.8747   13.3755 C   0  0  0  0  0  0
   20.3659   49.6225   12.0418 C   0  0  0  0  0  0
   19.7229   48.4434   11.6848 C   0  0  0  0  0  0
   19.3246   47.5576   12.6700 C   0  0  0  0  0  0
   19.5506   47.8396   14.0159 C   0  0  0  0  0  0
   20.2733   48.9916   14.3779 C   0  0  0  0  0  0
   20.5197   49.2322   15.7366 N   0  0  0  0  0  0
   18.8852   46.9344   15.0506 C   0  0  0  0  0  0
   17.6173   47.6027   15.5823 C   0  0  0  0  0  0
   17.4342   47.8735   16.7644 O   0  0  0  0  0  0
   16.7420   47.8722   14.5797 O   0  0  0  0  0  0
   19.3896   48.0272    9.8575 Br  0  0  0  0  0  0
   26.4490   52.6730   10.6000 Cl  0  0  0  0  0  0
   23.1321   53.2971   14.0641 H   0  0  0  0  0  0
   25.1369   53.9276   12.8176 H   0  0  0  0  0  0
   24.5228   50.6702   10.1249 H   0  0  0  0  0  0
   22.6994   49.8662   11.4445 H   0  0  0  0  0  0
   20.6039   50.3194   11.2501 H   0  0  0  0  0  0
   18.7805   46.6732   12.3831 H   0  0  0  0  0  0
   20.8560   50.1619   15.9562 H   0  0  0  0  0  0
   19.9556   48.7399   16.4145 H   0  0  0  0  0  0
   18.6107   45.9704   14.6219 H   0  0  0  0  0  0
   19.5724   46.7161   15.8651 H   0  0  0  0  0  0
   15.9543   48.2967   14.9270 H   0  0  0  0  0  0
  1  6  1  0  0  0
  1  2  2  0  0  0
  1 22  1  0  0  0
  2  3  1  0  0  0
  2 23  1  0  0  0
  3  4  2  0  0  0
  3 21  1  0  0  0
  4  5  1  0  0  0
  4 24  1  0  0  0
  5  6  2  0  0  0
  5 25  1  0  0  0
  6  7  1  0  0  0
  7  8  2  0  0  0
  7  9  1  0  0  0
  9 14  1  0  0  0
  9 10  2  0  0  0
 10 11  1  0  0  0
 10 26  1  0  0  0
 11 12  2  0  0  0
 11 20  1  0  0  0
 12 13  1  0  0  0
 12 27  1  0  0  0
 13 14  2  0  0  0
 13 16  1  0  0  0
 14 15  1  0  0  0
 15 28  1  0  0  0
 15 29  1  0  0  0
 16 17  1  0  0  0
 16 30  1  0  0  0
 16 31  1  0  0  0
 17 18  2  0  0  0
 17 19  1  0  0  0
 19 32  1  0  0  0
M  END
> <s_m_entry_id>
6053

> <s_m_entry_name>
ligand_docking-pose.152

> <s_m_Source_Path>
/home/csk/Desktop/cluster/DUD-E-result/pgh1

> <s_m_Source_File>
ligand_docking-pose.sdf

> <i_m_Source_File_Index>
152

> <i_lp_mmshare_version>
53161

> <i_f3d_flags>
0

> <r_lp_tautomer_probability>
1

> <s_lp_Force_Field>
OPLS_2005

> <r_lp_Energy>
23.862366

> <b_lp_Chiralities_Consistent>
1

> <s_lp_Variant>
40807-1

> <s_i_glide_gridfile>
glide-grid_2oyu

> <i_i_glide_lignum>
118

> <i_i_glide_rotatable_bonds>
5

> <r_i_docking_score>
-7.87552919438018

> <r_i_glide_ligand_efficiency>
-0.375025199732389

> <r_i_glide_ligand_efficiency_sa>
-1.03466608924383

> <r_i_glide_ligand_efficiency_ln>
-1.94720867930532

> <r_i_glide_gscore>
-7.87552919438018

> <r_i_glide_lipo>
-3.62807035387205

> <r_i_glide_hbond>
0

> <r_i_glide_metal>
0

> <r_i_glide_rewards>
-2.50159993081665

> <r_i_glide_evdw>
-39.4502792358398

> <r_i_glide_ecoul>
-2.27127814292908

> <r_i_glide_erotb>
0.567346773539867

> <r_i_glide_esite>
0

> <r_i_glide_emodel>
-55.8311613462362

> <r_i_glide_energy>
-41.7215573787689

> <r_i_glide_einternal>
5.97380638122559

> <i_i_glide_confnum>
89

> <i_i_glide_posenum>
329

> <r_i_glide_eff_state_penalty>
0

> <s_user_duplicate_titles>
40807

> <s_m_subgroup_title>
dock_pv

> <s_m_subgroupid>
dock_pv1

> <b_m_subgroup_collapsed>
0

$$$$
40597
                    3D
 Schrodinger Suite 2021-1.
 32 33  0  0  1  0            999 V2000
   23.3741   52.7119   13.2177 C   0  0  0  0  0  0
   24.5230   53.0726   12.5284 C   0  0  0  0  0  0
   24.9230   52.3108   11.4367 C   0  0  0  0  0  0
   24.1736   51.2341   11.0015 C   0  0  0  0  0  0
   23.0827   50.8210   11.7391 C   0  0  0  0  0  0
   22.6516   51.5645   12.8487 C   0  0  0  0  0  0
   21.4955   51.1403   13.7051 C   0  0  0  0  0  0
   21.2679   51.7716   14.7421 O   0  0  0  0  0  0
   20.7221   49.8730   13.4203 C   0  0  0  0  0  0
   20.3358   49.5734   12.1024 C   0  0  0  0  0  0
   19.6963   48.3791   11.7935 C   0  0  0  0  0  0
   19.3230   47.5163   12.8125 C   0  0  0  0  0  0
   19.5642   47.8482   14.1447 C   0  0  0  0  0  0
   20.2804   49.0183   14.4546 C   0  0  0  0  0  0
   20.5230   49.3164   15.8000 N   0  0  0  0  0  0
   18.8937   47.0040   15.2304 C   0  0  0  0  0  0
   17.6827   47.7495   15.8000 C   0  0  0  0  0  0
   17.4590   47.8730   16.9998 O   0  0  0  0  0  0
   16.9230   48.2730   14.8038 O   0  0  0  0  0  0
   19.3231   47.9854   10.1554 Cl  0  0  0  0  0  0
   26.5838   52.6730   10.6000 Br  0  0  0  0  0  0
   23.0864   53.3104   14.0724 H   0  0  0  0  0  0
   25.1106   53.9195   12.8526 H   0  0  0  0  0  0
   24.5104   50.6730   10.1444 H   0  0  0  0  0  0
   22.6394   49.8921   11.4265 H   0  0  0  0  0  0
   20.5442   50.2552   11.2893 H   0  0  0  0  0  0
   18.7817   46.6179   12.5676 H   0  0  0  0  0  0
   20.8466   50.2586   15.9858 H   0  0  0  0  0  0
   19.9911   48.8289   16.5060 H   0  0  0  0  0  0
   18.5538   46.0418   14.8454 H   0  0  0  0  0  0
   19.6014   46.7764   16.0249 H   0  0  0  0  0  0
   17.3084   48.1250   13.9389 H   0  0  0  0  0  0
  1  6  1  0  0  0
  1  2  2  0  0  0
  1 22  1  0  0  0
  2  3  1  0  0  0
  2 23  1  0  0  0
  3  4  2  0  0  0
  3 21  1  0  0  0
  4  5  1  0  0  0
  4 24  1  0  0  0
  5  6  2  0  0  0
  5 25  1  0  0  0
  6  7  1  0  0  0
  7  8  2  0  0  0
  7  9  1  0  0  0
  9 14  1  0  0  0
  9 10  2  0  0  0
 10 11  1  0  0  0
 10 26  1  0  0  0
 11 12  2  0  0  0
 11 20  1  0  0  0
 12 13  1  0  0  0
 12 27  1  0  0  0
 13 14  2  0  0  0
 13 16  1  0  0  0
 14 15  1  0  0  0
 15 28  1  0  0  0
 15 29  1  0  0  0
 16 17  1  0  0  0
 16 30  1  0  0  0
 16 31  1  0  0  0
 17 18  2  0  0  0
 17 19  1  0  0  0
 19 32  1  0  0  0
M  END
> <s_m_entry_id>
6054

> <s_m_entry_name>
ligand_docking-pose.153

> <s_m_Source_Path>
/home/csk/Desktop/cluster/DUD-E-result/pgh1

> <s_m_Source_File>
ligand_docking-pose.sdf

> <i_m_Source_File_Index>
153

> <i_lp_mmshare_version>
53161

> <i_f3d_flags>
0

> <r_lp_tautomer_probability>
1

> <s_lp_Force_Field>
OPLS_2005

> <r_lp_Energy>
23.843463

> <b_lp_Chiralities_Consistent>
1

> <s_lp_Variant>
40597-1

> <s_i_glide_gridfile>
glide-grid_2oyu

> <i_i_glide_lignum>
120

> <i_i_glide_rotatable_bonds>
5

> <r_i_docking_score>
-7.87270804197132

> <r_i_glide_ligand_efficiency>
-0.374890859141492

> <r_i_glide_ligand_efficiency_sa>
-1.03429545374011

> <r_i_glide_ligand_efficiency_ln>
-1.94651115507291

> <r_i_glide_gscore>
-7.87270804197132

> <r_i_glide_lipo>
-3.65485550427658

> <r_i_glide_hbond>
0

> <r_i_glide_metal>
0

> <r_i_glide_rewards>
-2.54824886605945

> <r_i_glide_evdw>
-39.5339584350586

> <r_i_glide_ecoul>
-1.73501682281494

> <r_i_glide_erotb>
0.567346773539867

> <r_i_glide_esite>
0

> <r_i_glide_emodel>
-54.3667088635175

> <r_i_glide_energy>
-41.2689752578735

> <r_i_glide_einternal>
6.00904655456543

> <i_i_glide_confnum>
82

> <i_i_glide_posenum>
369

> <r_i_glide_eff_state_penalty>
0

> <s_user_duplicate_titles>
40597

> <s_m_subgroup_title>
dock_pv

> <s_m_subgroupid>
dock_pv1

> <b_m_subgroup_collapsed>
0

$$$$
234227
                    3D
 Schrodinger Suite 2021-1.
 38 41  0  0  1  0            999 V2000
   19.3674   48.1570    7.1816 C   0  0  0  0  0  0
   19.7789   49.4730    7.3388 C   0  0  0  0  0  0
   20.1230   49.9386    8.6105 C   0  0  0  0  0  0
   20.1230   49.0755    9.7113 C   0  0  0  0  0  0
   19.7229   47.7579    9.5291 C   0  0  0  0  0  0
   19.3230   47.3047    8.2815 C   0  0  0  0  0  0
   20.5549   49.5366   11.0614 C   0  0  0  0  0  0
   20.2206   49.1231   12.3583 C   0  0  0  0  0  0
   20.9230   49.9645   13.2657 C   0  0  0  0  0  0
   21.6991   50.8366   12.5036 C   0  0  0  0  0  0
   21.4706   50.5402   11.1937 N   0  0  0  0  0  0
   22.5906   51.9637   12.8595 C   0  0  0  0  0  0
   22.0718   53.0483   13.5663 C   0  0  0  0  0  0
   22.8649   54.1660   13.8000 C   0  0  0  0  0  0
   24.1995   54.1595   13.4000 C   0  0  0  0  0  0
   24.7272   53.0730   12.7056 C   0  0  0  0  0  0
   23.9161   51.9787   12.4195 C   0  0  0  0  0  0
   20.7797   49.8730   14.7845 C   0  0  0  0  0  0
   19.7655   48.8083   15.1772 C   0  0  0  0  0  0
   19.1081   48.0076   14.3240 C   0  0  0  0  0  0
   19.2676   48.0141   12.8131 C   0  0  0  0  0  0
   21.8967   51.0287   10.4201 H   0  0  0  0  0  0
   19.0597   47.8193    6.2057 H   0  0  0  0  0  0
   19.7877   50.1472    6.4942 H   0  0  0  0  0  0
   20.3991   50.9766    8.7242 H   0  0  0  0  0  0
   19.7101   47.0730   10.3566 H   0  0  0  0  0  0
   18.9725   46.2902    8.2000 H   0  0  0  0  0  0
   21.0412   53.0461   13.8898 H   0  0  0  0  0  0
   22.4666   55.0198   14.3290 H   0  0  0  0  0  0
   24.8202   55.0186   13.6060 H   0  0  0  0  0  0
   25.7551   53.0868   12.3764 H   0  0  0  0  0  0
   24.3192   51.1451   11.8617 H   0  0  0  0  0  0
   21.7230   49.6427   15.2558 H   0  0  0  0  0  0
   20.5230   50.8470   15.1984 H   0  0  0  0  0  0
   19.5503   48.6845   16.2280 H   0  0  0  0  0  0
   18.4132   47.2992   14.7521 H   0  0  0  0  0  0
   18.2975   48.1240   12.3288 H   0  0  0  0  0  0
   19.6300   47.0381   12.4954 H   0  0  0  0  0  0
  1  6  1  0  0  0
  1  2  2  0  0  0
  1 23  1  0  0  0
  2  3  1  0  0  0
  2 24  1  0  0  0
  3  4  2  0  0  0
  3 25  1  0  0  0
  4  5  1  0  0  0
  4  7  1  0  0  0
  5  6  2  0  0  0
  5 26  1  0  0  0
  6 27  1  0  0  0
  7 11  1  0  0  0
  7  8  2  0  0  0
  8 21  1  0  0  0
  8  9  1  0  0  0
  9 10  2  0  0  0
  9 18  1  0  0  0
 10 11  1  0  0  0
 10 12  1  0  0  0
 11 22  1  0  0  0
 12 17  1  0  0  0
 12 13  2  0  0  0
 13 14  1  0  0  0
 13 28  1  0  0  0
 14 15  2  0  0  0
 14 29  1  0  0  0
 15 16  1  0  0  0
 15 30  1  0  0  0
 16 17  2  0  0  0
 16 31  1  0  0  0
 17 32  1  0  0  0
 18 19  1  0  0  0
 18 33  1  0  0  0
 18 34  1  0  0  0
 19 20  2  0  0  0
 19 35  1  0  0  0
 20 21  1  0  0  0
 20 36  1  0  0  0
 21 37  1  0  0  0
 21 38  1  0  0  0
M  END
> <s_m_entry_id>
6057

> <s_m_entry_name>
ligand_docking-pose.156

> <s_m_Source_Path>
/home/csk/Desktop/cluster/DUD-E-result/pgh1

> <s_m_Source_File>
ligand_docking-pose.sdf

> <i_m_Source_File_Index>
156

> <i_lp_mmshare_version>
53161

> <i_f3d_flags>
0

> <r_lp_tautomer_probability>
1

> <s_lp_Force_Field>
OPLS_2005

> <r_lp_Energy>
21.97413

> <b_lp_Chiralities_Consistent>
1

> <s_lp_Variant>
234227-1

> <s_i_glide_gridfile>
glide-grid_2oyu

> <i_i_glide_lignum>
60

> <i_i_glide_rotatable_bonds>
2

> <r_i_docking_score>
-7.84536061554605

> <r_i_glide_ligand_efficiency>
-0.373588600740288

> <r_i_glide_ligand_efficiency_sa>
-1.03070262155678

> <r_i_glide_ligand_efficiency_ln>
-1.93974955914994

> <r_i_glide_gscore>
-7.84536061554605

> <r_i_glide_lipo>
-4.78869143792373

> <r_i_glide_hbond>
0

> <r_i_glide_metal>
0

> <r_i_glide_rewards>
-2.18237783822052

> <r_i_glide_evdw>
-28.8206443786621

> <r_i_glide_ecoul>
0.536550045013428

> <r_i_glide_erotb>
0.486258372779292

> <r_i_glide_esite>
0

> <r_i_glide_emodel>
-38.5360566403171

> <r_i_glide_energy>
-28.2840943336487

> <r_i_glide_einternal>
2.23478698730469

> <i_i_glide_confnum>
7

> <i_i_glide_posenum>
23

> <r_i_glide_eff_state_penalty>
0

> <s_user_duplicate_titles>
234227

> <s_m_subgroup_title>
dock_pv

> <s_m_subgroupid>
dock_pv1

> <b_m_subgroup_collapsed>
0

$$$$
40700
                    3D
 Schrodinger Suite 2021-1.
 32 33  0  0  1  0            999 V2000
   24.2131   51.0603   11.6290 C   0  0  0  0  0  0
   23.1337   50.6730   12.3884 C   0  0  0  0  0  0
   22.4708   51.5900   13.2147 C   0  0  0  0  0  0
   22.9429   52.9198   13.2719 C   0  0  0  0  0  0
   24.1199   53.2579   12.6000 C   0  0  0  0  0  0
   24.7471   52.3270   11.7731 C   0  0  0  0  0  0
   26.2317   52.6730   10.9752 Cl  0  0  0  0  0  0
   22.1230   54.1814   14.1370 Cl  0  0  0  0  0  0
   21.3230   51.0906   14.0263 C   0  0  0  0  0  0
   21.1259   51.5620   15.1491 O   0  0  0  0  0  0
   20.5618   49.8730   13.5522 C   0  0  0  0  0  0
   20.3050   49.7122   12.1784 C   0  0  0  0  0  0
   19.7230   48.5486   11.6926 C   0  0  0  0  0  0
   19.3110   47.5643   12.5797 C   0  0  0  0  0  0
   19.4587   47.7343   13.9544 C   0  0  0  0  0  0
   20.0912   48.8884   14.4435 C   0  0  0  0  0  0
   20.2425   49.0344   15.8208 N   0  0  0  0  0  0
   18.8707   46.6738   14.8820 C   0  0  0  0  0  0
   17.5033   47.1180   15.4000 C   0  0  0  0  0  0
   17.3265   48.1062   16.1066 O   0  0  0  0  0  0
   16.5229   46.2730   15.0000 O   0  0  0  0  0  0
   19.5583   48.3750   10.3624 F   0  0  0  0  0  0
   24.6925   50.3331   11.0000 H   0  0  0  0  0  0
   22.8477   49.6335   12.3207 H   0  0  0  0  0  0
   24.5265   54.2547   12.6929 H   0  0  0  0  0  0
   20.6005   50.4656   11.4610 H   0  0  0  0  0  0
   18.8426   46.6730   12.2000 H   0  0  0  0  0  0
   20.5442   49.9583   16.1079 H   0  0  0  0  0  0
   19.5466   48.5698   16.3877 H   0  0  0  0  0  0
   18.7857   45.7188   14.3610 H   0  0  0  0  0  0
   19.5259   46.4892   15.7328 H   0  0  0  0  0  0
   15.6764   46.5786   15.3317 H   0  0  0  0  0  0
  1  6  1  0  0  0
  1  2  2  0  0  0
  1 23  1  0  0  0
  2  3  1  0  0  0
  2 24  1  0  0  0
  3  4  2  0  0  0
  3  9  1  0  0  0
  4  5  1  0  0  0
  4  8  1  0  0  0
  5  6  2  0  0  0
  5 25  1  0  0  0
  6  7  1  0  0  0
  9 10  2  0  0  0
  9 11  1  0  0  0
 11 16  1  0  0  0
 11 12  2  0  0  0
 12 13  1  0  0  0
 12 26  1  0  0  0
 13 14  2  0  0  0
 13 22  1  0  0  0
 14 15  1  0  0  0
 14 27  1  0  0  0
 15 16  2  0  0  0
 15 18  1  0  0  0
 16 17  1  0  0  0
 17 28  1  0  0  0
 17 29  1  0  0  0
 18 19  1  0  0  0
 18 30  1  0  0  0
 18 31  1  0  0  0
 19 20  2  0  0  0
 19 21  1  0  0  0
 21 32  1  0  0  0
M  END
> <s_m_entry_id>
6059

> <s_m_entry_name>
ligand_docking-pose.158

> <s_m_Source_Path>
/home/csk/Desktop/cluster/DUD-E-result/pgh1

> <s_m_Source_File>
ligand_docking-pose.sdf

> <i_m_Source_File_Index>
158

> <i_lp_mmshare_version>
53161

> <i_f3d_flags>
0

> <r_lp_tautomer_probability>
1

> <s_lp_Force_Field>
OPLS_2005

> <r_lp_Energy>
25.128436

> <b_lp_Chiralities_Consistent>
1

> <s_lp_Variant>
40700-1

> <s_i_glide_gridfile>
glide-grid_2oyu

> <i_i_glide_lignum>
106

> <i_i_glide_rotatable_bonds>
5

> <r_i_docking_score>
-7.83740858567306

> <r_i_glide_ligand_efficiency>
-0.356245844803321

> <r_i_glide_ligand_efficiency_sa>
-0.998214867492952

> <r_i_glide_ligand_efficiency_ln>
-1.91574853476267

> <r_i_glide_gscore>
-7.83740858567306

> <r_i_glide_lipo>
-3.34054642697522

> <r_i_glide_hbond>
0

> <r_i_glide_metal>
0

> <r_i_glide_rewards>
-3.18583304465961

> <r_i_glide_evdw>
-34.8787727355957

> <r_i_glide_ecoul>
-1.43262410163879

> <r_i_glide_erotb>
0.647803137987374

> <r_i_glide_esite>
0

> <r_i_glide_emodel>
-47.8239934071328

> <r_i_glide_energy>
-36.3113968372345

> <r_i_glide_einternal>
3.01348829269409

> <i_i_glide_confnum>
26

> <i_i_glide_posenum>
14

> <r_i_glide_eff_state_penalty>
0

> <s_user_duplicate_titles>
40700

> <s_m_subgroup_title>
dock_pv

> <s_m_subgroupid>
dock_pv1

> <b_m_subgroup_collapsed>
0

$$$$
5033
                    3D
 Schrodinger Suite 2021-1.
 28 30  0  0  1  0            999 V2000
   17.0929   47.4783   14.2586 C   0  0  0  0  0  0
   17.5468   47.5635   15.5723 C   0  0  0  0  0  0
   18.7645   48.1838   15.8401 C   0  0  0  0  0  0
   19.4836   48.7449   14.7895 C   0  0  0  0  0  0
   19.0474   48.6591   13.5002 C   0  0  0  0  0  0
   17.8652   47.9850   13.2090 C   0  0  0  0  0  0
   19.9931   49.4199   12.6383 C   0  0  0  0  0  0
   19.9421   49.5709   11.4166 O   0  0  0  0  0  0
   20.9232   49.9225   13.4997 N   0  0  0  0  0  0
   20.6939   49.5877   14.8052 C   0  0  0  0  0  0
   21.3229   49.9384   15.8001 O   0  0  0  0  0  0
   21.9813   50.7745   13.0658 N   0  0  0  0  0  0
   23.0253   50.1692   12.1990 C   0  0  0  0  0  0
   23.8013   51.2412   11.3944 C   0  0  0  0  0  0
   24.1665   52.4334   12.2909 C   0  0  0  0  0  0
   25.2079   53.0732   12.2005 O   0  0  0  0  0  0
   23.2065   52.7286   13.1820 N   0  0  0  0  0  0
   22.1033   52.0529   13.5605 C   0  0  0  0  0  0
   21.3228   52.6077   14.3258 O   0  0  0  0  0  0
   16.1365   47.0206   14.0557 H   0  0  0  0  0  0
   16.9455   47.1648   16.3753 H   0  0  0  0  0  0
   19.1037   48.2727   16.8553 H   0  0  0  0  0  0
   17.5045   47.8731   12.2003 H   0  0  0  0  0  0
   23.7126   49.6316   12.8486 H   0  0  0  0  0  0
   22.5981   49.4419   11.5073 H   0  0  0  0  0  0
   24.7360   50.8492   10.9992 H   0  0  0  0  0  0
   23.1881   51.6663   10.6004 H   0  0  0  0  0  0
   23.3634   53.5748   13.7087 H   0  0  0  0  0  0
  1  6  1  0  0  0
  1  2  2  0  0  0
  1 20  1  0  0  0
  2  3  1  0  0  0
  2 21  1  0  0  0
  3  4  2  0  0  0
  3 22  1  0  0  0
  4 10  1  0  0  0
  4  5  1  0  0  0
  5  6  2  0  0  0
  5  7  1  0  0  0
  6 23  1  0  0  0
  7  8  2  0  0  0
  7  9  1  0  0  0
  9 10  1  0  0  0
  9 12  1  0  0  0
 10 11  2  0  0  0
 12 18  1  0  0  0
 12 13  1  0  0  0
 13 14  1  0  0  0
 13 24  1  0  0  0
 13 25  1  0  0  0
 14 15  1  0  0  0
 14 26  1  0  0  0
 14 27  1  0  0  0
 15 16  2  0  0  0
 15 17  1  0  0  0
 17 18  1  0  0  0
 17 28  1  0  0  0
 18 19  2  0  0  0
M  END
> <s_m_entry_id>
6060

> <s_m_entry_name>
ligand_docking-pose.159

> <s_m_Source_Path>
/home/csk/Desktop/cluster/DUD-E-result/pgh1

> <s_m_Source_File>
ligand_docking-pose.sdf

> <i_m_Source_File_Index>
159

> <i_lp_mmshare_version>
53161

> <i_f3d_flags>
0

> <r_lp_tautomer_probability>
0.99995

> <s_lp_Force_Field>
OPLS_2005

> <r_lp_Energy>
42.212226

> <b_lp_Chiralities_Consistent>
1

> <s_lp_Variant>
5033-1

> <s_i_glide_gridfile>
glide-grid_2oyu

> <i_i_glide_lignum>
34

> <i_i_glide_rotatable_bonds>
1

> <r_i_docking_score>
-7.82604353637996

> <r_i_glide_ligand_efficiency>
-0.411897028230524

> <r_i_glide_ligand_efficiency_sa>
-1.09910670815525

> <r_i_glide_ligand_efficiency_ln>
-1.98407012447529

> <r_i_glide_gscore>
-7.82604353637996

> <r_i_glide_lipo>
-2.18186709546864

> <r_i_glide_hbond>
0

> <r_i_glide_metal>
0

> <r_i_glide_rewards>
-3.94006495661574

> <r_i_glide_evdw>
-31.5999240875244

> <r_i_glide_ecoul>
-2.58152914047241

> <r_i_glide_erotb>
0.263114091151506

> <r_i_glide_esite>
0

> <r_i_glide_emodel>
-44.8098133600095

> <r_i_glide_energy>
-34.1814532279968

> <r_i_glide_einternal>
5.19214296340942

> <i_i_glide_confnum>
4

> <i_i_glide_posenum>
163

> <r_i_glide_eff_state_penalty>
0

> <s_user_duplicate_titles>
5033

> <s_m_subgroup_title>
dock_pv

> <s_m_subgroupid>
dock_pv1

> <b_m_subgroup_collapsed>
0

$$$$
234118
                    3D
 Schrodinger Suite 2021-1.
 46 49  0  0  1  0            999 V2000
   18.6547   48.5155    5.1147 C   0  0  0  0  0  0
   19.1763   48.6353    6.5190 C   0  0  0  0  0  0
   19.7231   49.8351    6.9356 C   0  0  0  0  0  0
   20.1230   49.9783    8.2555 C   0  0  0  0  0  0
   20.1230   48.8844    9.1114 C   0  0  0  0  0  0
   19.6187   47.6574    8.6715 C   0  0  0  0  0  0
   19.0795   47.5619    7.4000 C   0  0  0  0  0  0
   20.4436   49.0905   10.5334 C   0  0  0  0  0  0
   21.3406   49.8752   11.2605 C   0  0  0  0  0  0
   20.9381   49.8551   12.6129 C   0  0  0  0  0  0
   19.9507   48.8736   12.6843 C   0  0  0  0  0  0
   19.7168   48.4087   11.4408 N   0  0  0  0  0  0
   19.1270   48.3702   13.7683 C   0  0  0  0  0  0
   17.8156   47.9330   13.5709 C   0  0  0  0  0  0
   17.0392   47.5988   14.6683 C   0  0  0  0  0  0
   17.5250   47.8118   15.9495 C   0  0  0  0  0  0
   18.8562   48.1526   16.0873 C   0  0  0  0  0  0
   19.6789   48.3863   15.0251 C   0  0  0  0  0  0
   16.6515   47.6641   17.1823 C   0  0  0  0  0  0
   21.5796   50.7540   13.6836 C   0  0  0  0  0  0
   22.9467   51.2794   13.2104 C   0  0  0  0  0  0
   22.8552   51.8412   11.7935 C   0  0  0  0  0  0
   22.4856   50.7283   10.7910 C   0  0  0  0  0  0
   19.0025   47.7332   11.2107 H   0  0  0  0  0  0
   18.6122   49.4730    4.6001 H   0  0  0  0  0  0
   19.3577   47.8730    4.6000 H   0  0  0  0  0  0
   17.6562   48.0768    5.0936 H   0  0  0  0  0  0
   19.7624   50.6730    6.2609 H   0  0  0  0  0  0
   20.4346   50.9528    8.6000 H   0  0  0  0  0  0
   19.5478   46.8119    9.3378 H   0  0  0  0  0  0
   18.5454   46.6743    7.1102 H   0  0  0  0  0  0
   17.3800   47.8730   12.5860 H   0  0  0  0  0  0
   16.0696   47.2001   14.5062 H   0  0  0  0  0  0
   19.3230   48.2730   17.0000 H   0  0  0  0  0  0
   20.7094   48.6277   15.2096 H   0  0  0  0  0  0
   17.2567   47.4730   18.0696 H   0  0  0  0  0  0
   16.0729   48.5724   17.3513 H   0  0  0  0  0  0
   15.9585   46.8302   17.0900 H   0  0  0  0  0  0
   20.9230   51.6006   13.8829 H   0  0  0  0  0  0
   21.7230   50.2700   14.6421 H   0  0  0  0  0  0
   23.3097   52.0440   13.8992 H   0  0  0  0  0  0
   23.6844   50.4782   13.2284 H   0  0  0  0  0  0
   22.1230   52.6441   11.7977 H   0  0  0  0  0  0
   23.8035   52.2963   11.5044 H   0  0  0  0  0  0
   23.3230   50.0698   10.6859 H   0  0  0  0  0  0
   22.2863   51.0730    9.8000 H   0  0  0  0  0  0
  1  2  1  0  0  0
  1 25  1  0  0  0
  1 26  1  0  0  0
  1 27  1  0  0  0
  2  7  1  0  0  0
  2  3  2  0  0  0
  3  4  1  0  0  0
  3 28  1  0  0  0
  4  5  2  0  0  0
  4 29  1  0  0  0
  5  6  1  0  0  0
  5  8  1  0  0  0
  6  7  2  0  0  0
  6 30  1  0  0  0
  7 31  1  0  0  0
  8 12  1  0  0  0
  8  9  2  0  0  0
  9 23  1  0  0  0
  9 10  1  0  0  0
 10 11  2  0  0  0
 10 20  1  0  0  0
 11 12  1  0  0  0
 11 13  1  0  0  0
 12 24  1  0  0  0
 13 18  1  0  0  0
 13 14  2  0  0  0
 14 15  1  0  0  0
 14 32  1  0  0  0
 15 16  2  0  0  0
 15 33  1  0  0  0
 16 17  1  0  0  0
 16 19  1  0  0  0
 17 18  2  0  0  0
 17 34  1  0  0  0
 18 35  1  0  0  0
 19 36  1  0  0  0
 19 37  1  0  0  0
 19 38  1  0  0  0
 20 21  1  0  0  0
 20 39  1  0  0  0
 20 40  1  0  0  0
 21 22  1  0  0  0
 21 41  1  0  0  0
 21 42  1  0  0  0
 22 23  1  0  0  0
 22 43  1  0  0  0
 22 44  1  0  0  0
 23 45  1  0  0  0
 23 46  1  0  0  0
M  END
> <s_m_entry_id>
6061

> <s_m_entry_name>
ligand_docking-pose.160

> <s_m_Source_Path>
/home/csk/Desktop/cluster/DUD-E-result/pgh1

> <s_m_Source_File>
ligand_docking-pose.sdf

> <i_m_Source_File_Index>
160

> <i_lp_mmshare_version>
53161

> <i_f3d_flags>
0

> <r_lp_tautomer_probability>
1

> <s_lp_Force_Field>
OPLS_2005

> <r_lp_Energy>
16.332519

> <b_lp_Chiralities_Consistent>
1

> <s_lp_Variant>
234118-1

> <s_i_glide_gridfile>
glide-grid_2oyu

> <i_i_glide_lignum>
189

> <i_i_glide_rotatable_bonds>
2

> <r_i_docking_score>
-7.81124537848565

> <r_i_glide_ligand_efficiency>
-0.339619364281985

> <r_i_glide_ligand_efficiency_sa>
-0.965832294790262

> <r_i_glide_ligand_efficiency_ln>
-1.88882996097496

> <r_i_glide_gscore>
-7.81124537848565

> <r_i_glide_lipo>
-5.09122765265527

> <r_i_glide_hbond>
0

> <r_i_glide_metal>
0

> <r_i_glide_rewards>
-2.20712490213646

> <r_i_glide_evdw>
-17.0453395843506

> <r_i_glide_ecoul>
-0.437245011329651

> <r_i_glide_erotb>
0.404960907223063

> <r_i_glide_esite>
0

> <r_i_glide_emodel>
-42.3916738025395

> <r_i_glide_energy>
-17.4825845956802

> <r_i_glide_einternal>
1.3694920539856

> <i_i_glide_confnum>
6

> <i_i_glide_posenum>
343

> <r_i_glide_eff_state_penalty>
0

> <s_user_duplicate_titles>
234118

> <s_m_subgroup_title>
dock_pv

> <s_m_subgroupid>
dock_pv1

> <b_m_subgroup_collapsed>
0

$$$$
40581
                    3D
 Schrodinger Suite 2021-1.
 35 36  0  0  1  0            999 V2000
   26.4674   52.6732   10.8371 C   0  0  0  0  0  0
   25.1371   52.4612   11.5179 C   0  0  0  0  0  0
   24.3172   51.4641   11.0256 C   0  0  0  0  0  0
   23.2145   51.0739   11.7488 C   0  0  0  0  0  0
   22.8083   51.7844   12.8883 C   0  0  0  0  0  0
   23.5934   52.8663   13.3160 C   0  0  0  0  0  0
   24.7734   53.1869   12.6498 C   0  0  0  0  0  0
   21.5953   51.3847   13.6827 C   0  0  0  0  0  0
   21.3230   51.9779   14.7307 O   0  0  0  0  0  0
   20.7996   50.1669   13.2877 C   0  0  0  0  0  0
   20.4378   50.0058   11.9407 C   0  0  0  0  0  0
   19.8437   48.8385   11.4933 C   0  0  0  0  0  0
   19.4400   47.8783   12.4077 C   0  0  0  0  0  0
   19.6445   48.0705   13.7766 C   0  0  0  0  0  0
   20.3329   49.2165   14.2247 C   0  0  0  0  0  0
   20.5235   49.3999   15.6002 N   0  0  0  0  0  0
   19.0486   47.0535   14.7507 C   0  0  0  0  0  0
   17.7912   47.6257   15.4029 C   0  0  0  0  0  0
   17.7096   47.8721   16.6015 O   0  0  0  0  0  0
   16.8254   47.8748   14.4815 O   0  0  0  0  0  0
   19.6846   48.6355   10.1685 F   0  0  0  0  0  0
   26.9233   53.6387   11.0012 H   0  0  0  0  0  0
   27.1850   51.8729   10.9995 H   0  0  0  0  0  0
   26.2540   52.7465    9.8000 H   0  0  0  0  0  0
   24.5737   50.9108   10.1353 H   0  0  0  0  0  0
   22.7377   50.1841   11.3814 H   0  0  0  0  0  0
   23.3229   53.4380   14.1934 H   0  0  0  0  0  0
   25.4040   53.9816   13.0220 H   0  0  0  0  0  0
   20.6766   50.7561   11.1990 H   0  0  0  0  0  0
   18.9350   47.0043   12.0374 H   0  0  0  0  0  0
   20.8361   50.3208   15.8827 H   0  0  0  0  0  0
   19.9354   48.8690   16.2271 H   0  0  0  0  0  0
   18.7977   46.1165   14.2517 H   0  0  0  0  0  0
   19.7762   46.8038   15.5236 H   0  0  0  0  0  0
   17.1142   47.6985   13.5852 H   0  0  0  0  0  0
  1  2  1  0  0  0
  1 22  1  0  0  0
  1 23  1  0  0  0
  1 24  1  0  0  0
  2  7  1  0  0  0
  2  3  2  0  0  0
  3  4  1  0  0  0
  3 25  1  0  0  0
  4  5  2  0  0  0
  4 26  1  0  0  0
  5  6  1  0  0  0
  5  8  1  0  0  0
  6  7  2  0  0  0
  6 27  1  0  0  0
  7 28  1  0  0  0
  8  9  2  0  0  0
  8 10  1  0  0  0
 10 15  1  0  0  0
 10 11  2  0  0  0
 11 12  1  0  0  0
 11 29  1  0  0  0
 12 13  2  0  0  0
 12 21  1  0  0  0
 13 14  1  0  0  0
 13 30  1  0  0  0
 14 15  2  0  0  0
 14 17  1  0  0  0
 15 16  1  0  0  0
 16 31  1  0  0  0
 16 32  1  0  0  0
 17 18  1  0  0  0
 17 33  1  0  0  0
 17 34  1  0  0  0
 18 19  2  0  0  0
 18 20  1  0  0  0
 20 35  1  0  0  0
M  END
> <s_m_entry_id>
6063

> <s_m_entry_name>
ligand_docking-pose.162

> <s_m_Source_Path>
/home/csk/Desktop/cluster/DUD-E-result/pgh1

> <s_m_Source_File>
ligand_docking-pose.sdf

> <i_m_Source_File_Index>
162

> <i_lp_mmshare_version>
53161

> <i_f3d_flags>
0

> <r_lp_tautomer_probability>
1

> <s_lp_Force_Field>
OPLS_2005

> <r_lp_Energy>
23.997562

> <b_lp_Chiralities_Consistent>
1

> <s_lp_Variant>
40581-1

> <s_i_glide_gridfile>
glide-grid_2oyu

> <i_i_glide_lignum>
240

> <i_i_glide_rotatable_bonds>
5

> <r_i_docking_score>
-7.80493133937567

> <r_i_glide_ligand_efficiency>
-0.371663397113127

> <r_i_glide_ligand_efficiency_sa>
-1.02539113073074

> <r_i_glide_ligand_efficiency_ln>
-1.92975350231186

> <r_i_glide_gscore>
-7.80493133937567

> <r_i_glide_lipo>
-3.38966251009274

> <r_i_glide_hbond>
0

> <r_i_glide_metal>
0

> <r_i_glide_rewards>
-3.43582587683989

> <r_i_glide_evdw>
-29.9970836639404

> <r_i_glide_ecoul>
-2.40263772010803

> <r_i_glide_erotb>
0.880806888770186

> <r_i_glide_esite>
0

> <r_i_glide_emodel>
-38.5338220437007

> <r_i_glide_energy>
-32.3997213840485

> <r_i_glide_einternal>
8.1738452911377

> <i_i_glide_confnum>
23

> <i_i_glide_posenum>
344

> <r_i_glide_eff_state_penalty>
0

> <s_user_duplicate_titles>
40581

> <s_m_subgroup_title>
dock_pv

> <s_m_subgroupid>
dock_pv1

> <b_m_subgroup_collapsed>
0

$$$$
65220
                    3D
 Schrodinger Suite 2021-1.
 41 44  0  0  1  0            999 V2000
   23.8870   52.6701   11.4775 C   0  0  0  0  0  0
   22.8644   52.3317   12.5419 C   0  0  0  0  0  0
   22.5399   53.2525   13.5367 C   0  0  0  0  0  0
   21.7233   52.8690   14.6000 C   0  0  0  0  0  0
   21.2466   51.5608   14.7117 C   0  0  0  0  0  0
   21.4030   50.7190   13.5962 C   0  0  0  0  0  0
   22.2553   51.0810   12.5494 C   0  0  0  0  0  0
   20.7011   49.4359   13.5830 C   0  0  0  0  0  0
   20.1407   48.6150   12.6708 C   0  0  0  0  0  0
   19.7821   47.3933   13.4150 C   0  0  0  0  0  0
   19.3227   46.3430   13.0002 O   0  0  0  0  0  0
   20.1004   47.5304   14.7003 O   0  0  0  0  0  0
   20.7191   48.7577   14.9155 C   0  0  2  0  0  0
   20.0101   49.5840   15.9536 C   0  0  0  0  0  0
   20.6542   51.0140   16.0374 C   0  0  0  0  0  0
   19.9443   48.8298   11.1871 C   0  0  0  0  0  0
   20.0488   50.0957   10.5909 C   0  0  0  0  0  0
   20.1235   50.2303    9.2018 C   0  0  0  0  0  0
   20.1165   49.1071    8.3736 C   0  0  0  0  0  0
   19.8096   47.8729    8.9347 C   0  0  0  0  0  0
   19.7230   47.7487   10.3203 C   0  0  0  0  0  0
   20.1685   49.2849    6.6026 S   0  0  0  0  0  0
   18.5209   49.0137    5.9268 C   0  0  0  0  0  0
   24.6146   53.3876   11.8553 H   0  0  0  0  0  0
   24.4490   51.7839   11.1792 H   0  0  0  0  0  0
   23.3995   53.0813   10.6000 H   0  0  0  0  0  0
   22.9754   54.2416   13.5338 H   0  0  0  0  0  0
   21.5713   53.5691   15.4068 H   0  0  0  0  0  0
   22.4653   50.3811   11.7526 H   0  0  0  0  0  0
   21.7224   48.6730   15.2865 H   0  0  0  0  0  0
   18.9416   49.4729   15.7586 H   0  0  0  0  0  0
   20.1230   49.0915   16.9121 H   0  0  0  0  0  0
   21.5147   50.9136   16.6992 H   0  0  0  0  0  0
   20.0284   51.7372   16.5551 H   0  0  0  0  0  0
   20.1011   50.9892   11.1928 H   0  0  0  0  0  0
   20.2395   51.1993    8.7492 H   0  0  0  0  0  0
   19.7101   47.0017    8.3052 H   0  0  0  0  0  0
   19.6923   46.7466   10.7019 H   0  0  0  0  0  0
   18.5648   48.9824    4.8378 H   0  0  0  0  0  0
   18.1231   48.0661    6.2850 H   0  0  0  0  0  0
   17.8486   49.8244    6.2073 H   0  0  0  0  0  0
  1  2  1  0  0  0
  1 24  1  0  0  0
  1 25  1  0  0  0
  1 26  1  0  0  0
  2  7  1  0  0  0
  2  3  2  0  0  0
  3  4  1  0  0  0
  3 27  1  0  0  0
  4  5  2  0  0  0
  4 28  1  0  0  0
  5 15  1  0  0  0
  5  6  1  0  0  0
  6  7  2  0  0  0
  6  8  1  0  0  0
  7 29  1  0  0  0
  8 13  1  0  0  0
  8  9  2  0  0  0
  9 10  1  0  0  0
  9 16  1  0  0  0
 10 11  2  0  0  0
 10 12  1  0  0  0
 12 13  1  0  0  0
 13 14  1  0  0  0
 13 30  1  0  0  0
 14 15  1  0  0  0
 14 31  1  0  0  0
 14 32  1  0  0  0
 15 33  1  0  0  0
 15 34  1  0  0  0
 16 21  1  0  0  0
 16 17  2  0  0  0
 17 18  1  0  0  0
 17 35  1  0  0  0
 18 19  2  0  0  0
 18 36  1  0  0  0
 19 20  1  0  0  0
 19 22  1  0  0  0
 20 21  2  0  0  0
 20 37  1  0  0  0
 21 38  1  0  0  0
 22 23  1  0  0  0
 23 39  1  0  0  0
 23 40  1  0  0  0
 23 41  1  0  0  0
M  END
> <s_m_entry_id>
6064

> <s_m_entry_name>
ligand_docking-pose.163

> <s_m_Source_Path>
/home/csk/Desktop/cluster/DUD-E-result/pgh1

> <s_m_Source_File>
ligand_docking-pose.sdf

> <i_m_Source_File_Index>
163

> <i_lp_mmshare_version>
53161

> <i_f3d_flags>
0

> <r_lp_tautomer_probability>
0.999841193423406

> <s_lp_Force_Field>
OPLS_2005

> <r_lp_Energy>
23.653707

> <b_lp_Chiralities_Consistent>
1

> <s_lp_Variant>
65220-1

> <s_i_glide_gridfile>
glide-grid_2oyu

> <i_i_glide_lignum>
181

> <i_i_glide_rotatable_bonds>
2

> <r_i_docking_score>
-7.78974341804269

> <r_i_glide_ligand_efficiency>
-0.338684496436639

> <r_i_glide_ligand_efficiency_sa>
-0.963173654997137

> <r_i_glide_ligand_efficiency_ln>
-1.88363059197086

> <r_i_glide_gscore>
-7.78974341804269

> <r_i_glide_lipo>
-4.73569724214767

> <r_i_glide_hbond>
-0.0923077538969563

> <r_i_glide_metal>
0

> <r_i_glide_rewards>
-2.01068138663126

> <r_i_glide_evdw>
-20.0201950073242

> <r_i_glide_ecoul>
-0.866216897964478

> <r_i_glide_erotb>
0.179885249694083

> <r_i_glide_esite>
0

> <r_i_glide_emodel>
-41.4985801400488

> <r_i_glide_energy>
-20.8864119052887

> <r_i_glide_einternal>
7.64596366882324

> <i_i_glide_confnum>
2

> <i_i_glide_posenum>
204

> <r_i_glide_eff_state_penalty>
0

> <s_user_duplicate_titles>
65220

> <s_m_subgroup_title>
dock_pv

> <s_m_subgroupid>
dock_pv1

> <b_m_subgroup_collapsed>
0

$$$$
80357
                    3D
 Schrodinger Suite 2021-1.
 35 37  0  0  1  0            999 V2000
   23.8275   52.3114   11.3643 C   0  0  0  0  0  0
   22.9264   52.1667   12.5808 C   0  0  0  0  0  0
   22.5490   53.3118   13.2878 C   0  0  0  0  0  0
   21.7414   53.2129   14.4136 C   0  0  0  0  0  0
   21.3229   51.9661   14.8622 C   0  0  0  0  0  0
   21.6033   50.8167   14.1119 C   0  0  0  0  0  0
   22.4603   50.9104   13.0000 C   0  0  0  0  0  0
   23.0134   49.4735   12.1995 Cl  0  0  0  0  0  0
   21.1472   49.5833   14.5969 N   0  0  0  0  0  0
   19.9027   48.9555   14.4931 C   0  0  0  0  0  0
   19.3851   48.5061   15.7063 C   0  0  0  0  0  0
   18.1489   47.8736   15.7853 C   0  0  0  0  0  0
   17.4194   47.6638   14.6233 C   0  0  0  0  0  0
   17.9427   48.0701   13.3988 C   0  0  0  0  0  0
   19.1908   48.7032   13.3062 C   0  0  0  0  0  0
   19.6490   49.0019   11.9197 C   0  0  0  0  0  0
   19.9613   50.1509   11.3679 N   0  0  0  0  0  0
   20.1234   49.8974   10.0058 N   0  0  0  0  0  0
   19.8381   48.6275    9.8434 C   0  0  0  0  0  0
   19.5485   48.0031   11.0062 O   0  0  0  0  0  0
   19.7231   47.8734    8.7072 N   0  0  0  0  0  0
   19.7233   48.3820    7.4633 C   0  0  0  0  0  0
   19.7231   48.7439    6.3656 N   0  0  0  0  0  0
   20.5231   51.8684   16.3993 Cl  0  0  0  0  0  0
   23.7282   53.2955   10.9099 H   0  0  0  0  0  0
   24.8702   52.1425   11.6299 H   0  0  0  0  0  0
   23.5528   51.5995   10.5873 H   0  0  0  0  0  0
   22.9104   54.2869   12.9997 H   0  0  0  0  0  0
   21.5177   54.1015   14.9856 H   0  0  0  0  0  0
   21.5955   49.3660   15.4729 H   0  0  0  0  0  0
   19.9508   48.6772   16.6013 H   0  0  0  0  0  0
   17.7575   47.5545   16.7409 H   0  0  0  0  0  0
   16.4587   47.1753   14.6667 H   0  0  0  0  0  0
   17.3634   47.8733   12.5089 H   0  0  0  0  0  0
   19.4817   46.9011    8.8046 H   0  0  0  0  0  0
  1  2  1  0  0  0
  1 25  1  0  0  0
  1 26  1  0  0  0
  1 27  1  0  0  0
  2  7  1  0  0  0
  2  3  2  0  0  0
  3  4  1  0  0  0
  3 28  1  0  0  0
  4  5  2  0  0  0
  4 29  1  0  0  0
  5  6  1  0  0  0
  5 24  1  0  0  0
  6  7  2  0  0  0
  6  9  1  0  0  0
  7  8  1  0  0  0
  9 10  1  0  0  0
  9 30  1  0  0  0
 10 15  1  0  0  0
 10 11  2  0  0  0
 11 12  1  0  0  0
 11 31  1  0  0  0
 12 13  2  0  0  0
 12 32  1  0  0  0
 13 14  1  0  0  0
 13 33  1  0  0  0
 14 15  2  0  0  0
 14 34  1  0  0  0
 15 16  1  0  0  0
 16 20  1  0  0  0
 16 17  2  0  0  0
 17 18  1  0  0  0
 18 19  2  0  0  0
 19 20  1  0  0  0
 19 21  1  0  0  0
 21 22  1  0  0  0
 21 35  1  0  0  0
 22 23  3  0  0  0
M  END
> <s_m_entry_id>
6065

> <s_m_entry_name>
ligand_docking-pose.164

> <s_m_Source_Path>
/home/csk/Desktop/cluster/DUD-E-result/pgh1

> <s_m_Source_File>
ligand_docking-pose.sdf

> <i_m_Source_File_Index>
164

> <i_lp_mmshare_version>
53161

> <i_f3d_flags>
0

> <r_lp_tautomer_probability>
1

> <s_lp_Force_Field>
OPLS_2005

> <r_lp_Energy>
22.217133

> <b_lp_Chiralities_Consistent>
1

> <s_lp_Variant>
80357-1

> <s_i_glide_gridfile>
glide-grid_2oyu

> <i_i_glide_lignum>
220

> <i_i_glide_rotatable_bonds>
4

> <r_i_docking_score>
-7.78020591067891

> <r_i_glide_ligand_efficiency>
-0.324175246278288

> <r_i_glide_ligand_efficiency_sa>
-0.935083218307736

> <r_i_glide_ligand_efficiency_ln>
-1.8621602848116

> <r_i_glide_gscore>
-7.78020591067891

> <r_i_glide_lipo>
-4.62417640643374

> <r_i_glide_hbond>
0

> <r_i_glide_metal>
0

> <r_i_glide_rewards>
-2.00535981284833

> <r_i_glide_evdw>
-39.2202796936035

> <r_i_glide_ecoul>
1.46088826656342

> <r_i_glide_erotb>
0.591211053298824

> <r_i_glide_esite>
0

> <r_i_glide_emodel>
-42.6835163509671

> <r_i_glide_energy>
-37.7593914270401

> <r_i_glide_einternal>
11.7252855300903

> <i_i_glide_confnum>
23

> <i_i_glide_posenum>
96

> <r_i_glide_eff_state_penalty>
0

> <s_user_duplicate_titles>
80357

> <s_m_subgroup_title>
dock_pv

> <s_m_subgroupid>
dock_pv1

> <b_m_subgroup_collapsed>
0

$$$$
23262
                    3D
 Schrodinger Suite 2021-1.
 33 35  0  0  1  0            999 V2000
   20.5876   49.6706   10.2239 C   0  0  0  0  0  0
   21.1295   50.0656   11.5222 N   0  0  0  0  0  0
   22.3320   50.7216   11.7117 C   0  0  0  0  0  0
   23.3498   51.0744   10.8217 C   0  0  0  0  0  0
   24.3391   51.9411   11.2858 C   0  0  0  0  0  0
   24.3436   52.4061   12.5959 C   0  0  0  0  0  0
   23.3938   51.9618   13.5072 C   0  0  0  0  0  0
   22.3838   51.0917   13.0776 C   0  0  0  0  0  0
   21.3220   50.4059   13.7409 C   0  0  0  0  0  0
   20.5583   49.7915   12.7539 C   0  0  0  0  0  0
   19.2590   49.0034   12.8686 C   0  0  0  0  0  0
   18.9122   48.3867   14.2393 C   0  0  0  0  0  0
   20.1229   47.9436   15.0651 C   0  0  0  0  0  0
   20.7718   49.0722   15.8952 C   0  0  0  0  0  0
   21.0939   50.4285   15.2352 C   0  0  0  0  0  0
   25.3140   53.2767   13.0081 O   0  0  0  0  0  0
   20.9027   50.3816    9.4602 H   0  0  0  0  0  0
   20.9227   48.6733    9.9567 H   0  0  0  0  0  0
   19.4984   49.6859   10.2527 H   0  0  0  0  0  0
   23.3516   50.7362    9.8002 H   0  0  0  0  0  0
   25.1133   52.2561   10.6009 H   0  0  0  0  0  0
   23.4460   52.2742   14.5380 H   0  0  0  0  0  0
   18.4468   49.6694   12.6000 H   0  0  0  0  0  0
   19.2508   48.1960   12.1349 H   0  0  0  0  0  0
   18.3090   49.0731   14.8316 H   0  0  0  0  0  0
   18.2584   47.5293   14.0698 H   0  0  0  0  0  0
   19.8167   47.1510   15.7495 H   0  0  0  0  0  0
   20.8540   47.4869   14.3980 H   0  0  0  0  0  0
   20.1225   49.2846   16.7347 H   0  0  0  0  0  0
   21.6802   48.6778   16.3434 H   0  0  0  0  0  0
   21.9602   50.8435   15.7462 H   0  0  0  0  0  0
   20.3187   51.1510   15.4714 H   0  0  0  0  0  0
   25.8610   53.5898   12.2859 H   0  0  0  0  0  0
  1  2  1  0  0  0
  1 17  1  0  0  0
  1 18  1  0  0  0
  1 19  1  0  0  0
  2 10  1  0  0  0
  2  3  1  0  0  0
  3  8  2  0  0  0
  3  4  1  0  0  0
  4  5  2  0  0  0
  4 20  1  0  0  0
  5  6  1  0  0  0
  5 21  1  0  0  0
  6  7  2  0  0  0
  6 16  1  0  0  0
  7  8  1  0  0  0
  7 22  1  0  0  0
  8  9  1  0  0  0
  9 15  1  0  0  0
  9 10  2  0  0  0
 10 11  1  0  0  0
 11 12  1  0  0  0
 11 23  1  0  0  0
 11 24  1  0  0  0
 12 13  1  0  0  0
 12 25  1  0  0  0
 12 26  1  0  0  0
 13 14  1  0  0  0
 13 27  1  0  0  0
 13 28  1  0  0  0
 14 15  1  0  0  0
 14 29  1  0  0  0
 14 30  1  0  0  0
 15 31  1  0  0  0
 15 32  1  0  0  0
 16 33  1  0  0  0
M  END
> <s_m_entry_id>
6066

> <s_m_entry_name>
ligand_docking-pose.165

> <s_m_Source_Path>
/home/csk/Desktop/cluster/DUD-E-result/pgh1

> <s_m_Source_File>
ligand_docking-pose.sdf

> <i_m_Source_File_Index>
165

> <i_lp_mmshare_version>
53161

> <i_f3d_flags>
0

> <r_lp_tautomer_probability>
1

> <s_lp_Force_Field>
OPLS_2005

> <r_lp_Energy>
13.127568

> <b_lp_Chiralities_Consistent>
1

> <s_lp_Variant>
23262-1

> <s_i_glide_gridfile>
glide-grid_2oyu

> <i_i_glide_lignum>
548

> <i_i_glide_rotatable_bonds>
1

> <r_i_docking_score>
-7.77938677200844

> <r_i_glide_ligand_efficiency>
-0.486211673250527

> <r_i_glide_ligand_efficiency_sa>
-1.22517664253359

> <r_i_glide_ligand_efficiency_ln>
-2.06208186069904

> <r_i_glide_gscore>
-7.77938677200844

> <r_i_glide_lipo>
-3.83904784300237

> <r_i_glide_hbond>
0

> <r_i_glide_metal>
0

> <r_i_glide_rewards>
-2.70786521212121

> <r_i_glide_evdw>
-25.0931854248047

> <r_i_glide_ecoul>
0.147903695702553

> <r_i_glide_erotb>
0

> <r_i_glide_esite>
0

> <r_i_glide_emodel>
-31.3900727427077

> <r_i_glide_energy>
-24.9452817291021

> <r_i_glide_einternal>
1.33393537998199

> <i_i_glide_confnum>
1

> <i_i_glide_posenum>
54

> <r_i_glide_eff_state_penalty>
0

> <s_user_duplicate_titles>
23262

> <s_m_subgroup_title>
dock_pv

> <s_m_subgroupid>
dock_pv1

> <b_m_subgroup_collapsed>
0

$$$$
201896
                    3D
 Schrodinger Suite 2021-1.
 45 46  0  0  1  0            999 V2000
   19.6105   48.5482   15.9597 C   0  0  0  0  0  0
   19.3082   48.2512   14.4781 C   0  0  0  0  0  0
   19.7231   46.7773   14.2597 C   0  0  0  0  0  0
   17.7618   48.3009   14.3048 C   0  0  0  0  0  0
   20.0516   49.1567   13.4321 C   0  0  0  0  0  0
   19.8352   48.8085   12.1013 C   0  0  0  0  0  0
   20.4313   49.4758   11.0445 C   0  0  0  0  0  0
   21.2758   50.5565   11.3082 C   0  0  0  0  0  0
   21.5660   50.9642   12.6249 C   0  0  0  0  0  0
   20.9229   50.2569   13.6839 C   0  0  0  0  0  0
   21.1445   50.6725   14.9684 O   0  0  0  0  0  0
   22.6265   52.1057   12.8765 C   0  0  0  0  0  0
   23.7230   51.5994   13.8002 C   0  0  0  0  0  0
   22.0478   53.3672   13.5765 C   0  0  0  0  0  0
   23.4639   52.5033   11.6181 C   0  0  0  0  0  0
   20.1230   48.9574    9.6823 C   0  0  0  0  0  0
   20.1230   49.6002    8.5518 N   0  0  0  0  0  0
   19.7230   48.6694    7.7090 C   0  0  0  0  0  0
   19.4861   47.4731    8.1998 N   0  0  0  0  0  0
   19.7230   47.6628    9.5552 O   0  0  0  0  0  0
   19.4004   49.0094    6.2817 C   0  0  0  0  0  0
   20.9230   49.0732    5.4000 Cl  0  0  0  0  0  0
   19.0344   47.8801   16.6001 H   0  0  0  0  0  0
   19.3223   49.5539   16.2467 H   0  0  0  0  0  0
   20.6661   48.4170   16.1999 H   0  0  0  0  0  0
   19.3717   46.3717   13.3102 H   0  0  0  0  0  0
   20.8064   46.6860   14.2778 H   0  0  0  0  0  0
   19.3222   46.1224   15.0352 H   0  0  0  0  0  0
   17.4400   48.4647   13.2767 H   0  0  0  0  0  0
   17.2840   47.3779   14.6364 H   0  0  0  0  0  0
   17.3078   49.0730   14.9160 H   0  0  0  0  0  0
   19.1710   47.9866   11.8764 H   0  0  0  0  0  0
   21.7276   51.0524   10.4631 H   0  0  0  0  0  0
   21.6821   51.4668   14.9828 H   0  0  0  0  0  0
   24.1200   50.6730   13.4000 H   0  0  0  0  0  0
   24.5588   52.2968   13.8725 H   0  0  0  0  0  0
   23.4065   51.4730   14.8242 H   0  0  0  0  0  0
   21.3228   53.9183   13.0000 H   0  0  0  0  0  0
   21.5679   53.1428   14.5275 H   0  0  0  0  0  0
   22.8394   54.0849   13.8006 H   0  0  0  0  0  0
   22.9230   53.0006   10.8356 H   0  0  0  0  0  0
   24.2665   53.2000   11.8657 H   0  0  0  0  0  0
   23.9412   51.6346   11.1601 H   0  0  0  0  0  0
   18.7573   48.2775    5.7943 H   0  0  0  0  0  0
   18.9185   49.9828    6.1801 H   0  0  0  0  0  0
  1  2  1  0  0  0
  1 23  1  0  0  0
  1 24  1  0  0  0
  1 25  1  0  0  0
  2  3  1  0  0  0
  2  4  1  0  0  0
  2  5  1  0  0  0
  3 26  1  0  0  0
  3 27  1  0  0  0
  3 28  1  0  0  0
  4 29  1  0  0  0
  4 30  1  0  0  0
  4 31  1  0  0  0
  5 10  1  0  0  0
  5  6  2  0  0  0
  6  7  1  0  0  0
  6 32  1  0  0  0
  7  8  2  0  0  0
  7 16  1  0  0  0
  8  9  1  0  0  0
  8 33  1  0  0  0
  9 10  2  0  0  0
  9 12  1  0  0  0
 10 11  1  0  0  0
 11 34  1  0  0  0
 12 13  1  0  0  0
 12 14  1  0  0  0
 12 15  1  0  0  0
 13 35  1  0  0  0
 13 36  1  0  0  0
 13 37  1  0  0  0
 14 38  1  0  0  0
 14 39  1  0  0  0
 14 40  1  0  0  0
 15 41  1  0  0  0
 15 42  1  0  0  0
 15 43  1  0  0  0
 16 20  1  0  0  0
 16 17  2  0  0  0
 17 18  1  0  0  0
 18 19  2  0  0  0
 18 21  1  0  0  0
 19 20  1  0  0  0
 21 22  1  0  0  0
 21 44  1  0  0  0
 21 45  1  0  0  0
M  END
> <s_m_entry_id>
6069

> <s_m_entry_name>
ligand_docking-pose.168

> <s_m_Source_Path>
/home/csk/Desktop/cluster/DUD-E-result/pgh1

> <s_m_Source_File>
ligand_docking-pose.sdf

> <i_m_Source_File_Index>
168

> <i_lp_mmshare_version>
53161

> <i_f3d_flags>
0

> <r_lp_tautomer_probability>
0.999999999997365

> <s_lp_Force_Field>
OPLS_2005

> <r_lp_Energy>
21.507877

> <b_lp_Chiralities_Consistent>
1

> <s_lp_Variant>
201896-1

> <s_i_glide_gridfile>
glide-grid_2oyu

> <i_i_glide_lignum>
408

> <i_i_glide_rotatable_bonds>
5

> <r_i_docking_score>
-7.75735222324726

> <r_i_glide_ligand_efficiency>
-0.352606919238512

> <r_i_glide_ligand_efficiency_sa>
-0.988018454949535

> <r_i_glide_ligand_efficiency_ln>
-1.89617983965903

> <r_i_glide_gscore>
-7.75735222324726

> <r_i_glide_lipo>
-4.1633000144648

> <r_i_glide_hbond>
0

> <r_i_glide_metal>
0

> <r_i_glide_rewards>
-2.16825153606402

> <r_i_glide_evdw>
-29.4465713500977

> <r_i_glide_ecoul>
-0.886379659175873

> <r_i_glide_erotb>
0.179484843662829

> <r_i_glide_esite>
0

> <r_i_glide_emodel>
-28.4794124200277

> <r_i_glide_energy>
-30.3329510092735

> <r_i_glide_einternal>
11.116849899292

> <i_i_glide_confnum>
1

> <i_i_glide_posenum>
337

> <r_i_glide_eff_state_penalty>
0

> <s_user_duplicate_titles>
201896

> <s_m_subgroup_title>
dock_pv

> <s_m_subgroupid>
dock_pv1

> <b_m_subgroup_collapsed>
0

$$$$
201915
                    3D
 Schrodinger Suite 2021-1.
 43 44  0  0  1  0            999 V2000
   18.1238   46.7091   14.2385 C   0  0  0  0  0  0
   19.0377   47.8381   14.7555 C   0  0  0  0  0  0
   18.1463   48.6663   15.7058 C   0  0  0  0  0  0
   20.1308   47.1381   15.5620 C   0  0  0  0  0  0
   19.6984   48.6856   13.6151 C   0  0  0  0  0  0
   19.4779   48.3463   12.2698 C   0  0  0  0  0  0
   20.0934   49.0245   11.2169 C   0  0  0  0  0  0
   20.9438   50.0795   11.5223 C   0  0  0  0  0  0
   21.1859   50.5111   12.8396 C   0  0  0  0  0  0
   20.5657   49.7755   13.8810 C   0  0  0  0  0  0
   20.8198   50.1289   15.1800 O   0  0  0  0  0  0
   22.0898   51.7709   13.1038 C   0  0  0  0  0  0
   23.2679   51.4730   14.0167 C   0  0  0  0  0  0
   21.2966   52.9169   13.7949 C   0  0  0  0  0  0
   22.8047   52.2730   11.8232 C   0  0  0  0  0  0
   19.8503   48.6316    9.7820 C   0  0  0  0  0  0
   20.1230   49.4067    8.7459 N   0  0  0  0  0  0
   19.7340   48.6773    7.7291 C   0  0  0  0  0  0
   19.2414   47.4730    8.0789 O   0  0  0  0  0  0
   19.3230   47.4730    9.4670 N   0  0  0  0  0  0
   19.7230   49.1010    6.0296 S   0  0  0  0  0  0
   17.7010   46.1118   15.0479 H   0  0  0  0  0  0
   18.6725   46.0186   13.5981 H   0  0  0  0  0  0
   17.2771   47.1271   13.6961 H   0  0  0  0  0  0
   18.6785   49.4730   16.2000 H   0  0  0  0  0  0
   17.2943   49.0730   15.1676 H   0  0  0  0  0  0
   17.7368   48.0482   16.5065 H   0  0  0  0  0  0
   20.6724   47.8396   16.1989 H   0  0  0  0  0  0
   19.7313   46.3507   16.2000 H   0  0  0  0  0  0
   20.8475   46.6730   14.8911 H   0  0  0  0  0  0
   18.8206   47.5324   12.0078 H   0  0  0  0  0  0
   21.4097   50.5408   10.6714 H   0  0  0  0  0  0
   21.3230   50.9441   15.2195 H   0  0  0  0  0  0
   23.8419   50.6730   13.5799 H   0  0  0  0  0  0
   23.9366   52.3267   14.1424 H   0  0  0  0  0  0
   22.9250   51.2086   15.0000 H   0  0  0  0  0  0
   20.2979   53.0717   13.4000 H   0  0  0  0  0  0
   21.1513   52.7311   14.8592 H   0  0  0  0  0  0
   21.8232   53.8702   13.7280 H   0  0  0  0  0  0
   22.1230   52.3422   11.0000 H   0  0  0  0  0  0
   23.2809   53.2448   11.9594 H   0  0  0  0  0  0
   23.5812   51.5838   11.4846 H   0  0  0  0  0  0
   18.9567   50.2118    6.1869 H   0  0  0  0  0  0
  1  2  1  0  0  0
  1 22  1  0  0  0
  1 23  1  0  0  0
  1 24  1  0  0  0
  2  3  1  0  0  0
  2  4  1  0  0  0
  2  5  1  0  0  0
  3 25  1  0  0  0
  3 26  1  0  0  0
  3 27  1  0  0  0
  4 28  1  0  0  0
  4 29  1  0  0  0
  4 30  1  0  0  0
  5 10  1  0  0  0
  5  6  2  0  0  0
  6  7  1  0  0  0
  6 31  1  0  0  0
  7  8  2  0  0  0
  7 16  1  0  0  0
  8  9  1  0  0  0
  8 32  1  0  0  0
  9 10  2  0  0  0
  9 12  1  0  0  0
 10 11  1  0  0  0
 11 33  1  0  0  0
 12 13  1  0  0  0
 12 14  1  0  0  0
 12 15  1  0  0  0
 13 34  1  0  0  0
 13 35  1  0  0  0
 13 36  1  0  0  0
 14 37  1  0  0  0
 14 38  1  0  0  0
 14 39  1  0  0  0
 15 40  1  0  0  0
 15 41  1  0  0  0
 15 42  1  0  0  0
 16 20  2  0  0  0
 16 17  1  0  0  0
 17 18  2  0  0  0
 18 19  1  0  0  0
 18 21  1  0  0  0
 19 20  1  0  0  0
 21 43  1  0  0  0
M  END
> <s_m_entry_id>
6070

> <s_m_entry_name>
ligand_docking-pose.169

> <s_m_Source_Path>
/home/csk/Desktop/cluster/DUD-E-result/pgh1

> <s_m_Source_File>
ligand_docking-pose.sdf

> <i_m_Source_File_Index>
169

> <i_lp_mmshare_version>
53161

> <i_f3d_flags>
0

> <r_lp_tautomer_probability>
0.999999999997365

> <s_lp_Force_Field>
OPLS_2005

> <r_lp_Energy>
23.681552

> <b_lp_Chiralities_Consistent>
1

> <s_lp_Variant>
201915-1

> <s_i_glide_gridfile>
glide-grid_2oyu

> <i_i_glide_lignum>
412

> <i_i_glide_rotatable_bonds>
5

> <r_i_docking_score>
-7.75400511930483

> <r_i_glide_ligand_efficiency>
-0.369238339014516

> <r_i_glide_ligand_efficiency_sa>
-1.01870057932014

> <r_i_glide_ligand_efficiency_ln>
-1.91716209730546

> <r_i_glide_gscore>
-7.75400511930483

> <r_i_glide_lipo>
-3.42873410765183

> <r_i_glide_hbond>
-0.121547032888518

> <r_i_glide_metal>
0

> <r_i_glide_rewards>
-2.83623120754343

> <r_i_glide_evdw>
-25.2147598266602

> <r_i_glide_ecoul>
-2.02321124076843

> <r_i_glide_erotb>
0.196726906227219

> <r_i_glide_esite>
0

> <r_i_glide_emodel>
-28.2184907511557

> <r_i_glide_energy>
-27.2379710674286

> <r_i_glide_einternal>
2.34170937538147

> <i_i_glide_confnum>
1

> <i_i_glide_posenum>
296

> <r_i_glide_eff_state_penalty>
0

> <s_user_duplicate_titles>
201915

> <s_m_subgroup_title>
dock_pv

> <s_m_subgroupid>
dock_pv1

> <b_m_subgroup_collapsed>
0

$$$$
5031
                    3D
 Schrodinger Suite 2021-1.
 32 34  0  0  1  0            999 V2000
   21.3230   51.3594   11.0000 C   0  0  0  0  0  0
   21.9511   50.9901   12.3722 C   0  0  1  0  0  0
   23.3450   50.4121   12.0844 C   0  0  0  0  0  0
   24.3380   51.4544   11.5131 C   0  0  0  0  0  0
   24.4472   52.6730   12.4451 C   0  0  0  0  0  0
   25.4635   53.3409   12.6000 O   0  0  0  0  0  0
   23.3127   52.9823   13.0858 N   0  0  0  0  0  0
   22.1168   52.3713   13.1464 C   0  0  0  0  0  0
   21.2387   52.9250   13.8000 O   0  0  0  0  0  0
   21.0390   50.0130   13.0848 N   0  0  0  0  0  0
   20.2590   49.0771   12.4388 C   0  0  0  0  0  0
   20.1823   48.8231   11.2369 O   0  0  0  0  0  0
   19.4718   48.4118   13.4862 C   0  0  0  0  0  0
   18.4542   47.4730   13.4104 C   0  0  0  0  0  0
   17.8522   47.0368   14.6000 C   0  0  0  0  0  0
   18.3205   47.4976   15.8281 C   0  0  0  0  0  0
   19.3681   48.4111   15.8612 C   0  0  0  0  0  0
   19.9016   48.8758   14.6793 C   0  0  0  0  0  0
   20.8984   49.9250   14.4476 C   0  0  0  0  0  0
   21.4144   50.5989   15.3372 O   0  0  0  0  0  0
   21.7298   52.2730   10.6000 H   0  0  0  0  0  0
   21.5217   50.6127   10.2298 H   0  0  0  0  0  0
   20.2387   51.4730   11.0494 H   0  0  0  0  0  0
   23.2534   49.5720   11.4000 H   0  0  0  0  0  0
   23.7230   49.9733   13.0000 H   0  0  0  0  0  0
   25.3230   51.0254   11.4000 H   0  0  0  0  0  0
   24.0438   51.8000   10.5223 H   0  0  0  0  0  0
   23.3725   53.8141   13.6542 H   0  0  0  0  0  0
   18.1230   47.1071   12.4516 H   0  0  0  0  0  0
   17.0362   46.3296   14.6000 H   0  0  0  0  0  0
   17.8773   47.1552   16.7493 H   0  0  0  0  0  0
   19.7722   48.7679   16.7855 H   0  0  0  0  0  0
  1  2  1  0  0  0
  1 21  1  0  0  0
  1 22  1  0  0  0
  1 23  1  0  0  0
  2  8  1  0  0  0
  2  3  1  0  0  0
  2 10  1  0  0  0
  3  4  1  0  0  0
  3 24  1  0  0  0
  3 25  1  0  0  0
  4  5  1  0  0  0
  4 26  1  0  0  0
  4 27  1  0  0  0
  5  6  2  0  0  0
  5  7  1  0  0  0
  7  8  1  0  0  0
  7 28  1  0  0  0
  8  9  2  0  0  0
 10 19  1  0  0  0
 10 11  1  0  0  0
 11 12  2  0  0  0
 11 13  1  0  0  0
 13 18  2  0  0  0
 13 14  1  0  0  0
 14 15  2  0  0  0
 14 29  1  0  0  0
 15 16  1  0  0  0
 15 30  1  0  0  0
 16 17  2  0  0  0
 16 31  1  0  0  0
 17 18  1  0  0  0
 17 32  1  0  0  0
 18 19  1  0  0  0
 19 20  2  0  0  0
M  END
> <s_m_entry_id>
6071

> <s_m_entry_name>
ligand_docking-pose.170

> <s_m_Source_Path>
/home/csk/Desktop/cluster/DUD-E-result/pgh1

> <s_m_Source_File>
ligand_docking-pose.sdf

> <i_m_Source_File_Index>
170

> <i_lp_mmshare_version>
53161

> <i_f3d_flags>
0

> <r_lp_tautomer_probability>
0.99995

> <s_lp_Force_Field>
OPLS_2005

> <r_lp_Energy>
39.231215

> <b_lp_Chiralities_Consistent>
1

> <s_lp_Variant>
5031-1

> <s_i_glide_gridfile>
glide-grid_2oyu

> <i_i_glide_lignum>
266

> <i_i_glide_rotatable_bonds>
1

> <r_i_docking_score>
-7.73713241819632

> <r_i_glide_ligand_efficiency>
-0.386856620909816

> <r_i_glide_ligand_efficiency_sa>
-1.05009042584539

> <r_i_glide_ligand_efficiency_ln>
-1.93634905656844

> <r_i_glide_gscore>
-7.73713241819632

> <r_i_glide_lipo>
-2.46111433772168

> <r_i_glide_hbond>
0

> <r_i_glide_metal>
0

> <r_i_glide_rewards>
-3.89373094753017

> <r_i_glide_evdw>
-25.0137424468994

> <r_i_glide_ecoul>
-2.48892664909363

> <r_i_glide_erotb>
0.241738986764548

> <r_i_glide_esite>
0

> <r_i_glide_emodel>
-35.9880096566251

> <r_i_glide_energy>
-27.502669095993

> <r_i_glide_einternal>
1.62665402889252

> <i_i_glide_confnum>
7

> <i_i_glide_posenum>
301

> <r_i_glide_eff_state_penalty>
0

> <s_user_duplicate_titles>
5031

> <s_m_subgroup_title>
dock_pv

> <s_m_subgroupid>
dock_pv1

> <b_m_subgroup_collapsed>
0

$$$$
40756
                    3D
 Schrodinger Suite 2021-1.
 32 33  0  0  1  0            999 V2000
   23.3900   52.7011   13.2720 C   0  0  0  0  0  0
   24.5279   53.0730   12.5676 C   0  0  0  0  0  0
   24.9230   52.3137   11.4715 C   0  0  0  0  0  0
   24.1839   51.2266   11.0520 C   0  0  0  0  0  0
   23.1094   50.8005   11.8046 C   0  0  0  0  0  0
   22.6760   51.5455   12.9133 C   0  0  0  0  0  0
   21.5288   51.1078   13.7771 C   0  0  0  0  0  0
   21.3230   51.7023   14.8398 O   0  0  0  0  0  0
   20.7249   49.8730   13.4448 C   0  0  0  0  0  0
   20.3520   49.6321   12.1103 C   0  0  0  0  0  0
   19.7230   48.4505   11.7437 C   0  0  0  0  0  0
   19.3222   47.5572   12.7212 C   0  0  0  0  0  0
   19.5367   47.8350   14.0707 C   0  0  0  0  0  0
   20.2645   48.9815   14.4409 C   0  0  0  0  0  0
   20.5225   49.2073   15.7996 N   0  0  0  0  0  0
   18.8611   46.9334   15.1019 C   0  0  0  0  0  0
   17.5867   47.6036   15.6174 C   0  0  0  0  0  0
   17.3952   47.8730   16.7993 O   0  0  0  0  0  0
   16.7254   47.8730   14.5999 O   0  0  0  0  0  0
   19.3959   48.0493    9.9127 Br  0  0  0  0  0  0
   26.5666   52.6730   10.6000 Br  0  0  0  0  0  0
   23.1014   53.2979   14.1276 H   0  0  0  0  0  0
   25.1096   53.9280   12.8815 H   0  0  0  0  0  0
   24.5225   50.6730   10.1915 H   0  0  0  0  0  0
   22.6780   49.8617   11.5039 H   0  0  0  0  0  0
   20.5853   50.3373   11.3245 H   0  0  0  0  0  0
   18.7882   46.6730   12.4192 H   0  0  0  0  0  0
   20.8648   50.1336   16.0252 H   0  0  0  0  0  0
   19.9586   48.7154   16.4775 H   0  0  0  0  0  0
   18.5982   45.9625   14.6799 H   0  0  0  0  0  0
   19.5343   46.7237   15.9316 H   0  0  0  0  0  0
   17.0929   47.6686   13.7393 H   0  0  0  0  0  0
  1  6  1  0  0  0
  1  2  2  0  0  0
  1 22  1  0  0  0
  2  3  1  0  0  0
  2 23  1  0  0  0
  3  4  2  0  0  0
  3 21  1  0  0  0
  4  5  1  0  0  0
  4 24  1  0  0  0
  5  6  2  0  0  0
  5 25  1  0  0  0
  6  7  1  0  0  0
  7  8  2  0  0  0
  7  9  1  0  0  0
  9 14  1  0  0  0
  9 10  2  0  0  0
 10 11  1  0  0  0
 10 26  1  0  0  0
 11 12  2  0  0  0
 11 20  1  0  0  0
 12 13  1  0  0  0
 12 27  1  0  0  0
 13 14  2  0  0  0
 13 16  1  0  0  0
 14 15  1  0  0  0
 15 28  1  0  0  0
 15 29  1  0  0  0
 16 17  1  0  0  0
 16 30  1  0  0  0
 16 31  1  0  0  0
 17 18  2  0  0  0
 17 19  1  0  0  0
 19 32  1  0  0  0
M  END
> <s_m_entry_id>
6073

> <s_m_entry_name>
ligand_docking-pose.172

> <s_m_Source_Path>
/home/csk/Desktop/cluster/DUD-E-result/pgh1

> <s_m_Source_File>
ligand_docking-pose.sdf

> <i_m_Source_File_Index>
172

> <i_lp_mmshare_version>
53161

> <i_f3d_flags>
0

> <r_lp_tautomer_probability>
1

> <s_lp_Force_Field>
OPLS_2005

> <r_lp_Energy>
23.626605

> <b_lp_Chiralities_Consistent>
1

> <s_lp_Variant>
40756-1

> <s_i_glide_gridfile>
glide-grid_2oyu

> <i_i_glide_lignum>
117

> <i_i_glide_rotatable_bonds>
5

> <r_i_docking_score>
-7.69875898879949

> <r_i_glide_ligand_efficiency>
-0.366607570895214

> <r_i_glide_ligand_efficiency_sa>
-1.01144248956071

> <r_i_glide_ligand_efficiency_ln>
-1.90350260317333

> <r_i_glide_gscore>
-7.69875898879949

> <r_i_glide_lipo>
-3.6791315093449

> <r_i_glide_hbond>
0

> <r_i_glide_metal>
0

> <r_i_glide_rewards>
-2.19465114014409

> <r_i_glide_evdw>
-39.9157371520996

> <r_i_glide_ecoul>
-1.9441112279892

> <r_i_glide_erotb>
0.462427202492854

> <r_i_glide_esite>
0

> <r_i_glide_emodel>
-54.6817488685893

> <r_i_glide_energy>
-41.8598483800888

> <r_i_glide_einternal>
5.61559104919434

> <i_i_glide_confnum>
82

> <i_i_glide_posenum>
303

> <r_i_glide_eff_state_penalty>
0

> <s_user_duplicate_titles>
40756

> <s_m_subgroup_title>
dock_pv

> <s_m_subgroupid>
dock_pv1

> <b_m_subgroup_collapsed>
0

$$$$
87144
                    3D
 Schrodinger Suite 2021-1.
 32 33  0  0  1  0            999 V2000
   24.3975   51.8702   10.6011 C   0  0  0  0  0  0
   23.2404   51.4322   11.4840 C   0  0  0  0  0  0
   22.3505   50.4637   11.0066 C   0  0  0  0  0  0
   21.2583   50.0618   11.7772 C   0  0  0  0  0  0
   21.0671   50.6310   13.0292 C   0  0  0  0  0  0
   21.9430   51.5907   13.5273 C   0  0  0  0  0  0
   23.0432   51.9953   12.7554 C   0  0  0  0  0  0
   23.9216   52.9385   13.2337 O   0  0  0  0  0  0
   21.6287   52.1747   14.8901 C   0  0  0  0  0  0
   20.2409   49.0693   11.2400 C   0  0  0  0  0  0
   20.0581   47.7796   12.0747 C   0  0  0  0  0  0
   19.1867   47.8920   13.3204 C   0  0  0  0  0  0
   17.7995   47.9587   13.4229 C   0  0  0  0  0  0
   17.3027   47.9665   14.7266 C   0  0  0  0  0  0
   18.2970   47.9305   15.6769 C   0  0  0  0  0  0
   19.8508   47.8702   14.9345 S   0  0  0  0  0  0
   24.2268   52.8850   10.2421 H   0  0  0  0  0  0
   25.3312   51.8724   11.1621 H   0  0  0  0  0  0
   24.5233   51.2074    9.7443 H   0  0  0  0  0  0
   22.5002   50.0343   10.0274 H   0  0  0  0  0  0
   20.2147   50.3348   13.6184 H   0  0  0  0  0  0
   23.7042   53.2439   14.1191 H   0  0  0  0  0  0
   20.5510   52.2815   15.0149 H   0  0  0  0  0  0
   21.9714   51.4864   15.6591 H   0  0  0  0  0  0
   22.0593   53.1660   15.0280 H   0  0  0  0  0  0
   20.5234   48.7885   10.2243 H   0  0  0  0  0  0
   19.2985   49.5951   11.1246 H   0  0  0  0  0  0
   21.0321   47.3472   12.3081 H   0  0  0  0  0  0
   19.5831   47.0680   11.4052 H   0  0  0  0  0  0
   17.1439   47.9643   12.5683 H   0  0  0  0  0  0
   16.2502   47.9994   14.9632 H   0  0  0  0  0  0
   18.1938   47.9300   16.7519 H   0  0  0  0  0  0
  1  2  1  0  0  0
  1 17  1  0  0  0
  1 18  1  0  0  0
  1 19  1  0  0  0
  2  7  1  0  0  0
  2  3  2  0  0  0
  3  4  1  0  0  0
  3 20  1  0  0  0
  4  5  2  0  0  0
  4 10  1  0  0  0
  5  6  1  0  0  0
  5 21  1  0  0  0
  6  7  2  0  0  0
  6  9  1  0  0  0
  7  8  1  0  0  0
  8 22  1  0  0  0
  9 23  1  0  0  0
  9 24  1  0  0  0
  9 25  1  0  0  0
 10 11  1  0  0  0
 10 26  1  0  0  0
 10 27  1  0  0  0
 11 12  1  0  0  0
 11 28  1  0  0  0
 11 29  1  0  0  0
 12 16  1  0  0  0
 12 13  2  0  0  0
 13 14  1  0  0  0
 13 30  1  0  0  0
 14 15  2  0  0  0
 14 31  1  0  0  0
 15 16  1  0  0  0
 15 32  1  0  0  0
M  END
> <s_m_entry_id>
6075

> <s_m_entry_name>
ligand_docking-pose.174

> <s_m_Source_Path>
/home/csk/Desktop/cluster/DUD-E-result/pgh1

> <s_m_Source_File>
ligand_docking-pose.sdf

> <i_m_Source_File_Index>
174

> <i_lp_mmshare_version>
53161

> <i_f3d_flags>
0

> <r_lp_tautomer_probability>
0.999999999997365

> <s_lp_Force_Field>
OPLS_2005

> <r_lp_Energy>
1.376301

> <b_lp_Chiralities_Consistent>
1

> <s_lp_Variant>
87144-1

> <s_i_glide_gridfile>
glide-grid_2oyu

> <i_i_glide_lignum>
258

> <i_i_glide_rotatable_bonds>
4

> <r_i_docking_score>
-7.68117351455168

> <r_i_glide_ligand_efficiency>
-0.48007334465948

> <r_i_glide_ligand_efficiency_sa>
-1.20970902374182

> <r_i_glide_ligand_efficiency_ln>
-2.03604847495578

> <r_i_glide_gscore>
-7.68117351455168

> <r_i_glide_lipo>
-4.23919057527508

> <r_i_glide_hbond>
-0.192941581316618

> <r_i_glide_metal>
0

> <r_i_glide_rewards>
-2.33558607152774

> <r_i_glide_evdw>
-30.9839096069336

> <r_i_glide_ecoul>
-2.10747337341309

> <r_i_glide_erotb>
0.951861199926397

> <r_i_glide_esite>
0

> <r_i_glide_emodel>
-46.3718904323362

> <r_i_glide_energy>
-33.0913829803467

> <r_i_glide_einternal>
0.620397388935089

> <i_i_glide_confnum>
5

> <i_i_glide_posenum>
38

> <r_i_glide_eff_state_penalty>
0

> <s_user_duplicate_titles>
87144

> <s_m_subgroup_title>
dock_pv

> <s_m_subgroupid>
dock_pv1

> <b_m_subgroup_collapsed>
0

$$$$
40214
                    3D
 Schrodinger Suite 2021-1.
 35 36  0  0  1  0            999 V2000
   19.7230   48.5582    9.9567 C   0  0  0  0  0  0
   19.9108   48.8091   11.4439 C   0  0  0  0  0  0
   19.5118   47.8730   12.3931 C   0  0  0  0  0  0
   19.7298   48.1000   13.7564 C   0  0  0  0  0  0
   20.4197   49.2580   14.1682 C   0  0  0  0  0  0
   20.8680   50.1892   13.2053 C   0  0  0  0  0  0
   20.4898   49.9970   11.8690 C   0  0  0  0  0  0
   21.6648   51.4158   13.5612 C   0  0  0  0  0  0
   21.3873   52.0394   14.5902 O   0  0  0  0  0  0
   22.8973   51.7750   12.7754 C   0  0  0  0  0  0
   23.2648   51.0968   11.6023 C   0  0  0  0  0  0
   24.3781   51.4730   10.8857 C   0  0  0  0  0  0
   25.2339   52.4214   11.4000 C   0  0  0  0  0  0
   24.9230   53.0951   12.5804 C   0  0  0  0  0  0
   23.7357   52.7981   13.2434 C   0  0  0  0  0  0
   26.7371   52.6730   10.6000 Cl  0  0  0  0  0  0
   20.6360   49.4723   15.5360 N   0  0  0  0  0  0
   19.1523   47.0994   14.7630 C   0  0  0  0  0  0
   17.8715   47.6468   15.3939 C   0  0  0  0  0  0
   17.7463   47.8732   16.5930 O   0  0  0  0  0  0
   16.9138   47.8709   14.4590 O   0  0  0  0  0  0
   18.7871   48.0367    9.7659 H   0  0  0  0  0  0
   20.5223   47.9493    9.5399 H   0  0  0  0  0  0
   19.7230   49.4959    9.3994 H   0  0  0  0  0  0
   18.9994   46.9798   12.0716 H   0  0  0  0  0  0
   20.7077   50.7493   11.1229 H   0  0  0  0  0  0
   22.7468   50.2496   11.1942 H   0  0  0  0  0  0
   24.6120   50.9620    9.9649 H   0  0  0  0  0  0
   25.5933   53.8451   12.9749 H   0  0  0  0  0  0
   23.4952   53.3436   14.1458 H   0  0  0  0  0  0
   20.9237   50.4109   15.7835 H   0  0  0  0  0  0
   20.0724   48.9451   16.1873 H   0  0  0  0  0  0
   18.9210   46.1475   14.2844 H   0  0  0  0  0  0
   19.8822   46.8804   15.5424 H   0  0  0  0  0  0
   16.1286   48.2435   14.8653 H   0  0  0  0  0  0
  1  2  1  0  0  0
  1 22  1  0  0  0
  1 23  1  0  0  0
  1 24  1  0  0  0
  2  7  1  0  0  0
  2  3  2  0  0  0
  3  4  1  0  0  0
  3 25  1  0  0  0
  4  5  2  0  0  0
  4 18  1  0  0  0
  5  6  1  0  0  0
  5 17  1  0  0  0
  6  7  2  0  0  0
  6  8  1  0  0  0
  7 26  1  0  0  0
  8  9  2  0  0  0
  8 10  1  0  0  0
 10 15  1  0  0  0
 10 11  2  0  0  0
 11 12  1  0  0  0
 11 27  1  0  0  0
 12 13  2  0  0  0
 12 28  1  0  0  0
 13 14  1  0  0  0
 13 16  1  0  0  0
 14 15  2  0  0  0
 14 29  1  0  0  0
 15 30  1  0  0  0
 17 31  1  0  0  0
 17 32  1  0  0  0
 18 19  1  0  0  0
 18 33  1  0  0  0
 18 34  1  0  0  0
 19 20  2  0  0  0
 19 21  1  0  0  0
 21 35  1  0  0  0
M  END
> <s_m_entry_id>
6076

> <s_m_entry_name>
ligand_docking-pose.175

> <s_m_Source_Path>
/home/csk/Desktop/cluster/DUD-E-result/pgh1

> <s_m_Source_File>
ligand_docking-pose.sdf

> <i_m_Source_File_Index>
175

> <i_lp_mmshare_version>
53161

> <i_f3d_flags>
0

> <r_lp_tautomer_probability>
1

> <s_lp_Force_Field>
OPLS_2005

> <r_lp_Energy>
25.060876

> <b_lp_Chiralities_Consistent>
1

> <s_lp_Variant>
40214-1

> <s_i_glide_gridfile>
glide-grid_2oyu

> <i_i_glide_lignum>
237

> <i_i_glide_rotatable_bonds>
5

> <r_i_docking_score>
-7.67930310804725

> <r_i_glide_ligand_efficiency>
-0.365681100383202

> <r_i_glide_ligand_efficiency_sa>
-1.00888642766901

> <r_i_glide_ligand_efficiency_ln>
-1.89869217597165

> <r_i_glide_gscore>
-7.67930310804725

> <r_i_glide_lipo>
-3.6018927612549

> <r_i_glide_hbond>
0

> <r_i_glide_metal>
0

> <r_i_glide_rewards>
-2.82692302351544

> <r_i_glide_evdw>
-36.0830230712891

> <r_i_glide_ecoul>
-1.63650214672089

> <r_i_glide_erotb>
0.799139152295672

> <r_i_glide_esite>
0

> <r_i_glide_emodel>
-49.4492917190735

> <r_i_glide_energy>
-37.7195252180099

> <r_i_glide_einternal>
6.43411588668823

> <i_i_glide_confnum>
77

> <i_i_glide_posenum>
73

> <r_i_glide_eff_state_penalty>
0

> <s_user_duplicate_titles>
40214

> <s_m_subgroup_title>
dock_pv

> <s_m_subgroupid>
dock_pv1

> <b_m_subgroup_collapsed>
0

$$$$
41371
                    3D
 Schrodinger Suite 2021-1.
 35 36  0  0  1  0            999 V2000
   19.5369   48.1805   10.1673 C   0  0  0  0  0  0
   19.7230   48.4860   11.6447 C   0  0  0  0  0  0
   19.3143   47.5668   12.6001 C   0  0  0  0  0  0
   19.5204   47.8000   13.9598 C   0  0  0  0  0  0
   20.2188   48.9512   14.3689 C   0  0  0  0  0  0
   20.6860   49.8730   13.4033 C   0  0  0  0  0  0
   20.3283   49.6677   12.0590 C   0  0  0  0  0  0
   21.5094   51.0867   13.7718 C   0  0  0  0  0  0
   21.3126   51.6564   14.8498 O   0  0  0  0  0  0
   22.6667   51.5294   12.9196 C   0  0  0  0  0  0
   23.3869   52.6780   13.2897 C   0  0  0  0  0  0
   24.5274   53.0535   12.5881 C   0  0  0  0  0  0
   24.9230   52.3023   11.4849 C   0  0  0  0  0  0
   24.1787   51.2202   11.0586 C   0  0  0  0  0  0
   23.1028   50.7912   11.8078 C   0  0  0  0  0  0
   26.5573   52.6730   10.6000 Br  0  0  0  0  0  0
   20.4578   49.1438   15.7352 N   0  0  0  0  0  0
   18.9394   46.7949   14.9543 C   0  0  0  0  0  0
   17.5419   47.2212   15.4000 C   0  0  0  0  0  0
   16.5230   46.6730   15.0000 O   0  0  0  0  0  0
   17.5661   48.2390   16.3022 O   0  0  0  0  0  0
   18.5230   47.8778    9.9487 H   0  0  0  0  0  0
   20.1230   47.3152    9.8743 H   0  0  0  0  0  0
   19.7925   49.0245    9.5256 H   0  0  0  0  0  0
   18.8088   46.6730   12.2777 H   0  0  0  0  0  0
   20.5801   50.3988   11.3030 H   0  0  0  0  0  0
   23.0977   53.2683   14.1495 H   0  0  0  0  0  0
   25.1096   53.9053   12.9090 H   0  0  0  0  0  0
   24.5088   50.6730   10.1908 H   0  0  0  0  0  0
   22.6675   49.8564   11.4999 H   0  0  0  0  0  0
   20.7921   50.0693   15.9752 H   0  0  0  0  0  0
   19.8181   48.6842   16.3676 H   0  0  0  0  0  0
   18.8691   45.8067   14.4987 H   0  0  0  0  0  0
   19.5877   46.6731   15.8199 H   0  0  0  0  0  0
   16.6667   48.4731   16.5403 H   0  0  0  0  0  0
  1  2  1  0  0  0
  1 22  1  0  0  0
  1 23  1  0  0  0
  1 24  1  0  0  0
  2  7  1  0  0  0
  2  3  2  0  0  0
  3  4  1  0  0  0
  3 25  1  0  0  0
  4  5  2  0  0  0
  4 18  1  0  0  0
  5  6  1  0  0  0
  5 17  1  0  0  0
  6  7  2  0  0  0
  6  8  1  0  0  0
  7 26  1  0  0  0
  8  9  2  0  0  0
  8 10  1  0  0  0
 10 15  1  0  0  0
 10 11  2  0  0  0
 11 12  1  0  0  0
 11 27  1  0  0  0
 12 13  2  0  0  0
 12 28  1  0  0  0
 13 14  1  0  0  0
 13 16  1  0  0  0
 14 15  2  0  0  0
 14 29  1  0  0  0
 15 30  1  0  0  0
 17 31  1  0  0  0
 17 32  1  0  0  0
 18 19  1  0  0  0
 18 33  1  0  0  0
 18 34  1  0  0  0
 19 20  2  0  0  0
 19 21  1  0  0  0
 21 35  1  0  0  0
M  END
> <s_m_entry_id>
6078

> <s_m_entry_name>
ligand_docking-pose.177

> <s_m_Source_Path>
/home/csk/Desktop/cluster/DUD-E-result/pgh1

> <s_m_Source_File>
ligand_docking-pose.sdf

> <i_m_Source_File_Index>
177

> <i_lp_mmshare_version>
53161

> <i_f3d_flags>
0

> <r_lp_tautomer_probability>
1

> <s_lp_Force_Field>
OPLS_2005

> <r_lp_Energy>
24.824505

> <b_lp_Chiralities_Consistent>
1

> <s_lp_Variant>
41371-1

> <s_i_glide_gridfile>
glide-grid_2oyu

> <i_i_glide_lignum>
236

> <i_i_glide_rotatable_bonds>
5

> <r_i_docking_score>
-7.64824312622423

> <r_i_glide_ligand_efficiency>
-0.364202053629725

> <r_i_glide_ligand_efficiency_sa>
-1.00480584982698

> <r_i_glide_ligand_efficiency_ln>
-1.89101265822851

> <r_i_glide_gscore>
-7.64824312622423

> <r_i_glide_lipo>
-3.62170656634329

> <r_i_glide_hbond>
0

> <r_i_glide_metal>
0

> <r_i_glide_rewards>
-2.60478379656476

> <r_i_glide_evdw>
-37.4283409118652

> <r_i_glide_ecoul>
-1.18876194953918

> <r_i_glide_erotb>
0.627978574707962

> <r_i_glide_esite>
0

> <r_i_glide_emodel>
-49.3361938219366

> <r_i_glide_energy>
-38.6171028614044

> <r_i_glide_einternal>
7.06587409973145

> <i_i_glide_confnum>
77

> <i_i_glide_posenum>
119

> <r_i_glide_eff_state_penalty>
0

> <s_user_duplicate_titles>
41371

> <s_m_subgroup_title>
dock_pv

> <s_m_subgroupid>
dock_pv1

> <b_m_subgroup_collapsed>
0

$$$$
391231
                    3D
 Schrodinger Suite 2021-1.
 46 48  0  0  1  0            999 V2000
   18.0856   48.6730   16.2495 C   0  0  0  0  0  0
   19.6054   48.4793   16.0947 C   0  0  0  0  0  0
   20.5421   49.6461   15.1122 S   0  0  0  0  0  0
   20.0892   49.0729   13.5253 C   0  0  0  0  0  0
   19.2438   48.0834   13.3841 N   0  0  0  0  0  0
   19.1543   47.8764   12.1147 C   0  0  0  0  0  0
   19.9111   48.7713   11.3899 C   0  0  0  0  0  0
   20.5877   49.5524   12.3218 N   0  0  0  0  0  0
   21.6395   50.5057   12.1302 C   0  0  0  0  0  0
   21.8139   51.6138   12.9743 C   0  0  0  0  0  0
   22.9817   52.3779   12.9069 C   0  0  0  0  0  0
   23.9714   52.0865   11.9665 C   0  0  0  0  0  0
   23.7395   51.0586   11.0502 C   0  0  0  0  0  0
   22.5968   50.2730   11.1426 C   0  0  0  0  0  0
   25.1456   52.8171   12.0137 O   0  0  0  0  0  0
   26.1116   52.6730   10.9618 C   0  0  0  0  0  0
   19.9599   48.8197    9.9210 C   0  0  0  0  0  0
   19.7230   47.6276    9.2340 C   0  0  0  0  0  0
   19.7230   47.6077    7.8557 C   0  0  0  0  0  0
   19.9847   48.7766    7.1602 C   0  0  0  0  0  0
   20.1230   49.9817    7.8376 C   0  0  0  0  0  0
   20.1230   50.0125    9.2257 C   0  0  0  0  0  0
   20.0785   48.7735    5.4000 S   0  0  0  0  0  0
   20.8553   49.9414    5.0000 O   0  0  0  0  0  0
   20.5230   47.4730    4.9119 O   0  0  0  0  0  0
   18.2612   48.9835    4.9999 C   0  0  0  0  0  0
   17.6754   47.9368   16.9414 H   0  0  0  0  0  0
   17.8430   49.6576   16.6460 H   0  0  0  0  0  0
   17.5519   48.5632   15.3063 H   0  0  0  0  0  0
   19.8498   47.4569   15.8010 H   0  0  0  0  0  0
   20.1230   48.6730   17.0000 H   0  0  0  0  0  0
   18.5231   47.0923   11.7314 H   0  0  0  0  0  0
   21.0794   51.8697   13.7225 H   0  0  0  0  0  0
   23.1331   53.1876   13.6065 H   0  0  0  0  0  0
   24.4717   50.7990   10.3013 H   0  0  0  0  0  0
   22.5038   49.4386   10.4670 H   0  0  0  0  0  0
   26.8529   53.4730   10.9979 H   0  0  0  0  0  0
   25.6281   52.6730    9.9869 H   0  0  0  0  0  0
   26.7249   51.7941   11.0000 H   0  0  0  0  0  0
   19.5790   46.6988    9.7608 H   0  0  0  0  0  0
   19.5709   46.6777    7.3534 H   0  0  0  0  0  0
   20.2369   50.9065    7.2882 H   0  0  0  0  0  0
   20.2337   50.9545    9.7427 H   0  0  0  0  0  0
   18.1230   49.0730    3.9257 H   0  0  0  0  0  0
   17.7021   48.1310    5.3765 H   0  0  0  0  0  0
   17.9121   49.8729    5.5180 H   0  0  0  0  0  0
  1  2  1  0  0  0
  1 27  1  0  0  0
  1 28  1  0  0  0
  1 29  1  0  0  0
  2  3  1  0  0  0
  2 30  1  0  0  0
  2 31  1  0  0  0
  3  4  1  0  0  0
  4  8  1  0  0  0
  4  5  2  0  0  0
  5  6  1  0  0  0
  6  7  2  0  0  0
  6 32  1  0  0  0
  7  8  1  0  0  0
  7 17  1  0  0  0
  8  9  1  0  0  0
  9 14  1  0  0  0
  9 10  2  0  0  0
 10 11  1  0  0  0
 10 33  1  0  0  0
 11 12  2  0  0  0
 11 34  1  0  0  0
 12 13  1  0  0  0
 12 15  1  0  0  0
 13 14  2  0  0  0
 13 35  1  0  0  0
 14 36  1  0  0  0
 15 16  1  0  0  0
 16 37  1  0  0  0
 16 38  1  0  0  0
 16 39  1  0  0  0
 17 22  1  0  0  0
 17 18  2  0  0  0
 18 19  1  0  0  0
 18 40  1  0  0  0
 19 20  2  0  0  0
 19 41  1  0  0  0
 20 21  1  0  0  0
 20 23  1  0  0  0
 21 22  2  0  0  0
 21 42  1  0  0  0
 22 43  1  0  0  0
 23 24  2  0  0  0
 23 25  2  0  0  0
 23 26  1  0  0  0
 26 44  1  0  0  0
 26 45  1  0  0  0
 26 46  1  0  0  0
M  END
> <s_m_entry_id>
6079

> <s_m_entry_name>
ligand_docking-pose.178

> <s_m_Source_Path>
/home/csk/Desktop/cluster/DUD-E-result/pgh1

> <s_m_Source_File>
ligand_docking-pose.sdf

> <i_m_Source_File_Index>
178

> <i_lp_mmshare_version>
53161

> <i_f3d_flags>
0

> <r_lp_tautomer_probability>
1

> <s_lp_Force_Field>
OPLS_2005

> <r_lp_Energy>
15.199881

> <b_lp_Chiralities_Consistent>
1

> <s_lp_Variant>
391231-1

> <s_i_glide_gridfile>
glide-grid_2oyu

> <i_i_glide_lignum>
542

> <i_i_glide_rotatable_bonds>
6

> <r_i_docking_score>
-7.64225415634044

> <r_i_glide_ligand_efficiency>
-0.29393285216694

> <r_i_glide_ligand_efficiency_sa>
-0.870774917974635

> <r_i_glide_ligand_efficiency_ln>
-1.79475831233535

> <r_i_glide_gscore>
-7.64225415634044

> <r_i_glide_lipo>
-4.53545084644673

> <r_i_glide_hbond>
0

> <r_i_glide_metal>
0

> <r_i_glide_rewards>
-2.18693901172051

> <r_i_glide_evdw>
-13.8190364837646

> <r_i_glide_ecoul>
-4.05187892913818

> <r_i_glide_erotb>
0.387275754369278

> <r_i_glide_esite>
-0.00840638898352275

> <r_i_glide_emodel>
-30.214312461174

> <r_i_glide_energy>
-17.8709154129028

> <r_i_glide_einternal>
5.11051940917969

> <i_i_glide_confnum>
3

> <i_i_glide_posenum>
342

> <r_i_glide_eff_state_penalty>
0

> <s_user_duplicate_titles>
391231

> <s_m_subgroup_title>
dock_pv

> <s_m_subgroupid>
dock_pv1

> <b_m_subgroup_collapsed>
0

$$$$
234903
                    3D
 Schrodinger Suite 2021-1.
 40 43  0  0  1  0            999 V2000
   19.3252   48.6351    6.6527 C   0  0  0  0  0  0
   19.2517   47.5877    7.5619 C   0  0  0  0  0  0
   19.7033   47.7449    8.8648 C   0  0  0  0  0  0
   20.1230   48.9995    9.3136 C   0  0  0  0  0  0
   20.1230   50.0675    8.4152 C   0  0  0  0  0  0
   19.7826   49.8729    7.0727 C   0  0  0  0  0  0
   20.4221   49.1937   10.7622 C   0  0  0  0  0  0
   21.2957   49.9869   11.5082 C   0  0  0  0  0  0
   20.9210   49.8794   12.8774 C   0  0  0  0  0  0
   19.9295   48.9016   12.9513 C   0  0  0  0  0  0
   19.7230   48.4766   11.6746 N   0  0  0  0  0  0
   19.0599   48.3723   14.0349 C   0  0  0  0  0  0
   19.4173   48.3562   15.3848 C   0  0  0  0  0  0
   18.4927   47.9050   16.3242 C   0  0  0  0  0  0
   17.2405   47.4730   15.9366 C   0  0  0  0  0  0
   16.9230   47.4099   14.6000 C   0  0  0  0  0  0
   17.8036   47.8896   13.6551 C   0  0  0  0  0  0
   21.5707   50.7222   13.9711 C   0  0  0  0  0  0
   22.9241   51.2654   13.4819 C   0  0  0  0  0  0
   22.8221   51.9274   12.1186 C   0  0  0  0  0  0
   22.3840   50.9277   11.0315 C   0  0  0  0  0  0
   19.0250   47.7915   11.4240 H   0  0  0  0  0  0
   18.9805   48.5108    5.6367 H   0  0  0  0  0  0
   18.7769   46.6730    7.2756 H   0  0  0  0  0  0
   19.6442   46.9072    9.5419 H   0  0  0  0  0  0
   20.3869   51.0611    8.7431 H   0  0  0  0  0  0
   19.8017   50.6936    6.3761 H   0  0  0  0  0  0
   20.3858   48.6948   15.7145 H   0  0  0  0  0  0
   18.7064   47.8730   17.3742 H   0  0  0  0  0  0
   16.5289   47.1242   16.6708 H   0  0  0  0  0  0
   16.0098   46.9577   14.2756 H   0  0  0  0  0  0
   17.4813   47.8730   12.6247 H   0  0  0  0  0  0
   20.9230   51.5568   14.2374 H   0  0  0  0  0  0
   21.7230   50.1536   14.8843 H   0  0  0  0  0  0
   23.3318   51.9663   14.2114 H   0  0  0  0  0  0
   23.6428   50.4520   13.4000 H   0  0  0  0  0  0
   22.1230   52.7562   12.1996 H   0  0  0  0  0  0
   23.7783   52.3736   11.8414 H   0  0  0  0  0  0
   23.2403   50.3627   10.6633 H   0  0  0  0  0  0
   21.9817   51.4730   10.2000 H   0  0  0  0  0  0
  1  6  1  0  0  0
  1  2  2  0  0  0
  1 23  1  0  0  0
  2  3  1  0  0  0
  2 24  1  0  0  0
  3  4  2  0  0  0
  3 25  1  0  0  0
  4  5  1  0  0  0
  4  7  1  0  0  0
  5  6  2  0  0  0
  5 26  1  0  0  0
  6 27  1  0  0  0
  7 11  1  0  0  0
  7  8  2  0  0  0
  8 21  1  0  0  0
  8  9  1  0  0  0
  9 10  2  0  0  0
  9 18  1  0  0  0
 10 11  1  0  0  0
 10 12  1  0  0  0
 11 22  1  0  0  0
 12 17  1  0  0  0
 12 13  2  0  0  0
 13 14  1  0  0  0
 13 28  1  0  0  0
 14 15  2  0  0  0
 14 29  1  0  0  0
 15 16  1  0  0  0
 15 30  1  0  0  0
 16 17  2  0  0  0
 16 31  1  0  0  0
 17 32  1  0  0  0
 18 19  1  0  0  0
 18 33  1  0  0  0
 18 34  1  0  0  0
 19 20  1  0  0  0
 19 35  1  0  0  0
 19 36  1  0  0  0
 20 21  1  0  0  0
 20 37  1  0  0  0
 20 38  1  0  0  0
 21 39  1  0  0  0
 21 40  1  0  0  0
M  END
> <s_m_entry_id>
6080

> <s_m_entry_name>
ligand_docking-pose.179

> <s_m_Source_Path>
/home/csk/Desktop/cluster/DUD-E-result/pgh1

> <s_m_Source_File>
ligand_docking-pose.sdf

> <i_m_Source_File_Index>
179

> <i_lp_mmshare_version>
53161

> <i_f3d_flags>
0

> <r_lp_tautomer_probability>
1

> <s_lp_Force_Field>
OPLS_2005

> <r_lp_Energy>
16.477652

> <b_lp_Chiralities_Consistent>
1

> <s_lp_Variant>
234903-1

> <s_i_glide_gridfile>
glide-grid_2oyu

> <i_i_glide_lignum>
59

> <i_i_glide_rotatable_bonds>
2

> <r_i_docking_score>
-7.61548754727145

> <r_i_glide_ligand_efficiency>
-0.362642264155783

> <r_i_glide_ligand_efficiency_sa>
-1.00050250894163

> <r_i_glide_ligand_efficiency_ln>
-1.88291390752132

> <r_i_glide_gscore>
-7.61548754727145

> <r_i_glide_lipo>
-4.89431493111013

> <r_i_glide_hbond>
0

> <r_i_glide_metal>
0

> <r_i_glide_rewards>
-2.29726805932658

> <r_i_glide_evdw>
-18.0507068634033

> <r_i_glide_ecoul>
-0.00957226101309061

> <r_i_glide_erotb>
0.480066625487388

> <r_i_glide_esite>
0

> <r_i_glide_emodel>
-22.9066707755406

> <r_i_glide_energy>
-18.0602791244164

> <r_i_glide_einternal>
1.40226542949677

> <i_i_glide_confnum>
12

> <i_i_glide_posenum>
196

> <r_i_glide_eff_state_penalty>
0

> <s_user_duplicate_titles>
234903

> <s_m_subgroup_title>
dock_pv

> <s_m_subgroupid>
dock_pv1

> <b_m_subgroup_collapsed>
0

$$$$
234859
                    3D
 Schrodinger Suite 2021-1.
 37 40  0  0  1  0            999 V2000
   19.5841   48.3396   15.2016 C   0  0  0  0  0  0
   18.6879   47.9672   16.2000 C   0  0  0  0  0  0
   17.3826   47.6548   15.9118 C   0  0  0  0  0  0
   16.9834   47.5319   14.6000 C   0  0  0  0  0  0
   17.8416   47.9075   13.5860 C   0  0  0  0  0  0
   19.1360   48.3466   13.8812 C   0  0  0  0  0  0
   19.9629   48.8305   12.7545 C   0  0  0  0  0  0
   20.9673   49.7801   12.6188 C   0  0  0  0  0  0
   21.2756   49.9037   11.2629 C   0  0  0  0  0  0
   20.4299   49.0730   10.5446 C   0  0  0  0  0  0
   19.7230   48.3843   11.4860 N   0  0  0  0  0  0
   20.1230   48.8737    9.1143 C   0  0  0  0  0  0
   20.1230   49.9643    8.2499 C   0  0  0  0  0  0
   19.7230   49.8199    6.9245 C   0  0  0  0  0  0
   19.1781   48.6157    6.5111 C   0  0  0  0  0  0
   19.0814   47.5502    7.4000 C   0  0  0  0  0  0
   19.6157   47.6483    8.6751 C   0  0  0  0  0  0
   18.6844   48.4969    5.2607 F   0  0  0  0  0  0
   22.3500   50.9327   11.0586 C   0  0  0  0  0  0
   22.9412   51.0457   12.4700 C   0  0  0  0  0  0
   21.7771   50.7579   13.4281 C   0  0  0  0  0  0
   16.5230   47.4730   16.9329 F   0  0  0  0  0  0
   19.0161   47.6994   11.2615 H   0  0  0  0  0  0
   20.5927   48.6348   15.4505 H   0  0  0  0  0  0
   18.9230   47.8730   17.2363 H   0  0  0  0  0  0
   16.0258   47.1445   14.3502 H   0  0  0  0  0  0
   17.4666   47.8730   12.5752 H   0  0  0  0  0  0
   20.4456   50.9347    8.6000 H   0  0  0  0  0  0
   19.7455   50.6640    6.2515 H   0  0  0  0  0  0
   18.5352   46.6730    7.1062 H   0  0  0  0  0  0
   19.5360   46.8066    9.3453 H   0  0  0  0  0  0
   23.0990   50.6629   10.3132 H   0  0  0  0  0  0
   21.9010   51.8751   10.7612 H   0  0  0  0  0  0
   23.7223   50.2932   12.5999 H   0  0  0  0  0  0
   23.4015   52.0175   12.6534 H   0  0  0  0  0  0
   21.2140   51.6713   13.6251 H   0  0  0  0  0  0
   22.1155   50.3698   14.3850 H   0  0  0  0  0  0
  1  6  1  0  0  0
  1  2  2  0  0  0
  1 24  1  0  0  0
  2  3  1  0  0  0
  2 25  1  0  0  0
  3  4  2  0  0  0
  3 22  1  0  0  0
  4  5  1  0  0  0
  4 26  1  0  0  0
  5  6  2  0  0  0
  5 27  1  0  0  0
  6  7  1  0  0  0
  7 11  1  0  0  0
  7  8  2  0  0  0
  8 21  1  0  0  0
  8  9  1  0  0  0
  9 10  2  0  0  0
  9 19  1  0  0  0
 10 11  1  0  0  0
 10 12  1  0  0  0
 11 23  1  0  0  0
 12 17  1  0  0  0
 12 13  2  0  0  0
 13 14  1  0  0  0
 13 28  1  0  0  0
 14 15  2  0  0  0
 14 29  1  0  0  0
 15 16  1  0  0  0
 15 18  1  0  0  0
 16 17  2  0  0  0
 16 30  1  0  0  0
 17 31  1  0  0  0
 19 20  1  0  0  0
 19 32  1  0  0  0
 19 33  1  0  0  0
 20 21  1  0  0  0
 20 34  1  0  0  0
 20 35  1  0  0  0
 21 36  1  0  0  0
 21 37  1  0  0  0
M  END
> <s_m_entry_id>
6081

> <s_m_entry_name>
ligand_docking-pose.180

> <s_m_Source_Path>
/home/csk/Desktop/cluster/DUD-E-result/pgh1

> <s_m_Source_File>
ligand_docking-pose.sdf

> <i_m_Source_File_Index>
180

> <i_lp_mmshare_version>
53161

> <i_f3d_flags>
0

> <r_lp_tautomer_probability>
1

> <s_lp_Force_Field>
OPLS_2005

> <r_lp_Energy>
31.648849

> <b_lp_Chiralities_Consistent>
1

> <s_lp_Variant>
234859-1

> <s_i_glide_gridfile>
glide-grid_2oyu

> <i_i_glide_lignum>
64

> <i_i_glide_rotatable_bonds>
2

> <r_i_docking_score>
-7.60996107058099

> <r_i_glide_ligand_efficiency>
-0.345907321390045

> <r_i_glide_ligand_efficiency_sa>
-0.969245918297899

> <r_i_glide_ligand_efficiency_ln>
-1.86015206572447

> <r_i_glide_gscore>
-7.60996107058099

> <r_i_glide_lipo>
-4.47423454969327

> <r_i_glide_hbond>
0

> <r_i_glide_metal>
0

> <r_i_glide_rewards>
-2.49461157983128

> <r_i_glide_evdw>
-18.7381134033203

> <r_i_glide_ecoul>
-0.205386281013489

> <r_i_glide_erotb>
0.41970028115999

> <r_i_glide_esite>
-0.0931016098983856

> <r_i_glide_emodel>
-29.664736863495

> <r_i_glide_energy>
-18.9434996843338

> <r_i_glide_einternal>
2.20064854621887

> <i_i_glide_confnum>
4

> <i_i_glide_posenum>
290

> <r_i_glide_eff_state_penalty>
0

> <s_user_duplicate_titles>
234859

> <s_m_subgroup_title>
dock_pv

> <s_m_subgroupid>
dock_pv1

> <b_m_subgroup_collapsed>
0

$$$$
455868
                    3D
 Schrodinger Suite 2021-1.
 37 39  0  0  1  0            999 V2000
   16.5206   46.2730   15.3002 C   0  0  0  0  0  0
   17.6256   47.2094   14.9034 C   0  0  0  0  0  0
   18.7943   47.2643   15.6551 C   0  0  0  0  0  0
   19.8161   48.1181   15.2747 C   0  0  0  0  0  0
   19.6737   48.9337   14.1503 C   0  0  0  0  0  0
   18.4885   48.8768   13.4235 C   0  0  0  0  0  0
   17.4618   48.0256   13.7929 C   0  0  0  0  0  0
   20.7517   49.8730   13.7899 C   0  0  0  0  0  0
   21.2076   50.1975   12.5471 C   0  0  0  0  0  0
   22.3554   51.0818   12.5501 C   0  0  0  0  0  0
   23.5081   51.4242   11.4000 S   0  0  0  0  0  0
   22.5230   51.9482   14.0579 S   0  0  0  0  0  0
   21.3230   50.8230   15.1702 S   0  0  0  0  0  0
   20.6322   49.6439   11.2592 C   0  0  0  0  0  0
   20.1230   48.3404   11.0975 C   0  0  0  0  0  0
   19.7230   47.8730    9.8472 C   0  0  0  0  0  0
   19.8088   48.7050    8.7369 C   0  0  0  0  0  0
   20.1230   50.0460    8.9129 C   0  0  0  0  0  0
   20.5231   50.5028   10.1587 C   0  0  0  0  0  0
   19.3230   48.1323    7.1237 S   0  0  0  0  0  0
   20.5230   47.8734    6.3630 O   0  0  0  0  0  0
   18.3597   47.0730    7.4000 O   0  0  0  0  0  0
   18.5388   49.4843    6.1093 C   0  0  0  0  0  0
   15.7230   46.2452   14.5655 H   0  0  0  0  0  0
   16.1230   46.6230   16.2489 H   0  0  0  0  0  0
   16.8929   45.2535   15.4000 H   0  0  0  0  0  0
   18.9113   46.6730   16.5468 H   0  0  0  0  0  0
   20.7092   48.1665   15.8790 H   0  0  0  0  0  0
   18.3465   49.5542   12.6000 H   0  0  0  0  0  0
   16.5453   48.0122   13.2190 H   0  0  0  0  0  0
   20.1496   47.6300   11.9090 H   0  0  0  0  0  0
   19.4058   46.8495    9.7317 H   0  0  0  0  0  0
   20.1134   50.7341    8.0797 H   0  0  0  0  0  0
   20.8017   51.5395   10.2468 H   0  0  0  0  0  0
   18.2384   49.0684    5.1490 H   0  0  0  0  0  0
   17.6827   49.8730    6.6000 H   0  0  0  0  0  0
   19.2679   50.2729    5.9433 H   0  0  0  0  0  0
  1  2  1  0  0  0
  1 24  1  0  0  0
  1 25  1  0  0  0
  1 26  1  0  0  0
  2  7  1  0  0  0
  2  3  2  0  0  0
  3  4  1  0  0  0
  3 27  1  0  0  0
  4  5  2  0  0  0
  4 28  1  0  0  0
  5  6  1  0  0  0
  5  8  1  0  0  0
  6  7  2  0  0  0
  6 29  1  0  0  0
  7 30  1  0  0  0
  8 13  1  0  0  0
  8  9  2  0  0  0
  9 10  1  0  0  0
  9 14  1  0  0  0
 10 11  2  0  0  0
 10 12  1  0  0  0
 12 13  1  0  0  0
 14 19  1  0  0  0
 14 15  2  0  0  0
 15 16  1  0  0  0
 15 31  1  0  0  0
 16 17  2  0  0  0
 16 32  1  0  0  0
 17 18  1  0  0  0
 17 20  1  0  0  0
 18 19  2  0  0  0
 18 33  1  0  0  0
 19 34  1  0  0  0
 20 21  2  0  0  0
 20 22  2  0  0  0
 20 23  1  0  0  0
 23 35  1  0  0  0
 23 36  1  0  0  0
 23 37  1  0  0  0
M  END
> <s_m_entry_id>
6082

> <s_m_entry_name>
ligand_docking-pose.181

> <s_m_Source_Path>
/home/csk/Desktop/cluster/DUD-E-result/pgh1

> <s_m_Source_File>
ligand_docking-pose.sdf

> <i_m_Source_File_Index>
181

> <i_lp_mmshare_version>
53161

> <i_f3d_flags>
0

> <r_lp_tautomer_probability>
1

> <s_lp_Force_Field>
OPLS_2005

> <r_lp_Energy>
25.197692

> <b_lp_Chiralities_Consistent>
1

> <s_lp_Variant>
455868-1

> <s_i_glide_gridfile>
glide-grid_2oyu

> <i_i_glide_lignum>
209

> <i_i_glide_rotatable_bonds>
3

> <r_i_docking_score>
-7.60441598921301

> <r_i_glide_ligand_efficiency>
-0.330626782139696

> <r_i_glide_ligand_efficiency_sa>
-0.940258587398935

> <r_i_glide_ligand_efficiency_ln>
-1.83881673922363

> <r_i_glide_gscore>
-7.60441598921301

> <r_i_glide_lipo>
-4.44699531550254

> <r_i_glide_hbond>
0

> <r_i_glide_metal>
0

> <r_i_glide_rewards>
-2.52808344466481

> <r_i_glide_evdw>
-12.1682710647583

> <r_i_glide_ecoul>
-1.75474750995636

> <r_i_glide_erotb>
0.27047894762736

> <r_i_glide_esite>
-0.0281904969416532

> <r_i_glide_emodel>
-28.6818476608401

> <r_i_glide_energy>
-13.9230185747147

> <r_i_glide_einternal>
11.160605430603

> <i_i_glide_confnum>
16

> <i_i_glide_posenum>
158

> <r_i_glide_eff_state_penalty>
0

> <s_user_duplicate_titles>
455868

> <s_m_subgroup_title>
dock_pv

> <s_m_subgroupid>
dock_pv1

> <b_m_subgroup_collapsed>
0

$$$$
40596
                    3D
 Schrodinger Suite 2021-1.
 32 33  0  0  1  0            999 V2000
   24.3884   51.3629   11.6826 C   0  0  0  0  0  0
   24.8280   52.6612   11.8975 C   0  0  0  0  0  0
   24.1272   53.4817   12.7676 C   0  0  0  0  0  0
   22.9703   53.0384   13.4003 C   0  0  0  0  0  0
   22.5994   51.6838   13.2950 C   0  0  0  0  0  0
   23.3229   50.8588   12.4169 C   0  0  0  0  0  0
   21.4901   51.0970   14.1111 C   0  0  0  0  0  0
   21.3229   51.4783   15.2726 O   0  0  0  0  0  0
   20.6913   49.9414   13.5708 C   0  0  0  0  0  0
   20.4419   49.8933   12.1888 C   0  0  0  0  0  0
   19.7230   48.8497   11.6287 C   0  0  0  0  0  0
   19.2040   47.8578   12.4465 C   0  0  0  0  0  0
   19.4077   47.8856   13.8277 C   0  0  0  0  0  0
   20.1278   48.9468   14.4023 C   0  0  0  0  0  0
   20.2728   48.9890   15.7967 N   0  0  0  0  0  0
   18.8137   46.7614   14.6735 C   0  0  0  0  0  0
   17.4813   47.1675   15.3003 C   0  0  0  0  0  0
   17.3258   48.1574   16.0098 O   0  0  0  0  0  0
   16.5085   46.2729   15.0000 O   0  0  0  0  0  0
   22.0470   54.2167   14.2755 Cl  0  0  0  0  0  0
   24.9219   50.7204   11.0015 H   0  0  0  0  0  0
   25.7138   53.0218   11.4002 H   0  0  0  0  0  0
   24.4573   54.5013   12.9133 H   0  0  0  0  0  0
   23.0853   49.8109   12.2971 H   0  0  0  0  0  0
   20.8012   50.6659   11.5232 H   0  0  0  0  0  0
   19.5450   48.8231   10.5635 H   0  0  0  0  0  0
   18.6207   47.0729   11.9949 H   0  0  0  0  0  0
   20.6372   49.8712   16.1364 H   0  0  0  0  0  0
   19.5203   48.5606   16.3183 H   0  0  0  0  0  0
   18.6943   45.8618   14.0689 H   0  0  0  0  0  0
   19.4979   46.4827   15.4741 H   0  0  0  0  0  0
   15.6807   46.5482   15.3983 H   0  0  0  0  0  0
  1  6  1  0  0  0
  1  2  2  0  0  0
  1 21  1  0  0  0
  2  3  1  0  0  0
  2 22  1  0  0  0
  3  4  2  0  0  0
  3 23  1  0  0  0
  4  5  1  0  0  0
  4 20  1  0  0  0
  5  6  2  0  0  0
  5  7  1  0  0  0
  6 24  1  0  0  0
  7  8  2  0  0  0
  7  9  1  0  0  0
  9 14  1  0  0  0
  9 10  2  0  0  0
 10 11  1  0  0  0
 10 25  1  0  0  0
 11 12  2  0  0  0
 11 26  1  0  0  0
 12 13  1  0  0  0
 12 27  1  0  0  0
 13 14  2  0  0  0
 13 16  1  0  0  0
 14 15  1  0  0  0
 15 28  1  0  0  0
 15 29  1  0  0  0
 16 17  1  0  0  0
 16 30  1  0  0  0
 16 31  1  0  0  0
 17 18  2  0  0  0
 17 19  1  0  0  0
 19 32  1  0  0  0
M  END
> <s_m_entry_id>
6083

> <s_m_entry_name>
ligand_docking-pose.182

> <s_m_Source_Path>
/home/csk/Desktop/cluster/DUD-E-result/pgh1

> <s_m_Source_File>
ligand_docking-pose.sdf

> <i_m_Source_File_Index>
182

> <i_lp_mmshare_version>
53161

> <i_f3d_flags>
0

> <r_lp_tautomer_probability>
1

> <s_lp_Force_Field>
OPLS_2005

> <r_lp_Energy>
27.133846

> <b_lp_Chiralities_Consistent>
1

> <s_lp_Variant>
40596-1

> <s_i_glide_gridfile>
glide-grid_2oyu

> <i_i_glide_lignum>
119

> <i_i_glide_rotatable_bonds>
5

> <r_i_docking_score>
-7.59653595776404

> <r_i_glide_ligand_efficiency>
-0.379826797888202

> <r_i_glide_ligand_efficiency_sa>
-1.03100855041303

> <r_i_glide_ligand_efficiency_ln>
-1.90116239970385

> <r_i_glide_gscore>
-7.59653595776404

> <r_i_glide_lipo>
-3.47665143405441

> <r_i_glide_hbond>
0

> <r_i_glide_metal>
0

> <r_i_glide_rewards>
-3.11763902380568

> <r_i_glide_evdw>
-33.958812713623

> <r_i_glide_ecoul>
-1.14859890937805

> <r_i_glide_erotb>
0.867984972183907

> <r_i_glide_esite>
0

> <r_i_glide_emodel>
-48.009541071681

> <r_i_glide_energy>
-35.1074116230011

> <r_i_glide_einternal>
2.51466298103333

> <i_i_glide_confnum>
25

> <i_i_glide_posenum>
335

> <r_i_glide_eff_state_penalty>
0

> <s_user_duplicate_titles>
40596

> <s_m_subgroup_title>
dock_pv

> <s_m_subgroupid>
dock_pv1

> <b_m_subgroup_collapsed>
0

$$$$
86271
                    3D
 Schrodinger Suite 2021-1.
 49 52  0  0  1  0            999 V2000
   18.4361   46.1249   15.0001 C   0  0  0  0  0  0
   18.3453   47.5195   14.4025 C   0  0  0  0  0  0
   18.6739   47.5131   12.9053 C   0  0  0  0  0  0
   19.5957   48.6801   12.7209 C   0  0  0  0  0  0
   20.2232   49.4204   11.7324 C   0  0  0  0  0  0
   21.0920   50.3148   12.4235 C   0  0  0  0  0  0
   20.8584   50.1586   13.7902 C   0  0  0  0  0  0
   19.9274   49.1723   13.9399 N   0  0  0  0  0  0
   19.4337   48.3970   15.0456 C   0  0  0  0  0  0
   21.5750   50.6727   15.0081 C   0  0  0  0  0  0
   20.9231   51.7335   15.8344 C   0  0  0  0  0  0
   20.3200   51.4738   16.8759 O   0  0  0  0  0  0
   21.3230   52.9658   15.4000 O   0  0  0  0  0  0
   22.2157   51.1374   11.8911 C   0  0  0  0  0  0
   22.9259   50.6120   10.8270 C   0  0  0  0  0  0
   24.1231   51.1783   10.4320 C   0  0  0  0  0  0
   24.6345   52.2729   11.1106 C   0  0  0  0  0  0
   23.9083   52.8546   12.1430 C   0  0  0  0  0  0
   22.6812   52.3064   12.4999 C   0  0  0  0  0  0
   20.0531   49.1565   10.2686 C   0  0  0  0  0  0
   19.7230   47.8730    9.8293 C   0  0  0  0  0  0
   19.5666   47.5853    8.4815 C   0  0  0  0  0  0
   19.7678   48.5870    7.5376 C   0  0  0  0  0  0
   20.1229   49.8687    7.9571 C   0  0  0  0  0  0
   20.2023   50.1656    9.3223 C   0  0  0  0  0  0
   16.9339   48.0790   14.6345 C   0  0  0  0  0  0
   17.5623   45.5041   14.8043 H   0  0  0  0  0  0
   19.3224   45.5860   14.6778 H   0  0  0  0  0  0
   18.5228   46.2729   16.0751 H   0  0  0  0  0  0
   17.7827   47.6071   12.2850 H   0  0  0  0  0  0
   19.1595   46.5868   12.6003 H   0  0  0  0  0  0
   20.2608   47.7976   15.4303 H   0  0  0  0  0  0
   19.1009   49.0284   15.8706 H   0  0  0  0  0  0
   21.7227   49.8414   15.6959 H   0  0  0  0  0  0
   22.5494   51.0728   14.7501 H   0  0  0  0  0  0
   21.0171   53.6588   15.9880 H   0  0  0  0  0  0
   22.5812   49.7234   10.3242 H   0  0  0  0  0  0
   24.6388   50.7602    9.5835 H   0  0  0  0  0  0
   25.5915   52.6725   10.8130 H   0  0  0  0  0  0
   24.2838   53.7303   12.6524 H   0  0  0  0  0  0
   22.1142   52.7837   13.2713 H   0  0  0  0  0  0
   19.5985   47.0728   10.5323 H   0  0  0  0  0  0
   19.2850   46.5874    8.1990 H   0  0  0  0  0  0
   19.6519   48.3752    6.4848 H   0  0  0  0  0  0
   20.2467   50.6540    7.2250 H   0  0  0  0  0  0
   20.4357   51.1689    9.6384 H   0  0  0  0  0  0
   16.1733   47.4673   14.1490 H   0  0  0  0  0  0
   16.6883   48.1485   15.6949 H   0  0  0  0  0  0
   16.8737   49.0729   14.2090 H   0  0  0  0  0  0
  1  2  1  0  0  0
  1 27  1  0  0  0
  1 28  1  0  0  0
  1 29  1  0  0  0
  2  9  1  0  0  0
  2  3  1  0  0  0
  2 26  1  0  0  0
  3  4  1  0  0  0
  3 30  1  0  0  0
  3 31  1  0  0  0
  4  8  1  0  0  0
  4  5  2  0  0  0
  5  6  1  0  0  0
  5 20  1  0  0  0
  6  7  2  0  0  0
  6 14  1  0  0  0
  7  8  1  0  0  0
  7 10  1  0  0  0
  8  9  1  0  0  0
  9 32  1  0  0  0
  9 33  1  0  0  0
 10 11  1  0  0  0
 10 34  1  0  0  0
 10 35  1  0  0  0
 11 12  2  0  0  0
 11 13  1  0  0  0
 13 36  1  0  0  0
 14 19  1  0  0  0
 14 15  2  0  0  0
 15 16  1  0  0  0
 15 37  1  0  0  0
 16 17  2  0  0  0
 16 38  1  0  0  0
 17 18  1  0  0  0
 17 39  1  0  0  0
 18 19  2  0  0  0
 18 40  1  0  0  0
 19 41  1  0  0  0
 20 25  1  0  0  0
 20 21  2  0  0  0
 21 22  1  0  0  0
 21 42  1  0  0  0
 22 23  2  0  0  0
 22 43  1  0  0  0
 23 24  1  0  0  0
 23 44  1  0  0  0
 24 25  2  0  0  0
 24 45  1  0  0  0
 25 46  1  0  0  0
 26 47  1  0  0  0
 26 48  1  0  0  0
 26 49  1  0  0  0
M  END
> <s_m_entry_id>
6084

> <s_m_entry_name>
ligand_docking-pose.183

> <s_m_Source_Path>
/home/csk/Desktop/cluster/DUD-E-result/pgh1

> <s_m_Source_File>
ligand_docking-pose.sdf

> <i_m_Source_File_Index>
183

> <i_lp_mmshare_version>
53161

> <i_f3d_flags>
0

> <r_lp_tautomer_probability>
1

> <s_lp_Force_Field>
OPLS_2005

> <r_lp_Energy>
33.248229

> <b_lp_Chiralities_Consistent>
1

> <s_lp_Variant>
86271-1

> <s_i_glide_gridfile>
glide-grid_2oyu

> <i_i_glide_lignum>
176

> <i_i_glide_rotatable_bonds>
5

> <r_i_docking_score>
-7.57106106158343

> <r_i_glide_ligand_efficiency>
-0.291194656214747

> <r_i_glide_ligand_efficiency_sa>
-0.862663023240545

> <r_i_glide_ligand_efficiency_ln>
-1.77803884763527

> <r_i_glide_gscore>
-7.57106106158343

> <r_i_glide_lipo>
-5.18898394363191

> <r_i_glide_hbond>
0

> <r_i_glide_metal>
0

> <r_i_glide_rewards>
-2.30074463108389

> <r_i_glide_evdw>
-13.5327444076538

> <r_i_glide_ecoul>
-0.277359366416931

> <r_i_glide_erotb>
0.636908638477588

> <r_i_glide_esite>
0

> <r_i_glide_emodel>
-32.8373144207508

> <r_i_glide_energy>
-13.8101037740707

> <r_i_glide_einternal>
1.7375500202179

> <i_i_glide_confnum>
47

> <i_i_glide_posenum>
367

> <r_i_glide_eff_state_penalty>
0

> <s_user_duplicate_titles>
86271

> <s_m_subgroup_title>
dock_pv

> <s_m_subgroupid>
dock_pv1

> <b_m_subgroup_collapsed>
0

$$$$
80124
                    3D
 Schrodinger Suite 2021-1.
 33 35  0  0  1  0            999 V2000
   19.5307   47.9123    9.6062 C   0  0  0  0  0  0
   20.1230   49.0401    9.0526 C   0  0  0  0  0  0
   20.5230   50.0817    9.8825 C   0  0  0  0  0  0
   20.4934   49.9552   11.2807 C   0  0  0  0  0  0
   19.8028   48.8645   11.8372 C   0  0  0  0  0  0
   19.3230   47.8730   10.9809 C   0  0  0  0  0  0
   19.5259   48.7014   13.2702 C   0  0  0  0  0  0
   20.3361   48.8651   14.2344 N   0  0  0  0  0  0
   19.6927   48.6730   15.4000 N   0  0  0  0  0  0
   18.3697   48.4002   15.3903 C   0  0  0  0  0  0
   17.3230   48.2729   16.6486 S   0  0  0  0  0  0
   17.8622   48.2730   13.7483 S   0  0  0  0  0  0
   21.1861   50.8868   12.0812 N   0  0  0  0  0  0
   22.4739   51.3953   11.8456 C   0  0  0  0  0  0
   23.2284   50.9288   10.7714 C   0  0  0  0  0  0
   24.4507   51.4729   10.4617 C   0  0  0  0  0  0
   25.0359   52.3806   11.3056 C   0  0  0  0  0  0
   24.3343   52.8503   12.4098 C   0  0  0  0  0  0
   23.0437   52.3589   12.6829 C   0  0  0  0  0  0
   24.9882   53.9025   13.2707 C   0  0  0  0  0  0
   25.8506   54.6730   12.6132 F   0  0  0  0  0  0
   25.6773   53.2673   14.2000 F   0  0  0  0  0  0
   24.0485   54.6730   13.8000 F   0  0  0  0  0  0
   20.2285   48.8079   16.2456 H   0  0  0  0  0  0
   19.1600   47.1211    8.9711 H   0  0  0  0  0  0
   20.2172   49.1320    7.9799 H   0  0  0  0  0  0
   20.9264   50.9728    9.4271 H   0  0  0  0  0  0
   18.7533   47.0730   11.4000 H   0  0  0  0  0  0
   20.8069   51.0493   13.0026 H   0  0  0  0  0  0
   22.8989   50.1413   10.1206 H   0  0  0  0  0  0
   24.9230   51.1104    9.5678 H   0  0  0  0  0  0
   26.0348   52.7244   11.0790 H   0  0  0  0  0  0
   22.4894   52.7277   13.5341 H   0  0  0  0  0  0
  1  6  1  0  0  0
  1  2  2  0  0  0
  1 25  1  0  0  0
  2  3  1  0  0  0
  2 26  1  0  0  0
  3  4  2  0  0  0
  3 27  1  0  0  0
  4  5  1  0  0  0
  4 13  1  0  0  0
  5  6  2  0  0  0
  5  7  1  0  0  0
  6 28  1  0  0  0
  7 12  1  0  0  0
  7  8  2  0  0  0
  8  9  1  0  0  0
  9 24  1  0  0  0
  9 10  1  0  0  0
 10 11  2  0  0  0
 10 12  1  0  0  0
 13 14  1  0  0  0
 13 29  1  0  0  0
 14 19  1  0  0  0
 14 15  2  0  0  0
 15 16  1  0  0  0
 15 30  1  0  0  0
 16 17  2  0  0  0
 16 31  1  0  0  0
 17 18  1  0  0  0
 17 32  1  0  0  0
 18 19  2  0  0  0
 18 20  1  0  0  0
 19 33  1  0  0  0
 20 21  1  0  0  0
 20 22  1  0  0  0
 20 23  1  0  0  0
M  END
> <s_m_entry_id>
6088

> <s_m_entry_name>
ligand_docking-pose.187

> <s_m_Source_Path>
/home/csk/Desktop/cluster/DUD-E-result/pgh1

> <s_m_Source_File>
ligand_docking-pose.sdf

> <i_m_Source_File_Index>
187

> <i_lp_mmshare_version>
53161

> <i_f3d_flags>
0

> <r_lp_tautomer_probability>
1

> <s_lp_Force_Field>
OPLS_2005

> <r_lp_Energy>
28.566163

> <b_lp_Chiralities_Consistent>
1

> <s_lp_Variant>
80124-1

> <s_i_glide_gridfile>
glide-grid_2oyu

> <i_i_glide_lignum>
101

> <i_i_glide_rotatable_bonds>
4

> <r_i_docking_score>
-7.55899069199151

> <r_i_glide_ligand_efficiency>
-0.328651769217022

> <r_i_glide_ligand_efficiency_sa>
-0.934641913369232

> <r_i_glide_ligand_efficiency_ln>
-1.82783249046165

> <r_i_glide_gscore>
-7.55899069199151

> <r_i_glide_lipo>
-4.37865617596998

> <r_i_glide_hbond>
0

> <r_i_glide_metal>
0

> <r_i_glide_rewards>
-2.29753555667231

> <r_i_glide_evdw>
-23.7842140197754

> <r_i_glide_ecoul>
-0.792235553264618

> <r_i_glide_erotb>
0.458740675228029

> <r_i_glide_esite>
-0.0334936005987757

> <r_i_glide_emodel>
-24.8089315474135

> <r_i_glide_energy>
-24.57644957304

> <r_i_glide_einternal>
9.53105354309082

> <i_i_glide_confnum>
25

> <i_i_glide_posenum>
21

> <r_i_glide_eff_state_penalty>
0

> <s_user_duplicate_titles>
80124

> <s_m_subgroup_title>
dock_pv

> <s_m_subgroupid>
dock_pv1

> <b_m_subgroup_collapsed>
0

$$$$
79764
                    3D
 Schrodinger Suite 2021-1.
 34 36  0  0  1  0            999 V2000
   19.4862   47.8807    9.9815 C   0  0  0  0  0  0
   20.1230   48.9565    9.3761 C   0  0  0  0  0  0
   20.5495   50.0143   10.1621 C   0  0  0  0  0  0
   20.5585   49.9240   11.5617 C   0  0  0  0  0  0
   19.8727   48.8619   12.1840 C   0  0  0  0  0  0
   19.3230   47.8730   11.3657 C   0  0  0  0  0  0
   19.6945   48.7294   13.6454 C   0  0  0  0  0  0
   18.5329   48.2867   14.1636 N   0  0  0  0  0  0
   18.5498   48.4412   15.5047 C   0  0  0  0  0  0
   19.8292   48.8358   15.6849 N   0  0  0  0  0  0
   20.5087   49.0410   14.5599 N   0  0  0  0  0  0
   17.3230   48.2730   16.6000 S   0  0  0  0  0  0
   21.2960   50.8686   12.2961 N   0  0  0  0  0  0
   22.5577   51.3841   11.9681 C   0  0  0  0  0  0
   23.2677   50.9158   10.8622 C   0  0  0  0  0  0
   24.4690   51.4730   10.4900 C   0  0  0  0  0  0
   25.0750   52.4009   11.2966 C   0  0  0  0  0  0
   24.4117   52.8688   12.4237 C   0  0  0  0  0  0
   23.1464   52.3638   12.7622 C   0  0  0  0  0  0
   25.0758   53.9126   13.2708 C   0  0  0  0  0  0
   24.1368   54.6774   13.8000 F   0  0  0  0  0  0
   25.9592   54.6730   12.6281 F   0  0  0  0  0  0
   25.7230   53.2464   14.2000 F   0  0  0  0  0  0
   20.2368   49.0528   16.5832 H   0  0  0  0  0  0
   19.0793   47.0812    9.3797 H   0  0  0  0  0  0
   20.1989   49.0094    8.2995 H   0  0  0  0  0  0
   20.9592   50.8818    9.6678 H   0  0  0  0  0  0
   18.7718   47.0625   11.8068 H   0  0  0  0  0  0
   17.6907   48.0139   13.6777 H   0  0  0  0  0  0
   20.9701   51.0482   13.2346 H   0  0  0  0  0  0
   22.9230   50.1122   10.2393 H   0  0  0  0  0  0
   24.9230   51.1062    9.5868 H   0  0  0  0  0  0
   26.0615   52.7524   11.0304 H   0  0  0  0  0  0
   22.6291   52.7283   13.6385 H   0  0  0  0  0  0
  1  6  1  0  0  0
  1  2  2  0  0  0
  1 25  1  0  0  0
  2  3  1  0  0  0
  2 26  1  0  0  0
  3  4  2  0  0  0
  3 27  1  0  0  0
  4  5  1  0  0  0
  4 13  1  0  0  0
  5  6  2  0  0  0
  5  7  1  0  0  0
  6 28  1  0  0  0
  7 11  2  0  0  0
  7  8  1  0  0  0
  8  9  1  0  0  0
  8 29  1  0  0  0
  9 10  1  0  0  0
  9 12  2  0  0  0
 10 11  1  0  0  0
 10 24  1  0  0  0
 13 14  1  0  0  0
 13 30  1  0  0  0
 14 19  1  0  0  0
 14 15  2  0  0  0
 15 16  1  0  0  0
 15 31  1  0  0  0
 16 17  2  0  0  0
 16 32  1  0  0  0
 17 18  1  0  0  0
 17 33  1  0  0  0
 18 19  2  0  0  0
 18 20  1  0  0  0
 19 34  1  0  0  0
 20 21  1  0  0  0
 20 22  1  0  0  0
 20 23  1  0  0  0
M  END
> <s_m_entry_id>
6089

> <s_m_entry_name>
ligand_docking-pose.188

> <s_m_Source_Path>
/home/csk/Desktop/cluster/DUD-E-result/pgh1

> <s_m_Source_File>
ligand_docking-pose.sdf

> <i_m_Source_File_Index>
188

> <i_lp_mmshare_version>
53161

> <i_f3d_flags>
0

> <r_lp_tautomer_probability>
0.188618276206728

> <s_lp_Force_Field>
OPLS_2005

> <r_lp_Energy>
40.031813

> <b_lp_Chiralities_Consistent>
1

> <s_lp_Variant>
79764-2

> <s_i_glide_gridfile>
glide-grid_2oyu

> <i_i_glide_lignum>
99

> <i_i_glide_rotatable_bonds>
4

> <r_i_docking_score>
-7.55785666740534

> <r_i_glide_ligand_efficiency>
-0.328602463800232

> <r_i_glide_ligand_efficiency_sa>
-0.934501695322642

> <r_i_glide_ligand_efficiency_ln>
-1.82755827303394

> <r_i_glide_gscore>
-7.55785666740534

> <r_i_glide_lipo>
-3.7446189214946

> <r_i_glide_hbond>
0

> <r_i_glide_metal>
0

> <r_i_glide_rewards>
-2.8653366813336

> <r_i_glide_evdw>
-24.9193782806396

> <r_i_glide_ecoul>
-1.1495600938797

> <r_i_glide_erotb>
0.500833399646895

> <r_i_glide_esite>
-0.0303315361100991

> <r_i_glide_emodel>
-32.264523496054

> <r_i_glide_energy>
-26.0689383745193

> <r_i_glide_einternal>
2.29825234413147

> <i_i_glide_confnum>
8

> <i_i_glide_posenum>
86

> <r_i_glide_eff_state_penalty>
0

> <s_user_duplicate_titles>
79764

> <s_m_subgroup_title>
dock_pv

> <s_m_subgroupid>
dock_pv1

> <b_m_subgroup_collapsed>
0

$$$$
96768
                    3D
 Schrodinger Suite 2021-1.
 41 45  0  0  1  0            999 V2000
   17.1964   47.5347   15.6196 C   0  0  0  0  0  0
   16.9796   47.6478   14.2597 C   0  0  0  0  0  0
   17.9333   48.2333   13.4485 C   0  0  0  0  0  0
   19.1357   48.7353   13.9678 C   0  0  0  0  0  0
   19.3166   48.6731   15.3570 C   0  0  0  0  0  0
   18.3645   48.0337   16.1630 C   0  0  0  0  0  0
   20.5548   49.2670   15.9655 C   0  0  0  0  0  0
   20.9181   50.7423   15.7754 C   0  0  0  0  0  0
   21.3431   51.1165   14.3764 C   0  0  0  0  0  0
   22.1230   52.2600   14.1717 C   0  0  0  0  0  0
   22.6606   52.5529   12.9210 C   0  0  0  0  0  0
   22.4099   51.7040   11.8471 C   0  0  0  0  0  0
   21.5742   50.6024   12.0296 C   0  0  0  0  0  0
   21.0086   50.3277   13.2634 C   0  0  0  0  0  0
   20.1998   49.1745   13.1436 N   0  0  0  0  0  0
   20.4782   48.5076   12.0074 C   0  0  0  0  0  0
   20.1230   47.3678   11.6970 O   0  0  0  0  0  0
   21.2419   49.4726   11.1153 C   0  0  1  0  0  0
   20.5230   49.7723    9.7998 C   0  0  0  0  0  0
   20.3628   50.9402    9.4877 O   0  0  0  0  0  0
   20.1230   48.7163    9.0369 N   0  0  0  0  0  0
   19.7230   48.7534    7.7035 C   0  0  0  0  0  0
   18.9230   47.8730    7.1847 N   0  0  0  0  0  0
   18.5230   48.2730    5.9878 C   0  0  0  0  0  0
   19.1358   49.3401    5.4002 C   0  0  0  0  0  0
   20.1230   50.0232    6.5999 S   0  0  0  0  0  0
   16.4731   47.0549   16.2556 H   0  0  0  0  0  0
   16.1101   47.2231   13.8040 H   0  0  0  0  0  0
   17.7523   48.2404   12.3865 H   0  0  0  0  0  0
   18.5230   47.8730   17.2177 H   0  0  0  0  0  0
   20.5213   49.0525   17.0000 H   0  0  0  0  0  0
   21.3510   48.6730   15.5912 H   0  0  0  0  0  0
   20.1230   51.3973   16.1112 H   0  0  0  0  0  0
   21.7230   50.9693   16.4647 H   0  0  0  0  0  0
   22.3529   52.9116   14.9999 H   0  0  0  0  0  0
   23.2920   53.4203   12.7938 H   0  0  0  0  0  0
   22.8737   51.8984   10.8923 H   0  0  0  0  0  0
   22.1962   49.0729   10.7967 H   0  0  0  0  0  0
   20.0739   47.8169    9.4947 H   0  0  0  0  0  0
   17.6854   47.7668    5.5347 H   0  0  0  0  0  0
   18.9445   49.8125    4.4508 H   0  0  0  0  0  0
  1  6  1  0  0  0
  1  2  2  0  0  0
  1 27  1  0  0  0
  2  3  1  0  0  0
  2 28  1  0  0  0
  3  4  2  0  0  0
  3 29  1  0  0  0
  4 15  1  0  0  0
  4  5  1  0  0  0
  5  6  2  0  0  0
  5  7  1  0  0  0
  6 30  1  0  0  0
  7  8  1  0  0  0
  7 31  1  0  0  0
  7 32  1  0  0  0
  8  9  1  0  0  0
  8 33  1  0  0  0
  8 34  1  0  0  0
  9 14  2  0  0  0
  9 10  1  0  0  0
 10 11  2  0  0  0
 10 35  1  0  0  0
 11 12  1  0  0  0
 11 36  1  0  0  0
 12 13  2  0  0  0
 12 37  1  0  0  0
 13 18  1  0  0  0
 13 14  1  0  0  0
 14 15  1  0  0  0
 15 16  1  0  0  0
 16 17  2  0  0  0
 16 18  1  0  0  0
 18 19  1  0  0  0
 18 38  1  0  0  0
 19 20  2  0  0  0
 19 21  1  0  0  0
 21 22  1  0  0  0
 21 39  1  0  0  0
 22 26  1  0  0  0
 22 23  2  0  0  0
 23 24  1  0  0  0
 24 25  2  0  0  0
 24 40  1  0  0  0
 25 26  1  0  0  0
 25 41  1  0  0  0
M  END
> <s_m_entry_id>
6090

> <s_m_entry_name>
ligand_docking-pose.189

> <s_m_Source_Path>
/home/csk/Desktop/cluster/DUD-E-result/pgh1

> <s_m_Source_File>
ligand_docking-pose.sdf

> <i_m_Source_File_Index>
189

> <i_lp_mmshare_version>
53161

> <i_f3d_flags>
0

> <r_lp_tautomer_probability>
0.999000488399163

> <s_lp_Force_Field>
OPLS_2005

> <r_lp_Energy>
62.219257

> <b_lp_Chiralities_Consistent>
1

> <s_lp_Variant>
96768-1

> <s_i_glide_gridfile>
glide-grid_2oyu

> <i_i_glide_lignum>
26

> <i_i_glide_rotatable_bonds>
3

> <r_i_docking_score>
-7.55633085541205

> <r_i_glide_ligand_efficiency>
-0.29062810982354

> <r_i_glide_ligand_efficiency_sa>
-0.860984631785847

> <r_i_glide_ligand_efficiency_ln>
-1.77457950704967

> <r_i_glide_gscore>
-7.55633085541205

> <r_i_glide_lipo>
-4.49424392774616

> <r_i_glide_hbond>
-0.00173125616491747

> <r_i_glide_metal>
0

> <r_i_glide_rewards>
-2.79841508089931

> <r_i_glide_evdw>
-16.9544258117676

> <r_i_glide_ecoul>
0.966934204101562

> <r_i_glide_erotb>
0.440740569371479

> <r_i_glide_esite>
0

> <r_i_glide_emodel>
-47.0066685357499

> <r_i_glide_energy>
-15.987491607666

> <r_i_glide_einternal>
1.17883431911469

> <i_i_glide_confnum>
1

> <i_i_glide_posenum>
46

> <r_i_glide_eff_state_penalty>
0

> <s_user_duplicate_titles>
96768

> <s_m_subgroup_title>
dock_pv

> <s_m_subgroupid>
dock_pv1

> <b_m_subgroup_collapsed>
0

$$$$
41712
                    3D
 Schrodinger Suite 2021-1.
 32 33  0  0  1  0            999 V2000
   24.4037   51.0322   11.5486 C   0  0  0  0  0  0
   23.3230   50.6730   12.3236 C   0  0  0  0  0  0
   22.6539   51.6227   13.1018 C   0  0  0  0  0  0
   23.1285   52.9527   13.0911 C   0  0  0  0  0  0
   24.2990   53.2621   12.3912 C   0  0  0  0  0  0
   24.9230   52.3084   11.5895 C   0  0  0  0  0  0
   26.5230   52.6730   10.6085 Br  0  0  0  0  0  0
   22.3150   54.2537   13.8980 Cl  0  0  0  0  0  0
   21.5056   51.1534   13.9383 C   0  0  0  0  0  0
   21.3230   51.6596   15.0469 O   0  0  0  0  0  0
   20.7148   49.9374   13.5029 C   0  0  0  0  0  0
   20.4844   49.7369   12.1302 C   0  0  0  0  0  0
   19.8617   48.5851   11.6674 C   0  0  0  0  0  0
   19.3662   47.6582   12.5734 C   0  0  0  0  0  0
   19.4798   47.8781   13.9471 C   0  0  0  0  0  0
   20.1745   49.0077   14.4189 C   0  0  0  0  0  0
   20.3315   49.1711   15.8000 N   0  0  0  0  0  0
   18.7545   46.9262   14.8977 C   0  0  0  0  0  0
   17.4708   47.5878   15.4000 C   0  0  0  0  0  0
   17.2818   47.8730   16.5794 O   0  0  0  0  0  0
   16.6236   47.8730   14.3738 O   0  0  0  0  0  0
   19.7230   48.3000    9.9713 Cl  0  0  0  0  0  0
   24.9130   50.2730   11.0000 H   0  0  0  0  0  0
   23.0491   49.6276   12.3188 H   0  0  0  0  0  0
   24.7005   54.2632   12.4438 H   0  0  0  0  0  0
   20.8335   50.4503   11.3956 H   0  0  0  0  0  0
   18.8688   46.7765   12.2000 H   0  0  0  0  0  0
   20.6746   50.0793   16.0902 H   0  0  0  0  0  0
   19.6965   48.6730   16.4074 H   0  0  0  0  0  0
   18.5113   45.9797   14.4143 H   0  0  0  0  0  0
   19.3912   46.6730   15.7459 H   0  0  0  0  0  0
   16.9925   47.6604   13.5156 H   0  0  0  0  0  0
  1  6  1  0  0  0
  1  2  2  0  0  0
  1 23  1  0  0  0
  2  3  1  0  0  0
  2 24  1  0  0  0
  3  4  2  0  0  0
  3  9  1  0  0  0
  4  5  1  0  0  0
  4  8  1  0  0  0
  5  6  2  0  0  0
  5 25  1  0  0  0
  6  7  1  0  0  0
  9 10  2  0  0  0
  9 11  1  0  0  0
 11 16  1  0  0  0
 11 12  2  0  0  0
 12 13  1  0  0  0
 12 26  1  0  0  0
 13 14  2  0  0  0
 13 22  1  0  0  0
 14 15  1  0  0  0
 14 27  1  0  0  0
 15 16  2  0  0  0
 15 18  1  0  0  0
 16 17  1  0  0  0
 17 28  1  0  0  0
 17 29  1  0  0  0
 18 19  1  0  0  0
 18 30  1  0  0  0
 18 31  1  0  0  0
 19 20  2  0  0  0
 19 21  1  0  0  0
 21 32  1  0  0  0
M  END
> <s_m_entry_id>
6091

> <s_m_entry_name>
ligand_docking-pose.190

> <s_m_Source_Path>
/home/csk/Desktop/cluster/DUD-E-result/pgh1

> <s_m_Source_File>
ligand_docking-pose.sdf

> <i_m_Source_File_Index>
190

> <i_lp_mmshare_version>
53161

> <i_f3d_flags>
0

> <r_lp_tautomer_probability>
1

> <s_lp_Force_Field>
OPLS_2005

> <r_lp_Energy>
24.736996

> <b_lp_Chiralities_Consistent>
1

> <s_lp_Variant>
41712-1

> <s_i_glide_gridfile>
glide-grid_2oyu

> <i_i_glide_lignum>
54

> <i_i_glide_rotatable_bonds>
5

> <r_i_docking_score>
-7.55337422346593

> <r_i_glide_ligand_efficiency>
-0.343335191975724

> <r_i_glide_ligand_efficiency_sa>
-0.962038710522863

> <r_i_glide_ligand_efficiency_ln>
-1.84632017623415

> <r_i_glide_gscore>
-7.55337422346593

> <r_i_glide_lipo>
-3.60309013436689

> <r_i_glide_hbond>
0

> <r_i_glide_metal>
0

> <r_i_glide_rewards>
-2.4455186817773

> <r_i_glide_evdw>
-34.8004837036133

> <r_i_glide_ecoul>
-1.65383851528168

> <r_i_glide_erotb>
0.483334555151175

> <r_i_glide_esite>
0

> <r_i_glide_emodel>
-43.453092962331

> <r_i_glide_energy>
-36.454322218895

> <r_i_glide_einternal>
2.7570858001709

> <i_i_glide_confnum>
26

> <i_i_glide_posenum>
146

> <r_i_glide_eff_state_penalty>
0

> <s_user_duplicate_titles>
41712

> <s_m_subgroup_title>
dock_pv

> <s_m_subgroupid>
dock_pv1

> <b_m_subgroup_collapsed>
0

$$$$
39982
                    3D
 Schrodinger Suite 2021-1.
 32 33  0  0  1  0            999 V2000
   23.0979   50.7577   11.9064 C   0  0  0  0  0  0
   24.1680   51.1815   11.1504 C   0  0  0  0  0  0
   24.8827   52.2931   11.5462 C   0  0  0  0  0  0
   24.4680   53.0736   12.6176 C   0  0  0  0  0  0
   23.3304   52.7028   13.3240 C   0  0  0  0  0  0
   22.6393   51.5284   12.9861 C   0  0  0  0  0  0
   21.4920   51.0850   13.8421 C   0  0  0  0  0  0
   21.2928   51.6544   14.9197 O   0  0  0  0  0  0
   20.6770   49.8721   13.4640 C   0  0  0  0  0  0
   20.3271   49.6726   12.1171 C   0  0  0  0  0  0
   19.7231   48.4951   11.7004 C   0  0  0  0  0  0
   19.3165   47.5629   12.6414 C   0  0  0  0  0  0
   19.4889   47.8103   14.0038 C   0  0  0  0  0  0
   20.2002   48.9503   14.4218 C   0  0  0  0  0  0
   20.4286   49.1402   15.7899 N   0  0  0  0  0  0
   18.7817   46.8936   15.0000 C   0  0  0  0  0  0
   17.5107   47.5821   15.5031 C   0  0  0  0  0  0
   17.3233   47.8730   16.6810 O   0  0  0  0  0  0
   16.6649   47.8730   14.4775 O   0  0  0  0  0  0
   19.4580   48.1987   10.0224 Cl  0  0  0  0  0  0
   26.6892   52.6730   10.6000 I   0  0  0  0  0  0
   22.6861   49.8017   11.6320 H   0  0  0  0  0  0
   24.5191   50.6088   10.3091 H   0  0  0  0  0  0
   25.0348   53.9440   12.9153 H   0  0  0  0  0  0
   23.0230   53.3146   14.1624 H   0  0  0  0  0  0
   20.5766   50.4034   11.3596 H   0  0  0  0  0  0
   18.8088   46.6736   12.3049 H   0  0  0  0  0  0
   20.7700   50.0594   16.0448 H   0  0  0  0  0  0
   19.8355   48.6445   16.4397 H   0  0  0  0  0  0
   18.5186   45.9348   14.5525 H   0  0  0  0  0  0
   19.4361   46.6615   15.8396 H   0  0  0  0  0  0
   17.0311   47.6540   13.6198 H   0  0  0  0  0  0
  1  6  1  0  0  0
  1  2  2  0  0  0
  1 22  1  0  0  0
  2  3  1  0  0  0
  2 23  1  0  0  0
  3  4  2  0  0  0
  3 21  1  0  0  0
  4  5  1  0  0  0
  4 24  1  0  0  0
  5  6  2  0  0  0
  5 25  1  0  0  0
  6  7  1  0  0  0
  7  8  2  0  0  0
  7  9  1  0  0  0
  9 14  1  0  0  0
  9 10  2  0  0  0
 10 11  1  0  0  0
 10 26  1  0  0  0
 11 12  2  0  0  0
 11 20  1  0  0  0
 12 13  1  0  0  0
 12 27  1  0  0  0
 13 14  2  0  0  0
 13 16  1  0  0  0
 14 15  1  0  0  0
 15 28  1  0  0  0
 15 29  1  0  0  0
 16 17  1  0  0  0
 16 30  1  0  0  0
 16 31  1  0  0  0
 17 18  2  0  0  0
 17 19  1  0  0  0
 19 32  1  0  0  0
M  END
> <s_m_entry_id>
6094

> <s_m_entry_name>
ligand_docking-pose.193

> <s_m_Source_Path>
/home/csk/Desktop/cluster/DUD-E-result/pgh1

> <s_m_Source_File>
ligand_docking-pose.sdf

> <i_m_Source_File_Index>
193

> <i_lp_mmshare_version>
53161

> <i_f3d_flags>
0

> <r_lp_tautomer_probability>
1

> <s_lp_Force_Field>
OPLS_2005

> <r_lp_Energy>
23.680592

> <b_lp_Chiralities_Consistent>
1

> <s_lp_Variant>
39982-1

> <s_i_glide_gridfile>
glide-grid_2oyu

> <i_i_glide_lignum>
122

> <i_i_glide_rotatable_bonds>
5

> <r_i_docking_score>
-7.53612796133392

> <r_i_glide_ligand_efficiency>
-0.358863236253996

> <r_i_glide_ligand_efficiency_sa>
-0.99007645751075

> <r_i_glide_ligand_efficiency_ln>
-1.86329241025941

> <r_i_glide_gscore>
-7.53612796133392

> <r_i_glide_lipo>
-3.71299825857041

> <r_i_glide_hbond>
0

> <r_i_glide_metal>
0

> <r_i_glide_rewards>
-2.23360672067352

> <r_i_glide_evdw>
-34.9001731872559

> <r_i_glide_ecoul>
-2.01221990585327

> <r_i_glide_erotb>
0.457318663150787

> <r_i_glide_esite>
0

> <r_i_glide_emodel>
-46.7315812414342

> <r_i_glide_energy>
-36.9123930931091

> <r_i_glide_einternal>
5.55392169952393

> <i_i_glide_confnum>
94

> <i_i_glide_posenum>
185

> <r_i_glide_eff_state_penalty>
0

> <s_user_duplicate_titles>
39982

> <s_m_subgroup_title>
dock_pv

> <s_m_subgroupid>
dock_pv1

> <b_m_subgroup_collapsed>
0

$$$$
431645
                    3D
 Schrodinger Suite 2021-1.
 35 36  0  0  1  0            999 V2000
   18.1749   49.0233    5.4000 C   0  0  0  0  0  0
   19.9529   49.0207    5.9141 S   0  0  0  0  0  0
   20.6027   50.2730    5.5948 O   0  0  0  0  0  0
   20.5046   47.8293    5.3072 O   0  0  0  0  0  0
   19.9407   48.9135    7.7043 C   0  0  0  0  0  0
   19.7230   47.7064    8.3568 C   0  0  0  0  0  0
   19.7230   47.6758    9.7480 C   0  0  0  0  0  0
   19.9101   48.8313   10.5130 C   0  0  0  0  0  0
   20.1230   50.0426    9.8535 C   0  0  0  0  0  0
   20.1230   50.0787    8.4611 C   0  0  0  0  0  0
   19.8212   48.7134   11.9889 C   0  0  0  0  0  0
   20.4738   49.3785   12.9916 C   0  0  0  0  0  0
   21.5819   50.3643   12.7504 C   0  0  0  0  0  0
   21.6739   51.5599   13.4839 C   0  0  0  0  0  0
   22.7401   52.4351   13.2984 C   0  0  0  0  0  0
   23.7230   52.1337   12.3629 C   0  0  0  0  0  0
   23.6389   50.9708   11.6039 C   0  0  0  0  0  0
   22.5741   50.0929   11.8000 C   0  0  0  0  0  0
   24.7709   52.9713   12.2000 F   0  0  0  0  0  0
   20.1230   49.0730   14.3880 C   0  0  0  0  0  0
   20.7567   49.4694   15.3651 O   0  0  0  0  0  0
   19.0037   48.3087   14.5549 O   0  0  0  0  0  0
   18.1250   49.0730    4.3176 H   0  0  0  0  0  0
   17.7230   48.0975    5.7366 H   0  0  0  0  0  0
   17.6862   49.8730    5.8482 H   0  0  0  0  0  0
   19.5808   46.7961    7.8000 H   0  0  0  0  0  0
   19.6175   46.7253   10.2394 H   0  0  0  0  0  0
   20.2413   50.9632   10.4067 H   0  0  0  0  0  0
   20.2356   51.0335    7.9656 H   0  0  0  0  0  0
   19.0662   47.9864   12.2571 H   0  0  0  0  0  0
   20.9240   51.8125   14.2197 H   0  0  0  0  0  0
   22.8128   53.3396   13.8853 H   0  0  0  0  0  0
   24.4078   50.7441   10.8792 H   0  0  0  0  0  0
   22.5231   49.1823   11.2225 H   0  0  0  0  0  0
   18.8267   48.1953   15.4907 H   0  0  0  0  0  0
  1  2  1  0  0  0
  1 23  1  0  0  0
  1 24  1  0  0  0
  1 25  1  0  0  0
  2  3  2  0  0  0
  2  4  2  0  0  0
  2  5  1  0  0  0
  5 10  1  0  0  0
  5  6  2  0  0  0
  6  7  1  0  0  0
  6 26  1  0  0  0
  7  8  2  0  0  0
  7 27  1  0  0  0
  8  9  1  0  0  0
  8 11  1  0  0  0
  9 10  2  0  0  0
  9 28  1  0  0  0
 10 29  1  0  0  0
 11 12  2  0  0  0
 11 30  1  0  0  0
 12 13  1  0  0  0
 12 20  1  0  0  0
 13 18  1  0  0  0
 13 14  2  0  0  0
 14 15  1  0  0  0
 14 31  1  0  0  0
 15 16  2  0  0  0
 15 32  1  0  0  0
 16 17  1  0  0  0
 16 19  1  0  0  0
 17 18  2  0  0  0
 17 33  1  0  0  0
 18 34  1  0  0  0
 20 21  2  0  0  0
 20 22  1  0  0  0
 22 35  1  0  0  0
M  END
> <s_m_entry_id>
6095

> <s_m_entry_name>
ligand_docking-pose.194

> <s_m_Source_Path>
/home/csk/Desktop/cluster/DUD-E-result/pgh1

> <s_m_Source_File>
ligand_docking-pose.sdf

> <i_m_Source_File_Index>
194

> <i_lp_mmshare_version>
53161

> <i_f3d_flags>
0

> <r_lp_tautomer_probability>
1

> <s_lp_Force_Field>
OPLS_2005

> <r_lp_Energy>
16.494675

> <b_lp_Chiralities_Consistent>
1

> <s_lp_Variant>
431645-1

> <s_i_glide_gridfile>
glide-grid_2oyu

> <i_i_glide_lignum>
660

> <i_i_glide_rotatable_bonds>
5

> <r_i_docking_score>
-7.53382352087113

> <r_i_glide_ligand_efficiency>
-0.342446523675961

> <r_i_glide_ligand_efficiency_sa>
-0.959548626997584

> <r_i_glide_ligand_efficiency_ln>
-1.84154127139078

> <r_i_glide_gscore>
-7.53382352087113

> <r_i_glide_lipo>
-3.90124734264973

> <r_i_glide_hbond>
0

> <r_i_glide_metal>
0

> <r_i_glide_rewards>
-2.98849532152959

> <r_i_glide_evdw>
-12.5468492507935

> <r_i_glide_ecoul>
-3.63362669944763

> <r_i_glide_erotb>
0.545863421663763

> <r_i_glide_esite>
-0.01755781089875

> <r_i_glide_emodel>
-15.5381039116258

> <r_i_glide_energy>
-16.1804759502411

> <r_i_glide_einternal>
5.76035022735596

> <i_i_glide_confnum>
21

> <i_i_glide_posenum>
364

> <r_i_glide_eff_state_penalty>
0

> <s_user_duplicate_titles>
431645

> <s_m_subgroup_title>
dock_pv

> <s_m_subgroupid>
dock_pv1

> <b_m_subgroup_collapsed>
0

$$$$
40611
                    3D
 Schrodinger Suite 2021-1.
 35 36  0  0  1  0            999 V2000
   26.2990   52.6730   10.6000 C   0  0  0  0  0  0
   25.0555   52.3277   11.4023 C   0  0  0  0  0  0
   24.2790   51.2462   11.0186 C   0  0  0  0  0  0
   23.2278   50.8340   11.8105 C   0  0  0  0  0  0
   22.8274   51.5862   12.9247 C   0  0  0  0  0  0
   23.5839   52.7162   13.2733 C   0  0  0  0  0  0
   24.7081   53.0728   12.5319 C   0  0  0  0  0  0
   21.6427   51.1893   13.7666 C   0  0  0  0  0  0
   21.4062   51.7876   14.8202 O   0  0  0  0  0  0
   20.8016   49.9953   13.3864 C   0  0  0  0  0  0
   20.4133   49.8469   12.0444 C   0  0  0  0  0  0
   19.7228   48.7244   11.6157 C   0  0  0  0  0  0
   19.2980   47.7856   12.5427 C   0  0  0  0  0  0
   19.5491   47.9632   13.9043 C   0  0  0  0  0  0
   20.3024   49.0720   14.3348 C   0  0  0  0  0  0
   20.5229   49.2483   15.7067 N   0  0  0  0  0  0
   18.8791   47.0009   14.8873 C   0  0  0  0  0  0
   17.5822   47.6173   15.4109 C   0  0  0  0  0  0
   17.3830   47.8730   16.5942 O   0  0  0  0  0  0
   16.7056   47.8719   14.4048 O   0  0  0  0  0  0
   26.9230   53.4700   10.9996 H   0  0  0  0  0  0
   26.9945   51.8730   10.4209 H   0  0  0  0  0  0
   25.9464   53.0730    9.6565 H   0  0  0  0  0  0
   24.5234   50.6737   10.1369 H   0  0  0  0  0  0
   22.7618   49.9093   11.5152 H   0  0  0  0  0  0
   23.3224   53.3177   14.1336 H   0  0  0  0  0  0
   25.2981   53.9275   12.8314 H   0  0  0  0  0  0
   20.6707   50.5884   11.3002 H   0  0  0  0  0  0
   19.4724   48.6046   10.5715 H   0  0  0  0  0  0
   18.7064   46.9513   12.2012 H   0  0  0  0  0  0
   20.8745   50.1569   15.9821 H   0  0  0  0  0  0
   19.9251   48.7389   16.3407 H   0  0  0  0  0  0
   18.6425   46.0497   14.4097 H   0  0  0  0  0  0
   19.5429   46.7674   15.7196 H   0  0  0  0  0  0
   15.9095   48.2826   14.7484 H   0  0  0  0  0  0
  1  2  1  0  0  0
  1 21  1  0  0  0
  1 22  1  0  0  0
  1 23  1  0  0  0
  2  7  1  0  0  0
  2  3  2  0  0  0
  3  4  1  0  0  0
  3 24  1  0  0  0
  4  5  2  0  0  0
  4 25  1  0  0  0
  5  6  1  0  0  0
  5  8  1  0  0  0
  6  7  2  0  0  0
  6 26  1  0  0  0
  7 27  1  0  0  0
  8  9  2  0  0  0
  8 10  1  0  0  0
 10 15  1  0  0  0
 10 11  2  0  0  0
 11 12  1  0  0  0
 11 28  1  0  0  0
 12 13  2  0  0  0
 12 29  1  0  0  0
 13 14  1  0  0  0
 13 30  1  0  0  0
 14 15  2  0  0  0
 14 17  1  0  0  0
 15 16  1  0  0  0
 16 31  1  0  0  0
 16 32  1  0  0  0
 17 18  1  0  0  0
 17 33  1  0  0  0
 17 34  1  0  0  0
 18 19  2  0  0  0
 18 20  1  0  0  0
 20 35  1  0  0  0
M  END
> <s_m_entry_id>
6099

> <s_m_entry_name>
ligand_docking-pose.198

> <s_m_Source_Path>
/home/csk/Desktop/cluster/DUD-E-result/pgh1

> <s_m_Source_File>
ligand_docking-pose.sdf

> <i_m_Source_File_Index>
198

> <i_lp_mmshare_version>
53161

> <i_f3d_flags>
0

> <r_lp_tautomer_probability>
1

> <s_lp_Force_Field>
OPLS_2005

> <r_lp_Energy>
25.368462

> <b_lp_Chiralities_Consistent>
1

> <s_lp_Variant>
40611-1

> <s_i_glide_gridfile>
glide-grid_2oyu

> <i_i_glide_lignum>
238

> <i_i_glide_rotatable_bonds>
5

> <r_i_docking_score>
-7.51213580607326

> <r_i_glide_ligand_efficiency>
-0.375606790303663

> <r_i_glide_ligand_efficiency_sa>
-1.01955368749483

> <r_i_glide_ligand_efficiency_ln>
-1.88003982543896

> <r_i_glide_gscore>
-7.51213580607326

> <r_i_glide_lipo>
-3.3527216047216

> <r_i_glide_hbond>
0

> <r_i_glide_metal>
0

> <r_i_glide_rewards>
-3.25756802001149

> <r_i_glide_evdw>
-30.7751579284668

> <r_i_glide_ecoul>
-2.32342529296875

> <r_i_glide_erotb>
0.985425509028482

> <r_i_glide_esite>
0

> <r_i_glide_emodel>
-38.5710353629787

> <r_i_glide_energy>
-33.0985832214355

> <r_i_glide_einternal>
9.38792419433594

> <i_i_glide_confnum>
68

> <i_i_glide_posenum>
310

> <r_i_glide_eff_state_penalty>
0

> <s_user_duplicate_titles>
40611

> <s_m_subgroup_title>
dock_pv

> <s_m_subgroupid>
dock_pv1

> <b_m_subgroup_collapsed>
0

$$$$
112167
                    3D
 Schrodinger Suite 2021-1.
 49 52  0  0  1  0            999 V2000
   22.2633   54.8250   13.6005 C   0  0  0  0  0  0
   21.7147   53.4046   13.7412 C   0  0  0  0  0  0
   22.4920   52.2103   13.1112 C   0  0  1  0  0  0
   21.7125   50.9568   13.5403 C   0  0  0  0  0  0
   21.2451   49.9853   12.6763 C   0  0  0  0  0  0
   20.4793   49.0508   13.4413 C   0  0  0  0  0  0
   19.7357   47.8941   13.1459 C   0  0  0  0  0  0
   19.1043   47.2062   14.1763 C   0  0  0  0  0  0
   19.2268   47.6347   15.4898 C   0  0  0  0  0  0
   19.9792   48.7606   15.8226 C   0  0  0  0  0  0
   20.5717   49.4731   14.7912 C   0  0  0  0  0  0
   21.3230   50.6267   14.8137 N   0  0  0  0  0  0
   21.5219   50.0392   11.2004 C   0  0  2  0  0  0
   22.7155   50.9766   10.9912 C   0  0  0  0  0  0
   22.5058   52.2392   11.6646 O   0  0  0  0  0  0
   20.2626   50.4074   10.3991 C   0  0  0  0  0  0
   20.1230   49.5880    9.1322 C   0  0  0  0  0  0
   20.1230   50.1965    7.8787 C   0  0  0  0  0  0
   19.9392   49.4467    6.7220 C   0  0  0  0  0  0
   19.7230   48.0802    6.8349 C   0  0  0  0  0  0
   19.6541   47.4730    8.0855 C   0  0  0  0  0  0
   19.8506   48.2263    9.2274 C   0  0  0  0  0  0
   23.9705   52.1189   13.5368 C   0  0  0  0  0  0
   24.9761   53.0398   12.8261 C   0  0  0  0  0  0
   25.6529   53.8848   13.4000 O   0  0  0  0  0  0
   25.1324   52.6730   11.5273 O   0  0  0  0  0  0
   21.5485   51.1979   15.6142 H   0  0  0  0  0  0
   21.8796   49.0730   10.8870 H   0  0  0  0  0  0
   21.7321   55.4730   14.2960 H   0  0  0  0  0  0
   23.3118   54.9109   13.8745 H   0  0  0  0  0  0
   22.1230   55.2217   12.6000 H   0  0  0  0  0  0
   20.6810   53.3900   13.4000 H   0  0  0  0  0  0
   21.6528   53.2388   14.8179 H   0  0  0  0  0  0
   19.6391   47.5294   12.1431 H   0  0  0  0  0  0
   18.5228   46.3235   13.9547 H   0  0  0  0  0  0
   18.7377   47.0725   16.2723 H   0  0  0  0  0  0
   20.1230   49.0751   16.8407 H   0  0  0  0  0  0
   22.9036   51.0730    9.9272 H   0  0  0  0  0  0
   23.6157   50.4876   11.3660 H   0  0  0  0  0  0
   19.3584   50.2242   10.9829 H   0  0  0  0  0  0
   20.2387   51.4730   10.1957 H   0  0  0  0  0  0
   20.2528   51.2656    7.7918 H   0  0  0  0  0  0
   19.9579   49.9215    5.7522 H   0  0  0  0  0  0
   19.6192   47.4898    5.9417 H   0  0  0  0  0  0
   19.4615   46.4198    8.2000 H   0  0  0  0  0  0
   19.7919   47.7344   10.1769 H   0  0  0  0  0  0
   24.0587   52.2729   14.6000 H   0  0  0  0  0  0
   24.2843   51.0975   13.3616 H   0  0  0  0  0  0
   24.3813   52.1422   11.2545 H   0  0  0  0  0  0
  1  2  1  0  0  0
  1 29  1  0  0  0
  1 30  1  0  0  0
  1 31  1  0  0  0
  2  3  1  0  0  0
  2 32  1  0  0  0
  2 33  1  0  0  0
  3 15  1  0  0  0
  3  4  1  0  0  0
  3 23  1  0  0  0
  4 12  1  0  0  0
  4  5  2  0  0  0
  5  6  1  0  0  0
  5 13  1  0  0  0
  6 11  2  0  0  0
  6  7  1  0  0  0
  7  8  2  0  0  0
  7 34  1  0  0  0
  8  9  1  0  0  0
  8 35  1  0  0  0
  9 10  2  0  0  0
  9 36  1  0  0  0
 10 11  1  0  0  0
 10 37  1  0  0  0
 11 12  1  0  0  0
 12 27  1  0  0  0
 13 28  1  0  0  0
 13 14  1  0  0  0
 13 16  1  0  0  0
 14 15  1  0  0  0
 14 38  1  0  0  0
 14 39  1  0  0  0
 16 17  1  0  0  0
 16 40  1  0  0  0
 16 41  1  0  0  0
 17 22  1  0  0  0
 17 18  2  0  0  0
 18 19  1  0  0  0
 18 42  1  0  0  0
 19 20  2  0  0  0
 19 43  1  0  0  0
 20 21  1  0  0  0
 20 44  1  0  0  0
 21 22  2  0  0  0
 21 45  1  0  0  0
 22 46  1  0  0  0
 23 24  1  0  0  0
 23 47  1  0  0  0
 23 48  1  0  0  0
 24 25  2  0  0  0
 24 26  1  0  0  0
 26 49  1  0  0  0
M  END
> <s_m_entry_id>
6101

> <s_m_entry_name>
ligand_docking-pose.200

> <s_m_Source_Path>
/home/csk/Desktop/cluster/DUD-E-result/pgh1

> <s_m_Source_File>
ligand_docking-pose.sdf

> <i_m_Source_File_Index>
200

> <i_lp_mmshare_version>
53161

> <i_f3d_flags>
0

> <r_lp_tautomer_probability>
1

> <s_lp_Force_Field>
OPLS_2005

> <r_lp_Energy>
23.139381

> <b_lp_Chiralities_Consistent>
1

> <s_lp_Variant>
112167-2

> <s_i_glide_gridfile>
glide-grid_2oyu

> <i_i_glide_lignum>
312

> <i_i_glide_rotatable_bonds>
6

> <r_i_docking_score>
-7.49466928339631

> <r_i_glide_ligand_efficiency>
-0.288256510899858

> <r_i_glide_ligand_efficiency_sa>
-0.853958779306229

> <r_i_glide_ligand_efficiency_ln>
-1.76009848918989

> <r_i_glide_gscore>
-7.49466928339631

> <r_i_glide_lipo>
-4.71024951018753

> <r_i_glide_hbond>
0

> <r_i_glide_metal>
0

> <r_i_glide_rewards>
-2.26957675227104

> <r_i_glide_evdw>
-24.2858829498291

> <r_i_glide_ecoul>
0.502673387527466

> <r_i_glide_erotb>
0.624050118424597

> <r_i_glide_esite>
0

> <r_i_glide_emodel>
-22.4252843874783

> <r_i_glide_energy>
-23.7832095623016

> <r_i_glide_einternal>
5.72626352310181

> <i_i_glide_confnum>
60

> <i_i_glide_posenum>
216

> <r_i_glide_eff_state_penalty>
0

> <s_user_duplicate_titles>
112167

> <s_m_subgroup_title>
dock_pv

> <s_m_subgroupid>
dock_pv1

> <b_m_subgroup_collapsed>
0

$$$$
10742
                    3D
 Schrodinger Suite 2021-1.
 23 25  0  0  1  0            999 V2000
   23.6936   51.8326   11.3633 C   0  0  0  0  0  0
   23.7498   52.4905   12.5943 C   0  0  0  0  0  0
   22.9242   52.0829   13.6422 C   0  0  0  0  0  0
   22.0493   51.0162   13.4542 C   0  0  0  0  0  0
   21.9690   50.3692   12.2089 C   0  0  0  0  0  0
   22.7953   50.7797   11.1635 C   0  0  0  0  0  0
   21.0656   49.3019   12.0585 N   0  0  0  0  0  0
   20.3565   48.8206   13.1732 C   0  0  0  0  0  0
   19.5367   47.6932   13.0891 C   0  0  0  0  0  0
   18.8996   47.2159   14.2374 C   0  0  0  0  0  0
   19.0831   47.8555   15.4634 C   0  0  0  0  0  0
   19.9061   48.9790   15.5539 C   0  0  0  0  0  0
   20.5230   49.4734   14.4081 C   0  0  0  0  0  0
   21.2996   50.6102   14.5390 O   0  0  0  0  0  0
   24.3397   52.1427   10.5550 H   0  0  0  0  0  0
   24.4366   53.3118   12.7370 H   0  0  0  0  0  0
   22.9613   52.5838   14.5975 H   0  0  0  0  0  0
   22.7560   50.2781   10.2069 H   0  0  0  0  0  0
   20.9627   48.8532   11.1609 H   0  0  0  0  0  0
   19.3982   47.1829   12.1465 H   0  0  0  0  0  0
   18.2628   46.3457   14.1889 H   0  0  0  0  0  0
   18.5851   47.4797   16.3454 H   0  0  0  0  0  0
   20.0463   49.4787   16.5009 H   0  0  0  0  0  0
  1  6  1  0  0  0
  1  2  2  0  0  0
  1 15  1  0  0  0
  2  3  1  0  0  0
  2 16  1  0  0  0
  3  4  2  0  0  0
  3 17  1  0  0  0
  4 14  1  0  0  0
  4  5  1  0  0  0
  5  6  2  0  0  0
  5  7  1  0  0  0
  6 18  1  0  0  0
  7  8  1  0  0  0
  7 19  1  0  0  0
  8 13  2  0  0  0
  8  9  1  0  0  0
  9 10  2  0  0  0
  9 20  1  0  0  0
 10 11  1  0  0  0
 10 21  1  0  0  0
 11 12  2  0  0  0
 11 22  1  0  0  0
 12 13  1  0  0  0
 12 23  1  0  0  0
 13 14  1  0  0  0
M  END
> <s_m_entry_id>
6103

> <s_m_entry_name>
ligand_docking-pose.202

> <s_m_Source_Path>
/home/csk/Desktop/cluster/DUD-E-result/pgh1

> <s_m_Source_File>
ligand_docking-pose.sdf

> <i_m_Source_File_Index>
202

> <i_lp_mmshare_version>
53161

> <i_f3d_flags>
0

> <r_lp_tautomer_probability>
1

> <s_lp_Force_Field>
OPLS_2005

> <r_lp_Energy>
14.163836

> <b_lp_Chiralities_Consistent>
1

> <s_lp_Variant>
10742-1

> <s_i_glide_gridfile>
glide-grid_2oyu

> <i_i_glide_lignum>
50

> <i_i_glide_rotatable_bonds>
0

> <r_i_docking_score>
-7.46798674951242

> <r_i_glide_ligand_efficiency>
-0.533427624965173

> <r_i_glide_ligand_efficiency_sa>
-1.28563646267622

> <r_i_glide_ligand_efficiency_ln>
-2.05217617451

> <r_i_glide_gscore>
-7.46798674951242

> <r_i_glide_lipo>
-3.26318130577567

> <r_i_glide_hbond>
0

> <r_i_glide_metal>
0

> <r_i_glide_rewards>
-2.71332965299769

> <r_i_glide_evdw>
-27.5020446777344

> <r_i_glide_ecoul>
-0.775823712348938

> <r_i_glide_erotb>
0

> <r_i_glide_esite>
0

> <r_i_glide_emodel>
-40.5773634400419

> <r_i_glide_energy>
-28.2778683900833

> <r_i_glide_einternal>
0

> <i_i_glide_confnum>
1

> <i_i_glide_posenum>
290

> <r_i_glide_eff_state_penalty>
0

> <s_user_duplicate_titles>
10742

> <s_m_subgroup_title>
dock_pv

> <s_m_subgroupid>
dock_pv1

> <b_m_subgroup_collapsed>
0

$$$$
142835
                    3D
 Schrodinger Suite 2021-1.
 41 42  0  0  1  0            999 V2000
   25.9070   54.0856   13.0005 C   0  0  0  0  0  0
   24.5178   54.2734   13.1554 O   0  0  0  0  0  0
   23.6769   53.1940   12.9998 C   0  0  0  0  0  0
   24.0519   51.9957   12.3719 C   0  0  0  0  0  0
   23.1671   50.9269   12.2977 C   0  0  0  0  0  0
   21.8974   51.0205   12.8668 C   0  0  0  0  0  0
   21.5153   52.2218   13.4634 C   0  0  0  0  0  0
   22.3702   53.3239   13.4849 C   0  0  0  0  0  0
   21.8330   54.6701   13.9676 C   0  0  0  0  0  0
   21.6155   54.7783   15.4637 C   0  0  0  0  0  0
   21.7222   55.8818   16.2172 C   0  0  0  0  0  0
   20.9623   49.8719   12.8315 C   0  0  0  0  0  0
   20.5074   49.3335   14.0402 C   0  0  0  0  0  0
   19.6230   48.2501   14.0580 C   0  0  0  0  0  0
   19.2071   47.6884   12.8479 C   0  0  0  0  0  0
   19.6508   48.2141   11.6367 C   0  0  0  0  0  0
   20.5203   49.3038   11.6235 C   0  0  0  0  0  0
   20.9129   49.8049   10.4090 O   0  0  0  0  0  0
   19.1429   47.6679   15.3790 C   0  0  0  0  0  0
   17.6615   47.8720   15.6372 C   0  0  0  0  0  0
   17.1264   48.1522   16.8355 C   0  0  0  0  0  0
   26.4291   55.0385   13.0650 H   0  0  0  0  0  0
   26.2919   53.4268   13.7811 H   0  0  0  0  0  0
   26.1233   53.6520   12.0307 H   0  0  0  0  0  0
   25.0169   51.8678   11.9171 H   0  0  0  0  0  0
   23.4735   50.0136   11.8101 H   0  0  0  0  0  0
   20.5231   52.3246   13.8749 H   0  0  0  0  0  0
   20.8682   54.8098   13.4822 H   0  0  0  0  0  0
   22.4661   55.4730   13.6039 H   0  0  0  0  0  0
   21.3229   53.8616   15.9510 H   0  0  0  0  0  0
   21.9976   56.8377   15.8000 H   0  0  0  0  0  0
   21.5340   55.8406   17.2807 H   0  0  0  0  0  0
   20.8455   49.7637   14.9711 H   0  0  0  0  0  0
   18.5237   46.8524   12.8440 H   0  0  0  0  0  0
   19.3080   47.7700   10.7132 H   0  0  0  0  0  0
   20.5134   49.3475    9.6672 H   0  0  0  0  0  0
   19.3458   46.5957   15.3826 H   0  0  0  0  0  0
   19.7202   48.0924   16.1993 H   0  0  0  0  0  0
   17.0025   47.7628   14.7865 H   0  0  0  0  0  0
   16.0647   48.2746   16.9606 H   0  0  0  0  0  0
   17.7226   48.2540   17.7250 H   0  0  0  0  0  0
  1  2  1  0  0  0
  1 22  1  0  0  0
  1 23  1  0  0  0
  1 24  1  0  0  0
  2  3  1  0  0  0
  3  8  1  0  0  0
  3  4  2  0  0  0
  4  5  1  0  0  0
  4 25  1  0  0  0
  5  6  2  0  0  0
  5 26  1  0  0  0
  6  7  1  0  0  0
  6 12  1  0  0  0
  7  8  2  0  0  0
  7 27  1  0  0  0
  8  9  1  0  0  0
  9 10  1  0  0  0
  9 28  1  0  0  0
  9 29  1  0  0  0
 10 11  2  0  0  0
 10 30  1  0  0  0
 11 31  1  0  0  0
 11 32  1  0  0  0
 12 17  1  0  0  0
 12 13  2  0  0  0
 13 14  1  0  0  0
 13 33  1  0  0  0
 14 15  2  0  0  0
 14 19  1  0  0  0
 15 16  1  0  0  0
 15 34  1  0  0  0
 16 17  2  0  0  0
 16 35  1  0  0  0
 17 18  1  0  0  0
 18 36  1  0  0  0
 19 20  1  0  0  0
 19 37  1  0  0  0
 19 38  1  0  0  0
 20 21  2  0  0  0
 20 39  1  0  0  0
 21 40  1  0  0  0
 21 41  1  0  0  0
M  END
> <s_m_entry_id>
6104

> <s_m_entry_name>
ligand_docking-pose.203

> <s_m_Source_Path>
/home/csk/Desktop/cluster/DUD-E-result/pgh1

> <s_m_Source_File>
ligand_docking-pose.sdf

> <i_m_Source_File_Index>
203

> <i_lp_mmshare_version>
53161

> <i_f3d_flags>
0

> <r_lp_tautomer_probability>
0.999999999997365

> <s_lp_Force_Field>
OPLS_2005

> <r_lp_Energy>
21.103294

> <b_lp_Chiralities_Consistent>
1

> <s_lp_Variant>
142835-1

> <s_i_glide_gridfile>
glide-grid_2oyu

> <i_i_glide_lignum>
592

> <i_i_glide_rotatable_bonds>
7

> <r_i_docking_score>
-7.46573130677199

> <r_i_glide_ligand_efficiency>
-0.35551101460819

> <r_i_glide_ligand_efficiency_sa>
-0.980827932176933

> <r_i_glide_ligand_efficiency_ln>
-1.8458869796688

> <r_i_glide_gscore>
-7.46573130677199

> <r_i_glide_lipo>
-4.7297675177876

> <r_i_glide_hbond>
0

> <r_i_glide_metal>
0

> <r_i_glide_rewards>
-2.39753931818182

> <r_i_glide_evdw>
-34.6595764160156

> <r_i_glide_ecoul>
1.63874411582947

> <r_i_glide_erotb>
1.14874273262379

> <r_i_glide_esite>
0

> <r_i_glide_emodel>
-43.2531708768682

> <r_i_glide_energy>
-33.0208323001862

> <r_i_glide_einternal>
7.40890169143677

> <i_i_glide_confnum>
280

> <i_i_glide_posenum>
106

> <r_i_glide_eff_state_penalty>
0

> <s_user_duplicate_titles>
142835

> <s_m_subgroup_title>
dock_pv

> <s_m_subgroupid>
dock_pv1

> <b_m_subgroup_collapsed>
0

$$$$
173817
                    3D
 Schrodinger Suite 2021-1.
 39 40  0  0  1  0            999 V2000
   21.2806   49.0613    5.6688 C   0  0  0  0  0  0
   20.0569   48.3715    6.3086 C   0  0  1  0  0  0
   19.9616   48.5291    7.8296 C   0  0  0  0  0  0
   19.7230   47.4184    8.6349 C   0  0  0  0  0  0
   19.7230   47.5464   10.0212 C   0  0  0  0  0  0
   19.9398   48.7653   10.6543 C   0  0  0  0  0  0
   20.1230   49.8842    9.8392 C   0  0  0  0  0  0
   20.1230   49.7708    8.4521 C   0  0  0  0  0  0
   20.2967   51.0953   10.3891 F   0  0  0  0  0  0
   20.0068   48.8413   12.1427 C   0  0  0  0  0  0
   20.8994   49.7119   12.7694 C   0  0  0  0  0  0
   20.9230   49.8730   14.1592 C   0  0  0  0  0  0
   20.0824   49.0730   14.9389 C   0  0  0  0  0  0
   19.1675   48.1942   14.3377 C   0  0  0  0  0  0
   19.1605   48.0738   12.9495 C   0  0  0  0  0  0
   18.2243   47.4545   15.0208 O   0  0  0  0  0  0
   17.8334   47.8790   16.3221 C   0  0  0  0  0  0
   21.7033   50.8208   14.7959 O   0  0  0  0  0  0
   22.4556   51.7335   13.9922 C   0  0  0  0  0  0
   18.8148   48.9327    5.6500 C   0  0  0  0  0  0
   17.9913   48.2744    5.0209 O   0  0  0  0  0  0
   18.8124   50.2730    5.8000 O   0  0  0  0  0  0
   21.2937   50.1431    5.7913 H   0  0  0  0  0  0
   22.1797   48.6730    6.1102 H   0  0  0  0  0  0
   21.3230   48.8507    4.6000 H   0  0  0  0  0  0
   20.1230   47.3110    6.0700 H   0  0  0  0  0  0
   19.6019   46.4421    8.2000 H   0  0  0  0  0  0
   19.7105   46.6730   10.6407 H   0  0  0  0  0  0
   20.2404   50.6673    7.8616 H   0  0  0  0  0  0
   21.5725   50.2845   12.1532 H   0  0  0  0  0  0
   20.1056   49.1941   16.0112 H   0  0  0  0  0  0
   18.4399   47.4107   12.4943 H   0  0  0  0  0  0
   16.8488   47.4730   16.5508 H   0  0  0  0  0  0
   18.5230   47.5072   17.0766 H   0  0  0  0  0  0
   17.7519   48.9644   16.4066 H   0  0  0  0  0  0
   22.9230   52.5009   14.6000 H   0  0  0  0  0  0
   23.2526   51.2187   13.4531 H   0  0  0  0  0  0
   21.8205   52.2586   13.2764 H   0  0  0  0  0  0
   18.1254   50.6677    5.2356 H   0  0  0  0  0  0
  1  2  1  0  0  0
  1 23  1  0  0  0
  1 24  1  0  0  0
  1 25  1  0  0  0
  2  3  1  0  0  0
  2 20  1  0  0  0
  2 26  1  0  0  0
  3  8  1  0  0  0
  3  4  2  0  0  0
  4  5  1  0  0  0
  4 27  1  0  0  0
  5  6  2  0  0  0
  5 28  1  0  0  0
  6  7  1  0  0  0
  6 10  1  0  0  0
  7  8  2  0  0  0
  7  9  1  0  0  0
  8 29  1  0  0  0
 10 15  1  0  0  0
 10 11  2  0  0  0
 11 12  1  0  0  0
 11 30  1  0  0  0
 12 13  2  0  0  0
 12 18  1  0  0  0
 13 14  1  0  0  0
 13 31  1  0  0  0
 14 15  2  0  0  0
 14 16  1  0  0  0
 15 32  1  0  0  0
 16 17  1  0  0  0
 17 33  1  0  0  0
 17 34  1  0  0  0
 17 35  1  0  0  0
 18 19  1  0  0  0
 19 36  1  0  0  0
 19 37  1  0  0  0
 19 38  1  0  0  0
 20 21  2  0  0  0
 20 22  1  0  0  0
 22 39  1  0  0  0
M  END
> <s_m_entry_id>
6105

> <s_m_entry_name>
ligand_docking-pose.204

> <s_m_Source_Path>
/home/csk/Desktop/cluster/DUD-E-result/pgh1

> <s_m_Source_File>
ligand_docking-pose.sdf

> <i_m_Source_File_Index>
204

> <i_lp_mmshare_version>
53161

> <i_f3d_flags>
0

> <r_lp_tautomer_probability>
1

> <s_lp_Force_Field>
OPLS_2005

> <r_lp_Energy>
24.221745

> <b_lp_Chiralities_Consistent>
1

> <s_lp_Variant>
173817-2

> <s_i_glide_gridfile>
glide-grid_2oyu

> <i_i_glide_lignum>
368

> <i_i_glide_rotatable_bonds>
6

> <r_i_docking_score>
-7.46270680339952

> <r_i_glide_ligand_efficiency>
-0.339213945609069

> <r_i_glide_ligand_efficiency_sa>
-0.950490816124073

> <r_i_glide_ligand_efficiency_ln>
-1.82415775159542

> <r_i_glide_gscore>
-7.46270680339952

> <r_i_glide_lipo>
-3.84938515263445

> <r_i_glide_hbond>
-0.305729516050959

> <r_i_glide_metal>
0

> <r_i_glide_rewards>
-2.08412272536314

> <r_i_glide_evdw>
-9.72764492034912

> <r_i_glide_ecoul>
-8.78063297271729

> <r_i_glide_erotb>
0.597378269846831

> <r_i_glide_esite>
-0.0173704872727556

> <r_i_glide_emodel>
-14.6587159659803

> <r_i_glide_energy>
-18.5082778930664

> <r_i_glide_einternal>
8.16226196289062

> <i_i_glide_confnum>
19

> <i_i_glide_posenum>
274

> <r_i_glide_eff_state_penalty>
0

> <s_user_duplicate_titles>
173817

> <s_m_subgroup_title>
dock_pv

> <s_m_subgroupid>
dock_pv1

> <b_m_subgroup_collapsed>
0

$$$$
431647
                    3D
 Schrodinger Suite 2021-1.
 35 36  0  0  1  0            999 V2000
   18.2212   49.0489    5.5539 C   0  0  0  0  0  0
   19.9328   48.8741    6.1938 S   0  0  0  0  0  0
   20.8105   49.8730    5.5925 O   0  0  0  0  0  0
   20.1230   47.4730    5.9088 O   0  0  0  0  0  0
   19.9573   48.9936    7.9905 C   0  0  0  0  0  0
   19.7230   47.8259    8.7123 C   0  0  0  0  0  0
   19.6121   47.8730   10.0929 C   0  0  0  0  0  0
   19.7582   49.0564   10.8006 C   0  0  0  0  0  0
   20.0579   50.2296   10.0926 C   0  0  0  0  0  0
   20.1230   50.1990    8.6905 C   0  0  0  0  0  0
   19.5980   48.9321   12.2744 C   0  0  0  0  0  0
   20.3628   49.4491   13.2738 C   0  0  0  0  0  0
   21.5322   50.3065   12.9689 C   0  0  0  0  0  0
   22.4615   49.8305   12.0428 C   0  0  0  0  0  0
   23.5455   50.5984   11.6904 C   0  0  0  0  0  0
   23.7410   51.8099   12.2990 C   0  0  0  0  0  0
   22.8513   52.3189   13.2399 C   0  0  0  0  0  0
   21.7280   51.5618   13.5667 C   0  0  0  0  0  0
   25.3230   52.6730   11.8000 Br  0  0  0  0  0  0
   20.0423   49.0730   14.6529 C   0  0  0  0  0  0
   19.1242   48.3215   14.9795 O   0  0  0  0  0  0
   20.8770   49.6072   15.5893 O   0  0  0  0  0  0
   18.2624   49.0730    4.4712 H   0  0  0  0  0  0
   17.7230   48.1232    5.8000 H   0  0  0  0  0  0
   17.7230   49.8861    6.0026 H   0  0  0  0  0  0
   19.5838   46.8805    8.2102 H   0  0  0  0  0  0
   19.4151   46.9770   10.6437 H   0  0  0  0  0  0
   20.1804   51.1681   10.6135 H   0  0  0  0  0  0
   20.2748   51.1154    8.1391 H   0  0  0  0  0  0
   18.7445   48.3215   12.5442 H   0  0  0  0  0  0
   22.3444   48.8609   11.5837 H   0  0  0  0  0  0
   24.2698   50.2730   10.9633 H   0  0  0  0  0  0
   23.0310   53.2750   13.7105 H   0  0  0  0  0  0
   21.0199   51.9459   14.2868 H   0  0  0  0  0  0
   20.6030   49.3236   16.4634 H   0  0  0  0  0  0
  1  2  1  0  0  0
  1 23  1  0  0  0
  1 24  1  0  0  0
  1 25  1  0  0  0
  2  3  2  0  0  0
  2  4  2  0  0  0
  2  5  1  0  0  0
  5 10  1  0  0  0
  5  6  2  0  0  0
  6  7  1  0  0  0
  6 26  1  0  0  0
  7  8  2  0  0  0
  7 27  1  0  0  0
  8  9  1  0  0  0
  8 11  1  0  0  0
  9 10  2  0  0  0
  9 28  1  0  0  0
 10 29  1  0  0  0
 11 12  2  0  0  0
 11 30  1  0  0  0
 12 13  1  0  0  0
 12 20  1  0  0  0
 13 18  1  0  0  0
 13 14  2  0  0  0
 14 15  1  0  0  0
 14 31  1  0  0  0
 15 16  2  0  0  0
 15 32  1  0  0  0
 16 17  1  0  0  0
 16 19  1  0  0  0
 17 18  2  0  0  0
 17 33  1  0  0  0
 18 34  1  0  0  0
 20 21  2  0  0  0
 20 22  1  0  0  0
 22 35  1  0  0  0
M  END
> <s_m_entry_id>
6107

> <s_m_entry_name>
ligand_docking-pose.206

> <s_m_Source_Path>
/home/csk/Desktop/cluster/DUD-E-result/pgh1

> <s_m_Source_File>
ligand_docking-pose.sdf

> <i_m_Source_File_Index>
206

> <i_lp_mmshare_version>
53161

> <i_f3d_flags>
0

> <r_lp_tautomer_probability>
1

> <s_lp_Force_Field>
OPLS_2005

> <r_lp_Energy>
16.250349

> <b_lp_Chiralities_Consistent>
1

> <s_lp_Variant>
431647-1

> <s_i_glide_gridfile>
glide-grid_2oyu

> <i_i_glide_lignum>
657

> <i_i_glide_rotatable_bonds>
5

> <r_i_docking_score>
-7.44559661707821

> <r_i_glide_ligand_efficiency>
-0.338436209867191

> <r_i_glide_ligand_efficiency_sa>
-0.94831156998872

> <r_i_glide_ligand_efficiency_ln>
-1.81997539794928

> <r_i_glide_gscore>
-7.44559661707821

> <r_i_glide_lipo>
-4.1302676860599

> <r_i_glide_hbond>
0

> <r_i_glide_metal>
0

> <r_i_glide_rewards>
-2.37838911772943

> <r_i_glide_evdw>
-11.6244497299194

> <r_i_glide_ecoul>
-4.93560457229614

> <r_i_glide_erotb>
0.400611153159703

> <r_i_glide_esite>
-0.0159877941081795

> <r_i_glide_emodel>
-30.1343580963305

> <r_i_glide_energy>
-16.5600543022156

> <r_i_glide_einternal>
5.34515714645386

> <i_i_glide_confnum>
24

> <i_i_glide_posenum>
261

> <r_i_glide_eff_state_penalty>
0

> <s_user_duplicate_titles>
431647

> <s_m_subgroup_title>
dock_pv

> <s_m_subgroupid>
dock_pv1

> <b_m_subgroup_collapsed>
0

$$$$
41558
                    3D
 Schrodinger Suite 2021-1.
 32 33  0  0  1  0            999 V2000
   19.6430   48.5773   11.6456 C   0  0  0  0  0  0
   19.2441   47.6490   12.5946 C   0  0  0  0  0  0
   19.5129   47.8500   13.9479 C   0  0  0  0  0  0
   20.2535   48.9791   14.3494 C   0  0  0  0  0  0
   20.7193   49.8967   13.3784 C   0  0  0  0  0  0
   20.3235   49.7173   12.0434 C   0  0  0  0  0  0
   21.5383   51.1135   13.7337 C   0  0  0  0  0  0
   21.3230   51.6987   14.8000 O   0  0  0  0  0  0
   22.6953   51.5475   12.8752 C   0  0  0  0  0  0
   23.4182   52.6976   13.2328 C   0  0  0  0  0  0
   24.5497   53.0727   12.5157 C   0  0  0  0  0  0
   24.9399   52.3215   11.4093 C   0  0  0  0  0  0
   24.1949   51.2310   11.0004 C   0  0  0  0  0  0
   23.1214   50.8058   11.7611 C   0  0  0  0  0  0
   26.4284   52.6729   10.6002 Cl  0  0  0  0  0  0
   20.5216   49.1631   15.7117 N   0  0  0  0  0  0
   18.9374   46.8414   14.9423 C   0  0  0  0  0  0
   17.5337   47.2434   15.3932 C   0  0  0  0  0  0
   16.5232   46.6730   15.0001 O   0  0  0  0  0  0
   17.5452   48.2694   16.2859 O   0  0  0  0  0  0
   19.3842   48.4332   10.6062 H   0  0  0  0  0  0
   18.6823   46.7847   12.2751 H   0  0  0  0  0  0
   20.5602   50.4498   11.2835 H   0  0  0  0  0  0
   23.1357   53.2923   14.0916 H   0  0  0  0  0  0
   25.1300   53.9278   12.8298 H   0  0  0  0  0  0
   24.5228   50.6728   10.1376 H   0  0  0  0  0  0
   22.6753   49.8730   11.4600 H   0  0  0  0  0  0
   20.8689   50.0849   15.9510 H   0  0  0  0  0  0
   19.8922   48.7050   16.3552 H   0  0  0  0  0  0
   18.8856   45.8537   14.4846 H   0  0  0  0  0  0
   19.5890   46.7241   15.8039 H   0  0  0  0  0  0
   16.6452   48.4916   16.5311 H   0  0  0  0  0  0
  1  6  1  0  0  0
  1  2  2  0  0  0
  1 21  1  0  0  0
  2  3  1  0  0  0
  2 22  1  0  0  0
  3  4  2  0  0  0
  3 17  1  0  0  0
  4  5  1  0  0  0
  4 16  1  0  0  0
  5  6  2  0  0  0
  5  7  1  0  0  0
  6 23  1  0  0  0
  7  8  2  0  0  0
  7  9  1  0  0  0
  9 14  1  0  0  0
  9 10  2  0  0  0
 10 11  1  0  0  0
 10 24  1  0  0  0
 11 12  2  0  0  0
 11 25  1  0  0  0
 12 13  1  0  0  0
 12 15  1  0  0  0
 13 14  2  0  0  0
 13 26  1  0  0  0
 14 27  1  0  0  0
 16 28  1  0  0  0
 16 29  1  0  0  0
 17 18  1  0  0  0
 17 30  1  0  0  0
 17 31  1  0  0  0
 18 19  2  0  0  0
 18 20  1  0  0  0
 20 32  1  0  0  0
M  END
> <s_m_entry_id>
6108

> <s_m_entry_name>
ligand_docking-pose.207

> <s_m_Source_Path>
/home/csk/Desktop/cluster/DUD-E-result/pgh1

> <s_m_Source_File>
ligand_docking-pose.sdf

> <i_m_Source_File_Index>
207

> <i_lp_mmshare_version>
53161

> <i_f3d_flags>
0

> <r_lp_tautomer_probability>
1

> <s_lp_Force_Field>
OPLS_2005

> <r_lp_Energy>
25.571657

> <b_lp_Chiralities_Consistent>
1

> <s_lp_Variant>
41558-1

> <s_i_glide_gridfile>
glide-grid_2oyu

> <i_i_glide_lignum>
112

> <i_i_glide_rotatable_bonds>
5

> <r_i_docking_score>
-7.44028295271589

> <r_i_glide_ligand_efficiency>
-0.372014147635795

> <r_i_glide_ligand_efficiency_sa>
-1.00980175495677

> <r_i_glide_ligand_efficiency_ln>
-1.86205742610932

> <r_i_glide_gscore>
-7.44028295271589

> <r_i_glide_lipo>
-3.3279401540051

> <r_i_glide_hbond>
0

> <r_i_glide_metal>
0

> <r_i_glide_rewards>
-3.00657055158013

> <r_i_glide_evdw>
-35.7818641662598

> <r_i_glide_ecoul>
-1.23109340667725

> <r_i_glide_erotb>
0.867984972183907

> <r_i_glide_esite>
0

> <r_i_glide_emodel>
-50.4475228744845

> <r_i_glide_energy>
-37.012957572937

> <r_i_glide_einternal>
5.389328956604

> <i_i_glide_confnum>
77

> <i_i_glide_posenum>
95

> <r_i_glide_eff_state_penalty>
0

> <s_user_duplicate_titles>
41558

> <s_m_subgroup_title>
dock_pv

> <s_m_subgroupid>
dock_pv1

> <b_m_subgroup_collapsed>
0

$$$$
41101
                    3D
 Schrodinger Suite 2021-1.
 32 33  0  0  1  0            999 V2000
   19.7233   48.8397   11.5610 C   0  0  0  0  0  0
   19.3870   47.9001   12.5240 C   0  0  0  0  0  0
   19.7213   48.1066   13.8651 C   0  0  0  0  0  0
   20.4564   49.2516   14.2330 C   0  0  0  0  0  0
   20.8694   50.1726   13.2423 C   0  0  0  0  0  0
   20.4147   49.9856   11.9269 C   0  0  0  0  0  0
   21.6637   51.4075   13.5693 C   0  0  0  0  0  0
   21.3903   52.0413   14.5936 O   0  0  0  0  0  0
   22.8908   51.7612   12.7778 C   0  0  0  0  0  0
   23.7413   52.7681   13.2592 C   0  0  0  0  0  0
   24.9215   53.0736   12.5909 C   0  0  0  0  0  0
   25.2231   52.4189   11.4000 C   0  0  0  0  0  0
   24.3623   51.4730   10.8797 C   0  0  0  0  0  0
   23.2372   51.1014   11.5885 C   0  0  0  0  0  0
   26.3862   52.6729   10.7592 F   0  0  0  0  0  0
   20.7376   49.4729   15.5883 N   0  0  0  0  0  0
   19.1644   47.1260   14.9003 C   0  0  0  0  0  0
   17.8661   47.6623   15.5014 C   0  0  0  0  0  0
   17.7102   47.8743   16.6984 O   0  0  0  0  0  0
   16.9226   47.8722   14.5490 O   0  0  0  0  0  0
   19.4113   48.6980   10.5363 H   0  0  0  0  0  0
   18.8051   47.0403   12.2285 H   0  0  0  0  0  0
   20.5990   50.7260   11.1603 H   0  0  0  0  0  0
   23.5122   53.3009   14.1723 H   0  0  0  0  0  0
   25.5946   53.8212   12.9842 H   0  0  0  0  0  0
   24.5938   50.9824    9.9475 H   0  0  0  0  0  0
   22.6832   50.2821   11.1682 H   0  0  0  0  0  0
   21.0399   50.4127   15.8135 H   0  0  0  0  0  0
   20.1954   48.9590   16.2673 H   0  0  0  0  0  0
   18.9519   46.1572   14.4474 H   0  0  0  0  0  0
   19.8915   46.9413   15.6908 H   0  0  0  0  0  0
   16.1206   48.2256   14.9404 H   0  0  0  0  0  0
  1  6  1  0  0  0
  1  2  2  0  0  0
  1 21  1  0  0  0
  2  3  1  0  0  0
  2 22  1  0  0  0
  3  4  2  0  0  0
  3 17  1  0  0  0
  4  5  1  0  0  0
  4 16  1  0  0  0
  5  6  2  0  0  0
  5  7  1  0  0  0
  6 23  1  0  0  0
  7  8  2  0  0  0
  7  9  1  0  0  0
  9 14  1  0  0  0
  9 10  2  0  0  0
 10 11  1  0  0  0
 10 24  1  0  0  0
 11 12  2  0  0  0
 11 25  1  0  0  0
 12 13  1  0  0  0
 12 15  1  0  0  0
 13 14  2  0  0  0
 13 26  1  0  0  0
 14 27  1  0  0  0
 16 28  1  0  0  0
 16 29  1  0  0  0
 17 18  1  0  0  0
 17 30  1  0  0  0
 17 31  1  0  0  0
 18 19  2  0  0  0
 18 20  1  0  0  0
 20 32  1  0  0  0
M  END
> <s_m_entry_id>
6109

> <s_m_entry_name>
ligand_docking-pose.208

> <s_m_Source_Path>
/home/csk/Desktop/cluster/DUD-E-result/pgh1

> <s_m_Source_File>
ligand_docking-pose.sdf

> <i_m_Source_File_Index>
208

> <i_lp_mmshare_version>
53161

> <i_f3d_flags>
0

> <r_lp_tautomer_probability>
1

> <s_lp_Force_Field>
OPLS_2005

> <r_lp_Energy>
25.517032

> <b_lp_Chiralities_Consistent>
1

> <s_lp_Variant>
41101-1

> <s_i_glide_gridfile>
glide-grid_2oyu

> <i_i_glide_lignum>
113

> <i_i_glide_rotatable_bonds>
5

> <r_i_docking_score>
-7.43075203515198

> <r_i_glide_ligand_efficiency>
-0.371537601757599

> <r_i_glide_ligand_efficiency_sa>
-1.00850821043118

> <r_i_glide_ligand_efficiency_ln>
-1.85967215179377

> <r_i_glide_gscore>
-7.43075203515198

> <r_i_glide_lipo>
-3.32012893472401

> <r_i_glide_hbond>
0

> <r_i_glide_metal>
0

> <r_i_glide_rewards>
-3.09923356486313

> <r_i_glide_evdw>
-34.4038429260254

> <r_i_glide_ecoul>
-1.66460800170898

> <r_i_glide_erotb>
0.960817897683288

> <r_i_glide_esite>
-0.00232408669050388

> <r_i_glide_emodel>
-48.5261966698196

> <r_i_glide_energy>
-36.0684509277344

> <r_i_glide_einternal>
5.92212152481079

> <i_i_glide_confnum>
78

> <i_i_glide_posenum>
242

> <r_i_glide_eff_state_penalty>
0

> <s_user_duplicate_titles>
41101

> <s_m_subgroup_title>
dock_pv

> <s_m_subgroupid>
dock_pv1

> <b_m_subgroup_collapsed>
0

$$$$
4998
                    3D
 Schrodinger Suite 2021-1.
 34 36  0  0  1  0            999 V2000
   20.5230   47.4332   12.9341 C   0  0  0  0  0  0
   20.2236   48.8691   13.5341 C   0  0  1  0  0  0
   18.8605   49.1417   12.9020 C   0  0  0  0  0  0
   17.6839   48.2730   13.4000 C   0  0  0  0  0  0
   17.7800   47.8056   14.8585 C   0  0  0  0  0  0
   16.9230   47.1246   15.4005 O   0  0  0  0  0  0
   18.8995   48.1489   15.5104 N   0  0  0  0  0  0
   20.0662   48.6641   15.0866 C   0  0  0  0  0  0
   20.9230   48.9310   15.9206 O   0  0  0  0  0  0
   21.2604   49.9600   13.2383 N   0  0  0  0  0  0
   22.1021   49.9088   12.1744 C   0  0  0  0  0  0
   22.1230   49.0730   11.3032 O   0  0  0  0  0  0
   23.0014   51.0702   12.2440 C   0  0  0  0  0  0
   24.1230   51.4063   11.4910 C   0  0  0  0  0  0
   24.7844   52.5950   11.8000 C   0  0  0  0  0  0
   24.2439   53.4732   12.7438 C   0  0  0  0  0  0
   23.0498   53.1638   13.4000 C   0  0  0  0  0  0
   22.5122   51.8928   13.2022 C   0  0  0  0  0  0
   21.4567   51.1456   13.9200 C   0  0  0  0  0  0
   20.9230   51.5462   14.9498 O   0  0  0  0  0  0
   22.4084   54.1243   14.1824 N   0  0  0  0  0  0
   19.9063   46.6486   13.3710 H   0  0  0  0  0  0
   20.3196   47.3776   11.8629 H   0  0  0  0  0  0
   21.5371   47.0730   13.0000 H   0  0  0  0  0  0
   18.9275   49.0249   11.8184 H   0  0  0  0  0  0
   18.6038   50.1806   12.9468 H   0  0  0  0  0  0
   16.7116   48.7251   13.2037 H   0  0  0  0  0  0
   17.7230   47.3671   12.8111 H   0  0  0  0  0  0
   18.8819   47.9341   16.4949 H   0  0  0  0  0  0
   24.5158   50.7482   10.7283 H   0  0  0  0  0  0
   25.7018   52.8367   11.2867 H   0  0  0  0  0  0
   24.7263   54.4239   12.9212 H   0  0  0  0  0  0
   22.9090   54.9677   14.4288 H   0  0  0  0  0  0
   21.5969   53.8317   14.7088 H   0  0  0  0  0  0
  1  2  1  0  0  0
  1 22  1  0  0  0
  1 23  1  0  0  0
  1 24  1  0  0  0
  2  8  1  0  0  0
  2  3  1  0  0  0
  2 10  1  0  0  0
  3  4  1  0  0  0
  3 25  1  0  0  0
  3 26  1  0  0  0
  4  5  1  0  0  0
  4 27  1  0  0  0
  4 28  1  0  0  0
  5  6  2  0  0  0
  5  7  1  0  0  0
  7  8  1  0  0  0
  7 29  1  0  0  0
  8  9  2  0  0  0
 10 19  1  0  0  0
 10 11  1  0  0  0
 11 12  2  0  0  0
 11 13  1  0  0  0
 13 18  2  0  0  0
 13 14  1  0  0  0
 14 15  2  0  0  0
 14 30  1  0  0  0
 15 16  1  0  0  0
 15 31  1  0  0  0
 16 17  2  0  0  0
 16 32  1  0  0  0
 17 18  1  0  0  0
 17 21  1  0  0  0
 18 19  1  0  0  0
 19 20  2  0  0  0
 21 33  1  0  0  0
 21 34  1  0  0  0
M  END
> <s_m_entry_id>
6112

> <s_m_entry_name>
ligand_docking-pose.211

> <s_m_Source_Path>
/home/csk/Desktop/cluster/DUD-E-result/pgh1

> <s_m_Source_File>
ligand_docking-pose.sdf

> <i_m_Source_File_Index>
211

> <i_lp_mmshare_version>
53161

> <i_f3d_flags>
0

> <r_lp_tautomer_probability>
0.99995

> <s_lp_Force_Field>
OPLS_2005

> <r_lp_Energy>
42.563374

> <b_lp_Chiralities_Consistent>
1

> <s_lp_Variant>
4998-1

> <s_i_glide_gridfile>
glide-grid_2oyu

> <i_i_glide_lignum>
268

> <i_i_glide_rotatable_bonds>
1

> <r_i_docking_score>
-7.40971974965847

> <r_i_glide_ligand_efficiency>
-0.352843797602784

> <r_i_glide_ligand_efficiency_sa>
-0.973469282704532

> <r_i_glide_ligand_efficiency_ln>
-1.83203823535449

> <r_i_glide_gscore>
-7.40971974965847

> <r_i_glide_lipo>
-2.43906258557269

> <r_i_glide_hbond>
0

> <r_i_glide_metal>
0

> <r_i_glide_rewards>
-3.75396933508243

> <r_i_glide_evdw>
-19.7717323303223

> <r_i_glide_ecoul>
-2.66992688179016

> <r_i_glide_erotb>
0.22022167347137

> <r_i_glide_esite>
-0.0478338536900852

> <r_i_glide_emodel>
-30.723497485949

> <r_i_glide_energy>
-22.4416592121124

> <r_i_glide_einternal>
1.59481370449066

> <i_i_glide_confnum>
7

> <i_i_glide_posenum>
107

> <r_i_glide_eff_state_penalty>
0

> <s_user_duplicate_titles>
4998

> <s_m_subgroup_title>
dock_pv

> <s_m_subgroupid>
dock_pv1

> <b_m_subgroup_collapsed>
0

$$$$
248274
                    3D
 Schrodinger Suite 2021-1.
 44 45  0  0  1  0            999 V2000
   19.4758   47.1148   14.8195 C   0  0  0  0  0  0
   19.8280   48.0058   13.6353 C   0  0  0  0  0  0
   19.4647   47.6051   12.3510 C   0  0  0  0  0  0
   19.7230   48.4161   11.2514 C   0  0  0  0  0  0
   20.3258   49.6590   11.4215 C   0  0  0  0  0  0
   20.7252   50.0689   12.7054 C   0  0  0  0  0  0
   20.4785   49.2356   13.8144 C   0  0  0  0  0  0
   20.9230   49.7360   15.4210 Cl  0  0  0  0  0  0
   21.2416   51.3517   12.9306 N   0  0  0  0  0  0
   22.4934   51.9269   12.6801 C   0  0  0  0  0  0
   23.3477   51.3491   11.7393 C   0  0  0  0  0  0
   24.5839   51.9211   11.4760 C   0  0  0  0  0  0
   25.0069   53.0333   12.2000 C   0  0  0  0  0  0
   24.1590   53.6342   13.1166 C   0  0  0  0  0  0
   22.8842   53.1065   13.3613 C   0  0  0  0  0  0
   22.0146   53.7454   14.4213 C   0  0  0  0  0  0
   21.3230   53.0296   15.1369 O   0  0  0  0  0  0
   22.1230   55.0730   14.6196 N   0  0  0  0  0  0
   21.4554   55.8730   15.6567 C   0  0  0  0  0  0
   21.8985   55.6955   17.1242 C   0  0  0  0  0  0
   23.3230   56.1630   17.5083 C   0  0  0  0  0  0
   23.3344   56.2728   18.9186 O   0  0  0  0  0  0
   24.5890   56.4596   19.5475 C   0  0  0  0  0  0
   20.5008   50.6730   10.0276 Cl  0  0  0  0  0  0
   18.9290   46.2196   14.5205 H   0  0  0  0  0  0
   20.3768   46.8146   15.3542 H   0  0  0  0  0  0
   18.8509   47.6639   15.5251 H   0  0  0  0  0  0
   18.9464   46.6730   12.2000 H   0  0  0  0  0  0
   19.4102   48.0962   10.2677 H   0  0  0  0  0  0
   20.7549   51.8578   13.6620 H   0  0  0  0  0  0
   23.0597   50.4589   11.2019 H   0  0  0  0  0  0
   25.2391   51.4730   10.7442 H   0  0  0  0  0  0
   25.9924   53.4421   12.0338 H   0  0  0  0  0  0
   24.5185   54.5018   13.6533 H   0  0  0  0  0  0
   22.7903   55.5859   14.0591 H   0  0  0  0  0  0
   20.3729   55.7805   15.5791 H   0  0  0  0  0  0
   21.6700   56.9095   15.4002 H   0  0  0  0  0  0
   21.7230   54.6730   17.4473 H   0  0  0  0  0  0
   21.1997   56.2811   17.7223 H   0  0  0  0  0  0
   23.6144   57.0730   16.9999 H   0  0  0  0  0  0
   24.0988   55.4730   17.2441 H   0  0  0  0  0  0
   24.4882   56.3140   20.6227 H   0  0  0  0  0  0
   24.9368   57.4730   19.4002 H   0  0  0  0  0  0
   25.3435   55.7594   19.1963 H   0  0  0  0  0  0
  1  2  1  0  0  0
  1 25  1  0  0  0
  1 26  1  0  0  0
  1 27  1  0  0  0
  2  7  1  0  0  0
  2  3  2  0  0  0
  3  4  1  0  0  0
  3 28  1  0  0  0
  4  5  2  0  0  0
  4 29  1  0  0  0
  5  6  1  0  0  0
  5 24  1  0  0  0
  6  7  2  0  0  0
  6  9  1  0  0  0
  7  8  1  0  0  0
  9 10  1  0  0  0
  9 30  1  0  0  0
 10 15  1  0  0  0
 10 11  2  0  0  0
 11 12  1  0  0  0
 11 31  1  0  0  0
 12 13  2  0  0  0
 12 32  1  0  0  0
 13 14  1  0  0  0
 13 33  1  0  0  0
 14 15  2  0  0  0
 14 34  1  0  0  0
 15 16  1  0  0  0
 16 17  2  0  0  0
 16 18  1  0  0  0
 18 19  1  0  0  0
 18 35  1  0  0  0
 19 20  1  0  0  0
 19 36  1  0  0  0
 19 37  1  0  0  0
 20 21  1  0  0  0
 20 38  1  0  0  0
 20 39  1  0  0  0
 21 22  1  0  0  0
 21 40  1  0  0  0
 21 41  1  0  0  0
 22 23  1  0  0  0
 23 42  1  0  0  0
 23 43  1  0  0  0
 23 44  1  0  0  0
M  END
> <s_m_entry_id>
6113

> <s_m_entry_name>
ligand_docking-pose.212

> <s_m_Source_Path>
/home/csk/Desktop/cluster/DUD-E-result/pgh1

> <s_m_Source_File>
ligand_docking-pose.sdf

> <i_m_Source_File_Index>
212

> <i_lp_mmshare_version>
53161

> <i_f3d_flags>
0

> <r_lp_tautomer_probability>
1

> <s_lp_Force_Field>
OPLS_2005

> <r_lp_Energy>
26.212528

> <b_lp_Chiralities_Consistent>
1

> <s_lp_Variant>
248274-1

> <s_i_glide_gridfile>
glide-grid_2oyu

> <i_i_glide_lignum>
224

> <i_i_glide_rotatable_bonds>
8

> <r_i_docking_score>
-7.40745735240251

> <r_i_glide_ligand_efficiency>
-0.308644056350105

> <r_i_glide_ligand_efficiency_sa>
-0.890283514354625

> <r_i_glide_ligand_efficiency_ln>
-1.77294445049925

> <r_i_glide_gscore>
-7.40745735240251

> <r_i_glide_lipo>
-4.83269421765263

> <r_i_glide_hbond>
-0.210009942279984

> <r_i_glide_metal>
0

> <r_i_glide_rewards>
-1.45951015660057

> <r_i_glide_evdw>
-25.7174606323242

> <r_i_glide_ecoul>
-3.97017431259155

> <r_i_glide_erotb>
0.99933910551935

> <r_i_glide_esite>
-0.023182962883736

> <r_i_glide_emodel>
-34.4262244870532

> <r_i_glide_energy>
-29.6876349449158

> <r_i_glide_einternal>
5.72891759872437

> <i_i_glide_confnum>
109

> <i_i_glide_posenum>
255

> <r_i_glide_eff_state_penalty>
0

> <s_user_duplicate_titles>
248274

> <s_m_subgroup_title>
dock_pv

> <s_m_subgroupid>
dock_pv1

> <b_m_subgroup_collapsed>
0

$$$$
79657
                    3D
 Schrodinger Suite 2021-1.
 33 35  0  0  1  0            999 V2000
   19.4920   47.8743    9.8364 C   0  0  0  0  0  0
   20.1230   48.9542    9.2281 C   0  0  0  0  0  0
   20.5329   50.0264   10.0076 C   0  0  0  0  0  0
   20.5371   49.9478   11.4077 C   0  0  0  0  0  0
   19.8720   48.8743   12.0250 C   0  0  0  0  0  0
   19.3230   47.8730   11.2202 C   0  0  0  0  0  0
   19.7132   48.7364   13.4777 C   0  0  0  0  0  0
   20.4869   49.0730   14.4226 N   0  0  0  0  0  0
   19.8010   48.7684   15.5259 N   0  0  0  0  0  0
   18.5701   48.2730   15.2807 C   0  0  0  0  0  0
   17.3230   47.8730   16.2785 S   0  0  0  0  0  0
   18.5429   48.1925   13.8989 O   0  0  0  0  0  0
   21.2439   50.9099   12.1536 N   0  0  0  0  0  0
   22.5230   51.4114   11.8766 C   0  0  0  0  0  0
   23.2529   50.9392   10.7885 C   0  0  0  0  0  0
   24.4736   51.4730   10.4578 C   0  0  0  0  0  0
   25.0777   52.3824   11.2897 C   0  0  0  0  0  0
   24.3949   52.8585   12.4045 C   0  0  0  0  0  0
   23.1091   52.3734   12.6996 C   0  0  0  0  0  0
   25.0550   53.9035   13.2671 C   0  0  0  0  0  0
   24.1174   54.6730   13.8000 F   0  0  0  0  0  0
   25.9269   54.6730   12.6192 F   0  0  0  0  0  0
   25.7230   53.2540   14.2000 F   0  0  0  0  0  0
   20.1698   48.9637   16.4459 H   0  0  0  0  0  0
   19.0888   47.0730    9.2355 H   0  0  0  0  0  0
   20.1998   49.0020    8.1512 H   0  0  0  0  0  0
   20.9303   50.8978    9.5102 H   0  0  0  0  0  0
   18.7706   47.0730   11.6783 H   0  0  0  0  0  0
   20.9075   51.0725   13.0921 H   0  0  0  0  0  0
   22.9097   50.1523   10.1448 H   0  0  0  0  0  0
   24.9230   51.1055    9.5543 H   0  0  0  0  0  0
   26.0741   52.7226   11.0469 H   0  0  0  0  0  0
   22.5718   52.7424   13.5617 H   0  0  0  0  0  0
  1  6  1  0  0  0
  1  2  2  0  0  0
  1 25  1  0  0  0
  2  3  1  0  0  0
  2 26  1  0  0  0
  3  4  2  0  0  0
  3 27  1  0  0  0
  4  5  1  0  0  0
  4 13  1  0  0  0
  5  6  2  0  0  0
  5  7  1  0  0  0
  6 28  1  0  0  0
  7 12  1  0  0  0
  7  8  2  0  0  0
  8  9  1  0  0  0
  9 24  1  0  0  0
  9 10  1  0  0  0
 10 11  2  0  0  0
 10 12  1  0  0  0
 13 14  1  0  0  0
 13 29  1  0  0  0
 14 19  1  0  0  0
 14 15  2  0  0  0
 15 16  1  0  0  0
 15 30  1  0  0  0
 16 17  2  0  0  0
 16 31  1  0  0  0
 17 18  1  0  0  0
 17 32  1  0  0  0
 18 19  2  0  0  0
 18 20  1  0  0  0
 19 33  1  0  0  0
 20 21  1  0  0  0
 20 22  1  0  0  0
 20 23  1  0  0  0
M  END
> <s_m_entry_id>
6115

> <s_m_entry_name>
ligand_docking-pose.214

> <s_m_Source_Path>
/home/csk/Desktop/cluster/DUD-E-result/pgh1

> <s_m_Source_File>
ligand_docking-pose.sdf

> <i_m_Source_File_Index>
214

> <i_lp_mmshare_version>
53161

> <i_f3d_flags>
0

> <r_lp_tautomer_probability>
1

> <s_lp_Force_Field>
OPLS_2005

> <r_lp_Energy>
31.502854

> <b_lp_Chiralities_Consistent>
1

> <s_lp_Variant>
79657-1

> <s_i_glide_gridfile>
glide-grid_2oyu

> <i_i_glide_lignum>
100

> <i_i_glide_rotatable_bonds>
4

> <r_i_docking_score>
-7.38930716154591

> <r_i_glide_ligand_efficiency>
-0.32127422441504

> <r_i_glide_ligand_efficiency_sa>
-0.913661157336426

> <r_i_glide_ligand_efficiency_ln>
-1.78680147419471

> <r_i_glide_gscore>
-7.38930716154591

> <r_i_glide_lipo>
-4.16954448528225

> <r_i_glide_hbond>
0

> <r_i_glide_metal>
0

> <r_i_glide_rewards>
-2.39029174316243

> <r_i_glide_evdw>
-24.0773677825928

> <r_i_glide_ecoul>
-0.620681762695312

> <r_i_glide_erotb>
0.49824680116543

> <r_i_glide_esite>
-0.0307470807327246

> <r_i_glide_emodel>
-26.9464911134706

> <r_i_glide_energy>
-24.6980495452881

> <r_i_glide_einternal>
8.01429653167725

> <i_i_glide_confnum>
22

> <i_i_glide_posenum>
393

> <r_i_glide_eff_state_penalty>
0

> <s_user_duplicate_titles>
79657

> <s_m_subgroup_title>
dock_pv

> <s_m_subgroupid>
dock_pv1

> <b_m_subgroup_collapsed>
0

$$$$
40868
                    3D
 Schrodinger Suite 2021-1.
 32 33  0  0  1  0            999 V2000
   24.9213   52.2731   11.1751 C   0  0  0  0  0  0
   24.5982   53.0064   12.3131 C   0  0  0  0  0  0
   23.4790   52.6569   13.0578 C   0  0  0  0  0  0
   22.7007   51.5446   12.6998 C   0  0  0  0  0  0
   23.0706   50.8051   11.5654 C   0  0  0  0  0  0
   24.1239   51.2136   10.7752 C   0  0  0  0  0  0
   21.5341   51.1571   13.5697 C   0  0  0  0  0  0
   21.3230   51.7856   14.6124 O   0  0  0  0  0  0
   20.7160   49.9240   13.2710 C   0  0  0  0  0  0
   20.3065   49.6724   11.9513 C   0  0  0  0  0  0
   19.6766   48.4837   11.6092 C   0  0  0  0  0  0
   19.3252   47.5815   12.6003 C   0  0  0  0  0  0
   19.5680   47.8770   13.9426 C   0  0  0  0  0  0
   20.2705   49.0487   14.2867 C   0  0  0  0  0  0
   20.5231   49.3139   15.6403 N   0  0  0  0  0  0
   18.9582   46.9611   15.0027 C   0  0  0  0  0  0
   17.6979   47.6075   15.5784 C   0  0  0  0  0  0
   17.5549   47.8731   16.7684 O   0  0  0  0  0  0
   16.7921   47.8734   14.6005 O   0  0  0  0  0  0
   25.7891   52.5440   10.5902 H   0  0  0  0  0  0
   25.2035   53.8496   12.6097 H   0  0  0  0  0  0
   23.2436   53.2476   13.9332 H   0  0  0  0  0  0
   22.5896   49.8937   11.2554 H   0  0  0  0  0  0
   24.3839   50.6727    9.8789 H   0  0  0  0  0  0
   20.5087   50.3804   11.1582 H   0  0  0  0  0  0
   19.4269   48.2775   10.5781 H   0  0  0  0  0  0
   18.8134   46.6741   12.3209 H   0  0  0  0  0  0
   20.8432   50.2547   15.8415 H   0  0  0  0  0  0
   19.9674   48.8254   16.3292 H   0  0  0  0  0  0
   18.7007   45.9854   14.5912 H   0  0  0  0  0  0
   19.6776   46.7718   15.7986 H   0  0  0  0  0  0
   17.1447   47.7009   13.7270 H   0  0  0  0  0  0
  1  6  1  0  0  0
  1  2  2  0  0  0
  1 20  1  0  0  0
  2  3  1  0  0  0
  2 21  1  0  0  0
  3  4  2  0  0  0
  3 22  1  0  0  0
  4  5  1  0  0  0
  4  7  1  0  0  0
  5  6  2  0  0  0
  5 23  1  0  0  0
  6 24  1  0  0  0
  7  8  2  0  0  0
  7  9  1  0  0  0
  9 14  1  0  0  0
  9 10  2  0  0  0
 10 11  1  0  0  0
 10 25  1  0  0  0
 11 12  2  0  0  0
 11 26  1  0  0  0
 12 13  1  0  0  0
 12 27  1  0  0  0
 13 14  2  0  0  0
 13 16  1  0  0  0
 14 15  1  0  0  0
 15 28  1  0  0  0
 15 29  1  0  0  0
 16 17  1  0  0  0
 16 30  1  0  0  0
 16 31  1  0  0  0
 17 18  2  0  0  0
 17 19  1  0  0  0
 19 32  1  0  0  0
M  END
> <s_m_entry_id>
6116

> <s_m_entry_name>
ligand_docking-pose.215

> <s_m_Source_Path>
/home/csk/Desktop/cluster/DUD-E-result/pgh1

> <s_m_Source_File>
ligand_docking-pose.sdf

> <i_m_Source_File_Index>
215

> <i_lp_mmshare_version>
53161

> <i_f3d_flags>
0

> <r_lp_tautomer_probability>
1

> <s_lp_Force_Field>
OPLS_2005

> <r_lp_Energy>
25.084824

> <b_lp_Chiralities_Consistent>
1

> <s_lp_Variant>
40868-1

> <s_i_glide_gridfile>
glide-grid_2oyu

> <i_i_glide_lignum>
115

> <i_i_glide_rotatable_bonds>
5

> <r_i_docking_score>
-7.38344064012693

> <r_i_glide_ligand_efficiency>
-0.388602138954049

> <r_i_glide_ligand_efficiency_sa>
-1.03694658726412

> <r_i_glide_ligand_efficiency_ln>
-1.87186078403658

> <r_i_glide_gscore>
-7.38344064012693

> <r_i_glide_lipo>
-3.25953838192836

> <r_i_glide_hbond>
0

> <r_i_glide_metal>
0

> <r_i_glide_rewards>
-3.14831950054954

> <r_i_glide_evdw>
-36.5827560424805

> <r_i_glide_ecoul>
-1.51374638080597

> <r_i_glide_erotb>
1.08061700159589

> <r_i_glide_esite>
0

> <r_i_glide_emodel>
-51.2077314594351

> <r_i_glide_energy>
-38.0965024232864

> <r_i_glide_einternal>
5.82047557830811

> <i_i_glide_confnum>
78

> <i_i_glide_posenum>
194

> <r_i_glide_eff_state_penalty>
0

> <s_user_duplicate_titles>
40868

> <s_m_subgroup_title>
dock_pv

> <s_m_subgroupid>
dock_pv1

> <b_m_subgroup_collapsed>
0

$$$$
326654
                    3D
 Schrodinger Suite 2021-1.
 47 48  0  0  1  0            999 V2000
   23.7218   51.7187   14.0235 C   0  0  0  0  0  0
   22.4740   52.3121   13.3979 C   0  0  0  0  0  0
   21.7230   53.2030   14.4192 C   0  0  0  0  0  0
   23.0492   53.3131   12.3771 C   0  0  0  0  0  0
   21.5690   51.1628   12.8140 C   0  0  0  0  0  0
   21.3940   51.0329   11.4313 C   0  0  0  0  0  0
   20.6133   50.0353   10.8415 C   0  0  0  0  0  0
   19.9685   49.1285   11.6850 C   0  0  0  0  0  0
   20.1031   49.1805   13.0905 C   0  0  0  0  0  0
   20.9247   50.2037   13.6319 C   0  0  0  0  0  0
   21.0947   50.2836   14.9881 O   0  0  0  0  0  0
   19.3883   48.1131   13.9998 C   0  0  0  0  0  0
   18.3773   48.6890   15.0129 C   0  0  0  0  0  0
   20.4099   47.3102   14.8072 C   0  0  0  0  0  0
   18.5940   47.0728   13.1969 C   0  0  0  0  0  0
   20.5089   50.0984    9.3527 C   0  0  0  0  0  0
   20.1234   49.3139    8.3090 C   0  0  0  0  0  0
   19.6500   47.9395    8.3284 C   0  0  0  0  0  0
   19.7231   47.1390    9.2529 O   0  0  0  0  0  0
   18.9564   47.6808    7.1644 N   0  0  0  0  0  0
   19.0017   48.5977    6.3022 C   0  0  0  0  0  0
   20.1214   49.8730    6.6138 S   0  0  0  0  0  0
   18.1845   48.6730    5.2053 N   0  0  0  0  0  0
   24.5230   52.4372   14.1964 H   0  0  0  0  0  0
   24.1176   50.9196   13.3995 H   0  0  0  0  0  0
   23.4750   51.3621   15.0000 H   0  0  0  0  0  0
   20.9228   53.7231   13.9084 H   0  0  0  0  0  0
   21.3019   52.6883   15.2783 H   0  0  0  0  0  0
   22.3631   53.9924   14.8124 H   0  0  0  0  0  0
   22.2915   54.0576   12.2001 H   0  0  0  0  0  0
   23.8782   53.8984   12.7800 H   0  0  0  0  0  0
   23.4232   52.8805   11.4505 H   0  0  0  0  0  0
   21.8595   51.7414   10.7697 H   0  0  0  0  0  0
   19.3327   48.3922   11.2298 H   0  0  0  0  0  0
   21.6163   51.0546   15.2176 H   0  0  0  0  0  0
   17.4942   49.0730   14.5099 H   0  0  0  0  0  0
   18.0071   47.9211   15.6946 H   0  0  0  0  0  0
   18.8123   49.4607   15.6463 H   0  0  0  0  0  0
   21.1248   46.8666   14.1207 H   0  0  0  0  0  0
   20.9226   47.9279   15.5440 H   0  0  0  0  0  0
   19.9440   46.5019   15.3734 H   0  0  0  0  0  0
   19.2402   46.5016   12.5311 H   0  0  0  0  0  0
   18.1271   46.3631   13.8794 H   0  0  0  0  0  0
   17.7988   47.5282   12.6054 H   0  0  0  0  0  0
   20.7841   51.0767    9.0000 H   0  0  0  0  0  0
   17.2968   48.1996    5.2943 H   0  0  0  0  0  0
   18.1413   49.5570    4.7091 H   0  0  0  0  0  0
  1  2  1  0  0  0
  1 24  1  0  0  0
  1 25  1  0  0  0
  1 26  1  0  0  0
  2  3  1  0  0  0
  2  4  1  0  0  0
  2  5  1  0  0  0
  3 27  1  0  0  0
  3 28  1  0  0  0
  3 29  1  0  0  0
  4 30  1  0  0  0
  4 31  1  0  0  0
  4 32  1  0  0  0
  5 10  1  0  0  0
  5  6  2  0  0  0
  6  7  1  0  0  0
  6 33  1  0  0  0
  7  8  2  0  0  0
  7 16  1  0  0  0
  8  9  1  0  0  0
  8 34  1  0  0  0
  9 10  2  0  0  0
  9 12  1  0  0  0
 10 11  1  0  0  0
 11 35  1  0  0  0
 12 13  1  0  0  0
 12 14  1  0  0  0
 12 15  1  0  0  0
 13 36  1  0  0  0
 13 37  1  0  0  0
 13 38  1  0  0  0
 14 39  1  0  0  0
 14 40  1  0  0  0
 14 41  1  0  0  0
 15 42  1  0  0  0
 15 43  1  0  0  0
 15 44  1  0  0  0
 16 17  2  0  0  0
 16 45  1  0  0  0
 17 22  1  0  0  0
 17 18  1  0  0  0
 18 19  2  0  0  0
 18 20  1  0  0  0
 20 21  2  0  0  0
 21 22  1  0  0  0
 21 23  1  0  0  0
 23 46  1  0  0  0
 23 47  1  0  0  0
M  END
> <s_m_entry_id>
6117

> <s_m_entry_name>
ligand_docking-pose.216

> <s_m_Source_Path>
/home/csk/Desktop/cluster/DUD-E-result/pgh1

> <s_m_Source_File>
ligand_docking-pose.sdf

> <i_m_Source_File_Index>
216

> <i_lp_mmshare_version>
53161

> <i_f3d_flags>
0

> <r_lp_tautomer_probability>
1

> <s_lp_Force_Field>
OPLS_2005

> <r_lp_Energy>
31.217429

> <b_lp_Chiralities_Consistent>
1

> <s_lp_Variant>
326654-1

> <s_i_glide_gridfile>
glide-grid_2oyu

> <i_i_glide_lignum>
450

> <i_i_glide_rotatable_bonds>
4

> <r_i_docking_score>
-7.37026733299799

> <r_i_glide_ligand_efficiency>
-0.320446405782521

> <r_i_glide_ligand_efficiency_sa>
-0.911306951264563

> <r_i_glide_ligand_efficiency_ln>
-1.78219747100821

> <r_i_glide_gscore>
-7.37026733299799

> <r_i_glide_lipo>
-3.3131128708763

> <r_i_glide_hbond>
-0.380333046782735

> <r_i_glide_metal>
0

> <r_i_glide_rewards>
-2.2871530816684

> <r_i_glide_evdw>
-13.8317632675171

> <r_i_glide_ecoul>
-5.14147663116455

> <r_i_glide_erotb>
0.170403141687421

> <r_i_glide_esite>
-0.0972618173074408

> <r_i_glide_emodel>
-44.489022787114

> <r_i_glide_energy>
-18.9732398986816

> <r_i_glide_einternal>
2.98643660545349

> <i_i_glide_confnum>
1

> <i_i_glide_posenum>
34

> <r_i_glide_eff_state_penalty>
0

> <s_user_duplicate_titles>
326654

> <s_m_subgroup_title>
dock_pv

> <s_m_subgroupid>
dock_pv1

> <b_m_subgroup_collapsed>
0

$$$$
194845
                    3D
 Schrodinger Suite 2021-1.
 45 46  0  0  1  0            999 V2000
   19.8314   49.0410    6.2794 C   0  0  0  0  0  0
   19.7694   48.6769    7.7415 C   0  0  0  0  0  0
   20.1230   49.4101    8.7674 N   0  0  0  0  0  0
   19.8391   48.6347    9.7994 C   0  0  0  0  0  0
   19.3230   47.4732    9.4772 N   0  0  0  0  0  0
   19.2721   47.4718    8.0864 O   0  0  0  0  0  0
   20.0797   49.0299   11.2337 C   0  0  0  0  0  0
   20.9358   50.0826   11.5272 C   0  0  0  0  0  0
   21.1966   50.5162   12.8386 C   0  0  0  0  0  0
   20.5961   49.7800   13.8905 C   0  0  0  0  0  0
   19.7115   48.6978   13.6368 C   0  0  0  0  0  0
   19.4691   48.3598   12.2938 C   0  0  0  0  0  0
   19.0625   47.8467   14.7825 C   0  0  0  0  0  0
   18.1245   46.7300   14.2740 C   0  0  0  0  0  0
   18.1924   48.6694   15.7569 C   0  0  0  0  0  0
   20.1662   47.1311   15.5631 C   0  0  0  0  0  0
   20.8922   50.1107   15.1881 O   0  0  0  0  0  0
   22.1035   51.7768   13.0859 C   0  0  0  0  0  0
   23.2923   51.4729   13.9816 C   0  0  0  0  0  0
   21.3125   52.9202   13.7847 C   0  0  0  0  0  0
   22.8064   52.2732   11.7976 C   0  0  0  0  0  0
   20.2859   50.0198    6.1254 H   0  0  0  0  0  0
   20.4157   48.3190    5.7092 H   0  0  0  0  0  0
   18.8345   49.0798    5.8392 H   0  0  0  0  0  0
   21.3959   50.5365   10.6699 H   0  0  0  0  0  0
   18.8053   47.5496   12.0374 H   0  0  0  0  0  0
   17.7098   46.1332   15.0883 H   0  0  0  0  0  0
   18.6536   46.0344   13.6234 H   0  0  0  0  0  0
   17.2718   47.1537   13.7454 H   0  0  0  0  0  0
   18.7298   49.4730   16.2448 H   0  0  0  0  0  0
   17.3218   49.0731   15.2449 H   0  0  0  0  0  0
   17.8045   48.0448   16.5640 H   0  0  0  0  0  0
   20.7280   47.8147   16.1999 H   0  0  0  0  0  0
   19.7707   46.3387   16.1999 H   0  0  0  0  0  0
   20.8681   46.6731   14.8720 H   0  0  0  0  0  0
   20.3985   49.5702   15.8069 H   0  0  0  0  0  0
   23.7229   50.5412   13.6467 H   0  0  0  0  0  0
   24.0642   52.2458   13.9755 H   0  0  0  0  0  0
   22.9625   51.3866   15.0000 H   0  0  0  0  0  0
   20.3100   53.0730   13.4000 H   0  0  0  0  0  0
   21.1651   52.7133   14.8456 H   0  0  0  0  0  0
   21.8400   53.8736   13.7300 H   0  0  0  0  0  0
   22.1241   52.3229   10.9731 H   0  0  0  0  0  0
   23.2707   53.2523   11.9212 H   0  0  0  0  0  0
   23.5915   51.5885   11.4692 H   0  0  0  0  0  0
  1  2  1  0  0  0
  1 22  1  0  0  0
  1 23  1  0  0  0
  1 24  1  0  0  0
  2  6  1  0  0  0
  2  3  2  0  0  0
  3  4  1  0  0  0
  4  5  2  0  0  0
  4  7  1  0  0  0
  5  6  1  0  0  0
  7 12  1  0  0  0
  7  8  2  0  0  0
  8  9  1  0  0  0
  8 25  1  0  0  0
  9 10  2  0  0  0
  9 18  1  0  0  0
 10 11  1  0  0  0
 10 17  1  0  0  0
 11 12  2  0  0  0
 11 13  1  0  0  0
 12 26  1  0  0  0
 13 14  1  0  0  0
 13 15  1  0  0  0
 13 16  1  0  0  0
 14 27  1  0  0  0
 14 28  1  0  0  0
 14 29  1  0  0  0
 15 30  1  0  0  0
 15 31  1  0  0  0
 15 32  1  0  0  0
 16 33  1  0  0  0
 16 34  1  0  0  0
 16 35  1  0  0  0
 17 36  1  0  0  0
 18 19  1  0  0  0
 18 20  1  0  0  0
 18 21  1  0  0  0
 19 37  1  0  0  0
 19 38  1  0  0  0
 19 39  1  0  0  0
 20 40  1  0  0  0
 20 41  1  0  0  0
 20 42  1  0  0  0
 21 43  1  0  0  0
 21 44  1  0  0  0
 21 45  1  0  0  0
M  END
> <s_m_entry_id>
6119

> <s_m_entry_name>
ligand_docking-pose.218

> <s_m_Source_Path>
/home/csk/Desktop/cluster/DUD-E-result/pgh1

> <s_m_Source_File>
ligand_docking-pose.sdf

> <i_m_Source_File_Index>
218

> <i_lp_mmshare_version>
53161

> <i_f3d_flags>
0

> <r_lp_tautomer_probability>
0.999999999997365

> <s_lp_Force_Field>
OPLS_2005

> <r_lp_Energy>
23.870164

> <b_lp_Chiralities_Consistent>
1

> <s_lp_Variant>
194845-1

> <s_i_glide_gridfile>
glide-grid_2oyu

> <i_i_glide_lignum>
307

> <i_i_glide_rotatable_bonds>
4

> <r_i_docking_score>
-7.35722838858472

> <r_i_glide_ligand_efficiency>
-0.350344208980225

> <r_i_glide_ligand_efficiency_sa>
-0.966573107229743

> <r_i_glide_ligand_efficiency_ln>
-1.81905985239779

> <r_i_glide_gscore>
-7.35722838858472

> <r_i_glide_lipo>
-3.7627292142089

> <r_i_glide_hbond>
0

> <r_i_glide_metal>
0

> <r_i_glide_rewards>
-2.52949986795706

> <r_i_glide_evdw>
-22.6452045440674

> <r_i_glide_ecoul>
-1.00987279415131

> <r_i_glide_erotb>
0.218741839907309

> <r_i_glide_esite>
0

> <r_i_glide_emodel>
-23.0019011447924

> <r_i_glide_energy>
-23.6550773382187

> <r_i_glide_einternal>
1.63327991962433

> <i_i_glide_confnum>
1

> <i_i_glide_posenum>
295

> <r_i_glide_eff_state_penalty>
0

> <s_user_duplicate_titles>
194845

> <s_m_subgroup_title>
dock_pv

> <s_m_subgroupid>
dock_pv1

> <b_m_subgroup_collapsed>
0

$$$$
134421
                    3D
 Schrodinger Suite 2021-1.
 43 45  0  0  1  0            999 V2000
   20.1545   48.5432    5.0411 C   0  0  0  0  0  0
   20.4671   48.4318    6.5214 C   0  0  0  0  0  0
   19.3225   48.5512    7.3997 N   0  0  2  0  0  0
   19.7227   48.4452    8.7990 C   0  0  0  0  0  0
   20.4708   49.7082    9.2754 C   0  0  0  0  0  0
   20.6063   49.9242   10.7658 C   0  0  0  0  0  0
   21.1804   51.0720   11.3060 C   0  0  0  0  0  0
   21.3126   51.1988   12.6922 C   0  0  0  0  0  0
   20.9121   50.1722   13.5563 C   0  0  0  0  0  0
   20.4455   48.9724   12.9852 C   0  0  0  0  0  0
   20.2452   48.9067   11.6148 C   0  0  0  0  0  0
   20.1819   47.7227   13.7849 C   0  0  1  0  0  0
   19.0342   47.8796   14.7035 C   0  0  0  0  0  0
   17.9692   47.0145   14.6014 C   0  0  0  0  0  0
   16.9232   47.0744   15.4876 C   0  0  0  0  0  0
   16.9220   48.0650   16.4595 C   0  0  0  0  0  0
   17.9355   49.0008   16.5028 C   0  0  0  0  0  0
   19.0802   48.8483   15.7078 C   0  0  0  0  0  0
   20.3854   49.6319   15.9448 C   0  0  0  0  0  0
   20.9231   50.4665   14.9079 O   0  0  0  0  0  0
   20.1271   46.5654   12.9784 O   0  0  0  0  0  0
   18.5236   47.4733    7.1720 O   0  0  0  0  0  0
   21.0711   48.2729    4.5211 H   0  0  0  0  0  0
   19.8598   49.5634    4.7887 H   0  0  0  0  0  0
   19.3695   47.8719    4.7076 H   0  0  0  0  0  0
   20.9166   47.4745    6.7425 H   0  0  0  0  0  0
   21.1951   49.2057    6.7414 H   0  0  0  0  0  0
   18.8411   48.2731    9.4126 H   0  0  0  0  0  0
   20.3488   47.5598    8.9318 H   0  0  0  0  0  0
   21.4720   49.4731    9.0027 H   0  0  0  0  0  0
   20.1260   50.6195    8.7823 H   0  0  0  0  0  0
   21.4978   51.8730   10.6574 H   0  0  0  0  0  0
   21.6983   52.1192   13.1052 H   0  0  0  0  0  0
   19.8524   48.0024   11.1895 H   0  0  0  0  0  0
   20.9235   47.5020   14.5090 H   0  0  0  0  0  0
   18.0595   46.2730   13.8385 H   0  0  0  0  0  0
   16.1213   46.3543   15.4248 H   0  0  0  0  0  0
   16.1010   48.1496   17.1532 H   0  0  0  0  0  0
   17.8387   49.8160   17.2053 H   0  0  0  0  0  0
   21.1648   48.9204   16.2123 H   0  0  0  0  0  0
   20.2616   50.2721   16.8186 H   0  0  0  0  0  0
   19.3726   46.6410   12.3848 H   0  0  0  0  0  0
   17.6405   47.8742    7.0721 H   0  0  0  0  0  0
  1  2  1  0  0  0
  1 23  1  0  0  0
  1 24  1  0  0  0
  1 25  1  0  0  0
  2  3  1  0  0  0
  2 26  1  0  0  0
  2 27  1  0  0  0
  3  4  1  0  0  0
  3 22  1  0  0  0
  4  5  1  0  0  0
  4 28  1  0  0  0
  4 29  1  0  0  0
  5  6  1  0  0  0
  5 30  1  0  0  0
  5 31  1  0  0  0
  6 11  1  0  0  0
  6  7  2  0  0  0
  7  8  1  0  0  0
  7 32  1  0  0  0
  8  9  2  0  0  0
  8 33  1  0  0  0
  9 20  1  0  0  0
  9 10  1  0  0  0
 10 11  2  0  0  0
 10 12  1  0  0  0
 11 34  1  0  0  0
 12 13  1  0  0  0
 12 21  1  0  0  0
 12 35  1  0  0  0
 13 18  2  0  0  0
 13 14  1  0  0  0
 14 15  2  0  0  0
 14 36  1  0  0  0
 15 16  1  0  0  0
 15 37  1  0  0  0
 16 17  2  0  0  0
 16 38  1  0  0  0
 17 18  1  0  0  0
 17 39  1  0  0  0
 18 19  1  0  0  0
 19 20  1  0  0  0
 19 40  1  0  0  0
 19 41  1  0  0  0
 21 42  1  0  0  0
 22 43  1  0  0  0
M  END
> <s_m_entry_id>
6120

> <s_m_entry_name>
ligand_docking-pose.219

> <s_m_Source_Path>
/home/csk/Desktop/cluster/DUD-E-result/pgh1

> <s_m_Source_File>
ligand_docking-pose.sdf

> <i_m_Source_File_Index>
219

> <i_lp_mmshare_version>
53161

> <i_f3d_flags>
0

> <r_lp_tautomer_probability>
1

> <s_lp_Force_Field>
OPLS_2005

> <r_lp_Energy>
24.267628

> <b_lp_Chiralities_Consistent>
1

> <s_lp_Variant>
134421-1

> <s_i_glide_gridfile>
glide-grid_2oyu

> <i_i_glide_lignum>
528

> <i_i_glide_rotatable_bonds>
6

> <r_i_docking_score>
-7.34497397103605

> <r_i_glide_ligand_efficiency>
-0.333862453228912

> <r_i_glide_ligand_efficiency_sa>
-0.935495724012619

> <r_i_glide_ligand_efficiency_ln>
-1.79537955295639

> <r_i_glide_gscore>
-7.34497397103605

> <r_i_glide_lipo>
-4.19832134771433

> <r_i_glide_hbond>
-0.478045779633469

> <r_i_glide_metal>
0

> <r_i_glide_rewards>
-2.07930190694212

> <r_i_glide_evdw>
2.60333800315857

> <r_i_glide_ecoul>
-8.51679420471191

> <r_i_glide_erotb>
0.614777894570175

> <r_i_glide_esite>
-0.0567306007674579

> <r_i_glide_emodel>
-19.2046614119027

> <r_i_glide_energy>
-5.91345620155334

> <r_i_glide_einternal>
7.30019569396973

> <i_i_glide_confnum>
120

> <i_i_glide_posenum>
110

> <r_i_glide_eff_state_penalty>
0

> <s_user_duplicate_titles>
134421

> <s_m_subgroup_title>
dock_pv

> <s_m_subgroupid>
dock_pv1

> <b_m_subgroup_collapsed>
0

$$$$
174042
                    3D
 Schrodinger Suite 2021-1.
 34 35  0  0  1  0            999 V2000
   25.0690   52.1075   10.9985 C   0  0  0  0  0  0
   24.0057   52.7988   11.8831 C   0  0  1  0  0  0
   22.9373   51.8096   12.3750 C   0  0  0  0  0  0
   22.5879   51.6916   13.7252 C   0  0  0  0  0  0
   21.6776   50.7366   14.1315 C   0  0  0  0  0  0
   21.0857   49.8690   13.2094 C   0  0  0  0  0  0
   21.3792   50.0332   11.8507 C   0  0  0  0  0  0
   22.2982   50.9909   11.4391 C   0  0  0  0  0  0
   20.2206   48.7530   13.6879 C   0  0  0  0  0  0
   19.5851   48.8089   14.9332 C   0  0  0  0  0  0
   18.7676   47.7718   15.3766 C   0  0  0  0  0  0
   18.6824   46.6323   14.5880 C   0  0  0  0  0  0
   19.3230   46.5206   13.3996 N   0  0  0  0  0  0
   20.0505   47.5720   12.9555 C   0  0  0  0  0  0
   17.9840   47.8996   16.6000 C   0  0  0  0  0  0
   17.3230   49.0071   16.9545 C   0  0  0  0  0  0
   24.6249   53.6743   13.0000 C   0  0  0  0  0  0
   25.7230   53.4730   13.5020 O   0  0  0  0  0  0
   23.7681   54.6542   13.4000 O   0  0  0  0  0  0
   25.3230   51.1298   11.4000 H   0  0  0  0  0  0
   24.6920   51.9379    9.9897 H   0  0  0  0  0  0
   25.9959   52.6730   10.8974 H   0  0  0  0  0  0
   23.4678   53.4730   11.2259 H   0  0  0  0  0  0
   23.0371   52.3001   14.4946 H   0  0  0  0  0  0
   21.4976   50.6529   15.1912 H   0  0  0  0  0  0
   20.9230   49.4041   11.1016 H   0  0  0  0  0  0
   22.5318   51.0729   10.3884 H   0  0  0  0  0  0
   19.7075   49.6724   15.5665 H   0  0  0  0  0  0
   18.0666   45.7953   14.8841 H   0  0  0  0  0  0
   20.5233   47.4263   11.9965 H   0  0  0  0  0  0
   17.9738   47.0730   17.2786 H   0  0  0  0  0  0
   17.3230   49.8730   16.3169 H   0  0  0  0  0  0
   16.7728   49.0730   17.8758 H   0  0  0  0  0  0
   24.1259   55.1898   14.1127 H   0  0  0  0  0  0
  1  2  1  0  0  0
  1 20  1  0  0  0
  1 21  1  0  0  0
  1 22  1  0  0  0
  2  3  1  0  0  0
  2 17  1  0  0  0
  2 23  1  0  0  0
  3  8  1  0  0  0
  3  4  2  0  0  0
  4  5  1  0  0  0
  4 24  1  0  0  0
  5  6  2  0  0  0
  5 25  1  0  0  0
  6  7  1  0  0  0
  6  9  1  0  0  0
  7  8  2  0  0  0
  7 26  1  0  0  0
  8 27  1  0  0  0
  9 14  1  0  0  0
  9 10  2  0  0  0
 10 11  1  0  0  0
 10 28  1  0  0  0
 11 12  2  0  0  0
 11 15  1  0  0  0
 12 13  1  0  0  0
 12 29  1  0  0  0
 13 14  2  0  0  0
 14 30  1  0  0  0
 15 16  2  0  0  0
 15 31  1  0  0  0
 16 32  1  0  0  0
 16 33  1  0  0  0
 17 18  2  0  0  0
 17 19  1  0  0  0
 19 34  1  0  0  0
M  END
> <s_m_entry_id>
6121

> <s_m_entry_name>
ligand_docking-pose.220

> <s_m_Source_Path>
/home/csk/Desktop/cluster/DUD-E-result/pgh1

> <s_m_Source_File>
ligand_docking-pose.sdf

> <i_m_Source_File_Index>
220

> <i_lp_mmshare_version>
53161

> <i_f3d_flags>
0

> <r_lp_tautomer_probability>
1

> <s_lp_Force_Field>
OPLS_2005

> <r_lp_Energy>
16.040923

> <b_lp_Chiralities_Consistent>
1

> <s_lp_Variant>
174042-2

> <s_i_glide_gridfile>
glide-grid_2oyu

> <i_i_glide_lignum>
339

> <i_i_glide_rotatable_bonds>
5

> <r_i_docking_score>
-7.34102729657082

> <r_i_glide_ligand_efficiency>
-0.386369857714254

> <r_i_glide_ligand_efficiency_sa>
-1.03098996432928

> <r_i_glide_ligand_efficiency_ln>
-1.86110809049001

> <r_i_glide_gscore>
-7.34102729657082

> <r_i_glide_lipo>
-3.65019500440802

> <r_i_glide_hbond>
-0.0529135876610988

> <r_i_glide_metal>
0

> <r_i_glide_rewards>
-3.00156890904169

> <r_i_glide_evdw>
-25.5140323638916

> <r_i_glide_ecoul>
-3.03841924667358

> <r_i_glide_erotb>
1.0951147097356

> <r_i_glide_esite>
0

> <r_i_glide_emodel>
-32.5783233173923

> <r_i_glide_energy>
-28.5524516105652

> <r_i_glide_einternal>
8.88497638702393

> <i_i_glide_confnum>
60

> <i_i_glide_posenum>
34

> <r_i_glide_eff_state_penalty>
0

> <s_user_duplicate_titles>
174042

> <s_m_subgroup_title>
dock_pv

> <s_m_subgroupid>
dock_pv1

> <b_m_subgroup_collapsed>
0

$$$$
174001
                    3D
 Schrodinger Suite 2021-1.
 31 32  0  0  1  0            999 V2000
   18.9311   46.2210   14.0169 C   0  0  0  0  0  0
   18.3130   47.6264   14.0279 C   0  0  2  0  0  0
   19.3975   48.6719   13.7159 C   0  0  0  0  0  0
   20.1861   49.2518   14.7157 C   0  0  0  0  0  0
   21.1547   50.1898   14.3874 C   0  0  0  0  0  0
   21.4240   50.5056   13.0524 C   0  0  0  0  0  0
   20.6735   49.8864   12.0475 C   0  0  0  0  0  0
   19.6705   48.9788   12.3781 C   0  0  0  0  0  0
   22.5303   51.4459   12.7304 C   0  0  0  0  0  0
   23.4128   51.1811   11.6748 C   0  0  0  0  0  0
   24.5226   51.9946   11.4632 C   0  0  0  0  0  0
   24.7533   53.0731   12.3133 C   0  0  0  0  0  0
   23.8457   53.3949   13.3131 C   0  0  0  0  0  0
   22.7391   52.5817   13.5211 C   0  0  0  0  0  0
   17.4999   47.8281   15.3279 C   0  0  0  0  0  0
   17.7134   48.6728   16.1965 O   0  0  0  0  0  0
   16.5230   46.8849   15.3997 O   0  0  0  0  0  0
   19.7240   46.1954   14.7593 H   0  0  0  0  0  0
   18.2438   45.4143   14.2711 H   0  0  0  0  0  0
   19.3400   45.9867   13.0346 H   0  0  0  0  0  0
   17.5760   47.6829   13.2241 H   0  0  0  0  0  0
   20.0550   49.0015   15.7573 H   0  0  0  0  0  0
   21.7248   50.6402   15.1854 H   0  0  0  0  0  0
   20.8642   50.1097   11.0073 H   0  0  0  0  0  0
   19.1067   48.5067   11.5876 H   0  0  0  0  0  0
   23.2683   50.3178   11.0423 H   0  0  0  0  0  0
   25.2203   51.7673   10.6692 H   0  0  0  0  0  0
   25.6346   53.6854   12.2004 H   0  0  0  0  0  0
   24.0110   54.2609   13.9382 H   0  0  0  0  0  0
   22.0619   52.8255   14.3265 H   0  0  0  0  0  0
   16.4923   46.3366   14.6151 H   0  0  0  0  0  0
  1  2  1  0  0  0
  1 18  1  0  0  0
  1 19  1  0  0  0
  1 20  1  0  0  0
  2  3  1  0  0  0
  2 15  1  0  0  0
  2 21  1  0  0  0
  3  8  1  0  0  0
  3  4  2  0  0  0
  4  5  1  0  0  0
  4 22  1  0  0  0
  5  6  2  0  0  0
  5 23  1  0  0  0
  6  7  1  0  0  0
  6  9  1  0  0  0
  7  8  2  0  0  0
  7 24  1  0  0  0
  8 25  1  0  0  0
  9 14  1  0  0  0
  9 10  2  0  0  0
 10 11  1  0  0  0
 10 26  1  0  0  0
 11 12  2  0  0  0
 11 27  1  0  0  0
 12 13  1  0  0  0
 12 28  1  0  0  0
 13 14  2  0  0  0
 13 29  1  0  0  0
 14 30  1  0  0  0
 15 16  2  0  0  0
 15 17  1  0  0  0
 17 31  1  0  0  0
M  END
> <s_m_entry_id>
6124

> <s_m_entry_name>
ligand_docking-pose.223

> <s_m_Source_Path>
/home/csk/Desktop/cluster/DUD-E-result/pgh1

> <s_m_Source_File>
ligand_docking-pose.sdf

> <i_m_Source_File_Index>
223

> <i_lp_mmshare_version>
53161

> <i_f3d_flags>
0

> <r_lp_tautomer_probability>
1

> <s_lp_Force_Field>
OPLS_2005

> <r_lp_Energy>
15.528625

> <b_lp_Chiralities_Consistent>
1

> <s_lp_Variant>
174001-1

> <s_i_glide_gridfile>
glide-grid_2oyu

> <i_i_glide_lignum>
336

> <i_i_glide_rotatable_bonds>
4

> <r_i_docking_score>
-7.3327693786178

> <r_i_glide_ligand_efficiency>
-0.431339375212812

> <r_i_glide_ligand_efficiency_sa>
-1.10909499376329

> <r_i_glide_ligand_efficiency_ln>
-1.91295623813582

> <r_i_glide_gscore>
-7.3327693786178

> <r_i_glide_lipo>
-3.75936831917126

> <r_i_glide_hbond>
0

> <r_i_glide_metal>
0

> <r_i_glide_rewards>
-3.02349911593452

> <r_i_glide_evdw>
-28.4887447357178

> <r_i_glide_ecoul>
-0.807049691677094

> <r_i_glide_erotb>
0.995592747025434

> <r_i_glide_esite>
0

> <r_i_glide_emodel>
-38.6398021080434

> <r_i_glide_energy>
-29.2957944273949

> <r_i_glide_einternal>
1.68360757827759

> <i_i_glide_confnum>
13

> <i_i_glide_posenum>
201

> <r_i_glide_eff_state_penalty>
0

> <s_user_duplicate_titles>
174001

> <s_m_subgroup_title>
dock_pv

> <s_m_subgroupid>
dock_pv1

> <b_m_subgroup_collapsed>
0

$$$$
202147
                    3D
 Schrodinger Suite 2021-1.
 45 46  0  0  1  0            999 V2000
   19.7749   49.0650    6.3131 C   0  0  0  0  0  0
   19.7232   48.6170    7.7551 C   0  0  0  0  0  0
   20.1230   49.3961    8.7392 N   0  0  0  0  0  0
   19.8729   48.6730    9.8002 C   0  0  0  0  0  0
   19.3230   47.4730    9.4969 O   0  0  0  0  0  0
   19.2307   47.4556    8.1064 N   0  0  0  0  0  0
   20.1102   49.0299   11.2335 C   0  0  0  0  0  0
   19.4995   48.3484   12.2809 C   0  0  0  0  0  0
   19.7291   48.6916   13.6261 C   0  0  0  0  0  0
   20.6107   49.7775   13.8864 C   0  0  0  0  0  0
   21.2141   50.5162   12.8383 C   0  0  0  0  0  0
   20.9589   50.0850   11.5268 C   0  0  0  0  0  0
   22.1188   51.7777   13.0859 C   0  0  0  0  0  0
   23.3229   51.4730   13.9644 C   0  0  0  0  0  0
   21.3230   52.9234   13.7824 C   0  0  0  0  0  0
   22.8146   52.2732   11.7935 C   0  0  0  0  0  0
   20.9124   50.1247   15.1780 O   0  0  0  0  0  0
   19.0664   47.8446   14.7659 C   0  0  0  0  0  0
   18.1358   46.7281   14.2477 C   0  0  0  0  0  0
   18.1910   48.6724   15.7296 C   0  0  0  0  0  0
   20.1585   47.1336   15.5629 C   0  0  0  0  0  0
   19.9000   50.1429    6.2004 H   0  0  0  0  0  0
   20.5232   48.5245    5.7335 H   0  0  0  0  0  0
   18.8263   48.8417    5.8228 H   0  0  0  0  0  0
   18.8422   47.5365   12.0106 H   0  0  0  0  0  0
   21.4125   50.5448   10.6686 H   0  0  0  0  0  0
   24.1207   52.2162   13.8955 H   0  0  0  0  0  0
   23.7230   50.5167   13.6602 H   0  0  0  0  0  0
   23.0441   51.4659   15.0000 H   0  0  0  0  0  0
   20.3184   53.0698   13.4000 H   0  0  0  0  0  0
   21.1882   52.7415   14.8486 H   0  0  0  0  0  0
   21.8437   53.8793   13.7059 H   0  0  0  0  0  0
   22.1230   52.3402   10.9803 H   0  0  0  0  0  0
   23.2919   53.2462   11.9173 H   0  0  0  0  0  0
   23.5868   51.5812   11.4495 H   0  0  0  0  0  0
   21.4429   50.9231   15.1992 H   0  0  0  0  0  0
   18.6741   46.0301   13.6068 H   0  0  0  0  0  0
   17.7062   46.1360   15.0573 H   0  0  0  0  0  0
   17.2944   47.1565   13.7043 H   0  0  0  0  0  0
   18.7408   49.4730   16.2120 H   0  0  0  0  0  0
   17.3233   49.0788   15.2143 H   0  0  0  0  0  0
   17.7998   48.0540   16.5393 H   0  0  0  0  0  0
   20.7065   47.8302   16.2000 H   0  0  0  0  0  0
   19.7597   46.3443   16.2000 H   0  0  0  0  0  0
   20.8709   46.6730   14.8845 H   0  0  0  0  0  0
  1  2  1  0  0  0
  1 22  1  0  0  0
  1 23  1  0  0  0
  1 24  1  0  0  0
  2  6  2  0  0  0
  2  3  1  0  0  0
  3  4  2  0  0  0
  4  5  1  0  0  0
  4  7  1  0  0  0
  5  6  1  0  0  0
  7 12  1  0  0  0
  7  8  2  0  0  0
  8  9  1  0  0  0
  8 25  1  0  0  0
  9 10  2  0  0  0
  9 18  1  0  0  0
 10 11  1  0  0  0
 10 17  1  0  0  0
 11 12  2  0  0  0
 11 13  1  0  0  0
 12 26  1  0  0  0
 13 14  1  0  0  0
 13 15  1  0  0  0
 13 16  1  0  0  0
 14 27  1  0  0  0
 14 28  1  0  0  0
 14 29  1  0  0  0
 15 30  1  0  0  0
 15 31  1  0  0  0
 15 32  1  0  0  0
 16 33  1  0  0  0
 16 34  1  0  0  0
 16 35  1  0  0  0
 17 36  1  0  0  0
 18 19  1  0  0  0
 18 20  1  0  0  0
 18 21  1  0  0  0
 19 37  1  0  0  0
 19 38  1  0  0  0
 19 39  1  0  0  0
 20 40  1  0  0  0
 20 41  1  0  0  0
 20 42  1  0  0  0
 21 43  1  0  0  0
 21 44  1  0  0  0
 21 45  1  0  0  0
M  END
> <s_m_entry_id>
6125

> <s_m_entry_name>
ligand_docking-pose.224

> <s_m_Source_Path>
/home/csk/Desktop/cluster/DUD-E-result/pgh1

> <s_m_Source_File>
ligand_docking-pose.sdf

> <i_m_Source_File_Index>
224

> <i_lp_mmshare_version>
53161

> <i_f3d_flags>
0

> <r_lp_tautomer_probability>
0.999999999997365

> <s_lp_Force_Field>
OPLS_2005

> <r_lp_Energy>
21.369784

> <b_lp_Chiralities_Consistent>
1

> <s_lp_Variant>
202147-1

> <s_i_glide_gridfile>
glide-grid_2oyu

> <i_i_glide_lignum>
308

> <i_i_glide_rotatable_bonds>
4

> <r_i_docking_score>
-7.33098292971044

> <r_i_glide_ligand_efficiency>
-0.349094425224306

> <r_i_glide_ligand_efficiency_sa>
-0.963125048613792

> <r_i_glide_ligand_efficiency_ln>
-1.81257071572507

> <r_i_glide_gscore>
-7.33098292971044

> <r_i_glide_lipo>
-3.82451723664035

> <r_i_glide_hbond>
0

> <r_i_glide_metal>
0

> <r_i_glide_rewards>
-2.46745150241785

> <r_i_glide_evdw>
-23.5176620483398

> <r_i_glide_ecoul>
-0.545819520950317

> <r_i_glide_erotb>
0.218741839907309

> <r_i_glide_esite>
0

> <r_i_glide_emodel>
-23.7953979722798

> <r_i_glide_energy>
-24.0634815692902

> <r_i_glide_einternal>
1.75925838947296

> <i_i_glide_confnum>
1

> <i_i_glide_posenum>
307

> <r_i_glide_eff_state_penalty>
0

> <s_user_duplicate_titles>
202147

> <s_m_subgroup_title>
dock_pv

> <s_m_subgroupid>
dock_pv1

> <b_m_subgroup_collapsed>
0

$$$$
87178
                    3D
 Schrodinger Suite 2021-1.
 36 37  0  0  1  0            999 V2000
   24.8557   52.0362   11.1471 C   0  0  0  0  0  0
   23.8101   52.1470   12.2420 C   0  0  0  0  0  0
   22.9216   51.0877   12.4583 C   0  0  0  0  0  0
   21.8769   51.2158   13.3775 C   0  0  0  0  0  0
   21.6687   52.4491   13.9929 C   0  0  0  0  0  0
   22.5530   53.5002   13.8000 C   0  0  0  0  0  0
   23.6891   53.3136   13.0068 C   0  0  0  0  0  0
   24.6710   54.2730   13.0000 O   0  0  0  0  0  0
   22.2362   54.8509   14.3991 C   0  0  0  0  0  0
   20.9912   50.0768   13.6574 C   0  0  0  0  0  0
   20.4366   49.7368   14.8479 C   0  0  0  0  0  0
   20.7414   50.4640   16.1529 C   0  0  0  0  0  0
   19.5127   48.5843   14.9529 C   0  0  0  0  0  0
   18.3959   48.6383   15.8000 C   0  0  0  0  0  0
   17.4575   47.6190   15.8058 C   0  0  0  0  0  0
   17.6558   46.5105   15.0000 C   0  0  0  0  0  0
   18.7888   46.4116   14.2000 C   0  0  0  0  0  0
   19.6998   47.4559   14.1516 C   0  0  0  0  0  0
   16.7374   45.5183   15.0000 F   0  0  0  0  0  0
   25.8406   52.3542   11.4825 H   0  0  0  0  0  0
   24.9230   51.0185   10.7804 H   0  0  0  0  0  0
   24.5784   52.6730   10.3077 H   0  0  0  0  0  0
   23.0453   50.1634   11.9117 H   0  0  0  0  0  0
   20.8063   52.6067   14.6186 H   0  0  0  0  0  0
   24.4484   55.0179   13.5646 H   0  0  0  0  0  0
   21.3230   54.8633   14.9935 H   0  0  0  0  0  0
   23.0516   55.2435   15.0000 H   0  0  0  0  0  0
   22.1230   55.5082   13.5461 H   0  0  0  0  0  0
   20.7421   49.4935   12.7828 H   0  0  0  0  0  0
   20.5230   49.8284   17.0000 H   0  0  0  0  0  0
   21.7853   50.7547   16.2120 H   0  0  0  0  0  0
   20.1230   51.3512   16.2760 H   0  0  0  0  0  0
   18.2193   49.4730   16.4534 H   0  0  0  0  0  0
   16.5840   47.6820   16.4378 H   0  0  0  0  0  0
   18.9230   45.5436   13.5723 H   0  0  0  0  0  0
   20.5485   47.3785   13.4888 H   0  0  0  0  0  0
  1  2  1  0  0  0
  1 20  1  0  0  0
  1 21  1  0  0  0
  1 22  1  0  0  0
  2  7  1  0  0  0
  2  3  2  0  0  0
  3  4  1  0  0  0
  3 23  1  0  0  0
  4  5  2  0  0  0
  4 10  1  0  0  0
  5  6  1  0  0  0
  5 24  1  0  0  0
  6  7  2  0  0  0
  6  9  1  0  0  0
  7  8  1  0  0  0
  8 25  1  0  0  0
  9 26  1  0  0  0
  9 27  1  0  0  0
  9 28  1  0  0  0
 10 11  2  0  0  0
 10 29  1  0  0  0
 11 12  1  0  0  0
 11 13  1  0  0  0
 12 30  1  0  0  0
 12 31  1  0  0  0
 12 32  1  0  0  0
 13 18  1  0  0  0
 13 14  2  0  0  0
 14 15  1  0  0  0
 14 33  1  0  0  0
 15 16  2  0  0  0
 15 34  1  0  0  0
 16 17  1  0  0  0
 16 19  1  0  0  0
 17 18  2  0  0  0
 17 35  1  0  0  0
 18 36  1  0  0  0
M  END
> <s_m_entry_id>
6126

> <s_m_entry_name>
ligand_docking-pose.225

> <s_m_Source_Path>
/home/csk/Desktop/cluster/DUD-E-result/pgh1

> <s_m_Source_File>
ligand_docking-pose.sdf

> <i_m_Source_File_Index>
225

> <i_lp_mmshare_version>
53161

> <i_f3d_flags>
0

> <r_lp_tautomer_probability>
1

> <s_lp_Force_Field>
OPLS_2005

> <r_lp_Energy>
18.268074

> <b_lp_Chiralities_Consistent>
1

> <s_lp_Variant>
87178-1

> <s_i_glide_gridfile>
glide-grid_2oyu

> <i_i_glide_lignum>
261

> <i_i_glide_rotatable_bonds>
3

> <r_i_docking_score>
-7.32363972311751

> <r_i_glide_ligand_efficiency>
-0.385454722269343

> <r_i_glide_ligand_efficiency_sa>
-1.02854801540167

> <r_i_glide_ligand_efficiency_ln>
-1.85669996716876

> <r_i_glide_gscore>
-7.32363972311751

> <r_i_glide_lipo>
-3.70571049461141

> <r_i_glide_hbond>
0

> <r_i_glide_metal>
0

> <r_i_glide_rewards>
-2.6450977210923

> <r_i_glide_evdw>
-24.2867813110352

> <r_i_glide_ecoul>
-1.96677398681641

> <r_i_glide_erotb>
0.536523656160422

> <r_i_glide_esite>
0

> <r_i_glide_emodel>
-28.2246271480389

> <r_i_glide_energy>
-26.2535552978516

> <r_i_glide_einternal>
0.412713676691055

> <i_i_glide_confnum>
3

> <i_i_glide_posenum>
300

> <r_i_glide_eff_state_penalty>
0

> <s_user_duplicate_titles>
87178

> <s_m_subgroup_title>
dock_pv

> <s_m_subgroupid>
dock_pv1

> <b_m_subgroup_collapsed>
0

$$$$
40598
                    3D
 Schrodinger Suite 2021-1.
 35 36  0  0  1  0            999 V2000
   25.6878   54.6447   13.2664 C   0  0  0  0  0  0
   24.7349   53.6072   12.7326 C   0  0  0  0  0  0
   23.4102   53.6342   13.1498 C   0  0  0  0  0  0
   22.5236   52.6949   12.6569 C   0  0  0  0  0  0
   22.9770   51.6606   11.8286 C   0  0  0  0  0  0
   24.2775   51.7027   11.3298 C   0  0  0  0  0  0
   25.1588   52.6730   11.7945 C   0  0  0  0  0  0
   22.0993   50.4832   11.5475 C   0  0  0  0  0  0
   22.1228   49.9357   10.4450 O   0  0  0  0  0  0
   21.2685   49.9322   12.6823 C   0  0  0  0  0  0
   21.6440   50.2820   13.9869 C   0  0  0  0  0  0
   20.8998   49.9330   15.0881 C   0  0  0  0  0  0
   19.8297   49.0730   14.9346 C   0  0  0  0  0  0
   19.4621   48.6108   13.6597 C   0  0  0  0  0  0
   20.1641   49.0671   12.5224 C   0  0  0  0  0  0
   19.7431   48.6729   11.2461 N   0  0  0  0  0  0
   18.2400   47.7016   13.5174 C   0  0  0  0  0  0
   18.0466   46.7604   14.7061 C   0  0  0  0  0  0
   18.8442   45.8756   15.0000 O   0  0  0  0  0  0
   16.9230   47.0730   15.4018 O   0  0  0  0  0  0
   21.2560   50.6730   16.6000 Cl  0  0  0  0  0  0
   26.6956   54.2714   13.4000 H   0  0  0  0  0  0
   25.7252   55.5034   12.6000 H   0  0  0  0  0  0
   25.3457   54.9502   14.2498 H   0  0  0  0  0  0
   23.0664   54.3853   13.8477 H   0  0  0  0  0  0
   21.5024   52.7255   13.0098 H   0  0  0  0  0  0
   24.6288   50.9492   10.6408 H   0  0  0  0  0  0
   26.1759   52.6732   11.4309 H   0  0  0  0  0  0
   22.5233   50.8681   14.2006 H   0  0  0  0  0  0
   19.2608   48.8163   15.8162 H   0  0  0  0  0  0
   20.3320   48.9353   10.4645 H   0  0  0  0  0  0
   19.0638   47.9335   11.1533 H   0  0  0  0  0  0
   17.3604   48.3247   13.3480 H   0  0  0  0  0  0
   18.3391   47.0730   12.6370 H   0  0  0  0  0  0
   16.4365   47.8041   15.0170 H   0  0  0  0  0  0
  1  2  1  0  0  0
  1 22  1  0  0  0
  1 23  1  0  0  0
  1 24  1  0  0  0
  2  7  1  0  0  0
  2  3  2  0  0  0
  3  4  1  0  0  0
  3 25  1  0  0  0
  4  5  2  0  0  0
  4 26  1  0  0  0
  5  6  1  0  0  0
  5  8  1  0  0  0
  6  7  2  0  0  0
  6 27  1  0  0  0
  7 28  1  0  0  0
  8  9  2  0  0  0
  8 10  1  0  0  0
 10 15  1  0  0  0
 10 11  2  0  0  0
 11 12  1  0  0  0
 11 29  1  0  0  0
 12 13  2  0  0  0
 12 21  1  0  0  0
 13 14  1  0  0  0
 13 30  1  0  0  0
 14 15  2  0  0  0
 14 17  1  0  0  0
 15 16  1  0  0  0
 16 31  1  0  0  0
 16 32  1  0  0  0
 17 18  1  0  0  0
 17 33  1  0  0  0
 17 34  1  0  0  0
 18 19  2  0  0  0
 18 20  1  0  0  0
 20 35  1  0  0  0
M  END
> <s_m_entry_id>
6127

> <s_m_entry_name>
ligand_docking-pose.226

> <s_m_Source_Path>
/home/csk/Desktop/cluster/DUD-E-result/pgh1

> <s_m_Source_File>
ligand_docking-pose.sdf

> <i_m_Source_File_Index>
226

> <i_lp_mmshare_version>
53161

> <i_f3d_flags>
0

> <r_lp_tautomer_probability>
1

> <s_lp_Force_Field>
OPLS_2005

> <r_lp_Energy>
23.823507

> <b_lp_Chiralities_Consistent>
1

> <s_lp_Variant>
40598-1

> <s_i_glide_gridfile>
glide-grid_2oyu

> <i_i_glide_lignum>
239

> <i_i_glide_rotatable_bonds>
5

> <r_i_docking_score>
-7.32331745678687

> <r_i_glide_ligand_efficiency>
-0.348729402704137

> <r_i_glide_ligand_efficiency_sa>
-0.962117979158994

> <r_i_glide_ligand_efficiency_ln>
-1.81067544303426

> <r_i_glide_gscore>
-7.32331745678687

> <r_i_glide_lipo>
-3.68689698096167

> <r_i_glide_hbond>
0

> <r_i_glide_metal>
0

> <r_i_glide_rewards>
-2.49782843362472

> <r_i_glide_evdw>
-27.5992965698242

> <r_i_glide_ecoul>
-3.71844244003296

> <r_i_glide_erotb>
0.799139152295672

> <r_i_glide_esite>
0

> <r_i_glide_emodel>
-33.6207936121271

> <r_i_glide_energy>
-31.3177390098572

> <r_i_glide_einternal>
12.3596715927124

> <i_i_glide_confnum>
16

> <i_i_glide_posenum>
163

> <r_i_glide_eff_state_penalty>
0

> <s_user_duplicate_titles>
40598

> <s_m_subgroup_title>
dock_pv

> <s_m_subgroupid>
dock_pv1

> <b_m_subgroup_collapsed>
0

$$$$
546914
                    3D
 Schrodinger Suite 2021-1.
 47 48  0  0  1  0            999 V2000
   18.1229   46.7372   14.3182 C   0  0  0  0  0  0
   19.0571   47.8553   14.8293 C   0  0  0  0  0  0
   18.1945   48.6724   15.8186 C   0  0  0  0  0  0
   20.1742   47.1255   15.5737 C   0  0  0  0  0  0
   19.7029   48.7141   13.6922 C   0  0  0  0  0  0
   19.4650   48.3743   12.3500 C   0  0  0  0  0  0
   20.0969   49.0334   11.2996 C   0  0  0  0  0  0
   20.9753   50.0645   11.6007 C   0  0  0  0  0  0
   21.2148   50.5140   12.9034 C   0  0  0  0  0  0
   20.5895   49.7944   13.9532 C   0  0  0  0  0  0
   20.8612   50.1348   15.2531 O   0  0  0  0  0  0
   22.1180   51.7789   13.1231 C   0  0  0  0  0  0
   23.3061   51.4866   14.0177 C   0  0  0  0  0  0
   21.3230   52.9275   13.8001 C   0  0  0  0  0  0
   22.8107   52.2736   11.8232 C   0  0  0  0  0  0
   19.8681   48.6730    9.8602 C   0  0  0  0  0  0
   20.1918   49.5284    8.9023 N   0  0  0  0  0  0
   20.0092   49.0370    7.7097 C   0  0  0  0  0  0
   19.3230   47.4730    7.8179 S   0  0  0  0  0  0
   19.3444   47.5113    9.5195 N   0  0  0  0  0  0
   20.3029   49.7783    6.4262 C   0  0  0  0  0  0
   19.3231   49.4728    5.4000 N   0  0  0  0  0  0
   17.7183   46.1335   15.1321 H   0  0  0  0  0  0
   18.6472   46.0473   13.6575 H   0  0  0  0  0  0
   17.2610   47.1564   13.8001 H   0  0  0  0  0  0
   18.7314   49.4729   16.3147 H   0  0  0  0  0  0
   17.3236   49.0938   15.3195 H   0  0  0  0  0  0
   17.8070   48.0388   16.6183 H   0  0  0  0  0  0
   20.7564   47.8009   16.1998 H   0  0  0  0  0  0
   19.7970   46.3186   16.2000 H   0  0  0  0  0  0
   20.8566   46.6731   14.8588 H   0  0  0  0  0  0
   18.7930   47.5734   12.0850 H   0  0  0  0  0  0
   21.4734   50.5017   10.7576 H   0  0  0  0  0  0
   20.3587   49.5961   15.8667 H   0  0  0  0  0  0
   23.8635   50.6729   13.5828 H   0  0  0  0  0  0
   23.9800   52.3378   14.1307 H   0  0  0  0  0  0
   22.9551   51.2346   15.0000 H   0  0  0  0  0  0
   20.3251   53.0729   13.4000 H   0  0  0  0  0  0
   21.1739   52.7341   14.8630 H   0  0  0  0  0  0
   21.8482   53.8816   13.7359 H   0  0  0  0  0  0
   22.1227   52.3322   11.0000 H   0  0  0  0  0  0
   23.2835   53.2487   11.9458 H   0  0  0  0  0  0
   23.5896   51.5870   11.4849 H   0  0  0  0  0  0
   20.3345   50.8555    6.5998 H   0  0  0  0  0  0
   21.2823   49.4807    6.0487 H   0  0  0  0  0  0
   18.4194   49.8445    5.6697 H   0  0  0  0  0  0
   19.5453   49.9478    4.5395 H   0  0  0  0  0  0
  1  2  1  0  0  0
  1 23  1  0  0  0
  1 24  1  0  0  0
  1 25  1  0  0  0
  2  3  1  0  0  0
  2  4  1  0  0  0
  2  5  1  0  0  0
  3 26  1  0  0  0
  3 27  1  0  0  0
  3 28  1  0  0  0
  4 29  1  0  0  0
  4 30  1  0  0  0
  4 31  1  0  0  0
  5 10  1  0  0  0
  5  6  2  0  0  0
  6  7  1  0  0  0
  6 32  1  0  0  0
  7  8  2  0  0  0
  7 16  1  0  0  0
  8  9  1  0  0  0
  8 33  1  0  0  0
  9 10  2  0  0  0
  9 12  1  0  0  0
 10 11  1  0  0  0
 11 34  1  0  0  0
 12 13  1  0  0  0
 12 14  1  0  0  0
 12 15  1  0  0  0
 13 35  1  0  0  0
 13 36  1  0  0  0
 13 37  1  0  0  0
 14 38  1  0  0  0
 14 39  1  0  0  0
 14 40  1  0  0  0
 15 41  1  0  0  0
 15 42  1  0  0  0
 15 43  1  0  0  0
 16 20  2  0  0  0
 16 17  1  0  0  0
 17 18  2  0  0  0
 18 19  1  0  0  0
 18 21  1  0  0  0
 19 20  1  0  0  0
 21 22  1  0  0  0
 21 44  1  0  0  0
 21 45  1  0  0  0
 22 46  1  0  0  0
 22 47  1  0  0  0
M  END
> <s_m_entry_id>
6128

> <s_m_entry_name>
ligand_docking-pose.227

> <s_m_Source_Path>
/home/csk/Desktop/cluster/DUD-E-result/pgh1

> <s_m_Source_File>
ligand_docking-pose.sdf

> <i_m_Source_File_Index>
227

> <i_lp_mmshare_version>
53161

> <i_f3d_flags>
0

> <r_lp_tautomer_probability>
0.999999999997365

> <s_lp_Force_Field>
OPLS_2005

> <r_lp_Energy>
24.473611

> <b_lp_Chiralities_Consistent>
1

> <s_lp_Variant>
546914-1

> <s_i_glide_gridfile>
glide-grid_2oyu

> <i_i_glide_lignum>
413

> <i_i_glide_rotatable_bonds>
5

> <r_i_docking_score>
-7.31878842574735

> <r_i_glide_ligand_efficiency>
-0.332672201170334

> <r_i_glide_ligand_efficiency_sa>
-0.932160590934528

> <r_i_glide_ligand_efficiency_ln>
-1.78897885054686

> <r_i_glide_gscore>
-7.31878842574735

> <r_i_glide_lipo>
-3.90353612458733

> <r_i_glide_hbond>
-0.0154632140254244

> <r_i_glide_metal>
0

> <r_i_glide_rewards>
-2.26712891470252

> <r_i_glide_evdw>
-21.4265422821045

> <r_i_glide_ecoul>
-1.62774658203125

> <r_i_glide_erotb>
0.182828928977839

> <r_i_glide_esite>
0

> <r_i_glide_emodel>
-22.1324683017583

> <r_i_glide_energy>
-23.0542888641357

> <r_i_glide_einternal>
2.20809364318848

> <i_i_glide_confnum>
2

> <i_i_glide_posenum>
27

> <r_i_glide_eff_state_penalty>
0

> <s_user_duplicate_titles>
546914

> <s_m_subgroup_title>
dock_pv

> <s_m_subgroupid>
dock_pv1

> <b_m_subgroup_collapsed>
0

$$$$
431409
                    3D
 Schrodinger Suite 2021-1.
 33 34  0  0  1  0            999 V2000
   19.2824   47.6124    9.0572 C   0  0  0  0  0  0
   19.7230   48.5067   10.2063 C   0  0  0  0  0  0
   20.2591   49.7669    9.9482 C   0  0  0  0  0  0
   20.7956   50.5238   10.9851 C   0  0  0  0  0  0
   20.8066   50.0394   12.3000 C   0  0  0  0  0  0
   20.1737   48.8114   12.5853 C   0  0  0  0  0  0
   19.6679   48.0471   11.5228 C   0  0  0  0  0  0
   20.1230   48.2257   14.0092 C   0  0  0  0  0  0
   18.7426   47.7900   14.5286 C   0  0  0  0  0  0
   18.6269   47.0730   15.5165 O   0  0  0  0  0  0
   17.6969   48.2730   13.8004 O   0  0  0  0  0  0
   21.5064   50.7403   13.3017 N   0  0  0  0  0  0
   22.5019   51.7238   13.1314 C   0  0  0  0  0  0
   22.4235   52.9500   13.8000 C   0  0  0  0  0  0
   23.3897   53.9334   13.6193 C   0  0  0  0  0  0
   24.5350   53.6390   12.8988 C   0  0  0  0  0  0
   24.6265   52.4465   12.2000 C   0  0  0  0  0  0
   23.6500   51.4685   12.3675 C   0  0  0  0  0  0
   23.9915   49.8841   11.8000 Cl  0  0  0  0  0  0
   25.9036   54.6730   13.0000 Cl  0  0  0  0  0  0
   21.3230   53.1820   15.0910 Cl  0  0  0  0  0  0
   19.6036   48.0035    8.0907 H   0  0  0  0  0  0
   18.2019   47.4730    9.0359 H   0  0  0  0  0  0
   19.7289   46.6254    9.1646 H   0  0  0  0  0  0
   20.2992   50.1476    8.9377 H   0  0  0  0  0  0
   21.2504   51.4730   10.7468 H   0  0  0  0  0  0
   19.2453   47.0730   11.7186 H   0  0  0  0  0  0
   20.7677   47.3478   14.0218 H   0  0  0  0  0  0
   20.5264   48.9104   14.7530 H   0  0  0  0  0  0
   18.0041   48.8121   13.0687 H   0  0  0  0  0  0
   21.4353   50.3581   14.2317 H   0  0  0  0  0  0
   23.3451   54.8456   14.1994 H   0  0  0  0  0  0
   25.5193   52.2465   11.6271 H   0  0  0  0  0  0
  1  2  1  0  0  0
  1 22  1  0  0  0
  1 23  1  0  0  0
  1 24  1  0  0  0
  2  7  1  0  0  0
  2  3  2  0  0  0
  3  4  1  0  0  0
  3 25  1  0  0  0
  4  5  2  0  0  0
  4 26  1  0  0  0
  5  6  1  0  0  0
  5 12  1  0  0  0
  6  7  2  0  0  0
  6  8  1  0  0  0
  7 27  1  0  0  0
  8  9  1  0  0  0
  8 28  1  0  0  0
  8 29  1  0  0  0
  9 10  2  0  0  0
  9 11  1  0  0  0
 11 30  1  0  0  0
 12 13  1  0  0  0
 12 31  1  0  0  0
 13 18  1  0  0  0
 13 14  2  0  0  0
 14 15  1  0  0  0
 14 21  1  0  0  0
 15 16  2  0  0  0
 15 32  1  0  0  0
 16 17  1  0  0  0
 16 20  1  0  0  0
 17 18  2  0  0  0
 17 33  1  0  0  0
 18 19  1  0  0  0
M  END
> <s_m_entry_id>
6130

> <s_m_entry_name>
ligand_docking-pose.229

> <s_m_Source_Path>
/home/csk/Desktop/cluster/DUD-E-result/pgh1

> <s_m_Source_File>
ligand_docking-pose.sdf

> <i_m_Source_File_Index>
229

> <i_lp_mmshare_version>
53161

> <i_f3d_flags>
0

> <r_lp_tautomer_probability>
1

> <s_lp_Force_Field>
OPLS_2005

> <r_lp_Energy>
16.896406

> <b_lp_Chiralities_Consistent>
1

> <s_lp_Variant>
431409-1

> <s_i_glide_gridfile>
glide-grid_2oyu

> <i_i_glide_lignum>
218

> <i_i_glide_rotatable_bonds>
5

> <r_i_docking_score>
-7.30706518126975

> <r_i_glide_ligand_efficiency>
-0.347955484822369

> <r_i_glide_ligand_efficiency_sa>
-0.959982798406619

> <r_i_glide_ligand_efficiency_ln>
-1.80665710075347

> <r_i_glide_gscore>
-7.30706518126975

> <r_i_glide_lipo>
-3.99046811260944

> <r_i_glide_hbond>
0

> <r_i_glide_metal>
0

> <r_i_glide_rewards>
-2.03207552388184

> <r_i_glide_evdw>
-34.4551620483398

> <r_i_glide_ecoul>
-1.34232020378113

> <r_i_glide_erotb>
0.639584588205686

> <r_i_glide_esite>
0

> <r_i_glide_emodel>
-41.1213992870781

> <r_i_glide_energy>
-35.797482252121

> <r_i_glide_einternal>
4.05623197555542

> <i_i_glide_confnum>
27

> <i_i_glide_posenum>
29

> <r_i_glide_eff_state_penalty>
0

> <s_user_duplicate_titles>
431409

> <s_m_subgroup_title>
dock_pv

> <s_m_subgroupid>
dock_pv1

> <b_m_subgroup_collapsed>
0

$$$$
5036
                    3D
 Schrodinger Suite 2021-1.
 34 36  0  0  1  0            999 V2000
   20.1596   47.0730   13.4627 C   0  0  0  0  0  0
   19.6275   48.4517   13.9291 C   0  0  1  0  0  0
   18.1533   48.4657   13.4428 C   0  0  0  0  0  0
   17.0983   47.7983   14.3535 C   0  0  0  0  0  0
   17.3479   47.9734   15.8581 C   0  0  0  0  0  0
   16.5230   47.8730   16.7548 O   0  0  0  0  0  0
   18.6083   48.1794   16.2000 N   0  0  0  0  0  0
   19.7230   48.3657   15.5003 C   0  0  0  0  0  0
   20.7401   48.5260   16.1613 O   0  0  0  0  0  0
   20.5230   49.5624   13.3903 N   0  0  0  0  0  0
   20.9378   49.6107   12.0805 C   0  0  0  0  0  0
   20.5230   48.9356   11.1404 O   0  0  0  0  0  0
   21.9991   50.6510   12.0280 C   0  0  0  0  0  0
   22.9185   51.0445   11.0553 C   0  0  0  0  0  0
   23.8117   52.0887   11.3572 C   0  0  0  0  0  0
   23.7102   52.7664   12.5897 C   0  0  0  0  0  0
   22.7471   52.3798   13.5044 C   0  0  0  0  0  0
   21.9654   51.2961   13.2123 C   0  0  0  0  0  0
   21.0676   50.6095   14.1066 C   0  0  0  0  0  0
   20.9229   50.9730   15.2738 O   0  0  0  0  0  0
   24.6096   53.8394   13.0000 N   0  3  0  0  0  0
   24.1882   54.6730   13.7823 O   0  5  0  0  0  0
   25.7486   53.8093   12.6000 O   0  0  0  0  0  0
   19.6341   46.2625   13.9657 H   0  0  0  0  0  0
   20.0116   46.8864   12.3984 H   0  0  0  0  0  0
   21.2225   46.9501   13.6455 H   0  0  0  0  0  0
   18.0712   48.0118   12.4530 H   0  0  0  0  0  0
   17.8531   49.4730   13.2332 H   0  0  0  0  0  0
   16.1229   48.1749   14.0896 H   0  0  0  0  0  0
   17.0830   46.7223   14.2001 H   0  0  0  0  0  0
   18.7502   48.2172   17.1968 H   0  0  0  0  0  0
   22.9843   50.5223   10.1183 H   0  0  0  0  0  0
   24.5666   52.3671   10.6350 H   0  0  0  0  0  0
   22.6414   52.8671   14.4623 H   0  0  0  0  0  0
  1  2  1  0  0  0
  1 24  1  0  0  0
  1 25  1  0  0  0
  1 26  1  0  0  0
  2  8  1  0  0  0
  2  3  1  0  0  0
  2 10  1  0  0  0
  3  4  1  0  0  0
  3 27  1  0  0  0
  3 28  1  0  0  0
  4  5  1  0  0  0
  4 29  1  0  0  0
  4 30  1  0  0  0
  5  6  2  0  0  0
  5  7  1  0  0  0
  7  8  1  0  0  0
  7 31  1  0  0  0
  8  9  2  0  0  0
 10 19  1  0  0  0
 10 11  1  0  0  0
 11 12  2  0  0  0
 11 13  1  0  0  0
 13 18  2  0  0  0
 13 14  1  0  0  0
 14 15  2  0  0  0
 14 32  1  0  0  0
 15 16  1  0  0  0
 15 33  1  0  0  0
 16 17  2  0  0  0
 16 21  1  0  0  0
 17 18  1  0  0  0
 17 34  1  0  0  0
 18 19  1  0  0  0
 19 20  2  0  0  0
 21 22  1  0  0  0
 21 23  2  0  0  0
M  CHG  2  21   1  22  -1
M  END
> <s_m_entry_id>
6131

> <s_m_entry_name>
ligand_docking-pose.230

> <s_m_Source_Path>
/home/csk/Desktop/cluster/DUD-E-result/pgh1

> <s_m_Source_File>
ligand_docking-pose.sdf

> <i_m_Source_File_Index>
230

> <i_lp_mmshare_version>
53161

> <i_f3d_flags>
0

> <r_lp_tautomer_probability>
0.99995

> <s_lp_Force_Field>
OPLS_2005

> <r_lp_Energy>
40.514509

> <b_lp_Chiralities_Consistent>
1

> <s_lp_Variant>
5036-1

> <s_i_glide_gridfile>
glide-grid_2oyu

> <i_i_glide_lignum>
269

> <i_i_glide_rotatable_bonds>
2

> <r_i_docking_score>
-7.29445101102038

> <r_i_glide_ligand_efficiency>
-0.317150043957408

> <r_i_glide_ligand_efficiency_sa>
-0.901932536726276

> <r_i_glide_ligand_efficiency_ln>
-1.76386439688962

> <r_i_glide_gscore>
-7.29445101102038

> <r_i_glide_lipo>
-2.64757460288183

> <r_i_glide_hbond>
0

> <r_i_glide_metal>
0

> <r_i_glide_rewards>
-3.47813461689114

> <r_i_glide_evdw>
-24.8500080108643

> <r_i_glide_ecoul>
-0.628389060497284

> <r_i_glide_erotb>
0.185079934306907

> <r_i_glide_esite>
-0.0170629659365112

> <r_i_glide_emodel>
-30.9429731012752

> <r_i_glide_energy>
-25.4783970713615

> <r_i_glide_einternal>
11.0223093032837

> <i_i_glide_confnum>
6

> <i_i_glide_posenum>
307

> <r_i_glide_eff_state_penalty>
0

> <s_user_duplicate_titles>
5036

> <s_m_subgroup_title>
dock_pv

> <s_m_subgroupid>
dock_pv1

> <b_m_subgroup_collapsed>
0

$$$$
100568
                    3D
 Schrodinger Suite 2021-1.
 35 36  0  0  1  0            999 V2000
   21.7230   54.8311   15.1888 C   0  0  0  0  0  0
   22.2361   53.7885   14.2000 C   0  0  0  0  0  0
   23.3308   54.1200   13.4000 C   0  0  0  0  0  0
   23.9470   53.1621   12.6000 C   0  0  0  0  0  0
   23.4271   51.8772   12.5217 C   0  0  0  0  0  0
   22.3063   51.5392   13.2931 C   0  0  0  0  0  0
   21.7826   52.4627   14.2067 C   0  0  0  0  0  0
   20.7192   51.9048   15.4596 Cl  0  0  0  0  0  0
   21.7230   50.2730   13.2279 N   0  0  0  0  0  0
   20.9565   49.6812   12.2142 C   0  0  0  0  0  0
   21.0698   50.1435   10.8946 C   0  0  0  0  0  0
   20.4488   49.4731    9.8484 C   0  0  0  0  0  0
   19.7201   48.3241   10.1121 C   0  0  0  0  0  0
   19.5091   47.9202   11.4267 C   0  0  0  0  0  0
   20.0815   48.6074   12.5098 C   0  0  0  0  0  0
   19.7230   48.2065   13.9382 C   0  0  0  0  0  0
   20.4138   48.5531   14.9005 O   0  0  0  0  0  0
   18.5831   47.5003   14.0905 N   0  0  0  0  0  0
   18.1965   47.0466   15.3546 O   0  0  0  0  0  0
   17.4137   48.0304   16.0185 C   0  0  0  0  0  0
   24.2256   50.7293   11.5030 Cl  0  0  0  0  0  0
   22.5141   55.5347   15.4501 H   0  0  0  0  0  0
   20.8892   55.3929   14.7834 H   0  0  0  0  0  0
   21.4053   54.3891   16.1320 H   0  0  0  0  0  0
   23.7480   55.1146   13.4384 H   0  0  0  0  0  0
   24.8204   53.4274   12.0241 H   0  0  0  0  0  0
   21.5539   49.8446   14.1320 H   0  0  0  0  0  0
   21.6608   51.0136   10.6580 H   0  0  0  0  0  0
   20.5230   49.8336    8.8335 H   0  0  0  0  0  0
   19.2498   47.7872    9.3008 H   0  0  0  0  0  0
   18.8654   47.0730   11.5854 H   0  0  0  0  0  0
   18.0565   47.0729   13.3445 H   0  0  0  0  0  0
   17.0875   47.6469   16.9850 H   0  0  0  0  0  0
   16.5230   48.2730   15.4398 H   0  0  0  0  0  0
   17.9756   48.9483   16.2002 H   0  0  0  0  0  0
  1  2  1  0  0  0
  1 22  1  0  0  0
  1 23  1  0  0  0
  1 24  1  0  0  0
  2  7  1  0  0  0
  2  3  2  0  0  0
  3  4  1  0  0  0
  3 25  1  0  0  0
  4  5  2  0  0  0
  4 26  1  0  0  0
  5  6  1  0  0  0
  5 21  1  0  0  0
  6  7  2  0  0  0
  6  9  1  0  0  0
  7  8  1  0  0  0
  9 10  1  0  0  0
  9 27  1  0  0  0
 10 15  1  0  0  0
 10 11  2  0  0  0
 11 12  1  0  0  0
 11 28  1  0  0  0
 12 13  2  0  0  0
 12 29  1  0  0  0
 13 14  1  0  0  0
 13 30  1  0  0  0
 14 15  2  0  0  0
 14 31  1  0  0  0
 15 16  1  0  0  0
 16 17  2  0  0  0
 16 18  1  0  0  0
 18 19  1  0  0  0
 18 32  1  0  0  0
 19 20  1  0  0  0
 20 33  1  0  0  0
 20 34  1  0  0  0
 20 35  1  0  0  0
M  END
> <s_m_entry_id>
6132

> <s_m_entry_name>
ligand_docking-pose.231

> <s_m_Source_Path>
/home/csk/Desktop/cluster/DUD-E-result/pgh1

> <s_m_Source_File>
ligand_docking-pose.sdf

> <i_m_Source_File_Index>
231

> <i_lp_mmshare_version>
53161

> <i_f3d_flags>
0

> <r_lp_tautomer_probability>
1

> <s_lp_Force_Field>
OPLS_2005

> <r_lp_Energy>
28.63551

> <b_lp_Chiralities_Consistent>
1

> <s_lp_Variant>
100568-1

> <s_i_glide_gridfile>
glide-grid_2oyu

> <i_i_glide_lignum>
232

> <i_i_glide_rotatable_bonds>
5

> <r_i_docking_score>
-7.27914803755386

> <r_i_glide_ligand_efficiency>
-0.346626097026374

> <r_i_glide_ligand_efficiency_sa>
-0.956315118280185

> <r_i_glide_ligand_efficiency_ln>
-1.79975464338162

> <r_i_glide_gscore>
-7.27914803755386

> <r_i_glide_lipo>
-3.83625608331412

> <r_i_glide_hbond>
0

> <r_i_glide_metal>
0

> <r_i_glide_rewards>
-2.12819637009744

> <r_i_glide_evdw>
-35.3170013427734

> <r_i_glide_ecoul>
-1.71746146678925

> <r_i_glide_erotb>
0.708773703014761

> <r_i_glide_esite>
0

> <r_i_glide_emodel>
-46.5054812043563

> <r_i_glide_energy>
-37.0344628095627

> <r_i_glide_einternal>
6.44018650054932

> <i_i_glide_confnum>
11

> <i_i_glide_posenum>
6

> <r_i_glide_eff_state_penalty>
0

> <s_user_duplicate_titles>
100568

> <s_m_subgroup_title>
dock_pv

> <s_m_subgroupid>
dock_pv1

> <b_m_subgroup_collapsed>
0

$$$$
10581
                    3D
 Schrodinger Suite 2021-1.
 53 54  0  0  1  0            999 V2000
   23.6507   51.6569   14.0601 C   0  0  0  0  0  0
   22.5993   52.2976   13.2009 C   0  0  0  0  0  0
   21.8729   53.4310   13.9677 C   0  0  0  0  0  0
   23.4995   52.9096   12.0963 C   0  0  0  0  0  0
   21.6075   51.1880   12.7213 C   0  0  0  0  0  0
   21.4126   51.0486   11.3525 C   0  0  0  0  0  0
   20.5809   50.0838   10.8209 C   0  0  0  0  0  0
   19.9531   49.1839   11.6691 C   0  0  0  0  0  0
   20.0951   49.2446   13.0583 C   0  0  0  0  0  0
   20.9100   50.2909   13.5814 C   0  0  0  0  0  0
   20.9504   50.5110   14.9313 O   0  0  0  0  0  0
   19.3333   48.1319   13.8655 C   0  0  0  0  0  0
   19.4824   48.1802   15.4073 C   0  0  0  0  0  0
   19.8550   46.7513   13.4159 C   0  0  0  0  0  0
   17.8113   48.1287   13.5636 C   0  0  0  0  0  0
   20.4158   50.1013    9.3729 C   0  0  0  0  0  0
   19.9932   49.1200    8.5531 C   0  0  0  0  0  0
   19.4700   47.7265    8.8080 C   0  0  0  0  0  0
   19.2445   47.2299    7.4062 C   0  0  0  0  0  0
   19.1304   48.4485    6.6610 N   0  0  0  0  0  0
   19.8091   49.4734    7.1628 C   0  0  0  0  0  0
   20.1231   50.5069    6.5990 O   0  0  0  0  0  0
   18.9158   48.3202    5.2960 O   0  0  0  0  0  0
   17.5450   48.5437    4.9860 C   0  0  0  0  0  0
   24.5228   52.2819   14.2477 H   0  0  0  0  0  0
   23.9643   50.7330   13.5792 H   0  0  0  0  0  0
   23.2035   51.4564   15.0000 H   0  0  0  0  0  0
   21.0463   53.8527   13.4001 H   0  0  0  0  0  0
   21.4620   53.0929   14.9172 H   0  0  0  0  0  0
   22.5509   54.2527   14.2062 H   0  0  0  0  0  0
   22.9258   53.4707   11.4001 H   0  0  0  0  0  0
   24.2356   53.6123   12.4927 H   0  0  0  0  0  0
   24.0476   52.1523   11.5317 H   0  0  0  0  0  0
   21.9008   51.7109   10.6594 H   0  0  0  0  0  0
   19.3120   48.4321   11.2479 H   0  0  0  0  0  0
   21.4205   51.3228   15.1309 H   0  0  0  0  0  0
   19.0281   49.0733   15.8323 H   0  0  0  0  0  0
   18.9852   47.3353   15.8869 H   0  0  0  0  0  0
   20.5233   48.1400   15.7233 H   0  0  0  0  0  0
   19.7159   46.5699   12.3503 H   0  0  0  0  0  0
   20.9226   46.6731   13.6147 H   0  0  0  0  0  0
   19.3226   45.9472   13.9316 H   0  0  0  0  0  0
   17.5887   47.8901   12.5250 H   0  0  0  0  0  0
   17.2865   47.3794   14.1595 H   0  0  0  0  0  0
   17.3380   49.0729   13.7918 H   0  0  0  0  0  0
   20.6362   51.0689    8.9411 H   0  0  0  0  0  0
   20.1230   47.0744    9.3801 H   0  0  0  0  0  0
   18.5231   47.7652    9.3415 H   0  0  0  0  0  0
   20.1228   46.6742    7.0675 H   0  0  0  0  0  0
   18.3144   46.6730    7.3407 H   0  0  0  0  0  0
   17.4060   48.6147    3.9075 H   0  0  0  0  0  0
   16.9234   47.7232    5.3473 H   0  0  0  0  0  0
   17.1698   49.4732    5.4101 H   0  0  0  0  0  0
  1  2  1  0  0  0
  1 25  1  0  0  0
  1 26  1  0  0  0
  1 27  1  0  0  0
  2  3  1  0  0  0
  2  4  1  0  0  0
  2  5  1  0  0  0
  3 28  1  0  0  0
  3 29  1  0  0  0
  3 30  1  0  0  0
  4 31  1  0  0  0
  4 32  1  0  0  0
  4 33  1  0  0  0
  5 10  1  0  0  0
  5  6  2  0  0  0
  6  7  1  0  0  0
  6 34  1  0  0  0
  7  8  2  0  0  0
  7 16  1  0  0  0
  8  9  1  0  0  0
  8 35  1  0  0  0
  9 10  2  0  0  0
  9 12  1  0  0  0
 10 11  1  0  0  0
 11 36  1  0  0  0
 12 13  1  0  0  0
 12 14  1  0  0  0
 12 15  1  0  0  0
 13 37  1  0  0  0
 13 38  1  0  0  0
 13 39  1  0  0  0
 14 40  1  0  0  0
 14 41  1  0  0  0
 14 42  1  0  0  0
 15 43  1  0  0  0
 15 44  1  0  0  0
 15 45  1  0  0  0
 16 17  2  0  0  0
 16 46  1  0  0  0
 17 21  1  0  0  0
 17 18  1  0  0  0
 18 19  1  0  0  0
 18 47  1  0  0  0
 18 48  1  0  0  0
 19 20  1  0  0  0
 19 49  1  0  0  0
 19 50  1  0  0  0
 20 21  1  0  0  0
 20 23  1  0  0  0
 21 22  2  0  0  0
 23 24  1  0  0  0
 24 51  1  0  0  0
 24 52  1  0  0  0
 24 53  1  0  0  0
M  END
> <s_m_entry_id>
6133

> <s_m_entry_name>
ligand_docking-pose.232

> <s_m_Source_Path>
/home/csk/Desktop/cluster/DUD-E-result/pgh1

> <s_m_Source_File>
ligand_docking-pose.sdf

> <i_m_Source_File_Index>
232

> <i_lp_mmshare_version>
53161

> <i_f3d_flags>
0

> <r_lp_tautomer_probability>
1

> <s_lp_Force_Field>
OPLS_2005

> <r_lp_Energy>
41.571789

> <b_lp_Chiralities_Consistent>
1

> <s_lp_Variant>
10581-1

> <s_i_glide_gridfile>
glide-grid_2oyu

> <i_i_glide_lignum>
425

> <i_i_glide_rotatable_bonds>
5

> <r_i_docking_score>
-7.27858004489659

> <r_i_glide_ligand_efficiency>
-0.303274168537358

> <r_i_glide_ligand_efficiency_sa>
-0.874794077589968

> <r_i_glide_ligand_efficiency_ln>
-1.74209819701879

> <r_i_glide_gscore>
-7.27858004489659

> <r_i_glide_lipo>
-4.04632604009415

> <r_i_glide_hbond>
-0.32

> <r_i_glide_metal>
0

> <r_i_glide_rewards>
-2.0749919440254

> <r_i_glide_evdw>
-19.5934715270996

> <r_i_glide_ecoul>
-0.19275338947773

> <r_i_glide_erotb>
0.171324523999595

> <r_i_glide_esite>
0

> <r_i_glide_emodel>
-27.3476840624182

> <r_i_glide_energy>
-19.7862249165773

> <r_i_glide_einternal>
11.8035869598389

> <i_i_glide_confnum>
2

> <i_i_glide_posenum>
149

> <r_i_glide_eff_state_penalty>
0

> <s_user_duplicate_titles>
10581

> <s_m_subgroup_title>
dock_pv

> <s_m_subgroupid>
dock_pv1

> <b_m_subgroup_collapsed>
0

$$$$
626052
                    3D
 Schrodinger Suite 2021-1.
 42 44  0  0  1  0            999 V2000
   23.1871   54.3998   13.8000 C   0  0  0  0  0  0
   22.1219   53.6077   14.1918 C   0  0  0  0  0  0
   22.0276   52.3127   13.7073 C   0  0  0  0  0  0
   22.9226   51.8369   12.7312 C   0  0  0  0  0  0
   24.0095   52.6585   12.3846 C   0  0  0  0  0  0
   24.1919   53.8854   12.9972 C   0  0  0  0  0  0
   22.7480   50.4722   12.0058 C   0  0  2  0  0  0
   22.2297   50.6070   10.5710 C   0  0  0  0  0  0
   20.6883   50.7533   10.4584 C   0  0  2  0  0  0
   19.9996   49.7574   11.2339 O   0  0  0  0  0  0
   20.3565   49.7766   12.6026 C   0  0  2  0  0  0
   21.8438   49.4730   12.6901 C   0  0  0  0  0  0
   19.5125   48.9025   13.5273 C   0  0  0  0  0  0
   19.8270   48.8517   14.8931 C   0  0  0  0  0  0
   18.9287   48.3008   15.7939 C   0  0  0  0  0  0
   17.6946   47.8637   15.3484 C   0  0  0  0  0  0
   17.3987   47.8489   13.9911 C   0  0  0  0  0  0
   18.3403   48.3024   13.0727 C   0  0  0  0  0  0
   16.7794   47.4730   16.2541 F   0  0  0  0  0  0
   20.1230   50.6729    9.0400 C   0  0  0  0  0  0
   20.1230   49.0008    8.3105 S   0  0  0  0  0  0
   19.8531   49.3390    6.6656 C   0  0  0  0  0  0
   19.7230   49.4731    5.5255 N   0  0  0  0  0  0
   24.0508   49.9567   11.9483 O   0  0  0  0  0  0
   20.4099   51.7341   10.8356 H   0  0  0  0  0  0
   20.1230   50.7761   12.9122 H   0  0  0  0  0  0
   23.2900   55.3803   14.2344 H   0  0  0  0  0  0
   21.4119   53.9781   14.9160 H   0  0  0  0  0  0
   21.2588   51.7163   14.1559 H   0  0  0  0  0  0
   24.7459   52.3383   11.6624 H   0  0  0  0  0  0
   25.0513   54.4938   12.7554 H   0  0  0  0  0  0
   22.5431   49.7694    9.9498 H   0  0  0  0  0  0
   22.7431   51.4730   10.2000 H   0  0  0  0  0  0
   22.1230   49.4730   13.7349 H   0  0  0  0  0  0
   22.0190   48.5040   12.2000 H   0  0  0  0  0  0
   20.7221   49.3047   15.2903 H   0  0  0  0  0  0
   19.1482   48.2730   16.8439 H   0  0  0  0  0  0
   16.4443   47.4759   13.6525 H   0  0  0  0  0  0
   18.1230   48.2725   12.0193 H   0  0  0  0  0  0
   19.1279   51.0531    9.1760 H   0  0  0  0  0  0
   20.5230   51.3957    8.3375 H   0  0  0  0  0  0
   24.4817   50.2750   11.1511 H   0  0  0  0  0  0
  1  6  1  0  0  0
  1  2  2  0  0  0
  1 27  1  0  0  0
  2  3  1  0  0  0
  2 28  1  0  0  0
  3  4  2  0  0  0
  3 29  1  0  0  0
  4  5  1  0  0  0
  4  7  1  0  0  0
  5  6  2  0  0  0
  5 30  1  0  0  0
  6 31  1  0  0  0
  7 12  1  0  0  0
  7  8  1  0  0  0
  7 24  1  0  0  0
  8  9  1  0  0  0
  8 32  1  0  0  0
  8 33  1  0  0  0
  9 25  1  0  0  0
  9 10  1  0  0  0
  9 20  1  0  0  0
 10 11  1  0  0  0
 11 26  1  0  0  0
 11 12  1  0  0  0
 11 13  1  0  0  0
 12 34  1  0  0  0
 12 35  1  0  0  0
 13 18  1  0  0  0
 13 14  2  0  0  0
 14 15  1  0  0  0
 14 36  1  0  0  0
 15 16  2  0  0  0
 15 37  1  0  0  0
 16 17  1  0  0  0
 16 19  1  0  0  0
 17 18  2  0  0  0
 17 38  1  0  0  0
 18 39  1  0  0  0
 20 21  1  0  0  0
 20 40  1  0  0  0
 20 41  1  0  0  0
 21 22  1  0  0  0
 22 23  3  0  0  0
 24 42  1  0  0  0
M  END
> <s_m_entry_id>
6134

> <s_m_entry_name>
ligand_docking-pose.233

> <s_m_Source_Path>
/home/csk/Desktop/cluster/DUD-E-result/pgh1

> <s_m_Source_File>
ligand_docking-pose.sdf

> <i_m_Source_File_Index>
233

> <i_lp_mmshare_version>
53161

> <i_f3d_flags>
0

> <r_lp_tautomer_probability>
1

> <s_lp_Force_Field>
OPLS_2005

> <r_lp_Energy>
22.283339

> <b_lp_Chiralities_Consistent>
1

> <s_lp_Variant>
626052-1

> <s_i_glide_gridfile>
glide-grid_2oyu

> <i_i_glide_lignum>
81

> <i_i_glide_rotatable_bonds>
5

> <r_i_docking_score>
-7.27434810186418

> <r_i_glide_ligand_efficiency>
-0.303097837577674

> <r_i_glide_ligand_efficiency_sa>
-0.874285451088835

> <r_i_glide_ligand_efficiency_ln>
-1.74108529885992

> <r_i_glide_gscore>
-7.27434810186418

> <r_i_glide_lipo>
-4.26894828316813

> <r_i_glide_hbond>
-0.0486249768316584

> <r_i_glide_metal>
0

> <r_i_glide_rewards>
-2.41944781027645

> <r_i_glide_evdw>
-18.4418087005615

> <r_i_glide_ecoul>
-0.652746737003326

> <r_i_glide_erotb>
0.482675413990632

> <r_i_glide_esite>
0

> <r_i_glide_emodel>
-23.5223275580427

> <r_i_glide_energy>
-19.0945554375648

> <r_i_glide_einternal>
8.64284706115723

> <i_i_glide_confnum>
12

> <i_i_glide_posenum>
50

> <r_i_glide_eff_state_penalty>
0

> <s_user_duplicate_titles>
626052

> <s_m_subgroup_title>
dock_pv

> <s_m_subgroupid>
dock_pv1

> <b_m_subgroup_collapsed>
0

$$$$
248823
                    3D
 Schrodinger Suite 2021-1.
 40 41  0  0  1  0            999 V2000
   21.7230   54.7880   15.1729 C   0  0  0  0  0  0
   22.2642   53.7449   14.2000 C   0  0  0  0  0  0
   23.3571   54.0828   13.4000 C   0  0  0  0  0  0
   23.9668   53.1325   12.5863 C   0  0  0  0  0  0
   23.4363   51.8536   12.4859 C   0  0  0  0  0  0
   22.3186   51.5056   13.2581 C   0  0  0  0  0  0
   21.8122   52.4201   14.1952 C   0  0  0  0  0  0
   20.7545   51.8730   15.4496 Cl  0  0  0  0  0  0
   21.7230   50.2438   13.1496 N   0  0  0  0  0  0
   20.9601   49.6912   12.1025 C   0  0  0  0  0  0
   21.0451   50.2338   10.8131 C   0  0  0  0  0  0
   20.4380   49.6032    9.7331 C   0  0  0  0  0  0
   19.7230   48.4284    9.9262 C   0  0  0  0  0  0
   19.5571   47.9305   11.2118 C   0  0  0  0  0  0
   20.1367   48.5587   12.3180 C   0  0  0  0  0  0
   19.7687   48.0315   13.6858 C   0  0  0  0  0  0
   19.4893   46.8465   13.8695 O   0  0  0  0  0  0
   19.6619   48.9694   14.6357 N   0  0  0  0  0  0
   19.1365   48.8151   15.9812 C   0  0  0  0  0  0
   17.6888   48.2729   16.0334 C   0  0  0  0  0  0
   17.0115   48.4219   17.4000 C   0  0  0  0  0  0
   16.9230   50.1418   17.8805 Cl  0  0  0  0  0  0
   24.2126   50.7259   11.4284 Cl  0  0  0  0  0  0
   22.5091   55.4898   15.4541 H   0  0  0  0  0  0
   20.9110   55.3491   14.7280 H   0  0  0  0  0  0
   21.3705   54.3558   16.1083 H   0  0  0  0  0  0
   23.7737   55.0774   13.4459 H   0  0  0  0  0  0
   24.8372   53.4025   12.0079 H   0  0  0  0  0  0
   21.6926   49.7217   14.0130 H   0  0  0  0  0  0
   21.6140   51.1296   10.6224 H   0  0  0  0  0  0
   20.5230   50.0215    8.7415 H   0  0  0  0  0  0
   19.2566   47.9298    9.0887 H   0  0  0  0  0  0
   18.9230   47.0730   11.3510 H   0  0  0  0  0  0
   19.8705   49.9176   14.3537 H   0  0  0  0  0  0
   19.1854   49.7918   16.4589 H   0  0  0  0  0  0
   19.8311   48.2730   16.6000 H   0  0  0  0  0  0
   17.6876   47.2178   15.7582 H   0  0  0  0  0  0
   17.0805   48.7702   15.2771 H   0  0  0  0  0  0
   17.5567   47.8730   18.1700 H   0  0  0  0  0  0
   15.9945   48.0317   17.4000 H   0  0  0  0  0  0
  1  2  1  0  0  0
  1 24  1  0  0  0
  1 25  1  0  0  0
  1 26  1  0  0  0
  2  7  1  0  0  0
  2  3  2  0  0  0
  3  4  1  0  0  0
  3 27  1  0  0  0
  4  5  2  0  0  0
  4 28  1  0  0  0
  5  6  1  0  0  0
  5 23  1  0  0  0
  6  7  2  0  0  0
  6  9  1  0  0  0
  7  8  1  0  0  0
  9 10  1  0  0  0
  9 29  1  0  0  0
 10 15  1  0  0  0
 10 11  2  0  0  0
 11 12  1  0  0  0
 11 30  1  0  0  0
 12 13  2  0  0  0
 12 31  1  0  0  0
 13 14  1  0  0  0
 13 32  1  0  0  0
 14 15  2  0  0  0
 14 33  1  0  0  0
 15 16  1  0  0  0
 16 17  2  0  0  0
 16 18  1  0  0  0
 18 19  1  0  0  0
 18 34  1  0  0  0
 19 20  1  0  0  0
 19 35  1  0  0  0
 19 36  1  0  0  0
 20 21  1  0  0  0
 20 37  1  0  0  0
 20 38  1  0  0  0
 21 22  1  0  0  0
 21 39  1  0  0  0
 21 40  1  0  0  0
M  END
> <s_m_entry_id>
6136

> <s_m_entry_name>
ligand_docking-pose.235

> <s_m_Source_Path>
/home/csk/Desktop/cluster/DUD-E-result/pgh1

> <s_m_Source_File>
ligand_docking-pose.sdf

> <i_m_Source_File_Index>
235

> <i_lp_mmshare_version>
53161

> <i_f3d_flags>
0

> <r_lp_tautomer_probability>
1

> <s_lp_Force_Field>
OPLS_2005

> <r_lp_Energy>
24.843969

> <b_lp_Chiralities_Consistent>
1

> <s_lp_Variant>
248823-1

> <s_i_glide_gridfile>
glide-grid_2oyu

> <i_i_glide_lignum>
223

> <i_i_glide_rotatable_bonds>
7

> <r_i_docking_score>
-7.22111496311005

> <r_i_glide_ligand_efficiency>
-0.313961520135219

> <r_i_glide_ligand_efficiency_sa>
-0.892864799123362

> <r_i_glide_ligand_efficiency_ln>
-1.74613107553038

> <r_i_glide_gscore>
-7.22111496311005

> <r_i_glide_lipo>
-4.23994714908281

> <r_i_glide_hbond>
-0.00817915009602506

> <r_i_glide_metal>
0

> <r_i_glide_rewards>
-1.88826071680766

> <r_i_glide_evdw>
-34.6843910217285

> <r_i_glide_ecoul>
-1.25981605052948

> <r_i_glide_erotb>
0.838464011542301

> <r_i_glide_esite>
0

> <r_i_glide_emodel>
-42.2708069838112

> <r_i_glide_energy>
-35.944207072258

> <r_i_glide_einternal>
7.12149906158447

> <i_i_glide_confnum>
137

> <i_i_glide_posenum>
330

> <r_i_glide_eff_state_penalty>
0

> <s_user_duplicate_titles>
248823

> <s_m_subgroup_title>
dock_pv

> <s_m_subgroupid>
dock_pv1

> <b_m_subgroup_collapsed>
0

$$$$
79584
                    3D
 Schrodinger Suite 2021-1.
 33 35  0  0  1  0            999 V2000
   26.3036   52.6722   10.7437 C   0  0  0  0  0  0
   25.2292   52.6885   11.8084 C   0  0  0  0  0  0
   25.3130   53.7394   12.7167 C   0  0  0  0  0  0
   24.1967   54.1130   13.4317 C   0  0  0  0  0  0
   23.0423   53.3447   13.4000 C   0  0  0  0  0  0
   22.9829   52.2062   12.5891 C   0  0  0  0  0  0
   24.0664   51.9083   11.7451 C   0  0  0  0  0  0
   23.9126   50.6730   10.5431 Cl  0  0  0  0  0  0
   21.8025   51.4730   12.4481 N   0  0  0  0  0  0
   21.1717   50.4867   13.2144 C   0  0  0  0  0  0
   21.3228   50.4248   14.6010 C   0  0  0  0  0  0
   20.6170   49.4730   15.3392 C   0  0  0  0  0  0
   19.7897   48.5559   14.6914 C   0  0  0  0  0  0
   19.6542   48.5963   13.3038 C   0  0  0  0  0  0
   20.3287   49.5684   12.5582 C   0  0  0  0  0  0
   20.1496   49.6113   11.0744 C   0  0  0  0  0  0
   20.1238   50.6730   10.3067 N   0  0  0  0  0  0
   20.1230   50.2200    9.0031 N   0  0  0  0  0  0
   20.1230   48.9190    9.0867 C   0  0  0  0  0  0
   20.1018   48.4594   10.3631 O   0  0  0  0  0  0
   19.7230   47.8097    7.8000 S   0  0  0  0  0  0
   21.7230   53.8639   14.3799 Cl  0  0  0  0  0  0
   26.9232   53.5579   10.7351 H   0  0  0  0  0  0
   25.7749   52.6730    9.8000 H   0  0  0  0  0  0
   27.0144   51.8730   10.8203 H   0  0  0  0  0  0
   26.1809   54.3812   12.7561 H   0  0  0  0  0  0
   24.2328   54.9933   14.0590 H   0  0  0  0  0  0
   21.4735   51.4629   11.4914 H   0  0  0  0  0  0
   21.9598   51.1312   15.1107 H   0  0  0  0  0  0
   20.7134   49.4442   16.4138 H   0  0  0  0  0  0
   19.2481   47.8184   15.2656 H   0  0  0  0  0  0
   19.0059   47.8853   12.8102 H   0  0  0  0  0  0
   19.1948   48.7636    6.9922 H   0  0  0  0  0  0
  1  2  1  0  0  0
  1 23  1  0  0  0
  1 24  1  0  0  0
  1 25  1  0  0  0
  2  7  1  0  0  0
  2  3  2  0  0  0
  3  4  1  0  0  0
  3 26  1  0  0  0
  4  5  2  0  0  0
  4 27  1  0  0  0
  5  6  1  0  0  0
  5 22  1  0  0  0
  6  7  2  0  0  0
  6  9  1  0  0  0
  7  8  1  0  0  0
  9 10  1  0  0  0
  9 28  1  0  0  0
 10 15  1  0  0  0
 10 11  2  0  0  0
 11 12  1  0  0  0
 11 29  1  0  0  0
 12 13  2  0  0  0
 12 30  1  0  0  0
 13 14  1  0  0  0
 13 31  1  0  0  0
 14 15  2  0  0  0
 14 32  1  0  0  0
 15 16  1  0  0  0
 16 20  1  0  0  0
 16 17  2  0  0  0
 17 18  1  0  0  0
 18 19  2  0  0  0
 19 20  1  0  0  0
 19 21  1  0  0  0
 21 33  1  0  0  0
M  END
> <s_m_entry_id>
6138

> <s_m_entry_name>
ligand_docking-pose.237

> <s_m_Source_Path>
/home/csk/Desktop/cluster/DUD-E-result/pgh1

> <s_m_Source_File>
ligand_docking-pose.sdf

> <i_m_Source_File_Index>
237

> <i_lp_mmshare_version>
53161

> <i_f3d_flags>
0

> <r_lp_tautomer_probability>
1

> <s_lp_Force_Field>
OPLS_2005

> <r_lp_Energy>
23.062171

> <b_lp_Chiralities_Consistent>
1

> <s_lp_Variant>
79584-1

> <s_i_glide_gridfile>
glide-grid_2oyu

> <i_i_glide_lignum>
221

> <i_i_glide_rotatable_bonds>
4

> <r_i_docking_score>
-7.18166264199365

> <r_i_glide_ligand_efficiency>
-0.326439210999711

> <r_i_glide_ligand_efficiency_sa>
-0.91469550734685

> <r_i_glide_ligand_efficiency_ln>
-1.75546030721296

> <r_i_glide_gscore>
-7.18166264199365

> <r_i_glide_lipo>
-3.81481712963067

> <r_i_glide_hbond>
0

> <r_i_glide_metal>
0

> <r_i_glide_rewards>
-2.24335549012956

> <r_i_glide_evdw>
-27.8529357910156

> <r_i_glide_ecoul>
-1.28165602684021

> <r_i_glide_erotb>
0.461405171343397

> <r_i_glide_esite>
0

> <r_i_glide_emodel>
-29.1207323376389

> <r_i_glide_energy>
-29.1345918178558

> <r_i_glide_einternal>
3.44789600372314

> <i_i_glide_confnum>
2

> <i_i_glide_posenum>
311

> <r_i_glide_eff_state_penalty>
0

> <s_user_duplicate_titles>
79584

> <s_m_subgroup_title>
dock_pv

> <s_m_subgroupid>
dock_pv1

> <b_m_subgroup_collapsed>
0

$$$$
247888
                    3D
 Schrodinger Suite 2021-1.
 37 38  0  0  1  0            999 V2000
   22.9645   54.8330   14.2000 C   0  0  0  0  0  0
   23.3995   53.6293   13.4000 C   0  0  0  0  0  0
   24.6995   53.5719   12.9087 C   0  0  0  0  0  0
   24.9951   52.6730   11.8942 C   0  0  0  0  0  0
   24.0091   51.8307   11.3999 C   0  0  0  0  0  0
   22.7589   51.7356   12.0250 C   0  0  0  0  0  0
   22.4674   52.6535   13.0441 C   0  0  0  0  0  0
   20.9231   52.6896   13.8002 Cl  0  0  0  0  0  0
   21.7855   50.8673   11.4959 N   0  0  0  0  0  0
   20.9781   49.8512   12.0447 C   0  0  0  0  0  0
   20.9551   49.6100   13.4254 C   0  0  0  0  0  0
   20.1231   48.6443   13.9844 C   0  0  0  0  0  0
   19.3176   47.8724   13.1599 C   0  0  0  0  0  0
   19.3492   48.0715   11.7842 C   0  0  0  0  0  0
   20.1698   49.0554   11.2023 C   0  0  0  0  0  0
   20.1230   49.2559    9.7019 C   0  0  0  0  0  0
   20.1231   50.3859    9.2221 O   0  0  0  0  0  0
   19.9723   48.1292    8.9759 N   0  0  0  0  0  0
   19.5061   47.8879    7.5906 C   0  0  0  0  0  0
   19.7156   49.0075    6.5523 C   0  0  0  0  0  0
   20.8031   49.3811    6.1797 O   0  0  0  0  0  0
   18.5231   49.4096    6.0289 O   0  0  0  0  0  0
   24.3245   51.0730    9.8958 Cl  0  0  0  0  0  0
   23.8130   55.3847   14.5998 H   0  0  0  0  0  0
   22.3747   55.4730   13.5496 H   0  0  0  0  0  0
   22.3333   54.5684   15.0451 H   0  0  0  0  0  0
   25.4356   54.3073   13.2023 H   0  0  0  0  0  0
   25.9631   52.7025   11.4138 H   0  0  0  0  0  0
   21.6402   50.9723   10.4987 H   0  0  0  0  0  0
   21.5976   50.1687   14.0867 H   0  0  0  0  0  0
   20.1128   48.4920   15.0535 H   0  0  0  0  0  0
   18.6623   47.1249   13.5830 H   0  0  0  0  0  0
   18.6884   47.4726   11.1754 H   0  0  0  0  0  0
   20.0515   47.2891    9.5275 H   0  0  0  0  0  0
   18.4679   47.5537    7.6136 H   0  0  0  0  0  0
   20.0925   47.0637    7.2043 H   0  0  0  0  0  0
   17.7441   49.0251    6.4403 H   0  0  0  0  0  0
  1  2  1  0  0  0
  1 24  1  0  0  0
  1 25  1  0  0  0
  1 26  1  0  0  0
  2  7  1  0  0  0
  2  3  2  0  0  0
  3  4  1  0  0  0
  3 27  1  0  0  0
  4  5  2  0  0  0
  4 28  1  0  0  0
  5  6  1  0  0  0
  5 23  1  0  0  0
  6  7  2  0  0  0
  6  9  1  0  0  0
  7  8  1  0  0  0
  9 10  1  0  0  0
  9 29  1  0  0  0
 10 15  1  0  0  0
 10 11  2  0  0  0
 11 12  1  0  0  0
 11 30  1  0  0  0
 12 13  2  0  0  0
 12 31  1  0  0  0
 13 14  1  0  0  0
 13 32  1  0  0  0
 14 15  2  0  0  0
 14 33  1  0  0  0
 15 16  1  0  0  0
 16 17  2  0  0  0
 16 18  1  0  0  0
 18 19  1  0  0  0
 18 34  1  0  0  0
 19 20  1  0  0  0
 19 35  1  0  0  0
 19 36  1  0  0  0
 20 21  2  0  0  0
 20 22  1  0  0  0
 22 37  1  0  0  0
M  END
> <s_m_entry_id>
6142

> <s_m_entry_name>
ligand_docking-pose.241

> <s_m_Source_Path>
/home/csk/Desktop/cluster/DUD-E-result/pgh1

> <s_m_Source_File>
ligand_docking-pose.sdf

> <i_m_Source_File_Index>
241

> <i_lp_mmshare_version>
53161

> <i_f3d_flags>
0

> <r_lp_tautomer_probability>
1

> <s_lp_Force_Field>
OPLS_2005

> <r_lp_Energy>
23.191793

> <b_lp_Chiralities_Consistent>
1

> <s_lp_Variant>
247888-1

> <s_i_glide_gridfile>
glide-grid_2oyu

> <i_i_glide_lignum>
229

> <i_i_glide_rotatable_bonds>
7

> <r_i_docking_score>
-7.16210474488063

> <r_i_glide_ligand_efficiency>
-0.311395858473071

> <r_i_glide_ligand_efficiency_sa>
-0.885568398648533

> <r_i_glide_ligand_efficiency_ln>
-1.73186186968744

> <r_i_glide_gscore>
-7.16210474488063

> <r_i_glide_lipo>
-3.84288400530353

> <r_i_glide_hbond>
0

> <r_i_glide_metal>
0

> <r_i_glide_rewards>
-2.23155007180487

> <r_i_glide_evdw>
-35.4132270812988

> <r_i_glide_ecoul>
-1.56906080245972

> <r_i_glide_erotb>
0.91834980666166

> <r_i_glide_esite>
0

> <r_i_glide_emodel>
-43.5406135499037

> <r_i_glide_energy>
-36.9822878837585

> <r_i_glide_einternal>
7.02048015594482

> <i_i_glide_confnum>
128

> <i_i_glide_posenum>
62

> <r_i_glide_eff_state_penalty>
0

> <s_user_duplicate_titles>
247888

> <s_m_subgroup_title>
dock_pv

> <s_m_subgroupid>
dock_pv1

> <b_m_subgroup_collapsed>
0

$$$$
10680
                    3D
 Schrodinger Suite 2021-1.
 44 45  0  0  1  0            999 V2000
   20.1388   47.1340   15.5681 C   0  0  0  0  0  0
   19.0362   47.8984   14.8346 C   0  0  0  0  0  0
   18.0415   46.8262   14.3443 C   0  0  0  0  0  0
   18.2340   48.7342   15.8583 C   0  0  0  0  0  0
   19.6883   48.7287   13.6740 C   0  0  0  0  0  0
   19.4370   48.3743   12.3352 C   0  0  0  0  0  0
   20.0745   49.0021   11.2616 C   0  0  0  0  0  0
   20.9632   50.0303   11.5379 C   0  0  0  0  0  0
   21.2080   50.4987   12.8436 C   0  0  0  0  0  0
   20.5980   49.7931   13.9089 C   0  0  0  0  0  0
   20.9230   50.1309   15.1983 O   0  0  0  0  0  0
   22.1082   51.7652   13.0756 C   0  0  0  0  0  0
   23.3230   51.4730   13.9495 C   0  0  0  0  0  0
   21.3229   52.9061   13.7870 C   0  0  0  0  0  0
   22.7432   52.2730   11.7580 C   0  0  0  0  0  0
   19.8290   48.5667    9.8649 C   0  0  0  0  0  0
   20.1230   49.2891    8.7604 N   0  0  0  0  0  0
   19.7230   48.6231    7.6425 C   0  0  0  0  0  0
   19.2763   47.4825    8.2000 N   0  0  0  0  0  0
   19.3230   47.4730    9.5231 N   0  0  0  0  0  0
   19.7629   49.0730    6.0502 S   0  0  0  0  0  0
   18.8501   46.7265    7.6851 H   0  0  0  0  0  0
   19.7440   46.3380   16.2000 H   0  0  0  0  0  0
   20.7378   47.7914   16.2000 H   0  0  0  0  0  0
   20.8080   46.6730   14.8473 H   0  0  0  0  0  0
   17.2120   47.2795   13.8000 H   0  0  0  0  0  0
   18.5330   46.0904   13.7096 H   0  0  0  0  0  0
   17.5968   46.2658   15.1683 H   0  0  0  0  0  0
   17.3851   49.2386   15.4000 H   0  0  0  0  0  0
   17.8179   48.1020   16.6449 H   0  0  0  0  0  0
   18.8353   49.4730   16.3750 H   0  0  0  0  0  0
   18.7546   47.5726   12.0982 H   0  0  0  0  0  0
   21.4675   50.4339   10.6802 H   0  0  0  0  0  0
   20.4366   49.6004   15.8315 H   0  0  0  0  0  0
   23.7230   50.5163   13.6471 H   0  0  0  0  0  0
   24.1144   52.2196   13.8537 H   0  0  0  0  0  0
   23.0601   51.4729   15.0000 H   0  0  0  0  0  0
   20.3235   53.0730   13.4000 H   0  0  0  0  0  0
   21.1749   52.6950   14.8464 H   0  0  0  0  0  0
   21.8570   53.8563   13.7406 H   0  0  0  0  0  0
   22.0173   52.2730   10.9619 H   0  0  0  0  0  0
   23.1700   53.2716   11.8519 H   0  0  0  0  0  0
   23.5452   51.6170   11.4126 H   0  0  0  0  0  0
   20.4957   50.2251    8.7008 H   0  0  0  0  0  0
  1  2  1  0  0  0
  1 23  1  0  0  0
  1 24  1  0  0  0
  1 25  1  0  0  0
  2  3  1  0  0  0
  2  4  1  0  0  0
  2  5  1  0  0  0
  3 26  1  0  0  0
  3 27  1  0  0  0
  3 28  1  0  0  0
  4 29  1  0  0  0
  4 30  1  0  0  0
  4 31  1  0  0  0
  5 10  1  0  0  0
  5  6  2  0  0  0
  6  7  1  0  0  0
  6 32  1  0  0  0
  7  8  2  0  0  0
  7 16  1  0  0  0
  8  9  1  0  0  0
  8 33  1  0  0  0
  9 10  2  0  0  0
  9 12  1  0  0  0
 10 11  1  0  0  0
 11 34  1  0  0  0
 12 13  1  0  0  0
 12 14  1  0  0  0
 12 15  1  0  0  0
 13 35  1  0  0  0
 13 36  1  0  0  0
 13 37  1  0  0  0
 14 38  1  0  0  0
 14 39  1  0  0  0
 14 40  1  0  0  0
 15 41  1  0  0  0
 15 42  1  0  0  0
 15 43  1  0  0  0
 16 20  2  0  0  0
 16 17  1  0  0  0
 17 18  1  0  0  0
 17 44  1  0  0  0
 18 19  1  0  0  0
 18 21  2  0  0  0
 19 20  1  0  0  0
 19 22  1  0  0  0
M  END
> <s_m_entry_id>
6143

> <s_m_entry_name>
ligand_docking-pose.242

> <s_m_Source_Path>
/home/csk/Desktop/cluster/DUD-E-result/pgh1

> <s_m_Source_File>
ligand_docking-pose.sdf

> <i_m_Source_File_Index>
242

> <i_lp_mmshare_version>
53161

> <i_f3d_flags>
0

> <r_lp_tautomer_probability>
0.188618276206728

> <s_lp_Force_Field>
OPLS_2005

> <r_lp_Energy>
39.613179

> <b_lp_Chiralities_Consistent>
1

> <s_lp_Variant>
10680-2

> <s_i_glide_gridfile>
glide-grid_2oyu

> <i_i_glide_lignum>
407

> <i_i_glide_rotatable_bonds>
4

> <r_i_docking_score>
-7.1615046240516

> <r_i_glide_ligand_efficiency>
-0.341024029716743

> <r_i_glide_ligand_efficiency_sa>
-0.940859439357613

> <r_i_glide_ligand_efficiency_ln>
-1.77066754711408

> <r_i_glide_gscore>
-7.1615046240516

> <r_i_glide_lipo>
-3.27632006451927

> <r_i_glide_hbond>
0

> <r_i_glide_metal>
0

> <r_i_glide_rewards>
-3.05274111783914

> <r_i_glide_evdw>
-27.408748626709

> <r_i_glide_ecoul>
2.26768970489502

> <r_i_glide_erotb>
0.197840533908001

> <r_i_glide_esite>
0

> <r_i_glide_emodel>
-23.0839556286752

> <r_i_glide_energy>
-25.141058921814

> <r_i_glide_einternal>
5.13167762756348

> <i_i_glide_confnum>
1

> <i_i_glide_posenum>
247

> <r_i_glide_eff_state_penalty>
0

> <s_user_duplicate_titles>
10680

> <s_m_subgroup_title>
dock_pv

> <s_m_subgroupid>
dock_pv1

> <b_m_subgroup_collapsed>
0

$$$$
293342
                    3D
 Schrodinger Suite 2021-1.
 38 40  0  0  1  0            999 V2000
   20.5363   51.4959   17.0032 C   0  0  0  0  0  0
   21.1049   50.2746   16.2645 C   0  0  0  0  0  0
   21.1790   50.4469   14.7646 C   0  0  0  0  0  0
   21.8919   51.5086   14.2001 C   0  0  0  0  0  0
   21.8682   51.6616   12.8193 C   0  0  0  0  0  0
   21.1421   50.7651   12.0332 C   0  0  0  0  0  0
   20.5188   49.6920   12.6851 C   0  0  0  0  0  0
   20.5230   49.5170   14.0267 N   0  0  0  0  0  0
   19.7760   48.7603   12.0041 O   0  0  0  0  0  0
   19.8476   48.7210   10.6308 C   0  0  0  0  0  0
   19.5120   47.5301   10.0256 C   0  0  0  0  0  0
   19.5166   47.3995    8.6404 C   0  0  0  0  0  0
   19.8512   48.4921    7.8428 C   0  0  0  0  0  0
   20.1230   49.7144    8.4727 C   0  0  0  0  0  0
   20.2599   49.8046    9.8616 C   0  0  0  0  0  0
   20.9518   50.9658   10.5451 C   0  0  0  0  0  0
   19.9834   48.3325    6.3241 C   0  0  2  0  0  0
   21.2304   49.0069    5.7018 C   0  0  0  0  0  0
   18.7632   48.9137    5.6433 C   0  0  0  0  0  0
   17.9366   48.2733    5.0001 O   0  0  0  0  0  0
   18.7844   50.2526    5.8000 O   0  0  0  0  0  0
   20.9230   51.5360   18.0203 H   0  0  0  0  0  0
   20.8255   52.4328   16.5292 H   0  0  0  0  0  0
   19.4497   51.4725   17.0591 H   0  0  0  0  0  0
   20.5411   49.3800   16.5382 H   0  0  0  0  0  0
   22.1230   50.1072   16.6000 H   0  0  0  0  0  0
   22.4254   52.2203   14.8131 H   0  0  0  0  0  0
   22.3759   52.5004   12.3650 H   0  0  0  0  0  0
   19.3231   46.7137   10.6855 H   0  0  0  0  0  0
   19.2811   46.4461    8.2017 H   0  0  0  0  0  0
   20.3762   50.5751    7.8723 H   0  0  0  0  0  0
   21.9398   51.0730   10.1034 H   0  0  0  0  0  0
   20.3886   51.8730   10.3975 H   0  0  0  0  0  0
   20.0584   47.2709    6.0978 H   0  0  0  0  0  0
   21.2282   50.0946    5.7602 H   0  0  0  0  0  0
   22.1230   48.6730    6.1998 H   0  0  0  0  0  0
   21.3230   48.7387    4.6487 H   0  0  0  0  0  0
   18.1230   50.6665    5.2205 H   0  0  0  0  0  0
  1  2  1  0  0  0
  1 22  1  0  0  0
  1 23  1  0  0  0
  1 24  1  0  0  0
  2  3  1  0  0  0
  2 25  1  0  0  0
  2 26  1  0  0  0
  3  8  1  0  0  0
  3  4  2  0  0  0
  4  5  1  0  0  0
  4 27  1  0  0  0
  5  6  2  0  0  0
  5 28  1  0  0  0
  6 16  1  0  0  0
  6  7  1  0  0  0
  7  8  2  0  0  0
  7  9  1  0  0  0
  9 10  1  0  0  0
 10 15  2  0  0  0
 10 11  1  0  0  0
 11 12  2  0  0  0
 11 29  1  0  0  0
 12 13  1  0  0  0
 12 30  1  0  0  0
 13 14  2  0  0  0
 13 17  1  0  0  0
 14 15  1  0  0  0
 14 31  1  0  0  0
 15 16  1  0  0  0
 16 32  1  0  0  0
 16 33  1  0  0  0
 17 18  1  0  0  0
 17 19  1  0  0  0
 17 34  1  0  0  0
 18 35  1  0  0  0
 18 36  1  0  0  0
 18 37  1  0  0  0
 19 20  2  0  0  0
 19 21  1  0  0  0
 21 38  1  0  0  0
M  END
> <s_m_entry_id>
6145

> <s_m_entry_name>
ligand_docking-pose.244

> <s_m_Source_Path>
/home/csk/Desktop/cluster/DUD-E-result/pgh1

> <s_m_Source_File>
ligand_docking-pose.sdf

> <i_m_Source_File_Index>
244

> <i_lp_mmshare_version>
53161

> <i_f3d_flags>
0

> <r_lp_tautomer_probability>
1

> <s_lp_Force_Field>
OPLS_2005

> <r_lp_Energy>
9.924526

> <b_lp_Chiralities_Consistent>
1

> <s_lp_Variant>
293342-1

> <s_i_glide_gridfile>
glide-grid_2oyu

> <i_i_glide_lignum>
323

> <i_i_glide_rotatable_bonds>
4

> <r_i_docking_score>
-7.10673286599427

> <r_i_glide_ligand_efficiency>
-0.338415850761632

> <r_i_glide_ligand_efficiency_sa>
-0.933663671389332

> <r_i_glide_ligand_efficiency_ln>
-1.75712534061117

> <r_i_glide_gscore>
-7.10673286599427

> <r_i_glide_lipo>
-4.0179717304085

> <r_i_glide_hbond>
-0.306246916710097

> <r_i_glide_metal>
0

> <r_i_glide_rewards>
-1.98481653536468

> <r_i_glide_evdw>
-2.12175679206848

> <r_i_glide_ecoul>
-7.43152093887329

> <r_i_glide_erotb>
0.451182890492026

> <r_i_glide_esite>
-0.0280645935686086

> <r_i_glide_emodel>
-29.7831472760692

> <r_i_glide_energy>
-9.55327773094177

> <r_i_glide_einternal>
4.6889500617981

> <i_i_glide_confnum>
6

> <i_i_glide_posenum>
218

> <r_i_glide_eff_state_penalty>
0

> <s_user_duplicate_titles>
293342

> <s_m_subgroup_title>
dock_pv

> <s_m_subgroupid>
dock_pv1

> <b_m_subgroup_collapsed>
0

$$$$
4997
                    3D
 Schrodinger Suite 2021-1.
 34 36  0  0  1  0            999 V2000
   20.1109   47.0730   13.6102 C   0  0  0  0  0  0
   19.5607   48.4954   13.9236 C   0  0  1  0  0  0
   18.0856   48.4749   13.4495 C   0  0  0  0  0  0
   17.0458   47.8569   14.4007 C   0  0  0  0  0  0
   17.3270   48.0576   15.8968 C   0  0  0  0  0  0
   16.5230   47.8730   16.8043 O   0  0  0  0  0  0
   18.5746   48.4027   16.2000 N   0  0  0  0  0  0
   19.6906   48.5450   15.4824 C   0  0  0  0  0  0
   20.7452   48.6730   16.0909 O   0  0  0  0  0  0
   20.4316   49.5415   13.2484 N   0  0  0  0  0  0
   20.7110   49.4040   11.9277 C   0  0  0  0  0  0
   20.1604   48.6730   11.1029 O   0  0  0  0  0  0
   21.8461   50.2961   11.6851 C   0  0  0  0  0  0
   22.6760   50.3403   10.5981 C   0  0  0  0  0  0
   23.7448   51.2306   10.6000 C   0  0  0  0  0  0
   23.8264   52.2013   11.5917 C   0  0  0  0  0  0
   22.8909   52.2432   12.6403 C   0  0  0  0  0  0
   21.9791   51.1637   12.7219 C   0  0  0  0  0  0
   21.0698   50.6509   13.7801 C   0  0  0  0  0  0
   20.9412   51.1290   14.9064 O   0  0  0  0  0  0
   22.8668   53.4429   13.5078 N   0  3  0  0  0  0
   23.7971   54.2398   13.4000 O   0  5  0  0  0  0
   21.8784   53.6557   14.2000 O   0  0  0  0  0  0
   19.6438   46.3014   14.2273 H   0  0  0  0  0  0
   19.9202   46.7497   12.5866 H   0  0  0  0  0  0
   21.1840   47.0070   13.7510 H   0  0  0  0  0  0
   18.0003   47.9514   12.4952 H   0  0  0  0  0  0
   17.7827   49.4730   13.1725 H   0  0  0  0  0  0
   16.0840   48.2717   14.1494 H   0  0  0  0  0  0
   16.9876   46.7802   14.2585 H   0  0  0  0  0  0
   18.7286   48.4819   17.1922 H   0  0  0  0  0  0
   22.5230   49.6341    9.8000 H   0  0  0  0  0  0
   24.4698   51.2241    9.8000 H   0  0  0  0  0  0
   24.5985   52.9499   11.5087 H   0  0  0  0  0  0
  1  2  1  0  0  0
  1 24  1  0  0  0
  1 25  1  0  0  0
  1 26  1  0  0  0
  2  8  1  0  0  0
  2  3  1  0  0  0
  2 10  1  0  0  0
  3  4  1  0  0  0
  3 27  1  0  0  0
  3 28  1  0  0  0
  4  5  1  0  0  0
  4 29  1  0  0  0
  4 30  1  0  0  0
  5  6  2  0  0  0
  5  7  1  0  0  0
  7  8  1  0  0  0
  7 31  1  0  0  0
  8  9  2  0  0  0
 10 19  1  0  0  0
 10 11  1  0  0  0
 11 12  2  0  0  0
 11 13  1  0  0  0
 13 18  2  0  0  0
 13 14  1  0  0  0
 14 15  2  0  0  0
 14 32  1  0  0  0
 15 16  1  0  0  0
 15 33  1  0  0  0
 16 17  2  0  0  0
 16 34  1  0  0  0
 17 18  1  0  0  0
 17 21  1  0  0  0
 18 19  1  0  0  0
 19 20  2  0  0  0
 21 22  1  0  0  0
 21 23  2  0  0  0
M  CHG  2  21   1  22  -1
M  END
> <s_m_entry_id>
6146

> <s_m_entry_name>
ligand_docking-pose.245

> <s_m_Source_Path>
/home/csk/Desktop/cluster/DUD-E-result/pgh1

> <s_m_Source_File>
ligand_docking-pose.sdf

> <i_m_Source_File_Index>
245

> <i_lp_mmshare_version>
53161

> <i_f3d_flags>
0

> <r_lp_tautomer_probability>
0.99995

> <s_lp_Force_Field>
OPLS_2005

> <r_lp_Energy>
41.72248

> <b_lp_Chiralities_Consistent>
1

> <s_lp_Variant>
4997-1

> <s_i_glide_gridfile>
glide-grid_2oyu

> <i_i_glide_lignum>
270

> <i_i_glide_rotatable_bonds>
2

> <r_i_docking_score>
-7.10318458489083

> <r_i_glide_ligand_efficiency>
-0.308834112386558

> <r_i_glide_ligand_efficiency_sa>
-0.878283133549949

> <r_i_glide_ligand_efficiency_ln>
-1.71761444074343

> <r_i_glide_gscore>
-7.10318458489083

> <r_i_glide_lipo>
-2.39241171279451

> <r_i_glide_hbond>
0

> <r_i_glide_metal>
0

> <r_i_glide_rewards>
-3.59777669085462

> <r_i_glide_evdw>
-24.8980331420898

> <r_i_glide_ecoul>
-0.354496389627457

> <r_i_glide_erotb>
0.185079934306907

> <r_i_glide_esite>
0

> <r_i_glide_emodel>
-37.0684872358665

> <r_i_glide_energy>
-25.2525295317173

> <r_i_glide_einternal>
5.45175933837891

> <i_i_glide_confnum>
7

> <i_i_glide_posenum>
27

> <r_i_glide_eff_state_penalty>
0

> <s_user_duplicate_titles>
4997

> <s_m_subgroup_title>
dock_pv

> <s_m_subgroupid>
dock_pv1

> <b_m_subgroup_collapsed>
0

$$$$
41593
                    3D
 Schrodinger Suite 2021-1.
 32 33  0  0  1  0            999 V2000
   19.5570   48.5298   11.7644 C   0  0  0  0  0  0
   19.1777   47.6113   12.7306 C   0  0  0  0  0  0
   19.4770   47.8315   14.0746 C   0  0  0  0  0  0
   20.2262   48.9607   14.4468 C   0  0  0  0  0  0
   20.6627   49.8734   13.4628 C   0  0  0  0  0  0
   20.2432   49.6769   12.1367 C   0  0  0  0  0  0
   21.4704   51.1017   13.8071 C   0  0  0  0  0  0
   21.2776   51.6793   14.8821 O   0  0  0  0  0  0
   22.6085   51.5497   12.9398 C   0  0  0  0  0  0
   23.3230   52.7034   13.3036 C   0  0  0  0  0  0
   24.4646   53.0730   12.6046 C   0  0  0  0  0  0
   24.8662   52.3058   11.5187 C   0  0  0  0  0  0
   24.1230   51.2248   11.0869 C   0  0  0  0  0  0
   23.0350   50.8086   11.8265 C   0  0  0  0  0  0
   26.6895   52.6730   10.6000 I   0  0  0  0  0  0
   20.5230   49.1557   15.8000 N   0  0  0  0  0  0
   18.8906   46.8773   15.1077 C   0  0  0  0  0  0
   17.6023   47.4730   15.6710 C   0  0  0  0  0  0
   17.5626   48.2733   16.6000 O   0  0  0  0  0  0
   16.5230   47.0020   15.0000 O   0  0  0  0  0  0
   19.2819   48.3729   10.7315 H   0  0  0  0  0  0
   18.6013   46.7484   12.4368 H   0  0  0  0  0  0
   20.4617   50.4027   11.3654 H   0  0  0  0  0  0
   23.0342   53.2973   14.1613 H   0  0  0  0  0  0
   25.0497   53.9230   12.9253 H   0  0  0  0  0  0
   24.4607   50.6729   10.2256 H   0  0  0  0  0  0
   22.5869   49.8790   11.5194 H   0  0  0  0  0  0
   20.8702   50.0815   16.0197 H   0  0  0  0  0  0
   19.9035   48.7102   16.4622 H   0  0  0  0  0  0
   18.6806   45.9070   14.6547 H   0  0  0  0  0  0
   19.5937   46.6793   15.9142 H   0  0  0  0  0  0
   15.7244   47.4165   15.3327 H   0  0  0  0  0  0
  1  6  1  0  0  0
  1  2  2  0  0  0
  1 21  1  0  0  0
  2  3  1  0  0  0
  2 22  1  0  0  0
  3  4  2  0  0  0
  3 17  1  0  0  0
  4  5  1  0  0  0
  4 16  1  0  0  0
  5  6  2  0  0  0
  5  7  1  0  0  0
  6 23  1  0  0  0
  7  8  2  0  0  0
  7  9  1  0  0  0
  9 14  1  0  0  0
  9 10  2  0  0  0
 10 11  1  0  0  0
 10 24  1  0  0  0
 11 12  2  0  0  0
 11 25  1  0  0  0
 12 13  1  0  0  0
 12 15  1  0  0  0
 13 14  2  0  0  0
 13 26  1  0  0  0
 14 27  1  0  0  0
 16 28  1  0  0  0
 16 29  1  0  0  0
 17 18  1  0  0  0
 17 30  1  0  0  0
 17 31  1  0  0  0
 18 19  2  0  0  0
 18 20  1  0  0  0
 20 32  1  0  0  0
M  END
> <s_m_entry_id>
6148

> <s_m_entry_name>
ligand_docking-pose.247

> <s_m_Source_Path>
/home/csk/Desktop/cluster/DUD-E-result/pgh1

> <s_m_Source_File>
ligand_docking-pose.sdf

> <i_m_Source_File_Index>
247

> <i_lp_mmshare_version>
53161

> <i_f3d_flags>
0

> <r_lp_tautomer_probability>
1

> <s_lp_Force_Field>
OPLS_2005

> <r_lp_Energy>
25.188178

> <b_lp_Chiralities_Consistent>
1

> <s_lp_Variant>
41593-1

> <s_i_glide_gridfile>
glide-grid_2oyu

> <i_i_glide_lignum>
114

> <i_i_glide_rotatable_bonds>
5

> <r_i_docking_score>
-7.07986104723021

> <r_i_glide_ligand_efficiency>
-0.35399305236151

> <r_i_glide_ligand_efficiency_sa>
-0.960884976522769

> <r_i_glide_ligand_efficiency_ln>
-1.77185571067629

> <r_i_glide_gscore>
-7.07986104723021

> <r_i_glide_lipo>
-3.41305519348625

> <r_i_glide_hbond>
0

> <r_i_glide_metal>
0

> <r_i_glide_rewards>
-2.36116793034269

> <r_i_glide_evdw>
-31.9275054931641

> <r_i_glide_ecoul>
-1.62402617931366

> <r_i_glide_erotb>
0.534341278153986

> <r_i_glide_esite>
0

> <r_i_glide_emodel>
-45.2138270322969

> <r_i_glide_energy>
-33.5515316724777

> <r_i_glide_einternal>
5.20221185684204

> <i_i_glide_confnum>
82

> <i_i_glide_posenum>
387

> <r_i_glide_eff_state_penalty>
0

> <s_user_duplicate_titles>
41593

> <s_m_subgroup_title>
dock_pv

> <s_m_subgroupid>
dock_pv1

> <b_m_subgroup_collapsed>
0

$$$$
4194
                    3D
 Schrodinger Suite 2021-1.
 48 49  0  0  1  0            999 V2000
   23.5016   52.8888   12.0682 C   0  0  0  0  0  0
   22.5957   52.2663   13.1571 C   0  0  0  0  0  0
   23.6473   51.6374   14.0357 C   0  0  0  0  0  0
   21.8579   53.3831   13.9436 C   0  0  0  0  0  0
   21.6037   51.1698   12.6376 C   0  0  0  0  0  0
   21.3787   51.0658   11.2634 C   0  0  0  0  0  0
   20.5109   50.1381   10.7073 C   0  0  0  0  0  0
   19.8785   49.2413   11.5632 C   0  0  0  0  0  0
   20.0641   49.2536   12.9514 C   0  0  0  0  0  0
   20.9195   50.2589   13.4832 C   0  0  0  0  0  0
   21.0383   50.4179   14.8363 O   0  0  0  0  0  0
   19.3175   48.1277   13.7532 C   0  0  0  0  0  0
   19.4793   48.1624   15.2953 C   0  0  0  0  0  0
   19.8472   46.7571   13.2789 C   0  0  0  0  0  0
   17.7908   48.1256   13.4701 C   0  0  0  0  0  0
   20.3296   50.1541    9.2388 C   0  0  0  0  0  0
   19.9073   49.1658    8.4246 C   0  0  0  0  0  0
   19.4282   47.7916    8.7695 C   0  0  0  0  0  0
   19.2296   47.2232    7.4001 C   0  0  0  0  0  0
   19.2234   48.2603    6.4699 O   0  0  0  0  0  0
   19.7787   49.3319    6.9745 C   0  0  0  0  0  0
   20.1228   50.2729    6.2825 O   0  0  0  0  0  0
   24.2456   53.5790   12.4709 H   0  0  0  0  0  0
   22.9249   53.4726   11.4000 H   0  0  0  0  0  0
   24.0364   52.1390   11.4810 H   0  0  0  0  0  0
   23.2266   51.4715   14.9997 H   0  0  0  0  0  0
   23.9511   50.6992   13.5762 H   0  0  0  0  0  0
   24.5209   52.2727   14.2008 H   0  0  0  0  0  0
   21.4518   53.0236   14.8874 H   0  0  0  0  0  0
   22.5271   54.2053   14.1969 H   0  0  0  0  0  0
   21.0204   53.8083   13.3996 H   0  0  0  0  0  0
   21.8691   51.7500   10.5998 H   0  0  0  0  0  0
   19.2082   48.5121   11.1532 H   0  0  0  0  0  0
   21.5353   51.2123   15.0419 H   0  0  0  0  0  0
   19.0621   49.0730   15.7256 H   0  0  0  0  0  0
   18.9584   47.3318   15.7736 H   0  0  0  0  0  0
   20.5218   48.0822   15.6021 H   0  0  0  0  0  0
   19.7024   46.6035   12.2099 H   0  0  0  0  0  0
   20.9162   46.6737   13.4687 H   0  0  0  0  0  0
   19.3231   45.9391   13.7794 H   0  0  0  0  0  0
   17.5546   47.8838   12.4356 H   0  0  0  0  0  0
   17.2721   47.3782   14.0723 H   0  0  0  0  0  0
   17.3184   49.0715   13.6978 H   0  0  0  0  0  0
   20.5323   51.1024    8.7676 H   0  0  0  0  0  0
   20.1230   47.1973    9.3577 H   0  0  0  0  0  0
   18.4810   47.7959    9.2949 H   0  0  0  0  0  0
   20.1231   46.6747    7.1358 H   0  0  0  0  0  0
   18.3047   46.6555    7.3368 H   0  0  0  0  0  0
  1  2  1  0  0  0
  1 23  1  0  0  0
  1 24  1  0  0  0
  1 25  1  0  0  0
  2  3  1  0  0  0
  2  4  1  0  0  0
  2  5  1  0  0  0
  3 26  1  0  0  0
  3 27  1  0  0  0
  3 28  1  0  0  0
  4 29  1  0  0  0
  4 30  1  0  0  0
  4 31  1  0  0  0
  5 10  1  0  0  0
  5  6  2  0  0  0
  6  7  1  0  0  0
  6 32  1  0  0  0
  7  8  2  0  0  0
  7 16  1  0  0  0
  8  9  1  0  0  0
  8 33  1  0  0  0
  9 10  2  0  0  0
  9 12  1  0  0  0
 10 11  1  0  0  0
 11 34  1  0  0  0
 12 13  1  0  0  0
 12 14  1  0  0  0
 12 15  1  0  0  0
 13 35  1  0  0  0
 13 36  1  0  0  0
 13 37  1  0  0  0
 14 38  1  0  0  0
 14 39  1  0  0  0
 14 40  1  0  0  0
 15 41  1  0  0  0
 15 42  1  0  0  0
 15 43  1  0  0  0
 16 17  2  0  0  0
 16 44  1  0  0  0
 17 21  1  0  0  0
 17 18  1  0  0  0
 18 19  1  0  0  0
 18 45  1  0  0  0
 18 46  1  0  0  0
 19 20  1  0  0  0
 19 47  1  0  0  0
 19 48  1  0  0  0
 20 21  1  0  0  0
 21 22  2  0  0  0
M  END
> <s_m_entry_id>
6149

> <s_m_entry_name>
ligand_docking-pose.248

> <s_m_Source_Path>
/home/csk/Desktop/cluster/DUD-E-result/pgh1

> <s_m_Source_File>
ligand_docking-pose.sdf

> <i_m_Source_File_Index>
248

> <i_lp_mmshare_version>
53161

> <i_f3d_flags>
0

> <r_lp_tautomer_probability>
1

> <s_lp_Force_Field>
OPLS_2005

> <r_lp_Energy>
33.400147

> <b_lp_Chiralities_Consistent>
1

> <s_lp_Variant>
4194-1

> <s_i_glide_gridfile>
glide-grid_2oyu

> <i_i_glide_lignum>
443

> <i_i_glide_rotatable_bonds>
4

> <r_i_docking_score>
-7.07663422253021

> <r_i_glide_ligand_efficiency>
-0.321665191933191

> <r_i_glide_ligand_efficiency_sa>
-0.901318518170945

> <r_i_glide_ligand_efficiency_ln>
-1.72978753049141

> <r_i_glide_gscore>
-7.07663422253021

> <r_i_glide_lipo>
-3.988568255414

> <r_i_glide_hbond>
-0.159254446104045

> <r_i_glide_metal>
0

> <r_i_glide_rewards>
-2.29313560501996

> <r_i_glide_evdw>
-22.9121360778809

> <r_i_glide_ecoul>
2.05734586715698

> <r_i_glide_erotb>
0.201329007828285

> <r_i_glide_esite>
0

> <r_i_glide_emodel>
-21.9774361558065

> <r_i_glide_energy>
-20.8547902107239

> <r_i_glide_einternal>
10.0737781524658

> <i_i_glide_confnum>
2

> <i_i_glide_posenum>
27

> <r_i_glide_eff_state_penalty>
0

> <s_user_duplicate_titles>
4194

> <s_m_subgroup_title>
dock_pv

> <s_m_subgroupid>
dock_pv1

> <b_m_subgroup_collapsed>
0

$$$$
40755
                    3D
 Schrodinger Suite 2021-1.
 38 39  0  0  1  0            999 V2000
   25.5884   54.6708   13.3274 C   0  0  0  0  0  0
   24.4740   53.7388   12.9521 C   0  0  0  0  0  0
   23.1829   53.9478   13.4225 C   0  0  0  0  0  0
   22.1838   53.0288   13.1378 C   0  0  0  0  0  0
   22.4527   51.9001   12.3504 C   0  0  0  0  0  0
   23.7289   51.7701   11.7766 C   0  0  0  0  0  0
   24.7333   52.6730   12.1036 C   0  0  0  0  0  0
   24.1080   50.6730   10.8211 C   0  0  0  0  0  0
   21.3753   50.8801   12.1689 C   0  0  0  0  0  0
   20.9566   50.6497   11.0316 O   0  0  0  0  0  0
   20.9230   50.0756   13.3713 C   0  0  0  0  0  0
   21.3230   50.5034   14.6509 C   0  0  0  0  0  0
   20.8941   49.8730   15.7999 C   0  0  0  0  0  0
   20.0751   48.7639   15.7015 C   0  0  0  0  0  0
   19.6566   48.2793   14.4611 C   0  0  0  0  0  0
   20.0927   48.9268   13.2848 C   0  0  0  0  0  0
   19.6994   48.4126   12.0442 N   0  0  0  0  0  0
   18.7202   47.0596   14.4623 C   0  0  0  0  0  0
   17.3860   47.3042   15.1882 C   0  0  0  0  0  0
   17.1492   48.2669   15.9117 O   0  0  0  0  0  0
   16.5230   46.2730   15.0000 O   0  0  0  0  0  0
   25.3816   55.0730   14.3107 H   0  0  0  0  0  0
   26.5230   54.1272   13.4000 H   0  0  0  0  0  0
   25.6989   55.4730   12.6000 H   0  0  0  0  0  0
   22.9656   54.7952   14.0581 H   0  0  0  0  0  0
   21.2015   53.1904   13.5604 H   0  0  0  0  0  0
   25.7230   52.5562   11.6867 H   0  0  0  0  0  0
   24.7907   51.0730   10.0693 H   0  0  0  0  0  0
   24.5932   49.8842   11.4000 H   0  0  0  0  0  0
   23.2667   50.2730   10.2601 H   0  0  0  0  0  0
   21.9821   51.3355   14.8252 H   0  0  0  0  0  0
   21.1860   50.2730   16.7572 H   0  0  0  0  0  0
   19.7230   48.2892   16.6000 H   0  0  0  0  0  0
   19.9439   48.9609   11.2270 H   0  0  0  0  0  0
   18.9975   47.6900   11.9954 H   0  0  0  0  0  0
   18.5230   46.6784   13.4627 H   0  0  0  0  0  0
   19.2276   46.2535   14.9905 H   0  0  0  0  0  0
   15.7070   46.4451   15.4736 H   0  0  0  0  0  0
  1  2  1  0  0  0
  1 22  1  0  0  0
  1 23  1  0  0  0
  1 24  1  0  0  0
  2  7  1  0  0  0
  2  3  2  0  0  0
  3  4  1  0  0  0
  3 25  1  0  0  0
  4  5  2  0  0  0
  4 26  1  0  0  0
  5  6  1  0  0  0
  5  9  1  0  0  0
  6  7  2  0  0  0
  6  8  1  0  0  0
  7 27  1  0  0  0
  8 28  1  0  0  0
  8 29  1  0  0  0
  8 30  1  0  0  0
  9 10  2  0  0  0
  9 11  1  0  0  0
 11 16  1  0  0  0
 11 12  2  0  0  0
 12 13  1  0  0  0
 12 31  1  0  0  0
 13 14  2  0  0  0
 13 32  1  0  0  0
 14 15  1  0  0  0
 14 33  1  0  0  0
 15 16  2  0  0  0
 15 18  1  0  0  0
 16 17  1  0  0  0
 17 34  1  0  0  0
 17 35  1  0  0  0
 18 19  1  0  0  0
 18 36  1  0  0  0
 18 37  1  0  0  0
 19 20  2  0  0  0
 19 21  1  0  0  0
 21 38  1  0  0  0
M  END
> <s_m_entry_id>
6150

> <s_m_entry_name>
ligand_docking-pose.249

> <s_m_Source_Path>
/home/csk/Desktop/cluster/DUD-E-result/pgh1

> <s_m_Source_File>
ligand_docking-pose.sdf

> <i_m_Source_File_Index>
249

> <i_lp_mmshare_version>
53161

> <i_f3d_flags>
0

> <r_lp_tautomer_probability>
1

> <s_lp_Force_Field>
OPLS_2005

> <r_lp_Energy>
28.230067

> <b_lp_Chiralities_Consistent>
1

> <s_lp_Variant>
40755-1

> <s_i_glide_gridfile>
glide-grid_2oyu

> <i_i_glide_lignum>
217

> <i_i_glide_rotatable_bonds>
5

> <r_i_docking_score>
-7.07243021410468

> <r_i_glide_ligand_efficiency>
-0.336782391147842

> <r_i_glide_ligand_efficiency_sa>
-0.929157080174277

> <r_i_glide_ligand_efficiency_ln>
-1.7486440792465

> <r_i_glide_gscore>
-7.07243021410468

> <r_i_glide_lipo>
-3.38108490099152

> <r_i_glide_hbond>
0

> <r_i_glide_metal>
0

> <r_i_glide_rewards>
-2.90990087790877

> <r_i_glide_evdw>
-30.2291355133057

> <r_i_glide_ecoul>
-1.14902293682098

> <r_i_glide_erotb>
0.902365780984052

> <r_i_glide_esite>
0

> <r_i_glide_emodel>
-36.3934352005503

> <r_i_glide_energy>
-31.3781584501266

> <r_i_glide_einternal>
6.62471532821655

> <i_i_glide_confnum>
20

> <i_i_glide_posenum>
284

> <r_i_glide_eff_state_penalty>
0

> <s_user_duplicate_titles>
40755

> <s_m_subgroup_title>
dock_pv

> <s_m_subgroupid>
dock_pv1

> <b_m_subgroup_collapsed>
0

$$$$
248140
                    3D
 Schrodinger Suite 2021-1.
 40 41  0  0  1  0            999 V2000
   26.3582   52.6730   10.8380 C   0  0  0  0  0  0
   25.1144   52.6729   11.7031 C   0  0  0  0  0  0
   25.0332   53.5879   12.7439 C   0  0  0  0  0  0
   23.8315   53.7578   13.4000 C   0  0  0  0  0  0
   22.7418   52.9468   13.1127 C   0  0  0  0  0  0
   22.8220   51.9638   12.1087 C   0  0  0  0  0  0
   24.0186   51.8573   11.3863 C   0  0  0  0  0  0
   24.1230   50.7690   10.0468 Cl  0  0  0  0  0  0
   21.7230   51.1659   11.7234 N   0  0  0  0  0  0
   21.0612   50.1192   12.3859 C   0  0  0  0  0  0
   21.2040   50.0053   13.7751 C   0  0  0  0  0  0
   20.4977   49.0541   14.4992 C   0  0  0  0  0  0
   19.6670   48.1627   13.8345 C   0  0  0  0  0  0
   19.5501   48.2244   12.4491 C   0  0  0  0  0  0
   20.2437   49.1898   11.6885 C   0  0  0  0  0  0
   20.0500   49.2141   10.1738 C   0  0  0  0  0  0
   20.1230   50.2591    9.5309 O   0  0  0  0  0  0
   19.7230   48.0200    9.6260 N   0  0  0  0  0  0
   19.0730   47.5909    8.3611 C   0  0  0  0  0  0
   19.3393   48.3251    7.0197 C   0  0  0  0  0  0
   18.5230   48.2730    6.1055 O   0  0  0  0  0  0
   20.5230   48.8881    6.8902 O   0  0  0  0  0  0
   20.9942   49.2348    5.5923 C   0  0  0  0  0  0
   21.3230   53.2441   14.0297 Cl  0  0  0  0  0  0
   26.9230   53.5818   10.9982 H   0  0  0  0  0  0
   27.0459   51.8609   10.9997 H   0  0  0  0  0  0
   26.0436   52.7226    9.8000 H   0  0  0  0  0  0
   25.8649   54.2350   12.9855 H   0  0  0  0  0  0
   23.7479   54.5187   14.1651 H   0  0  0  0  0  0
   21.4983   51.2042   10.7358 H   0  0  0  0  0  0
   21.8531   50.6693   14.3213 H   0  0  0  0  0  0
   20.6006   49.0055   15.5735 H   0  0  0  0  0  0
   19.1094   47.4246   14.3922 H   0  0  0  0  0  0
   18.8796   47.5161   11.9818 H   0  0  0  0  0  0
   19.8158   47.2614   10.2842 H   0  0  0  0  0  0
   18.0009   47.4734    8.5135 H   0  0  0  0  0  0
   19.4462   46.5848    8.2000 H   0  0  0  0  0  0
   22.0666   49.0729    5.5389 H   0  0  0  0  0  0
   20.7744   50.2729    5.3578 H   0  0  0  0  0  0
   20.5729   48.5995    4.8123 H   0  0  0  0  0  0
  1  2  1  0  0  0
  1 25  1  0  0  0
  1 26  1  0  0  0
  1 27  1  0  0  0
  2  7  1  0  0  0
  2  3  2  0  0  0
  3  4  1  0  0  0
  3 28  1  0  0  0
  4  5  2  0  0  0
  4 29  1  0  0  0
  5  6  1  0  0  0
  5 24  1  0  0  0
  6  7  2  0  0  0
  6  9  1  0  0  0
  7  8  1  0  0  0
  9 10  1  0  0  0
  9 30  1  0  0  0
 10 15  1  0  0  0
 10 11  2  0  0  0
 11 12  1  0  0  0
 11 31  1  0  0  0
 12 13  2  0  0  0
 12 32  1  0  0  0
 13 14  1  0  0  0
 13 33  1  0  0  0
 14 15  2  0  0  0
 14 34  1  0  0  0
 15 16  1  0  0  0
 16 17  2  0  0  0
 16 18  1  0  0  0
 18 19  1  0  0  0
 18 35  1  0  0  0
 19 20  1  0  0  0
 19 36  1  0  0  0
 19 37  1  0  0  0
 20 21  2  0  0  0
 20 22  1  0  0  0
 22 23  1  0  0  0
 23 38  1  0  0  0
 23 39  1  0  0  0
 23 40  1  0  0  0
M  END
> <s_m_entry_id>
6151

> <s_m_entry_name>
ligand_docking-pose.250

> <s_m_Source_Path>
/home/csk/Desktop/cluster/DUD-E-result/pgh1

> <s_m_Source_File>
ligand_docking-pose.sdf

> <i_m_Source_File_Index>
250

> <i_lp_mmshare_version>
53161

> <i_f3d_flags>
0

> <r_lp_tautomer_probability>
1

> <s_lp_Force_Field>
OPLS_2005

> <r_lp_Energy>
24.735688

> <b_lp_Chiralities_Consistent>
1

> <s_lp_Variant>
248140-1

> <s_i_glide_gridfile>
glide-grid_2oyu

> <i_i_glide_lignum>
228

> <i_i_glide_rotatable_bonds>
7

> <r_i_docking_score>
-7.06660134972267

> <r_i_glide_ligand_efficiency>
-0.294441722905111

> <r_i_glide_ligand_efficiency_sa>
-0.849316895781214

> <r_i_glide_ligand_efficiency_ln>
-1.69136196819517

> <r_i_glide_gscore>
-7.06660134972267

> <r_i_glide_lipo>
-4.02915212188195

> <r_i_glide_hbond>
-0.31746447195482

> <r_i_glide_metal>
0

> <r_i_glide_rewards>
-2.03094974464327

> <r_i_glide_evdw>
-28.7563991546631

> <r_i_glide_ecoul>
-0.719805479049683

> <r_i_glide_erotb>
0.856755768347979

> <r_i_glide_esite>
0

> <r_i_glide_emodel>
-29.9302269337906

> <r_i_glide_energy>
-29.4762046337128

> <r_i_glide_einternal>
9.25764751434326

> <i_i_glide_confnum>
22

> <i_i_glide_posenum>
82

> <r_i_glide_eff_state_penalty>
0

> <s_user_duplicate_titles>
248140

> <s_m_subgroup_title>
dock_pv

> <s_m_subgroupid>
dock_pv1

> <b_m_subgroup_collapsed>
0

$$$$
173999
                    3D
 Schrodinger Suite 2021-1.
 35 37  0  0  1  0            999 V2000
   25.6649   52.4225   10.7443 C   0  0  0  0  0  0
   24.6617   52.9181   11.8004 C   0  0  1  0  0  0
   23.5981   51.9321   12.2481 C   0  0  0  0  0  0
   22.6443   52.3302   13.1894 C   0  0  0  0  0  0
   21.6451   51.4561   13.5706 C   0  0  0  0  0  0
   21.5718   50.1785   13.0080 C   0  0  0  0  0  0
   22.5020   49.8069   12.0384 C   0  0  0  0  0  0
   23.5085   50.6730   11.6629 C   0  0  0  0  0  0
   20.5230   49.2292   13.4442 C   0  0  0  0  0  0
   19.9738   48.3032   12.5535 C   0  0  0  0  0  0
   18.9230   47.4672   12.9096 C   0  0  0  0  0  0
   18.3651   47.6479   14.1746 C   0  0  0  0  0  0
   18.9029   48.5803   15.0953 C   0  0  0  0  0  0
   20.0562   49.2866   14.7571 C   0  0  0  0  0  0
   18.0113   48.6277   16.2000 C   0  0  0  0  0  0
   17.0678   47.6528   16.0181 C   0  0  0  0  0  0
   17.2753   47.0730   14.7947 N   0  0  0  0  0  0
   25.3256   53.6260   12.9874 C   0  0  0  0  0  0
   26.0419   53.0730   13.8000 O   0  0  0  0  0  0
   25.0436   54.9428   13.0001 O   0  0  0  0  0  0
   16.6614   46.3636   14.4227 H   0  0  0  0  0  0
   26.0798   51.4730   11.0000 H   0  0  0  0  0  0
   25.1380   52.2965    9.8027 H   0  0  0  0  0  0
   26.5230   53.0730   10.5757 H   0  0  0  0  0  0
   24.0565   53.6127   11.2517 H   0  0  0  0  0  0
   22.6704   53.3153   13.6336 H   0  0  0  0  0  0
   20.9231   51.7914   14.2997 H   0  0  0  0  0  0
   22.4815   48.8230   11.5973 H   0  0  0  0  0  0
   24.2158   50.3389   10.9229 H   0  0  0  0  0  0
   20.3415   48.2419   11.5399 H   0  0  0  0  0  0
   18.5230   46.7645   12.2000 H   0  0  0  0  0  0
   20.4758   49.9809   15.4687 H   0  0  0  0  0  0
   18.0462   49.3341   17.0000 H   0  0  0  0  0  0
   16.2362   47.3509   16.6390 H   0  0  0  0  0  0
   24.5231   55.2469   12.2571 H   0  0  0  0  0  0
  1  2  1  0  0  0
  1 22  1  0  0  0
  1 23  1  0  0  0
  1 24  1  0  0  0
  2  3  1  0  0  0
  2 18  1  0  0  0
  2 25  1  0  0  0
  3  8  1  0  0  0
  3  4  2  0  0  0
  4  5  1  0  0  0
  4 26  1  0  0  0
  5  6  2  0  0  0
  5 27  1  0  0  0
  6  7  1  0  0  0
  6  9  1  0  0  0
  7  8  2  0  0  0
  7 28  1  0  0  0
  8 29  1  0  0  0
  9 14  1  0  0  0
  9 10  2  0  0  0
 10 11  1  0  0  0
 10 30  1  0  0  0
 11 12  2  0  0  0
 11 31  1  0  0  0
 12 17  1  0  0  0
 12 13  1  0  0  0
 13 14  2  0  0  0
 13 15  1  0  0  0
 14 32  1  0  0  0
 15 16  2  0  0  0
 15 33  1  0  0  0
 16 17  1  0  0  0
 16 34  1  0  0  0
 17 21  1  0  0  0
 18 19  2  0  0  0
 18 20  1  0  0  0
 20 35  1  0  0  0
M  END
> <s_m_entry_id>
6154

> <s_m_entry_name>
ligand_docking-pose.253

> <s_m_Source_Path>
/home/csk/Desktop/cluster/DUD-E-result/pgh1

> <s_m_Source_File>
ligand_docking-pose.sdf

> <i_m_Source_File_Index>
253

> <i_lp_mmshare_version>
53161

> <i_f3d_flags>
0

> <r_lp_tautomer_probability>
1

> <s_lp_Force_Field>
OPLS_2005

> <r_lp_Energy>
14.512155

> <b_lp_Chiralities_Consistent>
1

> <s_lp_Variant>
173999-2

> <s_i_glide_gridfile>
glide-grid_2oyu

> <i_i_glide_lignum>
335

> <i_i_glide_rotatable_bonds>
4

> <r_i_docking_score>
-7.03382542380936

> <r_i_glide_ligand_efficiency>
-0.351691271190468

> <r_i_glide_ligand_efficiency_sa>
-0.954636981168785

> <r_i_glide_ligand_efficiency_ln>
-1.76033451249054

> <r_i_glide_gscore>
-7.03382542380936

> <r_i_glide_lipo>
-4.11882424248957

> <r_i_glide_hbond>
-0.000688883571040295

> <r_i_glide_metal>
0

> <r_i_glide_rewards>
-2.82470146435827

> <r_i_glide_evdw>
-12.3225898742676

> <r_i_glide_ecoul>
-1.54568612575531

> <r_i_glide_erotb>
0.758371579186193

> <r_i_glide_esite>
0

> <r_i_glide_emodel>
-15.1361620289942

> <r_i_glide_energy>
-13.8682760000229

> <r_i_glide_einternal>
3.15429377555847

> <i_i_glide_confnum>
13

> <i_i_glide_posenum>
214

> <r_i_glide_eff_state_penalty>
0

> <s_user_duplicate_titles>
173999

> <s_m_subgroup_title>
dock_pv

> <s_m_subgroupid>
dock_pv1

> <b_m_subgroup_collapsed>
0

$$$$
431307
                    3D
 Schrodinger Suite 2021-1.
 44 45  0  0  1  0            999 V2000
   18.2582   49.3398    5.4001 C   0  0  0  0  0  0
   20.0410   49.1383    5.8288 S   0  0  0  0  0  0
   20.8683   50.2720    5.4300 O   0  0  0  0  0  0
   20.3713   47.8409    5.2793 O   0  0  0  0  0  0
   19.9830   49.0476    7.6126 C   0  0  0  0  0  0
   20.1230   50.1891    8.4084 C   0  0  0  0  0  0
   20.1240   50.0932    9.8001 C   0  0  0  0  0  0
   19.9368   48.8477   10.4023 C   0  0  0  0  0  0
   19.7230   47.7230    9.5957 C   0  0  0  0  0  0
   19.7230   47.8235    8.2126 C   0  0  0  0  0  0
   19.9176   48.6355   11.8607 C   0  0  0  0  0  0
   20.5681   49.2585   12.8862 C   0  0  0  0  0  0
   21.5527   50.3730   12.7367 C   0  0  0  0  0  0
   21.4235   51.5500   13.4892 C   0  0  0  0  0  0
   22.4462   52.4905   13.5219 C   0  0  0  0  0  0
   23.6050   52.2717   12.7878 C   0  0  0  0  0  0
   23.7181   51.1522   11.9642 C   0  0  0  0  0  0
   22.6930   50.2067   11.9436 C   0  0  0  0  0  0
   25.0654   53.4733   12.9998 Br  0  0  0  0  0  0
   20.3538   48.7343   14.2627 C   0  0  0  0  0  0
   20.6882   49.3517   15.2784 O   0  0  0  0  0  0
   19.8293   47.4697   14.3098 O   0  0  0  0  0  0
   19.4850   46.8144   15.5293 C   0  0  0  0  0  0
   18.5013   47.6420   16.3900 C   0  0  0  0  0  0
   17.6298   48.4573   15.6042 O   0  0  0  0  0  0
   16.9229   47.7014   14.6378 N   0  3  0  0  0  0
   16.8220   48.2728   13.5798 O   0  5  0  0  0  0
   16.5280   46.6135   14.9974 O   0  0  0  0  0  0
   18.1849   49.2717    4.3185 H   0  0  0  0  0  0
   17.7230   48.4943    5.8150 H   0  0  0  0  0  0
   17.8816   50.2728    5.8014 H   0  0  0  0  0  0
   20.2456   51.1546    7.9381 H   0  0  0  0  0  0
   20.2508   50.9863   10.3948 H   0  0  0  0  0  0
   19.6009   46.7399   10.0300 H   0  0  0  0  0  0
   19.5722   46.9479    7.6072 H   0  0  0  0  0  0
   19.2249   47.8408   12.1052 H   0  0  0  0  0  0
   20.5657   51.7056   14.1254 H   0  0  0  0  0  0
   22.3659   53.3592   14.1601 H   0  0  0  0  0  0
   24.6190   50.9864   11.3913 H   0  0  0  0  0  0
   22.8157   49.3036   11.3675 H   0  0  0  0  0  0
   20.3564   46.4967   16.1014 H   0  0  0  0  0  0
   18.9975   45.8767   15.2615 H   0  0  0  0  0  0
   19.1163   48.2737   16.9983 H   0  0  0  0  0  0
   17.9382   47.0747   17.1178 H   0  0  0  0  0  0
  1  2  1  0  0  0
  1 29  1  0  0  0
  1 30  1  0  0  0
  1 31  1  0  0  0
  2  3  2  0  0  0
  2  4  2  0  0  0
  2  5  1  0  0  0
  5 10  1  0  0  0
  5  6  2  0  0  0
  6  7  1  0  0  0
  6 32  1  0  0  0
  7  8  2  0  0  0
  7 33  1  0  0  0
  8  9  1  0  0  0
  8 11  1  0  0  0
  9 10  2  0  0  0
  9 34  1  0  0  0
 10 35  1  0  0  0
 11 12  2  0  0  0
 11 36  1  0  0  0
 12 13  1  0  0  0
 12 20  1  0  0  0
 13 18  1  0  0  0
 13 14  2  0  0  0
 14 15  1  0  0  0
 14 37  1  0  0  0
 15 16  2  0  0  0
 15 38  1  0  0  0
 16 17  1  0  0  0
 16 19  1  0  0  0
 17 18  2  0  0  0
 17 39  1  0  0  0
 18 40  1  0  0  0
 20 21  2  0  0  0
 20 22  1  0  0  0
 22 23  1  0  0  0
 23 24  1  0  0  0
 23 41  1  0  0  0
 23 42  1  0  0  0
 24 25  1  0  0  0
 24 43  1  0  0  0
 24 44  1  0  0  0
 25 26  1  0  0  0
 26 27  1  0  0  0
 26 28  2  0  0  0
M  CHG  2  26   1  27  -1
M  END
> <s_m_entry_id>
6155

> <s_m_entry_name>
ligand_docking-pose.254

> <s_m_Source_Path>
/home/csk/Desktop/cluster/DUD-E-result/pgh1

> <s_m_Source_File>
ligand_docking-pose.sdf

> <i_m_Source_File_Index>
254

> <i_lp_mmshare_version>
53161

> <i_f3d_flags>
0

> <r_lp_tautomer_probability>
1

> <s_lp_Force_Field>
OPLS_2005

> <r_lp_Energy>
18.57825

> <b_lp_Chiralities_Consistent>
1

> <s_lp_Variant>
431307-1

> <s_i_glide_gridfile>
glide-grid_2oyu

> <i_i_glide_lignum>
658

> <i_i_glide_rotatable_bonds>
9

> <r_i_docking_score>
-7.0301455869361

> <r_i_glide_ligand_efficiency>
-0.251076628104861

> <r_i_glide_ligand_efficiency_sa>
-0.762416519152105

> <r_i_glide_ligand_efficiency_ln>
-1.62276401550854

> <r_i_glide_gscore>
-7.0301455869361

> <r_i_glide_lipo>
-4.29454477585741

> <r_i_glide_hbond>
0

> <r_i_glide_metal>
0

> <r_i_glide_rewards>
-1.58454358770108

> <r_i_glide_evdw>
-23.6289882659912

> <r_i_glide_ecoul>
-3.87937140464783

> <r_i_glide_erotb>
0.639438848580663

> <r_i_glide_esite>
-0.0271409479615361

> <r_i_glide_emodel>
-26.5512759771176

> <r_i_glide_energy>
-27.508359670639

> <r_i_glide_einternal>
9.28426456451416

> <i_i_glide_confnum>
15

> <i_i_glide_posenum>
388

> <r_i_glide_eff_state_penalty>
0

> <s_user_duplicate_titles>
431307

> <s_m_subgroup_title>
dock_pv

> <s_m_subgroupid>
dock_pv1

> <b_m_subgroup_collapsed>
0

$$$$
431733
                    3D
 Schrodinger Suite 2021-1.
 33 34  0  0  1  0            999 V2000
   22.0414   54.4921   14.5999 C   0  0  0  0  0  0
   21.3230   53.5880   15.3659 C   0  0  0  0  0  0
   21.1820   52.2713   14.9436 C   0  0  0  0  0  0
   21.8323   51.8023   13.8002 C   0  0  0  0  0  0
   22.6663   52.6895   13.0921 C   0  0  0  0  0  0
   22.7277   54.0364   13.4886 C   0  0  0  0  0  0
   23.4574   52.2425   11.8577 C   0  0  0  0  0  0
   24.9232   52.6730   11.8585 C   0  0  0  0  0  0
   25.4788   53.2833   12.7699 O   0  0  0  0  0  0
   25.5370   52.2730   10.7144 O   0  0  0  0  0  0
   21.6585   50.4844   13.3368 N   0  0  0  0  0  0
   20.6274   49.5487   13.5483 C   0  0  0  0  0  0
   19.9326   49.0354   12.4306 C   0  0  0  0  0  0
   18.9233   48.0831   12.6341 C   0  0  0  0  0  0
   18.5973   47.6458   13.9137 C   0  0  0  0  0  0
   19.3230   48.1006   15.0042 C   0  0  0  0  0  0
   20.3536   49.0184   14.8235 C   0  0  0  0  0  0
   21.3204   49.3864   16.2000 Cl  0  0  0  0  0  0
   20.2612   49.4815   10.9955 C   0  0  0  0  0  0
   21.5770   49.4897   10.7754 F   0  0  0  0  0  0
   19.7230   48.6726   10.0820 F   0  0  0  0  0  0
   19.7896   50.7116   10.7983 F   0  0  0  0  0  0
   22.1449   55.5164   14.9247 H   0  0  0  0  0  0
   20.8706   53.9273   16.2832 H   0  0  0  0  0  0
   20.5232   51.6486   15.5174 H   0  0  0  0  0  0
   23.3694   54.7479   13.0001 H   0  0  0  0  0  0
   23.4505   51.1621   11.7265 H   0  0  0  0  0  0
   22.9662   52.6726   10.9895 H   0  0  0  0  0  0
   24.9954   51.6990   10.1706 H   0  0  0  0  0  0
   22.1405   50.3289   12.4642 H   0  0  0  0  0  0
   18.3671   47.6797   11.8004 H   0  0  0  0  0  0
   17.7985   46.9361   14.0634 H   0  0  0  0  0  0
   19.1006   47.7207   15.9910 H   0  0  0  0  0  0
  1  6  1  0  0  0
  1  2  2  0  0  0
  1 23  1  0  0  0
  2  3  1  0  0  0
  2 24  1  0  0  0
  3  4  2  0  0  0
  3 25  1  0  0  0
  4  5  1  0  0  0
  4 11  1  0  0  0
  5  6  2  0  0  0
  5  7  1  0  0  0
  6 26  1  0  0  0
  7  8  1  0  0  0
  7 27  1  0  0  0
  7 28  1  0  0  0
  8  9  2  0  0  0
  8 10  1  0  0  0
 10 29  1  0  0  0
 11 12  1  0  0  0
 11 30  1  0  0  0
 12 17  1  0  0  0
 12 13  2  0  0  0
 13 14  1  0  0  0
 13 19  1  0  0  0
 14 15  2  0  0  0
 14 31  1  0  0  0
 15 16  1  0  0  0
 15 32  1  0  0  0
 16 17  2  0  0  0
 16 33  1  0  0  0
 17 18  1  0  0  0
 19 20  1  0  0  0
 19 21  1  0  0  0
 19 22  1  0  0  0
M  END
> <s_m_entry_id>
6157

> <s_m_entry_name>
ligand_docking-pose.256

> <s_m_Source_Path>
/home/csk/Desktop/cluster/DUD-E-result/pgh1

> <s_m_Source_File>
ligand_docking-pose.sdf

> <i_m_Source_File_Index>
256

> <i_lp_mmshare_version>
53161

> <i_f3d_flags>
0

> <r_lp_tautomer_probability>
1

> <s_lp_Force_Field>
OPLS_2005

> <r_lp_Energy>
21.98605

> <b_lp_Chiralities_Consistent>
1

> <s_lp_Variant>
431733-1

> <s_i_glide_gridfile>
glide-grid_2oyu

> <i_i_glide_lignum>
104

> <i_i_glide_rotatable_bonds>
6

> <r_i_docking_score>
-7.01283872754069

> <r_i_glide_ligand_efficiency>
-0.318765396706395

> <r_i_glide_ligand_efficiency_sa>
-0.893193177902987

> <r_i_glide_ligand_efficiency_ln>
-1.71419358451875

> <r_i_glide_gscore>
-7.01283872754069

> <r_i_glide_lipo>
-3.24322615339895

> <r_i_glide_hbond>
0

> <r_i_glide_metal>
0

> <r_i_glide_rewards>
-3.41183133144003

> <r_i_glide_evdw>
-16.4078159332275

> <r_i_glide_ecoul>
-1.52749359607697

> <r_i_glide_erotb>
0.691733593371213

> <r_i_glide_esite>
0

> <r_i_glide_emodel>
-22.3175879554422

> <r_i_glide_energy>
-17.9353095293045

> <r_i_glide_einternal>
2.9885880947113

> <i_i_glide_confnum>
17

> <i_i_glide_posenum>
157

> <r_i_glide_eff_state_penalty>
0

> <s_user_duplicate_titles>
431733

> <s_m_subgroup_title>
dock_pv

> <s_m_subgroupid>
dock_pv1

> <b_m_subgroup_collapsed>
0

$$$$
182618
                    3D
 Schrodinger Suite 2021-1.
 40 41  0  0  1  0            999 V2000
   19.3484   47.0035   15.8000 C   0  0  0  0  0  0
   19.1016   48.5126   15.7131 C   0  0  0  0  0  0
   17.5765   48.7789   15.7935 C   0  0  0  0  0  0
   19.7969   49.0729   14.4651 C   0  0  0  0  0  0
   19.4349   48.5336   13.2324 C   0  0  0  0  0  0
   20.1124   48.8708   12.0710 C   0  0  0  0  0  0
   21.1266   49.8328   12.1286 C   0  0  0  0  0  0
   21.5072   50.4223   13.3456 C   0  0  0  0  0  0
   20.8405   50.0186   14.5216 C   0  0  0  0  0  0
   21.2120   50.5515   15.7313 O   0  0  0  0  0  0
   22.6815   51.4288   13.4071 C   0  0  0  0  0  0
   22.2409   52.8542   13.7997 C   0  0  0  0  0  0
   23.5866   51.4707   12.1548 C   0  0  0  0  0  0
   19.7792   48.1064   10.8590 C   0  0  0  0  0  0
   19.8185   48.5144    9.5758 C   0  0  0  0  0  0
   19.6004   47.5795    8.4985 C   0  0  0  0  0  0
   19.3500   46.3908    8.6000 O   0  0  0  0  0  0
   19.7230   48.1823    7.3191 N   0  0  0  0  0  0
   19.9960   49.4730    7.2337 C   0  0  0  0  0  0
   20.1230   50.1164    6.2004 O   0  0  0  0  0  0
   20.1230   50.1183    8.9234 S   0  0  0  0  0  0
   20.4112   46.7604   15.7999 H   0  0  0  0  0  0
   18.8615   46.4401   15.0037 H   0  0  0  0  0  0
   18.9225   46.6730   16.7367 H   0  0  0  0  0  0
   19.5583   48.9499   16.5997 H   0  0  0  0  0  0
   17.3297   49.7611   16.1999 H   0  0  0  0  0  0
   17.0876   48.6731   14.8245 H   0  0  0  0  0  0
   17.0847   48.0752   16.4665 H   0  0  0  0  0  0
   18.6488   47.7925   13.1866 H   0  0  0  0  0  0
   21.6587   50.0770   11.2235 H   0  0  0  0  0  0
   21.8109   51.2909   15.6117 H   0  0  0  0  0  0
   23.3357   51.0730   14.2000 H   0  0  0  0  0  0
   21.6098   52.8806   14.6868 H   0  0  0  0  0  0
   23.1054   53.4860   14.0060 H   0  0  0  0  0  0
   21.6899   53.3378   13.0000 H   0  0  0  0  0  0
   23.9472   50.4764   11.8865 H   0  0  0  0  0  0
   23.0668   51.8886   11.2915 H   0  0  0  0  0  0
   24.4674   52.0902   12.3293 H   0  0  0  0  0  0
   19.5288   47.0730   11.0573 H   0  0  0  0  0  0
   19.6118   47.6476    6.4745 H   0  0  0  0  0  0
  1  2  1  0  0  0
  1 22  1  0  0  0
  1 23  1  0  0  0
  1 24  1  0  0  0
  2  3  1  0  0  0
  2  4  1  0  0  0
  2 25  1  0  0  0
  3 26  1  0  0  0
  3 27  1  0  0  0
  3 28  1  0  0  0
  4  9  1  0  0  0
  4  5  2  0  0  0
  5  6  1  0  0  0
  5 29  1  0  0  0
  6  7  2  0  0  0
  6 14  1  0  0  0
  7  8  1  0  0  0
  7 30  1  0  0  0
  8  9  2  0  0  0
  8 11  1  0  0  0
  9 10  1  0  0  0
 10 31  1  0  0  0
 11 12  1  0  0  0
 11 13  1  0  0  0
 11 32  1  0  0  0
 12 33  1  0  0  0
 12 34  1  0  0  0
 12 35  1  0  0  0
 13 36  1  0  0  0
 13 37  1  0  0  0
 13 38  1  0  0  0
 14 15  2  0  0  0
 14 39  1  0  0  0
 15 21  1  0  0  0
 15 16  1  0  0  0
 16 17  2  0  0  0
 16 18  1  0  0  0
 18 19  1  0  0  0
 18 40  1  0  0  0
 19 20  2  0  0  0
 19 21  1  0  0  0
M  END
> <s_m_entry_id>
6164

> <s_m_entry_name>
ligand_docking-pose.263

> <s_m_Source_Path>
/home/csk/Desktop/cluster/DUD-E-result/pgh1

> <s_m_Source_File>
ligand_docking-pose.sdf

> <i_m_Source_File_Index>
263

> <i_lp_mmshare_version>
53161

> <i_f3d_flags>
0

> <r_lp_tautomer_probability>
1

> <s_lp_Force_Field>
OPLS_2005

> <r_lp_Energy>
15.675188

> <b_lp_Chiralities_Consistent>
1

> <s_lp_Variant>
182618-1

> <s_i_glide_gridfile>
glide-grid_2oyu

> <i_i_glide_lignum>
390

> <i_i_glide_rotatable_bonds>
4

> <r_i_docking_score>
-6.97551098679195

> <r_i_glide_ligand_efficiency>
-0.332167189847236

> <r_i_glide_ligand_efficiency_sa>
-0.916424089740092

> <r_i_glide_ligand_efficiency_ln>
-1.72468099613717

> <r_i_glide_gscore>
-6.97551098679195

> <r_i_glide_lipo>
-3.50499249264825

> <r_i_glide_hbond>
-0.136807787846923

> <r_i_glide_metal>
0

> <r_i_glide_rewards>
-2.35943872809674

> <r_i_glide_evdw>
-17.5097503662109

> <r_i_glide_ecoul>
-1.97785103321075

> <r_i_glide_erotb>
0.197893195092131

> <r_i_glide_esite>
0

> <r_i_glide_emodel>
-19.8944088494348

> <r_i_glide_energy>
-19.4876013994217

> <r_i_glide_einternal>
2.29795217514038

> <i_i_glide_confnum>
4

> <i_i_glide_posenum>
94

> <r_i_glide_eff_state_penalty>
0

> <s_user_duplicate_titles>
182618

> <s_m_subgroup_title>
dock_pv

> <s_m_subgroupid>
dock_pv1

> <b_m_subgroup_collapsed>
0

$$$$
86164
                    3D
 Schrodinger Suite 2021-1.
 30 31  0  0  1  0            999 V2000
   22.1595   54.7291   14.4337 C   0  0  0  0  0  0
   22.5208   53.3979   13.7991 C   0  0  0  0  0  0
   21.6809   52.2992   13.9603 C   0  0  0  0  0  0
   21.9187   51.1047   13.2708 C   0  0  0  0  0  0
   22.9729   51.0537   12.3560 C   0  0  0  0  0  0
   23.8311   52.1463   12.2008 C   0  0  0  0  0  0
   23.6599   53.2791   13.0001 C   0  0  0  0  0  0
   24.6007   54.2746   13.0004 O   0  0  0  0  0  0
   24.9266   52.0993   11.1564 C   0  0  0  0  0  0
   21.0665   49.9221   13.4832 C   0  0  0  0  0  0
   20.3685   49.6978   14.6120 C   0  0  0  0  0  0
   19.4358   48.6335   14.9021 C   0  0  0  0  0  0
   18.4814   48.6712   15.9116 C   0  0  0  0  0  0
   17.6605   47.5522   15.9439 C   0  0  0  0  0  0
   18.0227   46.6105   14.9995 C   0  0  0  0  0  0
   19.3223   47.1605   13.9888 S   0  0  0  0  0  0
   22.9233   55.0746   15.1203 H   0  0  0  0  0  0
   22.1247   55.4725   13.6404 H   0  0  0  0  0  0
   21.2062   54.7194   14.9537 H   0  0  0  0  0  0
   20.8253   52.3914   14.6118 H   0  0  0  0  0  0
   23.1367   50.1589   11.7713 H   0  0  0  0  0  0
   24.3635   54.9911   13.5956 H   0  0  0  0  0  0
   25.2236   51.0734   11.0021 H   0  0  0  0  0  0
   24.5717   52.5087   10.2100 H   0  0  0  0  0  0
   25.8203   52.6455   11.4598 H   0  0  0  0  0  0
   20.9803   49.2326   12.6551 H   0  0  0  0  0  0
   20.4841   50.3830   15.4386 H   0  0  0  0  0  0
   18.3625   49.4930   16.5999 H   0  0  0  0  0  0
   16.8528   47.4330   16.6521 H   0  0  0  0  0  0
   17.5679   45.6454   14.8353 H   0  0  0  0  0  0
  1  2  1  0  0  0
  1 17  1  0  0  0
  1 18  1  0  0  0
  1 19  1  0  0  0
  2  7  1  0  0  0
  2  3  2  0  0  0
  3  4  1  0  0  0
  3 20  1  0  0  0
  4  5  2  0  0  0
  4 10  1  0  0  0
  5  6  1  0  0  0
  5 21  1  0  0  0
  6  7  2  0  0  0
  6  9  1  0  0  0
  7  8  1  0  0  0
  8 22  1  0  0  0
  9 23  1  0  0  0
  9 24  1  0  0  0
  9 25  1  0  0  0
 10 11  2  0  0  0
 10 26  1  0  0  0
 11 12  1  0  0  0
 11 27  1  0  0  0
 12 16  1  0  0  0
 12 13  2  0  0  0
 13 14  1  0  0  0
 13 28  1  0  0  0
 14 15  2  0  0  0
 14 29  1  0  0  0
 15 16  1  0  0  0
 15 30  1  0  0  0
M  END
> <s_m_entry_id>
6165

> <s_m_entry_name>
ligand_docking-pose.264

> <s_m_Source_Path>
/home/csk/Desktop/cluster/DUD-E-result/pgh1

> <s_m_Source_File>
ligand_docking-pose.sdf

> <i_m_Source_File_Index>
264

> <i_lp_mmshare_version>
53161

> <i_f3d_flags>
0

> <r_lp_tautomer_probability>
1

> <s_lp_Force_Field>
OPLS_2005

> <r_lp_Energy>
7.299736

> <b_lp_Chiralities_Consistent>
1

> <s_lp_Variant>
86164-1

> <s_i_glide_gridfile>
glide-grid_2oyu

> <i_i_glide_lignum>
259

> <i_i_glide_rotatable_bonds>
3

> <r_i_docking_score>
-6.94131332933262

> <r_i_glide_ligand_efficiency>
-0.433832083083289

> <r_i_glide_ligand_efficiency_sa>
-1.09318834618243

> <r_i_glide_ligand_efficiency_ln>
-1.83993375382079

> <r_i_glide_gscore>
-6.94131332933262

> <r_i_glide_lipo>
-3.27449069324296

> <r_i_glide_hbond>
0

> <r_i_glide_metal>
0

> <r_i_glide_rewards>
-2.73868390909091

> <r_i_glide_evdw>
-24.9152030944824

> <r_i_glide_ecoul>
-2.17608785629272

> <r_i_glide_erotb>
0.644034606169276

> <r_i_glide_esite>
0

> <r_i_glide_emodel>
-31.8059500434249

> <r_i_glide_energy>
-27.0912909507751

> <r_i_glide_einternal>
2.10180115699768

> <i_i_glide_confnum>
4

> <i_i_glide_posenum>
146

> <r_i_glide_eff_state_penalty>
0

> <s_user_duplicate_titles>
86164

> <s_m_subgroup_title>
dock_pv

> <s_m_subgroupid>
dock_pv1

> <b_m_subgroup_collapsed>
0

$$$$
97843
                    3D
 Schrodinger Suite 2021-1.
 38 42  0  0  1  0            999 V2000
   18.4727   48.0855   16.2238 C   0  0  0  0  0  0
   18.1624   47.4114   15.0597 C   0  0  0  0  0  0
   18.8282   47.7577   13.8953 C   0  0  0  0  0  0
   19.8105   48.7790   13.8893 C   0  0  0  0  0  0
   20.1236   49.4527   15.0745 C   0  0  0  0  0  0
   19.4547   49.0730   16.2000 C   0  0  0  0  0  0
   21.0703   50.6624   15.1699 C   0  0  0  0  0  0
   21.6977   51.0303   13.8486 C   0  0  0  0  0  0
   22.6238   52.0645   13.6783 C   0  0  0  0  0  0
   23.1902   52.3054   12.4225 C   0  0  0  0  0  0
   22.8010   51.5379   11.3207 C   0  0  0  0  0  0
   21.8162   50.5609   11.4806 C   0  0  0  0  0  0
   21.3213   50.3030   12.7276 C   0  0  0  0  0  0
   20.4688   49.1936   12.7333 N   0  0  0  0  0  0
   20.3828   48.6441   11.5165 C   0  0  0  0  0  0
   19.7231   47.6639   11.1531 O   0  0  0  0  0  0
   21.2386   49.5064   10.6017 C   0  0  1  0  0  0
   20.4447   49.8244    9.3630 C   0  0  0  0  0  0
   20.1230   50.9665    9.1039 O   0  0  0  0  0  0
   20.1230   48.7507    8.6041 N   0  0  0  0  0  0
   19.6484   48.7533    7.3233 C   0  0  0  0  0  0
   18.7354   47.9110    6.9616 N   0  0  0  0  0  0
   18.2324   48.2729    5.7969 C   0  0  0  0  0  0
   18.9561   49.1517    5.0615 C   0  0  0  0  0  0
   20.1236   49.8727    6.0971 S   0  0  0  0  0  0
   17.9449   47.8609   17.1392 H   0  0  0  0  0  0
   17.3980   46.6480   15.0516 H   0  0  0  0  0  0
   18.5174   47.2209   13.0160 H   0  0  0  0  0  0
   19.7216   49.7224   17.0000 H   0  0  0  0  0  0
   20.5230   51.5338   15.5285 H   0  0  0  0  0  0
   21.8274   50.4728   15.9261 H   0  0  0  0  0  0
   22.9228   52.6656   14.5245 H   0  0  0  0  0  0
   23.9399   53.0748   12.3081 H   0  0  0  0  0  0
   23.3031   51.6850   10.3759 H   0  0  0  0  0  0
   22.1263   49.0729   10.1789 H   0  0  0  0  0  0
   20.1239   47.8574    9.0760 H   0  0  0  0  0  0
   17.3284   47.7907    5.4420 H   0  0  0  0  0  0
   18.7488   49.4732    4.0602 H   0  0  0  0  0  0
  1  6  1  0  0  0
  1  2  2  0  0  0
  1 26  1  0  0  0
  2  3  1  0  0  0
  2 27  1  0  0  0
  3  4  2  0  0  0
  3 28  1  0  0  0
  4 14  1  0  0  0
  4  5  1  0  0  0
  5  6  2  0  0  0
  5  7  1  0  0  0
  6 29  1  0  0  0
  7  8  1  0  0  0
  7 30  1  0  0  0
  7 31  1  0  0  0
  8 13  2  0  0  0
  8  9  1  0  0  0
  9 10  2  0  0  0
  9 32  1  0  0  0
 10 11  1  0  0  0
 10 33  1  0  0  0
 11 12  2  0  0  0
 11 34  1  0  0  0
 12 17  1  0  0  0
 12 13  1  0  0  0
 13 14  1  0  0  0
 14 15  1  0  0  0
 15 16  2  0  0  0
 15 17  1  0  0  0
 17 18  1  0  0  0
 17 35  1  0  0  0
 18 19  2  0  0  0
 18 20  1  0  0  0
 20 21  1  0  0  0
 20 36  1  0  0  0
 21 25  1  0  0  0
 21 22  2  0  0  0
 22 23  1  0  0  0
 23 24  2  0  0  0
 23 37  1  0  0  0
 24 25  1  0  0  0
 24 38  1  0  0  0
M  END
> <s_m_entry_id>
6171

> <s_m_entry_name>
ligand_docking-pose.270

> <s_m_Source_Path>
/home/csk/Desktop/cluster/DUD-E-result/pgh1

> <s_m_Source_File>
ligand_docking-pose.sdf

> <i_m_Source_File_Index>
270

> <i_lp_mmshare_version>
53161

> <i_f3d_flags>
0

> <r_lp_tautomer_probability>
0.999000488399163

> <s_lp_Force_Field>
OPLS_2005

> <r_lp_Energy>
48.667282

> <b_lp_Chiralities_Consistent>
1

> <s_lp_Variant>
97843-1

> <s_i_glide_gridfile>
glide-grid_2oyu

> <i_i_glide_lignum>
15

> <i_i_glide_rotatable_bonds>
3

> <r_i_docking_score>
-6.91435893245238

> <r_i_glide_ligand_efficiency>
-0.276574357298095

> <r_i_glide_ligand_efficiency_sa>
-0.808708325806743

> <r_i_glide_ligand_efficiency_ln>
-1.63891027360787

> <r_i_glide_gscore>
-6.91435893245238

> <r_i_glide_lipo>
-4.54661769837851

> <r_i_glide_hbond>
-0.0811218215259184

> <r_i_glide_metal>
0

> <r_i_glide_rewards>
-2.60960671011647

> <r_i_glide_evdw>
-4.25501346588135

> <r_i_glide_ecoul>
0.418837875127792

> <r_i_glide_erotb>
0.472912289593419

> <r_i_glide_esite>
0

> <r_i_glide_emodel>
-32.3717510439409

> <r_i_glide_energy>
-3.83617559075356

> <r_i_glide_einternal>
4.72298049926758

> <i_i_glide_confnum>
1

> <i_i_glide_posenum>
71

> <r_i_glide_eff_state_penalty>
0

> <s_user_duplicate_titles>
97843

> <s_m_subgroup_title>
dock_pv

> <s_m_subgroupid>
dock_pv1

> <b_m_subgroup_collapsed>
0

$$$$
266478
                    3D
 Schrodinger Suite 2021-1.
 33 33  0  0  1  0            999 V2000
   24.5975   52.8181   13.1869 C   0  0  0  0  0  0
   23.8992   51.8534   12.2086 C   0  0  0  0  0  0
   24.5151   51.9673   10.8012 C   0  0  0  0  0  0
   22.3655   52.0931   12.1826 C   0  0  0  0  0  0
   21.5222   50.9828   12.8098 C   0  0  0  0  0  0
   21.5397   50.8220   14.1990 C   0  0  0  0  0  0
   20.8052   49.8022   14.8086 C   0  0  0  0  0  0
   20.0278   48.9279   14.0371 C   0  0  0  0  0  0
   19.9705   49.1255   12.6553 C   0  0  0  0  0  0
   20.7063   50.1343   12.0414 C   0  0  0  0  0  0
   20.5234   50.2928   10.1541 Br  0  0  0  0  0  0
   19.2644   47.7714   14.6985 C   0  0  2  0  0  0
   19.1577   46.5206   13.7965 C   0  0  0  0  0  0
   17.8952   48.2133   15.2545 C   0  0  0  0  0  0
   17.7183   48.4713   16.4407 O   0  0  0  0  0  0
   16.9236   48.2728   14.2962 O   0  0  0  0  0  0
   24.4159   53.8606   12.9195 H   0  0  0  0  0  0
   25.6780   52.6732   13.2077 H   0  0  0  0  0  0
   24.2289   52.6691   14.1997 H   0  0  0  0  0  0
   24.0991   50.8363   12.5542 H   0  0  0  0  0  0
   24.2794   52.9273   10.3391 H   0  0  0  0  0  0
   25.6009   51.8732   10.8294 H   0  0  0  0  0  0
   24.1376   51.1828   10.1432 H   0  0  0  0  0  0
   22.1232   53.0244   12.6964 H   0  0  0  0  0  0
   22.0367   52.2725   11.1631 H   0  0  0  0  0  0
   22.1366   51.4826   14.8109 H   0  0  0  0  0  0
   20.8515   49.6857   15.8820 H   0  0  0  0  0  0
   19.3624   48.4952   12.0260 H   0  0  0  0  0  0
   19.8564   47.4711   15.5647 H   0  0  0  0  0  0
   18.5230   46.6761   12.9291 H   0  0  0  0  0  0
   20.1275   46.2731   13.3784 H   0  0  0  0  0  0
   18.7819   45.6527   14.3412 H   0  0  0  0  0  0
   17.2552   48.0660   13.4229 H   0  0  0  0  0  0
  1  2  1  0  0  0
  1 17  1  0  0  0
  1 18  1  0  0  0
  1 19  1  0  0  0
  2  3  1  0  0  0
  2  4  1  0  0  0
  2 20  1  0  0  0
  3 21  1  0  0  0
  3 22  1  0  0  0
  3 23  1  0  0  0
  4  5  1  0  0  0
  4 24  1  0  0  0
  4 25  1  0  0  0
  5 10  1  0  0  0
  5  6  2  0  0  0
  6  7  1  0  0  0
  6 26  1  0  0  0
  7  8  2  0  0  0
  7 27  1  0  0  0
  8  9  1  0  0  0
  8 12  1  0  0  0
  9 10  2  0  0  0
  9 28  1  0  0  0
 10 11  1  0  0  0
 12 13  1  0  0  0
 12 14  1  0  0  0
 12 29  1  0  0  0
 13 30  1  0  0  0
 13 31  1  0  0  0
 13 32  1  0  0  0
 14 15  2  0  0  0
 14 16  1  0  0  0
 16 33  1  0  0  0
M  END
> <s_m_entry_id>
6172

> <s_m_entry_name>
ligand_docking-pose.271

> <s_m_Source_Path>
/home/csk/Desktop/cluster/DUD-E-result/pgh1

> <s_m_Source_File>
ligand_docking-pose.sdf

> <i_m_Source_File_Index>
271

> <i_lp_mmshare_version>
53161

> <i_f3d_flags>
0

> <r_lp_tautomer_probability>
1

> <s_lp_Force_Field>
OPLS_2005

> <r_lp_Energy>
10.105211

> <b_lp_Chiralities_Consistent>
1

> <s_lp_Variant>
266478-1

> <s_i_glide_gridfile>
glide-grid_2oyu

> <i_i_glide_lignum>
396

> <i_i_glide_rotatable_bonds>
5

> <r_i_docking_score>
-6.91314400126932

> <r_i_glide_ligand_efficiency>
-0.432071500079332

> <r_i_glide_ligand_efficiency_sa>
-1.08875195501299

> <r_i_glide_ligand_efficiency_ln>
-1.83246691072251

> <r_i_glide_gscore>
-6.91314400126932

> <r_i_glide_lipo>
-3.54742904372865

> <r_i_glide_hbond>
0

> <r_i_glide_metal>
0

> <r_i_glide_rewards>
-2.3936376209594

> <r_i_glide_evdw>
-32.4721183776855

> <r_i_glide_ecoul>
-0.117366544902325

> <r_i_glide_erotb>
0.669133564038359

> <r_i_glide_esite>
0

> <r_i_glide_emodel>
-41.0807614642175

> <r_i_glide_energy>
-32.5894849225879

> <r_i_glide_einternal>
7.77263593673706

> <i_i_glide_confnum>
2

> <i_i_glide_posenum>
38

> <r_i_glide_eff_state_penalty>
0

> <s_user_duplicate_titles>
266478

> <s_m_subgroup_title>
dock_pv

> <s_m_subgroupid>
dock_pv1

> <b_m_subgroup_collapsed>
0

$$$$
97421
                    3D
 Schrodinger Suite 2021-1.
 36 40  0  0  1  0            999 V2000
   17.4457   47.1132   14.8692 C   0  0  0  0  0  0
   17.2240   47.8730   15.9995 C   0  0  0  0  0  0
   18.1230   48.8647   16.3298 C   0  0  0  0  0  0
   19.3080   49.0730   15.6092 C   0  0  0  0  0  0
   19.4635   48.4185   14.3784 C   0  0  0  0  0  0
   18.5251   47.4129   14.0439 C   0  0  0  0  0  0
   20.4445   48.8841   13.4596 N   0  0  0  0  0  0
   21.0843   50.1306   13.5913 C   0  0  0  0  0  0
   21.6962   50.5394   12.4371 C   0  0  0  0  0  0
   22.3592   51.7674   12.3621 C   0  0  0  0  0  0
   22.3484   52.6054   13.4765 C   0  0  0  0  0  0
   21.7230   52.1830   14.6514 C   0  0  0  0  0  0
   21.1282   50.9209   14.7199 C   0  0  0  0  0  0
   20.5230   50.2522   16.2000 S   0  0  0  0  0  0
   21.4846   49.4532   11.4620 C   0  0  1  0  0  0
   20.7099   48.3776   12.2395 C   0  0  0  0  0  0
   20.3739   47.2798   11.8000 O   0  0  0  0  0  0
   20.7889   49.9003   10.1827 C   0  0  0  0  0  0
   20.5229   51.0730    9.9829 O   0  0  0  0  0  0
   20.5230   48.9276    9.3122 N   0  0  0  0  0  0
   20.1230   49.0651    8.0129 C   0  0  0  0  0  0
   20.1230   50.1133    7.2285 N   0  0  0  0  0  0
   19.4799   49.8730    6.1091 C   0  0  0  0  0  0
   18.9230   48.6229    5.9801 C   0  0  0  0  0  0
   19.3228   47.6989    7.4000 S   0  0  0  0  0  0
   16.7355   46.3459   14.6000 H   0  0  0  0  0  0
   16.3503   47.7149   16.6120 H   0  0  0  0  0  0
   17.8363   49.5178   17.1370 H   0  0  0  0  0  0
   18.5621   46.8588   13.1221 H   0  0  0  0  0  0
   22.8433   52.0881   11.4509 H   0  0  0  0  0  0
   22.8279   53.5730   13.4378 H   0  0  0  0  0  0
   21.7230   52.8337   15.5096 H   0  0  0  0  0  0
   22.4586   49.0730   11.1761 H   0  0  0  0  0  0
   20.5851   47.9796    9.6551 H   0  0  0  0  0  0
   19.3229   50.6726    5.4071 H   0  0  0  0  0  0
   18.2872   48.2729    5.1819 H   0  0  0  0  0  0
  1  6  1  0  0  0
  1  2  2  0  0  0
  1 26  1  0  0  0
  2  3  1  0  0  0
  2 27  1  0  0  0
  3  4  2  0  0  0
  3 28  1  0  0  0
  4 14  1  0  0  0
  4  5  1  0  0  0
  5  6  2  0  0  0
  5  7  1  0  0  0
  6 29  1  0  0  0
  7 16  1  0  0  0
  7  8  1  0  0  0
  8 13  2  0  0  0
  8  9  1  0  0  0
  9 10  2  0  0  0
  9 15  1  0  0  0
 10 11  1  0  0  0
 10 30  1  0  0  0
 11 12  2  0  0  0
 11 31  1  0  0  0
 12 13  1  0  0  0
 12 32  1  0  0  0
 13 14  1  0  0  0
 15 16  1  0  0  0
 15 18  1  0  0  0
 15 33  1  0  0  0
 16 17  2  0  0  0
 18 19  2  0  0  0
 18 20  1  0  0  0
 20 21  1  0  0  0
 20 34  1  0  0  0
 21 25  1  0  0  0
 21 22  2  0  0  0
 22 23  1  0  0  0
 23 24  2  0  0  0
 23 35  1  0  0  0
 24 25  1  0  0  0
 24 36  1  0  0  0
M  END
> <s_m_entry_id>
6173

> <s_m_entry_name>
ligand_docking-pose.272

> <s_m_Source_Path>
/home/csk/Desktop/cluster/DUD-E-result/pgh1

> <s_m_Source_File>
ligand_docking-pose.sdf

> <i_m_Source_File_Index>
272

> <i_lp_mmshare_version>
53161

> <i_f3d_flags>
0

> <r_lp_tautomer_probability>
0.999000488399163

> <s_lp_Force_Field>
OPLS_2005

> <r_lp_Energy>
44.788934

> <b_lp_Chiralities_Consistent>
1

> <s_lp_Variant>
97421-1

> <s_i_glide_gridfile>
glide-grid_2oyu

> <i_i_glide_lignum>
48

> <i_i_glide_rotatable_bonds>
3

> <r_i_docking_score>
-6.91153628502077

> <r_i_glide_ligand_efficiency>
-0.276461451400831

> <r_i_glide_ligand_efficiency_sa>
-0.808378186960747

> <r_i_glide_ligand_efficiency_ln>
-1.63824122157866

> <r_i_glide_gscore>
-6.91153628502077

> <r_i_glide_lipo>
-4.1874284885994

> <r_i_glide_hbond>
0

> <r_i_glide_metal>
0

> <r_i_glide_rewards>
-2.63313442761427

> <r_i_glide_evdw>
-11.2887945175171

> <r_i_glide_ecoul>
0.275492340326309

> <r_i_glide_erotb>
0.43214250601981

> <r_i_glide_esite>
0

> <r_i_glide_emodel>
-41.9590085655118

> <r_i_glide_energy>
-11.0133021771908

> <r_i_glide_einternal>
2.66831970214844

> <i_i_glide_confnum>
2

> <i_i_glide_posenum>
87

> <r_i_glide_eff_state_penalty>
0

> <s_user_duplicate_titles>
97421

> <s_m_subgroup_title>
dock_pv

> <s_m_subgroupid>
dock_pv1

> <b_m_subgroup_collapsed>
0

$$$$
40477
                    3D
 Schrodinger Suite 2021-1.
 36 37  0  0  1  0            999 V2000
   16.0414   43.8565   14.2000 C   0  0  0  0  0  0
   15.7266   45.4702   15.0000 S   0  0  0  0  0  0
   17.1664   46.5367   15.0586 C   0  0  0  0  0  0
   17.0429   47.7692   15.6898 C   0  0  0  0  0  0
   18.1243   48.6305   15.7552 C   0  0  0  0  0  0
   19.3065   48.3296   15.0734 C   0  0  0  0  0  0
   19.4605   47.0694   14.5133 C   0  0  0  0  0  0
   18.4241   46.1426   14.5999 C   0  0  0  0  0  0
   20.4410   49.2827   15.1007 C   0  0  0  0  0  0
   20.8698   49.5935   16.2000 O   0  0  0  0  0  0
   20.9203   50.0389   13.8889 C   0  0  0  0  0  0
   20.8373   49.4729   12.6094 C   0  0  0  0  0  0
   21.3994   50.1217   11.5134 C   0  0  0  0  0  0
   22.1235   51.2953   11.6938 C   0  0  0  0  0  0
   22.2084   51.9005   12.9528 C   0  0  0  0  0  0
   21.5049   51.3218   14.0208 C   0  0  0  0  0  0
   21.3230   52.0681   15.1908 N   0  0  0  0  0  0
   23.0219   53.1982   13.1374 C   0  0  0  0  0  0
   24.4944   53.1001   12.6991 C   0  0  0  0  0  0
   24.9035   52.3711   11.7999 O   0  0  0  0  0  0
   25.2723   53.9855   13.3847 O   0  0  0  0  0  0
   21.2023   49.4731    9.9298 Cl  0  0  0  0  0  0
   15.4248   43.0650   14.6163 H   0  0  0  0  0  0
   15.7237   43.8730   13.1620 H   0  0  0  0  0  0
   17.0829   43.5466   14.2543 H   0  0  0  0  0  0
   16.1230   48.0658   16.1629 H   0  0  0  0  0  0
   18.0049   49.5275   16.3319 H   0  0  0  0  0  0
   20.3945   46.7865   14.0521 H   0  0  0  0  0  0
   18.5625   45.1618   14.1759 H   0  0  0  0  0  0
   20.3382   48.5303   12.4419 H   0  0  0  0  0  0
   22.6033   51.7514   10.8415 H   0  0  0  0  0  0
   20.9583   51.5686   15.9921 H   0  0  0  0  0  0
   21.8516   52.9192   15.3169 H   0  0  0  0  0  0
   22.5234   53.9985   12.6001 H   0  0  0  0  0  0
   23.0163   53.5339   14.1723 H   0  0  0  0  0  0
   24.7587   54.5334   13.9826 H   0  0  0  0  0  0
  1  2  1  0  0  0
  1 23  1  0  0  0
  1 24  1  0  0  0
  1 25  1  0  0  0
  2  3  1  0  0  0
  3  8  1  0  0  0
  3  4  2  0  0  0
  4  5  1  0  0  0
  4 26  1  0  0  0
  5  6  2  0  0  0
  5 27  1  0  0  0
  6  7  1  0  0  0
  6  9  1  0  0  0
  7  8  2  0  0  0
  7 28  1  0  0  0
  8 29  1  0  0  0
  9 10  2  0  0  0
  9 11  1  0  0  0
 11 16  1  0  0  0
 11 12  2  0  0  0
 12 13  1  0  0  0
 12 30  1  0  0  0
 13 14  2  0  0  0
 13 22  1  0  0  0
 14 15  1  0  0  0
 14 31  1  0  0  0
 15 16  2  0  0  0
 15 18  1  0  0  0
 16 17  1  0  0  0
 17 32  1  0  0  0
 17 33  1  0  0  0
 18 19  1  0  0  0
 18 34  1  0  0  0
 18 35  1  0  0  0
 19 20  2  0  0  0
 19 21  1  0  0  0
 21 36  1  0  0  0
M  END
> <s_m_entry_id>
6174

> <s_m_entry_name>
ligand_docking-pose.273

> <s_m_Source_Path>
/home/csk/Desktop/cluster/DUD-E-result/pgh1

> <s_m_Source_File>
ligand_docking-pose.sdf

> <i_m_Source_File_Index>
273

> <i_lp_mmshare_version>
53161

> <i_f3d_flags>
0

> <r_lp_tautomer_probability>
1

> <s_lp_Force_Field>
OPLS_2005

> <r_lp_Energy>
24.099788

> <b_lp_Chiralities_Consistent>
1

> <s_lp_Variant>
40477-1

> <s_i_glide_gridfile>
glide-grid_2oyu

> <i_i_glide_lignum>
625

> <i_i_glide_rotatable_bonds>
6

> <r_i_docking_score>
-6.91117494479081

> <r_i_glide_ligand_efficiency>
-0.314144315672309

> <r_i_glide_ligand_efficiency_sa>
-0.880244727108675

> <r_i_glide_ligand_efficiency_ln>
-1.68934324773811

> <r_i_glide_gscore>
-6.91117494479081

> <r_i_glide_lipo>
-3.28152209393152

> <r_i_glide_hbond>
0

> <r_i_glide_metal>
0

> <r_i_glide_rewards>
-2.84137461124547

> <r_i_glide_evdw>
-20.4019870758057

> <r_i_glide_ecoul>
-2.91882467269897

> <r_i_glide_erotb>
0.669644815081304

> <r_i_glide_esite>
0

> <r_i_glide_emodel>
-17.9316536521359

> <r_i_glide_energy>
-23.3208117485046

> <r_i_glide_einternal>
14.7518873214722

> <i_i_glide_confnum>
51

> <i_i_glide_posenum>
390

> <r_i_glide_eff_state_penalty>
0

> <s_user_duplicate_titles>
40477

> <s_m_subgroup_title>
dock_pv

> <s_m_subgroupid>
dock_pv1

> <b_m_subgroup_collapsed>
0

$$$$
40577
                    3D
 Schrodinger Suite 2021-1.
 36 37  0  0  1  0            999 V2000
   20.1224   49.0716    9.3504 C   0  0  0  0  0  0
   19.5124   48.2591   10.3506 O   0  0  0  0  0  0
   19.7490   48.5487   11.6792 C   0  0  0  0  0  0
   19.3250   47.6184   12.6159 C   0  0  0  0  0  0
   19.5189   47.8264   13.9827 C   0  0  0  0  0  0
   20.2548   48.9407   14.4252 C   0  0  0  0  0  0
   20.7377   49.8738   13.4846 C   0  0  0  0  0  0
   20.3769   49.7094   12.1370 C   0  0  0  0  0  0
   21.5444   51.0860   13.8758 C   0  0  0  0  0  0
   21.3188   51.6636   14.9449 O   0  0  0  0  0  0
   22.6980   51.5230   13.0233 C   0  0  0  0  0  0
   23.1543   50.7368   11.9547 C   0  0  0  0  0  0
   24.1981   51.1642   11.1668 C   0  0  0  0  0  0
   24.9083   52.2926   11.5260 C   0  0  0  0  0  0
   24.5147   53.0718   12.6111 C   0  0  0  0  0  0
   23.3870   52.7049   13.3372 C   0  0  0  0  0  0
   26.5232   52.6729   10.6005 Br  0  0  0  0  0  0
   20.4966   49.1017   15.7953 N   0  0  0  0  0  0
   18.7789   46.9132   14.9573 C   0  0  0  0  0  0
   17.5347   47.6395   15.4610 C   0  0  0  0  0  0
   17.3186   47.8656   16.6484 O   0  0  0  0  0  0
   16.7459   48.0317   14.4234 O   0  0  0  0  0  0
   19.9117   48.6549    8.3656 H   0  0  0  0  0  0
   21.2049   49.1065    9.4694 H   0  0  0  0  0  0
   19.7453   50.0952    9.3660 H   0  0  0  0  0  0
   18.7993   46.7462   12.2640 H   0  0  0  0  0  0
   20.6368   50.4751   11.4218 H   0  0  0  0  0  0
   22.7468   49.7721   11.7023 H   0  0  0  0  0  0
   24.5228   50.5739   10.3260 H   0  0  0  0  0  0
   25.0785   53.9510   12.8878 H   0  0  0  0  0  0
   23.0792   53.3295   14.1634 H   0  0  0  0  0  0
   20.8447   50.0118   16.0694 H   0  0  0  0  0  0
   19.9183   48.5840   16.4418 H   0  0  0  0  0  0
   18.4940   45.9676   14.4916 H   0  0  0  0  0  0
   19.4026   46.6455   15.8053 H   0  0  0  0  0  0
   17.1342   47.8289   13.5714 H   0  0  0  0  0  0
  1  2  1  0  0  0
  1 23  1  0  0  0
  1 24  1  0  0  0
  1 25  1  0  0  0
  2  3  1  0  0  0
  3  8  1  0  0  0
  3  4  2  0  0  0
  4  5  1  0  0  0
  4 26  1  0  0  0
  5  6  2  0  0  0
  5 19  1  0  0  0
  6  7  1  0  0  0
  6 18  1  0  0  0
  7  8  2  0  0  0
  7  9  1  0  0  0
  8 27  1  0  0  0
  9 10  2  0  0  0
  9 11  1  0  0  0
 11 16  1  0  0  0
 11 12  2  0  0  0
 12 13  1  0  0  0
 12 28  1  0  0  0
 13 14  2  0  0  0
 13 29  1  0  0  0
 14 15  1  0  0  0
 14 17  1  0  0  0
 15 16  2  0  0  0
 15 30  1  0  0  0
 16 31  1  0  0  0
 18 32  1  0  0  0
 18 33  1  0  0  0
 19 20  1  0  0  0
 19 34  1  0  0  0
 19 35  1  0  0  0
 20 21  2  0  0  0
 20 22  1  0  0  0
 22 36  1  0  0  0
M  END
> <s_m_entry_id>
6176

> <s_m_entry_name>
ligand_docking-pose.275

> <s_m_Source_Path>
/home/csk/Desktop/cluster/DUD-E-result/pgh1

> <s_m_Source_File>
ligand_docking-pose.sdf

> <i_m_Source_File_Index>
275

> <i_lp_mmshare_version>
53161

> <i_f3d_flags>
0

> <r_lp_tautomer_probability>
1

> <s_lp_Force_Field>
OPLS_2005

> <r_lp_Energy>
27.511629

> <b_lp_Chiralities_Consistent>
1

> <s_lp_Variant>
40577-1

> <s_i_glide_gridfile>
glide-grid_2oyu

> <i_i_glide_lignum>
593

> <i_i_glide_rotatable_bonds>
6

> <r_i_docking_score>
-6.88906216956112

> <r_i_glide_ligand_efficiency>
-0.313139189525505

> <r_i_glide_ligand_efficiency_sa>
-0.877428324115962

> <r_i_glide_ligand_efficiency_ln>
-1.6839380788889

> <r_i_glide_gscore>
-6.88906216956112

> <r_i_glide_lipo>
-3.56829585757935

> <r_i_glide_hbond>
0

> <r_i_glide_metal>
0

> <r_i_glide_rewards>
-2.49367852120398

> <r_i_glide_evdw>
-22.2694320678711

> <r_i_glide_ecoul>
-1.95541965961456

> <r_i_glide_erotb>
0.579696761557952

> <r_i_glide_esite>
0

> <r_i_glide_emodel>
-27.9351608641481

> <r_i_glide_energy>
-24.2248517274857

> <r_i_glide_einternal>
6.83800983428955

> <i_i_glide_confnum>
88

> <i_i_glide_posenum>
133

> <r_i_glide_eff_state_penalty>
0

> <s_user_duplicate_titles>
40577

> <s_m_subgroup_title>
dock_pv

> <s_m_subgroupid>
dock_pv1

> <b_m_subgroup_collapsed>
0

$$$$
626054
                    3D
 Schrodinger Suite 2021-1.
 42 44  0  0  1  0            999 V2000
   23.2046   54.3231   13.8000 C   0  0  0  0  0  0
   24.1972   53.8729   12.9415 C   0  0  0  0  0  0
   24.0161   52.6779   12.2450 C   0  0  0  0  0  0
   22.9357   51.8292   12.5415 C   0  0  0  0  0  0
   22.0309   52.2622   13.5335 C   0  0  0  0  0  0
   22.1228   53.5190   14.1083 C   0  0  0  0  0  0
   22.8311   50.4357   11.8386 C   0  0  2  0  0  0
   22.3626   50.4130   10.3506 C   0  0  0  0  0  0
   20.8543   50.7212   10.2013 C   0  0  2  0  0  0
   20.1646   49.7414   10.9683 O   0  0  0  0  0  0
   20.4459   49.8224   12.3615 C   0  0  2  0  0  0
   21.9131   49.4730   12.5686 C   0  0  0  0  0  0
   19.5755   48.9534   13.2238 C   0  0  0  0  0  0
   19.7252   48.8882   14.6212 C   0  0  0  0  0  0
   18.7837   48.1883   15.3721 C   0  0  0  0  0  0
   17.6722   47.6891   14.7026 C   0  0  0  0  0  0
   17.4886   47.8730   13.3622 C   0  0  0  0  0  0
   18.5275   48.3176   12.6000 C   0  0  0  0  0  0
   16.5230   46.6730   15.4000 Cl  0  0  0  0  0  0
   20.1821   50.7456    8.8061 C   0  0  0  0  0  0
   20.1230   49.4066    7.5714 S   0  0  0  0  0  0
   19.7229   48.0479    8.4882 C   0  0  0  0  0  0
   19.3904   47.0730    9.0000 N   0  0  0  0  0  0
   24.1268   49.9260   11.8757 O   0  0  0  0  0  0
   20.6724   51.7171   10.6057 H   0  0  0  0  0  0
   20.1255   50.8250   12.6129 H   0  0  0  0  0  0
   23.3174   55.2661   14.3092 H   0  0  0  0  0  0
   25.0606   54.4922   12.7459 H   0  0  0  0  0  0
   24.7595   52.3781   11.5198 H   0  0  0  0  0  0
   21.2631   51.6457   13.9563 H   0  0  0  0  0  0
   21.4094   53.8370   14.8536 H   0  0  0  0  0  0
   22.5230   49.4417    9.8894 H   0  0  0  0  0  0
   23.0074   51.0731    9.8000 H   0  0  0  0  0  0
   22.1231   49.4957   13.6323 H   0  0  0  0  0  0
   22.0836   48.4581   12.2000 H   0  0  0  0  0  0
   20.5442   49.3763   15.1274 H   0  0  0  0  0  0
   18.8995   48.0555   16.4373 H   0  0  0  0  0  0
   16.6006   47.4852   12.8979 H   0  0  0  0  0  0
   18.4745   48.2731   11.5249 H   0  0  0  0  0  0
   19.1937   51.0730    9.0469 H   0  0  0  0  0  0
   20.5230   51.5703    8.2000 H   0  0  0  0  0  0
   24.0980   49.0195   12.1981 H   0  0  0  0  0  0
  1  6  1  0  0  0
  1  2  2  0  0  0
  1 27  1  0  0  0
  2  3  1  0  0  0
  2 28  1  0  0  0
  3  4  2  0  0  0
  3 29  1  0  0  0
  4  5  1  0  0  0
  4  7  1  0  0  0
  5  6  2  0  0  0
  5 30  1  0  0  0
  6 31  1  0  0  0
  7 12  1  0  0  0
  7  8  1  0  0  0
  7 24  1  0  0  0
  8  9  1  0  0  0
  8 32  1  0  0  0
  8 33  1  0  0  0
  9 25  1  0  0  0
  9 10  1  0  0  0
  9 20  1  0  0  0
 10 11  1  0  0  0
 11 26  1  0  0  0
 11 12  1  0  0  0
 11 13  1  0  0  0
 12 34  1  0  0  0
 12 35  1  0  0  0
 13 18  1  0  0  0
 13 14  2  0  0  0
 14 15  1  0  0  0
 14 36  1  0  0  0
 15 16  2  0  0  0
 15 37  1  0  0  0
 16 17  1  0  0  0
 16 19  1  0  0  0
 17 18  2  0  0  0
 17 38  1  0  0  0
 18 39  1  0  0  0
 20 21  1  0  0  0
 20 40  1  0  0  0
 20 41  1  0  0  0
 21 22  1  0  0  0
 22 23  3  0  0  0
 24 42  1  0  0  0
M  END
> <s_m_entry_id>
6177

> <s_m_entry_name>
ligand_docking-pose.276

> <s_m_Source_Path>
/home/csk/Desktop/cluster/DUD-E-result/pgh1

> <s_m_Source_File>
ligand_docking-pose.sdf

> <i_m_Source_File_Index>
276

> <i_lp_mmshare_version>
53161

> <i_f3d_flags>
0

> <r_lp_tautomer_probability>
1

> <s_lp_Force_Field>
OPLS_2005

> <r_lp_Energy>
22.131782

> <b_lp_Chiralities_Consistent>
1

> <s_lp_Variant>
626054-1

> <s_i_glide_gridfile>
glide-grid_2oyu

> <i_i_glide_lignum>
80

> <i_i_glide_rotatable_bonds>
5

> <r_i_docking_score>
-6.88595641740464

> <r_i_glide_ligand_efficiency>
-0.286914850725193

> <r_i_glide_ligand_efficiency_sa>
-0.827605639469724

> <r_i_glide_ligand_efficiency_ln>
-1.64812534663566

> <r_i_glide_gscore>
-6.88595641740464

> <r_i_glide_lipo>
-4.1992151228131

> <r_i_glide_hbond>
-0.276759409560027

> <r_i_glide_metal>
0

> <r_i_glide_rewards>
-2.30542895454545

> <r_i_glide_evdw>
-3.99121141433716

> <r_i_glide_ecoul>
-2.32745242118835

> <r_i_glide_erotb>
0.444125503409053

> <r_i_glide_esite>
0

> <r_i_glide_emodel>
-16.6099634993368

> <r_i_glide_energy>
-6.31866383552551

> <r_i_glide_einternal>
12.1711559295654

> <i_i_glide_confnum>
29

> <i_i_glide_posenum>
224

> <r_i_glide_eff_state_penalty>
0

> <s_user_duplicate_titles>
626054

> <s_m_subgroup_title>
dock_pv

> <s_m_subgroupid>
dock_pv1

> <b_m_subgroup_collapsed>
0

$$$$
81943
                    3D
 Schrodinger Suite 2021-1.
 32 34  0  0  1  0            999 V2000
   20.1230   48.9584   14.3898 C   0  0  0  0  0  0
   20.6133   49.3731   13.1520 C   0  0  0  0  0  0
   21.4986   50.4630   13.0669 C   0  0  0  0  0  0
   21.8241   51.1273   14.2607 C   0  0  0  0  0  0
   21.3228   50.7487   15.4662 N   0  0  0  0  0  0
   20.5230   49.6594   15.5240 C   0  0  0  0  0  0
   22.8258   52.2739   14.2564 C   0  0  0  0  0  0
   23.0347   52.9867   12.9040 C   0  0  0  0  0  0
   22.8568   52.0389   11.7339 C   0  0  0  0  0  0
   22.1229   50.9107   11.7933 C   0  0  0  0  0  0
   21.8827   50.0894   10.5388 C   0  0  0  0  0  0
   20.4688   50.2509    9.9305 C   0  0  0  0  0  0
   20.1230   49.1427    9.0553 N   0  0  0  0  0  0
   20.1230   49.1421    7.6838 C   0  0  0  0  0  0
   19.7223   47.8730    7.3195 C   0  0  0  0  0  0
   19.4712   47.1103    8.3686 N   0  0  0  0  0  0
   19.7229   47.8748    9.4007 C   0  0  0  0  0  0
   19.4556   48.1129   14.4662 H   0  0  0  0  0  0
   20.3217   48.8135   12.2792 H   0  0  0  0  0  0
   20.1627   49.3791   16.5029 H   0  0  0  0  0  0
   23.7803   51.8699   14.5908 H   0  0  0  0  0  0
   22.5230   53.0100   14.9998 H   0  0  0  0  0  0
   24.0257   53.4419   12.8780 H   0  0  0  0  0  0
   22.3191   53.8018   12.7945 H   0  0  0  0  0  0
   23.2880   52.3275   10.7860 H   0  0  0  0  0  0
   22.0896   49.0730   10.8269 H   0  0  0  0  0  0
   22.6440   50.3332    9.8004 H   0  0  0  0  0  0
   20.4074   51.1643    9.3488 H   0  0  0  0  0  0
   19.6920   50.3063   10.6930 H   0  0  0  0  0  0
   20.3851   50.0193    7.1090 H   0  0  0  0  0  0
   19.6198   47.5100    6.3092 H   0  0  0  0  0  0
   19.6248   47.5947   10.4381 H   0  0  0  0  0  0
  1  6  1  0  0  0
  1  2  2  0  0  0
  1 18  1  0  0  0
  2  3  1  0  0  0
  2 19  1  0  0  0
  3 10  1  0  0  0
  3  4  2  0  0  0
  4  5  1  0  0  0
  4  7  1  0  0  0
  5  6  2  0  0  0
  6 20  1  0  0  0
  7  8  1  0  0  0
  7 21  1  0  0  0
  7 22  1  0  0  0
  8  9  1  0  0  0
  8 23  1  0  0  0
  8 24  1  0  0  0
  9 10  2  0  0  0
  9 25  1  0  0  0
 10 11  1  0  0  0
 11 12  1  0  0  0
 11 26  1  0  0  0
 11 27  1  0  0  0
 12 13  1  0  0  0
 12 28  1  0  0  0
 12 29  1  0  0  0
 13 17  1  0  0  0
 13 14  1  0  0  0
 14 15  2  0  0  0
 14 30  1  0  0  0
 15 16  1  0  0  0
 15 31  1  0  0  0
 16 17  2  0  0  0
 17 32  1  0  0  0
M  END
> <s_m_entry_id>
6178

> <s_m_entry_name>
ligand_docking-pose.277

> <s_m_Source_Path>
/home/csk/Desktop/cluster/DUD-E-result/pgh1

> <s_m_Source_File>
ligand_docking-pose.sdf

> <i_m_Source_File_Index>
277

> <i_lp_mmshare_version>
53161

> <i_f3d_flags>
0

> <r_lp_tautomer_probability>
1

> <s_lp_Force_Field>
OPLS_2005

> <r_lp_Energy>
11.924995

> <b_lp_Chiralities_Consistent>
1

> <s_lp_Variant>
81943-1

> <s_i_glide_gridfile>
glide-grid_2oyu

> <i_i_glide_lignum>
12

> <i_i_glide_rotatable_bonds>
3

> <r_i_docking_score>
-6.87560815676212

> <r_i_glide_ligand_efficiency>
-0.404447538633066

> <r_i_glide_ligand_efficiency_sa>
-1.03994850949211

> <r_i_glide_ligand_efficiency_ln>
-1.79369305583355

> <r_i_glide_gscore>
-6.87560815676212

> <r_i_glide_lipo>
-3.49912954055717

> <r_i_glide_hbond>
0

> <r_i_glide_metal>
0

> <r_i_glide_rewards>
-2.94199826479458

> <r_i_glide_evdw>
-25.5093078613281

> <r_i_glide_ecoul>
-1.07974624633789

> <r_i_glide_erotb>
1.00294697860671

> <r_i_glide_esite>
0

> <r_i_glide_emodel>
-35.8311311013985

> <r_i_glide_energy>
-26.589054107666

> <r_i_glide_einternal>
3.39343452453613

> <i_i_glide_confnum>
9

> <i_i_glide_posenum>
233

> <r_i_glide_eff_state_penalty>
0

> <s_user_duplicate_titles>
81943

> <s_m_subgroup_title>
dock_pv

> <s_m_subgroupid>
dock_pv1

> <b_m_subgroup_collapsed>
0

$$$$
248592
                    3D
 Schrodinger Suite 2021-1.
 55 56  0  0  1  0            999 V2000
   20.4269   40.3034   16.4103 C   0  0  0  0  0  0
   21.1961   40.2465   15.0811 C   0  0  0  0  0  0
   20.3350   40.2449   13.7998 C   0  0  0  0  0  0
   19.9066   41.6188   13.2420 C   0  0  0  0  0  0
   19.0771   42.4600   14.2170 C   0  0  0  0  0  0
   18.5295   43.7667   13.6183 C   0  0  0  0  0  0
   18.0214   44.7665   14.6942 C   0  0  0  0  0  0
   18.7981   46.0767   14.9315 C   0  0  0  0  0  0
   19.1670   46.7778   13.7108 N   0  0  0  0  0  0
   19.8052   47.9615   13.6838 C   0  0  0  0  0  0
   20.1229   48.5418   14.7240 O   0  0  0  0  0  0
   20.1186   48.5356   12.3087 C   0  0  0  0  0  0
   19.5433   47.9474   11.1698 C   0  0  0  0  0  0
   19.7231   48.4774    9.9002 C   0  0  0  0  0  0
   20.4318   49.6570    9.7432 C   0  0  0  0  0  0
   21.0292   50.2548   10.8434 C   0  0  0  0  0  0
   20.9422   49.6748   12.1182 C   0  0  0  0  0  0
   21.7019   50.2132   13.1722 N   0  0  0  0  0  0
   22.3321   51.4605   13.2730 C   0  0  0  0  0  0
   23.4386   51.8056   12.4827 C   0  0  0  0  0  0
   23.9734   53.0861   12.5759 C   0  0  0  0  0  0
   23.3786   54.0414   13.4000 C   0  0  0  0  0  0
   22.2885   53.7051   14.1999 C   0  0  0  0  0  0
   21.8542   52.3756   14.2171 C   0  0  0  0  0  0
   20.9026   51.8047   15.5413 Cl  0  0  0  0  0  0
   21.7321   54.7569   15.1517 C   0  0  0  0  0  0
   24.1909   50.6741   11.4119 Cl  0  0  0  0  0  0
   21.0566   39.9740   17.2370 H   0  0  0  0  0  0
   19.5369   39.6757   16.3968 H   0  0  0  0  0  0
   20.1192   41.3178   16.6451 H   0  0  0  0  0  0
   21.8935   41.0726   15.0394 H   0  0  0  0  0  0
   21.8143   39.3511   15.0847 H   0  0  0  0  0  0
   20.9236   39.7588   13.0193 H   0  0  0  0  0  0
   19.4530   39.6223   13.9467 H   0  0  0  0  0  0
   20.7900   42.1740   12.9356 H   0  0  0  0  0  0
   19.3300   41.4735   12.3289 H   0  0  0  0  0  0
   18.2515   41.8569   14.5964 H   0  0  0  0  0  0
   19.7087   42.7049   15.0687 H   0  0  0  0  0  0
   19.3067   44.2222   13.0001 H   0  0  0  0  0  0
   17.7223   43.4860   12.9421 H   0  0  0  0  0  0
   16.9560   44.9708   14.6002 H   0  0  0  0  0  0
   18.0439   44.2731   15.6414 H   0  0  0  0  0  0
   18.1823   46.7466   15.5373 H   0  0  0  0  0  0
   19.7081   45.8744   15.4980 H   0  0  0  0  0  0
   18.8844   46.3574   12.8377 H   0  0  0  0  0  0
   18.9211   47.0730   11.2444 H   0  0  0  0  0  0
   19.2685   47.9984    9.0446 H   0  0  0  0  0  0
   20.5203   50.1035    8.7652 H   0  0  0  0  0  0
   21.5918   51.1591   10.6763 H   0  0  0  0  0  0
   21.5292   49.7429   14.0531 H   0  0  0  0  0  0
   24.8335   53.3541   11.9821 H   0  0  0  0  0  0
   23.7859   55.0435   13.4329 H   0  0  0  0  0  0
   22.5079   55.4746   15.4221 H   0  0  0  0  0  0
   20.9227   55.2972   14.6816 H   0  0  0  0  0  0
   21.3689   54.3408   16.0907 H   0  0  0  0  0  0
  1  2  1  0  0  0
  1 28  1  0  0  0
  1 29  1  0  0  0
  1 30  1  0  0  0
  2  3  1  0  0  0
  2 31  1  0  0  0
  2 32  1  0  0  0
  3  4  1  0  0  0
  3 33  1  0  0  0
  3 34  1  0  0  0
  4  5  1  0  0  0
  4 35  1  0  0  0
  4 36  1  0  0  0
  5  6  1  0  0  0
  5 37  1  0  0  0
  5 38  1  0  0  0
  6  7  1  0  0  0
  6 39  1  0  0  0
  6 40  1  0  0  0
  7  8  1  0  0  0
  7 41  1  0  0  0
  7 42  1  0  0  0
  8  9  1  0  0  0
  8 43  1  0  0  0
  8 44  1  0  0  0
  9 10  1  0  0  0
  9 45  1  0  0  0
 10 11  2  0  0  0
 10 12  1  0  0  0
 12 17  1  0  0  0
 12 13  2  0  0  0
 13 14  1  0  0  0
 13 46  1  0  0  0
 14 15  2  0  0  0
 14 47  1  0  0  0
 15 16  1  0  0  0
 15 48  1  0  0  0
 16 17  2  0  0  0
 16 49  1  0  0  0
 17 18  1  0  0  0
 18 19  1  0  0  0
 18 50  1  0  0  0
 19 24  1  0  0  0
 19 20  2  0  0  0
 20 21  1  0  0  0
 20 27  1  0  0  0
 21 22  2  0  0  0
 21 51  1  0  0  0
 22 23  1  0  0  0
 22 52  1  0  0  0
 23 24  2  0  0  0
 23 26  1  0  0  0
 24 25  1  0  0  0
 26 53  1  0  0  0
 26 54  1  0  0  0
 26 55  1  0  0  0
M  END
> <s_m_entry_id>
6179

> <s_m_entry_name>
ligand_docking-pose.278

> <s_m_Source_Path>
/home/csk/Desktop/cluster/DUD-E-result/pgh1

> <s_m_Source_File>
ligand_docking-pose.sdf

> <i_m_Source_File_Index>
278

> <i_lp_mmshare_version>
53161

> <i_f3d_flags>
0

> <r_lp_tautomer_probability>
1

> <s_lp_Force_Field>
OPLS_2005

> <r_lp_Energy>
26.512197

> <b_lp_Chiralities_Consistent>
1

> <s_lp_Variant>
248592-1

> <s_i_glide_gridfile>
glide-grid_2oyu

> <i_i_glide_lignum>
479

> <i_i_glide_rotatable_bonds>
11

> <r_i_docking_score>
-6.86345488425575

> <r_i_glide_ligand_efficiency>
-0.254202032750213

> <r_i_glide_ligand_efficiency_sa>
-0.762606097412831

> <r_i_glide_ligand_efficiency_ln>
-1.59769914415759

> <r_i_glide_gscore>
-6.86345488425575

> <r_i_glide_lipo>
-4.31292384327048

> <r_i_glide_hbond>
0

> <r_i_glide_metal>
0

> <r_i_glide_rewards>
-1.59443128877771

> <r_i_glide_evdw>
-32.031421661377

> <r_i_glide_ecoul>
-3.42665839195251

> <r_i_glide_erotb>
1.18533437241449

> <r_i_glide_esite>
-0.0258642827603349

> <r_i_glide_emodel>
-32.1896458981636

> <r_i_glide_energy>
-35.4580800533295

> <r_i_glide_einternal>
7.04430723190308

> <i_i_glide_confnum>
18

> <i_i_glide_posenum>
162

> <r_i_glide_eff_state_penalty>
0

> <s_user_duplicate_titles>
248592

> <s_m_subgroup_title>
dock_pv

> <s_m_subgroupid>
dock_pv1

> <b_m_subgroup_collapsed>
0

$$$$
96786
                    3D
 Schrodinger Suite 2021-1.
 36 40  0  0  1  0            999 V2000
   17.2780   46.8284   15.0000 C   0  0  0  0  0  0
   17.0535   47.6038   16.1292 C   0  0  0  0  0  0
   17.9830   48.5568   16.5109 C   0  0  0  0  0  0
   19.1767   48.7130   15.7880 C   0  0  0  0  0  0
   19.3245   48.0495   14.5527 C   0  0  0  0  0  0
   18.3992   47.0626   14.2073 C   0  0  0  0  0  0
   20.2949   48.5322   13.6463 N   0  0  0  0  0  0
   20.9130   49.7288   13.9410 C   0  0  0  0  0  0
   21.4328   50.3562   12.8396 C   0  0  0  0  0  0
   21.9682   51.6386   12.9844 C   0  0  0  0  0  0
   21.8960   52.2670   14.2359 C   0  0  0  0  0  0
   21.3227   51.6055   15.3364 C   0  0  0  0  0  0
   20.8524   50.3013   15.1987 C   0  0  0  0  0  0
   20.1231   49.6637   16.1963 O   0  0  0  0  0  0
   21.3102   49.3750   11.7124 C   0  0  1  0  0  0
   20.5160   48.2076   12.3505 C   0  0  0  0  0  0
   20.1230   47.2053   11.7583 O   0  0  0  0  0  0
   20.7387   49.8833   10.3690 C   0  0  0  0  0  0
   20.5231   51.0730   10.2005 O   0  0  0  0  0  0
   20.5230   48.9404    9.4311 N   0  0  0  0  0  0
   20.1230   49.0720    8.1190 C   0  0  0  0  0  0
   20.1230   50.1193    7.3353 N   0  0  0  0  0  0
   19.4980   49.8730    6.2000 C   0  0  0  0  0  0
   18.9503   48.6234    6.0466 C   0  0  0  0  0  0
   19.3236   47.7000    7.4654 S   0  0  0  0  0  0
   16.5534   46.0790   14.7174 H   0  0  0  0  0  0
   16.1698   47.4571   16.7316 H   0  0  0  0  0  0
   17.7230   49.1684   17.3626 H   0  0  0  0  0  0
   18.5231   46.4923   13.3023 H   0  0  0  0  0  0
   22.4040   52.1591   12.1440 H   0  0  0  0  0  0
   22.2687   53.2749   14.3544 H   0  0  0  0  0  0
   21.1975   52.1165   16.2732 H   0  0  0  0  0  0
   22.3212   49.0726   11.4552 H   0  0  0  0  0  0
   20.5637   47.9860    9.7620 H   0  0  0  0  0  0
   19.3231   50.6720    5.5027 H   0  0  0  0  0  0
   18.3301   48.2731    5.2359 H   0  0  0  0  0  0
  1  6  1  0  0  0
  1  2  2  0  0  0
  1 26  1  0  0  0
  2  3  1  0  0  0
  2 27  1  0  0  0
  3  4  2  0  0  0
  3 28  1  0  0  0
  4 14  1  0  0  0
  4  5  1  0  0  0
  5  6  2  0  0  0
  5  7  1  0  0  0
  6 29  1  0  0  0
  7 16  1  0  0  0
  7  8  1  0  0  0
  8 13  2  0  0  0
  8  9  1  0  0  0
  9 10  2  0  0  0
  9 15  1  0  0  0
 10 11  1  0  0  0
 10 30  1  0  0  0
 11 12  2  0  0  0
 11 31  1  0  0  0
 12 13  1  0  0  0
 12 32  1  0  0  0
 13 14  1  0  0  0
 15 16  1  0  0  0
 15 18  1  0  0  0
 15 33  1  0  0  0
 16 17  2  0  0  0
 18 19  2  0  0  0
 18 20  1  0  0  0
 20 21  1  0  0  0
 20 34  1  0  0  0
 21 25  1  0  0  0
 21 22  2  0  0  0
 22 23  1  0  0  0
 23 24  2  0  0  0
 23 35  1  0  0  0
 24 25  1  0  0  0
 24 36  1  0  0  0
M  END
> <s_m_entry_id>
6180

> <s_m_entry_name>
ligand_docking-pose.279

> <s_m_Source_Path>
/home/csk/Desktop/cluster/DUD-E-result/pgh1

> <s_m_Source_File>
ligand_docking-pose.sdf

> <i_m_Source_File_Index>
279

> <i_lp_mmshare_version>
53161

> <i_f3d_flags>
0

> <r_lp_tautomer_probability>
0.999000488399163

> <s_lp_Force_Field>
OPLS_2005

> <r_lp_Energy>
43.79753

> <b_lp_Chiralities_Consistent>
1

> <s_lp_Variant>
96786-1

> <s_i_glide_gridfile>
glide-grid_2oyu

> <i_i_glide_lignum>
42

> <i_i_glide_rotatable_bonds>
3

> <r_i_docking_score>
-6.86161163737009

> <r_i_glide_ligand_efficiency>
-0.274464465494804

> <r_i_glide_ligand_efficiency_sa>
-0.802538964754828

> <r_i_glide_ligand_efficiency_ln>
-1.62640758396449

> <r_i_glide_gscore>
-6.86161163737009

> <r_i_glide_lipo>
-3.68416305595094

> <r_i_glide_hbond>
0

> <r_i_glide_metal>
0

> <r_i_glide_rewards>
-2.80001630628195

> <r_i_glide_evdw>
-19.365758895874

> <r_i_glide_ecoul>
0.817855596542358

> <r_i_glide_erotb>
0.468177330175153

> <r_i_glide_esite>
0

> <r_i_glide_emodel>
-33.9402937495985

> <r_i_glide_energy>
-18.5479032993317

> <r_i_glide_einternal>
8.80044651031494

> <i_i_glide_confnum>
2

> <i_i_glide_posenum>
5

> <r_i_glide_eff_state_penalty>
0

> <s_user_duplicate_titles>
96786

> <s_m_subgroup_title>
dock_pv

> <s_m_subgroupid>
dock_pv1

> <b_m_subgroup_collapsed>
0

$$$$
123654
                    3D
 Schrodinger Suite 2021-1.
 33 34  0  0  1  0            999 V2000
   23.8650   50.3034   11.5987 C   0  0  0  0  0  0
   23.4928   51.5512   12.3754 C   0  0  0  0  0  0
   24.3208   52.6727   12.2790 C   0  0  0  0  0  0
   24.0226   53.8240   13.0000 C   0  0  0  0  0  0
   22.8872   53.8639   13.8000 C   0  0  0  0  0  0
   22.1215   52.7144   13.9934 C   0  0  0  0  0  0
   22.3794   51.5713   13.2367 C   0  0  0  0  0  0
   21.4762   50.4987   13.3100 N   0  0  0  0  0  0
   20.8004   49.8797   12.2499 C   0  0  0  0  0  0
   20.7878   50.4717   10.9773 C   0  0  0  0  0  0
   20.2755   49.7904    9.8807 C   0  0  0  0  0  0
   19.7230   48.5293   10.0583 C   0  0  0  0  0  0
   19.6153   47.9944   11.3378 C   0  0  0  0  0  0
   20.1614   48.6441   12.4447 C   0  0  0  0  0  0
   20.0560   47.9631   13.8175 C   0  0  0  0  0  0
   18.7599   48.2600   14.5840 C   0  0  0  0  0  0
   18.7363   48.4232   15.7999 O   0  0  0  0  0  0
   17.6521   48.2729   13.7927 O   0  0  0  0  0  0
   20.9329   52.6730   15.2499 Cl  0  0  0  0  0  0
   24.9230   50.2733   11.4009 H   0  0  0  0  0  0
   23.6379   49.4018   12.1696 H   0  0  0  0  0  0
   23.3530   50.2730   10.6387 H   0  0  0  0  0  0
   25.1956   52.6549   11.6444 H   0  0  0  0  0  0
   24.6609   54.6933   12.9309 H   0  0  0  0  0  0
   22.6808   54.7525   14.3799 H   0  0  0  0  0  0
   21.1623   50.2475   14.2354 H   0  0  0  0  0  0
   21.2221   51.4475   10.8177 H   0  0  0  0  0  0
   20.3008   50.2401    8.8988 H   0  0  0  0  0  0
   19.3129   47.9953    9.2134 H   0  0  0  0  0  0
   19.0866   47.0730   11.4743 H   0  0  0  0  0  0
   20.1242   46.8837   13.6942 H   0  0  0  0  0  0
   20.8996   48.2411   14.4478 H   0  0  0  0  0  0
   16.8689   48.4578   14.3143 H   0  0  0  0  0  0
  1  2  1  0  0  0
  1 20  1  0  0  0
  1 21  1  0  0  0
  1 22  1  0  0  0
  2  7  1  0  0  0
  2  3  2  0  0  0
  3  4  1  0  0  0
  3 23  1  0  0  0
  4  5  2  0  0  0
  4 24  1  0  0  0
  5  6  1  0  0  0
  5 25  1  0  0  0
  6  7  2  0  0  0
  6 19  1  0  0  0
  7  8  1  0  0  0
  8  9  1  0  0  0
  8 26  1  0  0  0
  9 14  1  0  0  0
  9 10  2  0  0  0
 10 11  1  0  0  0
 10 27  1  0  0  0
 11 12  2  0  0  0
 11 28  1  0  0  0
 12 13  1  0  0  0
 12 29  1  0  0  0
 13 14  2  0  0  0
 13 30  1  0  0  0
 14 15  1  0  0  0
 15 16  1  0  0  0
 15 31  1  0  0  0
 15 32  1  0  0  0
 16 17  2  0  0  0
 16 18  1  0  0  0
 18 33  1  0  0  0
M  END
> <s_m_entry_id>
6181

> <s_m_entry_name>
ligand_docking-pose.280

> <s_m_Source_Path>
/home/csk/Desktop/cluster/DUD-E-result/pgh1

> <s_m_Source_File>
ligand_docking-pose.sdf

> <i_m_Source_File_Index>
280

> <i_lp_mmshare_version>
53161

> <i_f3d_flags>
0

> <r_lp_tautomer_probability>
1

> <s_lp_Force_Field>
OPLS_2005

> <r_lp_Energy>
18.673472

> <b_lp_Chiralities_Consistent>
1

> <s_lp_Variant>
123654-1

> <s_i_glide_gridfile>
glide-grid_2oyu

> <i_i_glide_lignum>
246

> <i_i_glide_rotatable_bonds>
5

> <r_i_docking_score>
-6.86094517216485

> <r_i_glide_ligand_efficiency>
-0.36110237748236

> <r_i_glide_ligand_efficiency_sa>
-0.963566178485624

> <r_i_glide_ligand_efficiency_ln>
-1.73939696073451

> <r_i_glide_gscore>
-6.86094517216485

> <r_i_glide_lipo>
-3.60143524128227

> <r_i_glide_hbond>
0

> <r_i_glide_metal>
0

> <r_i_glide_rewards>
-2.34416787359674

> <r_i_glide_evdw>
-30.8576278686523

> <r_i_glide_ecoul>
-2.12271428108215

> <r_i_glide_erotb>
0.945946478309105

> <r_i_glide_esite>
0

> <r_i_glide_emodel>
-40.597259166665

> <r_i_glide_energy>
-32.9803421497345

> <r_i_glide_einternal>
6.04371929168701

> <i_i_glide_confnum>
6

> <i_i_glide_posenum>
82

> <r_i_glide_eff_state_penalty>
0

> <s_user_duplicate_titles>
123654

> <s_m_subgroup_title>
dock_pv

> <s_m_subgroupid>
dock_pv1

> <b_m_subgroup_collapsed>
0

$$$$
308840
                    3D
 Schrodinger Suite 2021-1.
 41 42  0  0  1  0            999 V2000
   22.2553   50.0460   11.8603 C   0  0  0  0  0  0
   20.7389   50.2013   12.0671 C   0  0  0  0  0  0
   19.8974   49.0926   11.4126 C   0  0  0  0  0  0
   19.0827   48.2513   12.0845 C   0  0  0  0  0  0
   18.7895   48.1601   13.5051 C   0  0  0  0  0  0
   19.7404   48.3317   14.5089 C   0  0  0  0  0  0
   19.3424   48.2744   15.8351 C   0  0  0  0  0  0
   18.0252   47.9478   16.1637 C   0  0  0  0  0  0
   17.1142   47.7048   15.1533 C   0  0  0  0  0  0
   17.4702   47.8730   13.8316 C   0  0  0  0  0  0
   17.5369   47.8730   17.5970 C   0  0  0  0  0  0
   19.9675   48.9578    9.9389 C   0  0  0  0  0  0
   19.7230   47.7366    9.2873 C   0  0  0  0  0  0
   19.7230   47.6525    7.9033 C   0  0  0  0  0  0
   19.9819   48.7910    7.1563 C   0  0  0  0  0  0
   20.1230   50.0167    7.7784 C   0  0  0  0  0  0
   20.1230   50.1020    9.1602 C   0  0  0  0  0  0
   20.0748   48.7709    5.4000 S   0  0  0  0  0  0
   20.5230   47.4730    4.9159 O   0  0  0  0  0  0
   20.8546   49.9365    5.0000 O   0  0  0  0  0  0
   18.2584   48.9823    5.0000 C   0  0  0  0  0  0
   22.8059   50.8102   12.4097 H   0  0  0  0  0  0
   22.6088   49.0732   12.1999 H   0  0  0  0  0  0
   22.5252   50.1422   10.8082 H   0  0  0  0  0  0
   20.4171   51.1692   11.6873 H   0  0  0  0  0  0
   20.5300   50.2983   13.1273 H   0  0  0  0  0  0
   18.5301   47.5128   11.5221 H   0  0  0  0  0  0
   20.7757   48.5300   14.2786 H   0  0  0  0  0  0
   20.0671   48.4972   16.5999 H   0  0  0  0  0  0
   16.1230   47.4071   15.3999 H   0  0  0  0  0  0
   16.7179   47.7557   13.0646 H   0  0  0  0  0  0
   16.6350   47.2692   17.7074 H   0  0  0  0  0  0
   18.2924   47.4730   18.2659 H   0  0  0  0  0  0
   17.3074   48.8819   17.9366 H   0  0  0  0  0  0
   19.5826   46.8243    9.8408 H   0  0  0  0  0  0
   19.5677   46.7071    7.4257 H   0  0  0  0  0  0
   20.2365   50.9224    7.1980 H   0  0  0  0  0  0
   20.2391   51.0731    9.6015 H   0  0  0  0  0  0
   18.1230   49.0730    3.9255 H   0  0  0  0  0  0
   17.9103   49.8730    5.5172 H   0  0  0  0  0  0
   17.6983   48.1302    5.3758 H   0  0  0  0  0  0
  1  2  1  0  0  0
  1 22  1  0  0  0
  1 23  1  0  0  0
  1 24  1  0  0  0
  2  3  1  0  0  0
  2 25  1  0  0  0
  2 26  1  0  0  0
  3  4  2  0  0  0
  3 12  1  0  0  0
  4  5  1  0  0  0
  4 27  1  0  0  0
  5 10  1  0  0  0
  5  6  2  0  0  0
  6  7  1  0  0  0
  6 28  1  0  0  0
  7  8  2  0  0  0
  7 29  1  0  0  0
  8  9  1  0  0  0
  8 11  1  0  0  0
  9 10  2  0  0  0
  9 30  1  0  0  0
 10 31  1  0  0  0
 11 32  1  0  0  0
 11 33  1  0  0  0
 11 34  1  0  0  0
 12 17  1  0  0  0
 12 13  2  0  0  0
 13 14  1  0  0  0
 13 35  1  0  0  0
 14 15  2  0  0  0
 14 36  1  0  0  0
 15 16  1  0  0  0
 15 18  1  0  0  0
 16 17  2  0  0  0
 16 37  1  0  0  0
 17 38  1  0  0  0
 18 19  2  0  0  0
 18 20  2  0  0  0
 18 21  1  0  0  0
 21 39  1  0  0  0
 21 40  1  0  0  0
 21 41  1  0  0  0
M  END
> <s_m_entry_id>
6182

> <s_m_entry_name>
ligand_docking-pose.281

> <s_m_Source_Path>
/home/csk/Desktop/cluster/DUD-E-result/pgh1

> <s_m_Source_File>
ligand_docking-pose.sdf

> <i_m_Source_File_Index>
281

> <i_lp_mmshare_version>
53161

> <i_f3d_flags>
0

> <r_lp_tautomer_probability>
1

> <s_lp_Force_Field>
OPLS_2005

> <r_lp_Energy>
16.74451

> <b_lp_Chiralities_Consistent>
1

> <s_lp_Variant>
308840-1

> <s_i_glide_gridfile>
glide-grid_2oyu

> <i_i_glide_lignum>
399

> <i_i_glide_rotatable_bonds>
4

> <r_i_docking_score>
-6.84308086252513

> <r_i_glide_ligand_efficiency>
-0.325860993453577

> <r_i_glide_ligand_efficiency_sa>
-0.899025772066277

> <r_i_glide_ligand_efficiency_ln>
-1.69193791551246

> <r_i_glide_gscore>
-6.84308086252513

> <r_i_glide_lipo>
-4.19221132006019

> <r_i_glide_hbond>
0

> <r_i_glide_metal>
0

> <r_i_glide_rewards>
-2.51874439878146

> <r_i_glide_evdw>
-6.69866323471069

> <r_i_glide_ecoul>
-2.66505098342896

> <r_i_glide_erotb>
0.611015673766491

> <r_i_glide_esite>
-0.00845000820008782

> <r_i_glide_emodel>
-14.7424672360985

> <r_i_glide_energy>
-9.36371421813965

> <r_i_glide_einternal>
17.0810565948486

> <i_i_glide_confnum>
4

> <i_i_glide_posenum>
144

> <r_i_glide_eff_state_penalty>
0

> <s_user_duplicate_titles>
308840

> <s_m_subgroup_title>
dock_pv

> <s_m_subgroupid>
dock_pv1

> <b_m_subgroup_collapsed>
0

$$$$
111744
                    3D
 Schrodinger Suite 2021-1.
 45 47  0  0  1  0            999 V2000
   21.8353   54.1686   14.7162 C   0  0  0  0  0  0
   21.5531   53.4527   13.4000 C   0  0  0  0  0  0
   22.3560   52.1689   12.9759 C   0  0  2  0  0  0
   22.4320   52.0545   11.4118 C   0  0  0  0  0  0
   22.8496   50.6700   10.8832 C   0  0  0  0  0  0
   21.7435   49.6309   11.1548 C   0  0  1  0  0  0
   21.2935   49.7818   12.5980 C   0  0  0  0  0  0
   21.5788   50.8991   13.3923 C   0  0  0  0  0  0
   21.0549   50.6730   14.6395 N   0  0  0  0  0  0
   20.3782   49.4726   14.6674 C   0  0  0  0  0  0
   20.5230   48.8714   13.3921 C   0  0  0  0  0  0
   19.9576   47.6020   13.1733 C   0  0  0  0  0  0
   19.1991   47.0158   14.1820 C   0  0  0  0  0  0
   19.0358   47.6455   15.4080 C   0  0  0  0  0  0
   19.6369   48.8728   15.6795 C   0  0  0  0  0  0
   20.5619   49.7367   10.1467 C   0  0  0  0  0  0
   19.7230   48.4865    9.9570 C   0  0  0  0  0  0
   19.7229   47.7177    8.8560 C   0  0  0  0  0  0
   23.7965   52.0875   13.5359 C   0  0  0  0  0  0
   24.8513   53.0730   13.0000 C   0  0  0  0  0  0
   25.2553   54.0552   13.6117 O   0  0  0  0  0  0
   25.3233   52.6730   11.7909 O   0  0  0  0  0  0
   22.2450   48.6736   11.0992 H   0  0  0  0  0  0
   21.1334   51.3508   15.3828 H   0  0  0  0  0  0
   21.1458   55.0008   14.8631 H   0  0  0  0  0  0
   21.7230   53.5025   15.5676 H   0  0  0  0  0  0
   22.8255   54.6230   14.6874 H   0  0  0  0  0  0
   21.7284   54.2246   12.6540 H   0  0  0  0  0  0
   20.4863   53.2335   13.4000 H   0  0  0  0  0  0
   23.0622   52.8283   10.9864 H   0  0  0  0  0  0
   21.4586   52.2367   10.9760 H   0  0  0  0  0  0
   23.7797   50.3433   11.3482 H   0  0  0  0  0  0
   23.0741   50.7054    9.8176 H   0  0  0  0  0  0
   20.0916   47.0862   12.2354 H   0  0  0  0  0  0
   18.7287   46.0583   14.0118 H   0  0  0  0  0  0
   18.4288   47.1736   16.1677 H   0  0  0  0  0  0
   19.4833   49.3877   16.6000 H   0  0  0  0  0  0
   20.9230   50.0174    9.1623 H   0  0  0  0  0  0
   19.8908   50.5477   10.4344 H   0  0  0  0  0  0
   19.0552   48.2304   10.7639 H   0  0  0  0  0  0
   20.3520   47.9407    8.0075 H   0  0  0  0  0  0
   19.0821   46.8518    8.7866 H   0  0  0  0  0  0
   23.7583   52.2146   14.6001 H   0  0  0  0  0  0
   24.1491   51.0730   13.4000 H   0  0  0  0  0  0
   24.8824   51.8842   11.4708 H   0  0  0  0  0  0
  1  2  1  0  0  0
  1 25  1  0  0  0
  1 26  1  0  0  0
  1 27  1  0  0  0
  2  3  1  0  0  0
  2 28  1  0  0  0
  2 29  1  0  0  0
  3  8  1  0  0  0
  3  4  1  0  0  0
  3 19  1  0  0  0
  4  5  1  0  0  0
  4 30  1  0  0  0
  4 31  1  0  0  0
  5  6  1  0  0  0
  5 32  1  0  0  0
  5 33  1  0  0  0
  6 23  1  0  0  0
  6  7  1  0  0  0
  6 16  1  0  0  0
  7 11  1  0  0  0
  7  8  2  0  0  0
  8  9  1  0  0  0
  9 24  1  0  0  0
  9 10  1  0  0  0
 10 15  2  0  0  0
 10 11  1  0  0  0
 11 12  2  0  0  0
 12 13  1  0  0  0
 12 34  1  0  0  0
 13 14  2  0  0  0
 13 35  1  0  0  0
 14 15  1  0  0  0
 14 36  1  0  0  0
 15 37  1  0  0  0
 16 17  1  0  0  0
 16 38  1  0  0  0
 16 39  1  0  0  0
 17 18  2  0  0  0
 17 40  1  0  0  0
 18 41  1  0  0  0
 18 42  1  0  0  0
 19 20  1  0  0  0
 19 43  1  0  0  0
 19 44  1  0  0  0
 20 21  2  0  0  0
 20 22  1  0  0  0
 22 45  1  0  0  0
M  END
> <s_m_entry_id>
6184

> <s_m_entry_name>
ligand_docking-pose.283

> <s_m_Source_Path>
/home/csk/Desktop/cluster/DUD-E-result/pgh1

> <s_m_Source_File>
ligand_docking-pose.sdf

> <i_m_Source_File_Index>
283

> <i_lp_mmshare_version>
53161

> <i_f3d_flags>
0

> <r_lp_tautomer_probability>
1

> <s_lp_Force_Field>
OPLS_2005

> <r_lp_Energy>
21.503865

> <b_lp_Chiralities_Consistent>
1

> <s_lp_Variant>
111744-1

> <s_i_glide_gridfile>
glide-grid_2oyu

> <i_i_glide_lignum>
378

> <i_i_glide_rotatable_bonds>
6

> <r_i_docking_score>
-6.83892163878939

> <r_i_glide_ligand_efficiency>
-0.310860074490427

> <r_i_glide_ligand_efficiency_sa>
-0.871042154155163

> <r_i_glide_ligand_efficiency_ln>
-1.67168190424799

> <r_i_glide_gscore>
-6.83892163878939

> <r_i_glide_lipo>
-4.07244645091365

> <r_i_glide_hbond>
0

> <r_i_glide_metal>
0

> <r_i_glide_rewards>
-2.52825512611675

> <r_i_glide_evdw>
-22.1128120422363

> <r_i_glide_ecoul>
0.254550784826279

> <r_i_glide_erotb>
0.829237922628885

> <r_i_glide_esite>
0

> <r_i_glide_emodel>
-17.2525686145685

> <r_i_glide_energy>
-21.85826125741

> <r_i_glide_einternal>
9.61115837097168

> <i_i_glide_confnum>
144

> <i_i_glide_posenum>
93

> <r_i_glide_eff_state_penalty>
0

> <s_user_duplicate_titles>
111744

> <s_m_subgroup_title>
dock_pv

> <s_m_subgroupid>
dock_pv1

> <b_m_subgroup_collapsed>
0

$$$$
100567
                    3D
 Schrodinger Suite 2021-1.
 46 48  0  0  1  0            999 V2000
   19.7231   49.2673   14.4798 C   0  0  0  0  0  0
   20.7012   49.9865   13.5615 C   0  0  0  0  0  0
   21.4629   51.1085   13.8613 C   0  0  0  0  0  0
   22.4747   51.1270   12.8975 C   0  0  0  0  0  0
   23.6749   51.8167   12.8549 C   0  0  0  0  0  0
   24.3973   51.8729   11.6793 C   0  0  0  0  0  0
   23.9703   51.1099   10.6000 C   0  0  0  0  0  0
   22.8167   50.3185   10.6428 C   0  0  0  0  0  0
   22.0610   50.3272   11.8157 C   0  0  0  0  0  0
   20.9164   49.6376   12.2202 N   0  0  0  0  0  0
   20.1180   48.6726   11.5033 C   0  0  0  0  0  0
   19.5708   47.7522   12.1145 O   0  0  0  0  0  0
   19.9531   48.7343    9.9942 C   0  0  0  0  0  0
   19.5599   47.5829    9.2980 C   0  0  0  0  0  0
   19.3997   47.5851    7.9188 C   0  0  0  0  0  0
   19.7232   48.7217    7.1933 C   0  0  0  0  0  0
   20.1230   49.8733    7.8624 C   0  0  0  0  0  0
   20.1249   49.9138    9.2602 C   0  0  0  0  0  0
   19.5889   48.7179    5.4731 Cl  0  0  0  0  0  0
   25.5111   52.6730   11.5638 O   0  0  0  0  0  0
   25.7233   53.6676   12.5843 C   0  0  0  0  0  0
   21.4193   52.0684   15.0337 C   0  0  0  0  0  0
   21.7230   53.5856   14.7683 C   0  0  0  0  0  0
   22.1474   54.0418   13.7074 O   0  0  0  0  0  0
   21.3230   54.3490   15.8040 N   0  0  0  0  0  0
   21.3229   55.7293   15.7470 O   0  0  0  0  0  0
   21.9594   56.2659   16.8907 C   0  0  0  0  0  0
   19.7255   49.6765   15.4892 H   0  0  0  0  0  0
   18.7003   49.2912   14.1062 H   0  0  0  0  0  0
   19.9927   48.2179   14.5974 H   0  0  0  0  0  0
   23.9842   52.3635   13.7294 H   0  0  0  0  0  0
   24.5503   51.1311    9.6902 H   0  0  0  0  0  0
   22.5508   49.7031    9.8002 H   0  0  0  0  0  0
   19.3566   46.6731    9.8261 H   0  0  0  0  0  0
   19.0186   46.7128    7.4196 H   0  0  0  0  0  0
   20.3013   50.7774    7.2970 H   0  0  0  0  0  0
   20.3419   50.8541    9.7462 H   0  0  0  0  0  0
   26.5052   54.3599   12.2692 H   0  0  0  0  0  0
   24.8340   54.2739   12.7660 H   0  0  0  0  0  0
   26.0504   53.2150   13.5214 H   0  0  0  0  0  0
   22.1227   51.6909   15.7616 H   0  0  0  0  0  0
   20.4533   51.9898   15.5260 H   0  0  0  0  0  0
   20.6732   54.0133   16.4973 H   0  0  0  0  0  0
   21.3231   57.0726   17.2581 H   0  0  0  0  0  0
   22.9292   56.6729   16.6030 H   0  0  0  0  0  0
   22.1107   55.5705   17.7210 H   0  0  0  0  0  0
  1  2  1  0  0  0
  1 28  1  0  0  0
  1 29  1  0  0  0
  1 30  1  0  0  0
  2 10  1  0  0  0
  2  3  2  0  0  0
  3  4  1  0  0  0
  3 22  1  0  0  0
  4  9  2  0  0  0
  4  5  1  0  0  0
  5  6  2  0  0  0
  5 31  1  0  0  0
  6  7  1  0  0  0
  6 20  1  0  0  0
  7  8  2  0  0  0
  7 32  1  0  0  0
  8  9  1  0  0  0
  8 33  1  0  0  0
  9 10  1  0  0  0
 10 11  1  0  0  0
 11 12  2  0  0  0
 11 13  1  0  0  0
 13 18  1  0  0  0
 13 14  2  0  0  0
 14 15  1  0  0  0
 14 34  1  0  0  0
 15 16  2  0  0  0
 15 35  1  0  0  0
 16 17  1  0  0  0
 16 19  1  0  0  0
 17 18  2  0  0  0
 17 36  1  0  0  0
 18 37  1  0  0  0
 20 21  1  0  0  0
 21 38  1  0  0  0
 21 39  1  0  0  0
 21 40  1  0  0  0
 22 23  1  0  0  0
 22 41  1  0  0  0
 22 42  1  0  0  0
 23 24  2  0  0  0
 23 25  1  0  0  0
 25 26  1  0  0  0
 25 43  1  0  0  0
 26 27  1  0  0  0
 27 44  1  0  0  0
 27 45  1  0  0  0
 27 46  1  0  0  0
M  END
> <s_m_entry_id>
6185

> <s_m_entry_name>
ligand_docking-pose.284

> <s_m_Source_Path>
/home/csk/Desktop/cluster/DUD-E-result/pgh1

> <s_m_Source_File>
ligand_docking-pose.sdf

> <i_m_Source_File_Index>
284

> <i_lp_mmshare_version>
53161

> <i_f3d_flags>
0

> <r_lp_tautomer_probability>
1

> <s_lp_Force_Field>
OPLS_2005

> <r_lp_Energy>
29.87813

> <b_lp_Chiralities_Consistent>
1

> <s_lp_Variant>
100567-1

> <s_i_glide_gridfile>
glide-grid_2oyu

> <i_i_glide_lignum>
171

> <i_i_glide_rotatable_bonds>
7

> <r_i_docking_score>
-6.83134602183041

> <r_i_glide_ligand_efficiency>
-0.253012815623349

> <r_i_glide_ligand_efficiency_sa>
-0.759038446036157

> <r_i_glide_ligand_efficiency_ln>
-1.59022473034094

> <r_i_glide_gscore>
-6.83134602183041

> <r_i_glide_lipo>
-4.69999954742792

> <r_i_glide_hbond>
0

> <r_i_glide_metal>
0

> <r_i_glide_rewards>
-2.21074122952601

> <r_i_glide_evdw>
-16.825174331665

> <r_i_glide_ecoul>
1.88631474971771

> <r_i_glide_erotb>
0.650491325175111

> <r_i_glide_esite>
-0.0127850659259968

> <r_i_glide_emodel>
-23.0935711628486

> <r_i_glide_energy>
-14.9388595819473

> <r_i_glide_einternal>
17.4102172851562

> <i_i_glide_confnum>
4

> <i_i_glide_posenum>
125

> <r_i_glide_eff_state_penalty>
0

> <s_user_duplicate_titles>
100567

> <s_m_subgroup_title>
dock_pv

> <s_m_subgroupid>
dock_pv1

> <b_m_subgroup_collapsed>
0

$$$$
39937
                    3D
 Schrodinger Suite 2021-1.
 32 33  0  0  1  0            999 V2000
   19.7230   48.9579   11.3918 C   0  0  0  0  0  0
   18.9232   48.1523   12.1913 C   0  0  0  0  0  0
   18.9449   48.2803   13.5762 C   0  0  0  0  0  0
   19.8892   49.1266   14.1802 C   0  0  0  0  0  0
   20.6361   50.0177   13.3801 C   0  0  0  0  0  0
   20.5000   49.9401   11.9816 C   0  0  0  0  0  0
   21.5039   51.1048   13.9698 C   0  0  0  0  0  0
   21.3230   51.5117   15.1198 O   0  0  0  0  0  0
   22.6725   51.5991   13.1901 C   0  0  0  0  0  0
   23.3420   50.6724   12.3861 C   0  0  0  0  0  0
   24.4067   51.0607   11.6064 C   0  0  0  0  0  0
   24.9230   52.3363   11.7049 C   0  0  0  0  0  0
   24.2969   53.2726   12.5292 C   0  0  0  0  0  0
   23.1279   52.9338   13.2172 C   0  0  0  0  0  0
   22.2817   54.1990   14.0486 Cl  0  0  0  0  0  0
   26.3831   52.6730   10.8506 Cl  0  0  0  0  0  0
   20.0499   49.0848   15.5710 N   0  0  0  0  0  0
   17.9086   47.5138   14.3896 C   0  0  0  0  0  0
   18.5230   46.2721   15.0000 C   0  0  0  0  0  0
   19.6258   46.2730   15.5374 O   0  0  0  0  0  0
   17.6738   45.2123   15.0000 O   0  0  0  0  0  0
   19.6617   48.8863   10.3155 H   0  0  0  0  0  0
   18.2315   47.4730   11.7204 H   0  0  0  0  0  0
   21.0064   50.6285   11.3196 H   0  0  0  0  0  0
   23.0575   49.6299   12.3450 H   0  0  0  0  0  0
   24.8965   50.3257   11.0000 H   0  0  0  0  0  0
   24.6906   54.2761   12.6000 H   0  0  0  0  0  0
   20.6781   49.7546   15.9958 H   0  0  0  0  0  0
   19.7588   48.2479   16.0584 H   0  0  0  0  0  0
   17.5378   48.1448   15.1981 H   0  0  0  0  0  0
   17.0263   47.2741   13.7992 H   0  0  0  0  0  0
   18.0529   44.4654   15.4658 H   0  0  0  0  0  0
  1  6  1  0  0  0
  1  2  2  0  0  0
  1 22  1  0  0  0
  2  3  1  0  0  0
  2 23  1  0  0  0
  3  4  2  0  0  0
  3 18  1  0  0  0
  4  5  1  0  0  0
  4 17  1  0  0  0
  5  6  2  0  0  0
  5  7  1  0  0  0
  6 24  1  0  0  0
  7  8  2  0  0  0
  7  9  1  0  0  0
  9 14  1  0  0  0
  9 10  2  0  0  0
 10 11  1  0  0  0
 10 25  1  0  0  0
 11 12  2  0  0  0
 11 26  1  0  0  0
 12 13  1  0  0  0
 12 16  1  0  0  0
 13 14  2  0  0  0
 13 27  1  0  0  0
 14 15  1  0  0  0
 17 28  1  0  0  0
 17 29  1  0  0  0
 18 19  1  0  0  0
 18 30  1  0  0  0
 18 31  1  0  0  0
 19 20  2  0  0  0
 19 21  1  0  0  0
 21 32  1  0  0  0
M  END
> <s_m_entry_id>
6186

> <s_m_entry_name>
ligand_docking-pose.285

> <s_m_Source_Path>
/home/csk/Desktop/cluster/DUD-E-result/pgh1

> <s_m_Source_File>
ligand_docking-pose.sdf

> <i_m_Source_File_Index>
285

> <i_lp_mmshare_version>
53161

> <i_f3d_flags>
0

> <r_lp_tautomer_probability>
1

> <s_lp_Force_Field>
OPLS_2005

> <r_lp_Energy>
26.989251

> <b_lp_Chiralities_Consistent>
1

> <s_lp_Variant>
39937-1

> <s_i_glide_gridfile>
glide-grid_2oyu

> <i_i_glide_lignum>
111

> <i_i_glide_rotatable_bonds>
5

> <r_i_docking_score>
-6.82235320483994

> <r_i_glide_ligand_efficiency>
-0.324873962135235

> <r_i_glide_ligand_efficiency_sa>
-0.89630262750202

> <r_i_glide_ligand_efficiency_ln>
-1.68681304403397

> <r_i_glide_gscore>
-6.82235320483994

> <r_i_glide_lipo>
-3.47961846396563

> <r_i_glide_hbond>
-0.0452327015566017

> <r_i_glide_metal>
0

> <r_i_glide_rewards>
-2.59601622225716

> <r_i_glide_evdw>
-21.2338638305664

> <r_i_glide_ecoul>
-2.35032916069031

> <r_i_glide_erotb>
0.712756748571325

> <r_i_glide_esite>
0

> <r_i_glide_emodel>
-31.2483323695249

> <r_i_glide_energy>
-23.5841929912567

> <r_i_glide_einternal>
1.73633050918579

> <i_i_glide_confnum>
7

> <i_i_glide_posenum>
8

> <r_i_glide_eff_state_penalty>
0

> <s_user_duplicate_titles>
39937

> <s_m_subgroup_title>
dock_pv

> <s_m_subgroupid>
dock_pv1

> <b_m_subgroup_collapsed>
0

$$$$
235439
                    3D
 Schrodinger Suite 2021-1.
 41 45  0  0  1  0            999 V2000
   19.1774   48.5621    6.4601 C   0  0  0  0  0  0
   19.7248   49.7775    6.8274 C   0  0  0  0  0  0
   20.1230   49.9675    8.1432 C   0  0  0  0  0  0
   20.1230   48.9162    9.0612 C   0  0  0  0  0  0
   19.5877   47.6875    8.6811 C   0  0  0  0  0  0
   19.0647   47.5430    7.4000 C   0  0  0  0  0  0
   20.4817   49.1825   10.4710 C   0  0  0  0  0  0
   19.9422   48.7221   11.6570 C   0  0  0  0  0  0
   20.5114   49.4017   12.7250 C   0  0  0  0  0  0
   21.4713   50.2814   12.2091 C   0  0  0  0  0  0
   21.4437   50.0816   10.8491 N   0  0  0  0  0  0
   22.3124   51.3836   12.7361 C   0  0  0  0  0  0
   21.7229   52.3689   13.5257 C   0  0  0  0  0  0
   22.4269   53.5321   13.8164 C   0  0  0  0  0  0
   23.7473   53.6706   13.3995 C   0  0  0  0  0  0
   24.3569   52.6730   12.6437 C   0  0  0  0  0  0
   23.6357   51.5311   12.3025 C   0  0  0  0  0  0
   19.7654   48.9160   13.9740 C   0  0  2  0  0  0
   20.1230   47.4339   14.2106 C   0  0  0  0  0  0
   19.5886   46.6899   12.9848 C   0  0  0  0  0  0
   18.8752   47.8093   12.2194 C   0  0  1  0  0  0
   18.3802   48.6730   13.3696 C   0  0  0  0  0  0
   22.0002   50.6143   10.1972 H   0  0  0  0  0  0
   18.7682   48.4443    5.4677 H   0  0  0  0  0  0
   19.7468   50.6038    6.1361 H   0  0  0  0  0  0
   20.4432   50.9547    8.4439 H   0  0  0  0  0  0
   19.4878   46.8892    9.4002 H   0  0  0  0  0  0
   18.5017   46.6730    7.1425 H   0  0  0  0  0  0
   20.6986   52.2743   13.8510 H   0  0  0  0  0  0
   21.9646   54.3148   14.4000 H   0  0  0  0  0  0
   24.2951   54.5666   13.6554 H   0  0  0  0  0  0
   25.3759   52.7938   12.3070 H   0  0  0  0  0  0
   24.0980   50.7782   11.6796 H   0  0  0  0  0  0
   19.7976   49.5512   14.8583 H   0  0  0  0  0  0
   21.1769   47.2292   14.2000 H   0  0  0  0  0  0
   19.6972   47.0526   15.1405 H   0  0  0  0  0  0
   20.3785   46.2494   12.3733 H   0  0  0  0  0  0
   18.9230   45.8835   13.2828 H   0  0  0  0  0  0
   18.1231   47.4731   11.5147 H   0  0  0  0  0  0
   17.6773   48.1658   14.0361 H   0  0  0  0  0  0
   17.8933   49.5659   13.0000 H   0  0  0  0  0  0
  1  6  1  0  0  0
  1  2  2  0  0  0
  1 24  1  0  0  0
  2  3  1  0  0  0
  2 25  1  0  0  0
  3  4  2  0  0  0
  3 26  1  0  0  0
  4  5  1  0  0  0
  4  7  1  0  0  0
  5  6  2  0  0  0
  5 27  1  0  0  0
  6 28  1  0  0  0
  7 11  1  0  0  0
  7  8  2  0  0  0
  8 21  1  0  0  0
  8  9  1  0  0  0
  9 10  2  0  0  0
  9 18  1  0  0  0
 10 11  1  0  0  0
 10 12  1  0  0  0
 11 23  1  0  0  0
 12 17  1  0  0  0
 12 13  2  0  0  0
 13 14  1  0  0  0
 13 29  1  0  0  0
 14 15  2  0  0  0
 14 30  1  0  0  0
 15 16  1  0  0  0
 15 31  1  0  0  0
 16 17  2  0  0  0
 16 32  1  0  0  0
 17 33  1  0  0  0
 18 22  1  0  0  0
 18 19  1  0  0  0
 18 34  1  0  0  0
 19 20  1  0  0  0
 19 35  1  0  0  0
 19 36  1  0  0  0
 20 21  1  0  0  0
 20 37  1  0  0  0
 20 38  1  0  0  0
 21 22  1  0  0  0
 21 39  1  0  0  0
 22 40  1  0  0  0
 22 41  1  0  0  0
M  END
> <s_m_entry_id>
6187

> <s_m_entry_name>
ligand_docking-pose.286

> <s_m_Source_Path>
/home/csk/Desktop/cluster/DUD-E-result/pgh1

> <s_m_Source_File>
ligand_docking-pose.sdf

> <i_m_Source_File_Index>
286

> <i_lp_mmshare_version>
53161

> <i_f3d_flags>
0

> <r_lp_tautomer_probability>
1

> <s_lp_Force_Field>
OPLS_2005

> <r_lp_Energy>
73.436331

> <b_lp_Chiralities_Consistent>
1

> <s_lp_Variant>
235439-1

> <s_i_glide_gridfile>
glide-grid_2oyu

> <i_i_glide_lignum>
56

> <i_i_glide_rotatable_bonds>
2

> <r_i_docking_score>
-6.81860143420344

> <r_i_glide_ligand_efficiency>
-0.309936428827429

> <r_i_glide_ligand_efficiency_sa>
-0.868454062682521

> <r_i_glide_ligand_efficiency_ln>
-1.66671490504971

> <r_i_glide_gscore>
-6.81860143420344

> <r_i_glide_lipo>
-4.21036632276281

> <r_i_glide_hbond>
0

> <r_i_glide_metal>
0

> <r_i_glide_rewards>
-2.19462729848342

> <r_i_glide_evdw>
-18.0286636352539

> <r_i_glide_ecoul>
0.281966149806976

> <r_i_glide_erotb>
0.445530446334438

> <r_i_glide_esite>
0

> <r_i_glide_emodel>
-26.6356152009817

> <r_i_glide_energy>
-17.7466974854469

> <r_i_glide_einternal>
1.24537432193756

> <i_i_glide_confnum>
2

> <i_i_glide_posenum>
298

> <r_i_glide_eff_state_penalty>
0

> <s_user_duplicate_titles>
235439

> <s_m_subgroup_title>
dock_pv

> <s_m_subgroupid>
dock_pv1

> <b_m_subgroup_collapsed>
0

$$$$
