CHEMBL3045_lig2
                    3D
 Schrodinger Suite 2021-1.
 56 60  0  0  1  0            999 V2000
   42.2018   54.1262   33.3288 S   0  0  0  0  0  0
   33.9016   55.5721   36.0027 O   0  0  0  0  0  0
   36.7010   57.1719   39.1295 O   0  0  0  0  0  0
   37.8221   55.3845   32.6057 N   0  0  0  0  0  0
   35.1013   56.3721   37.7338 N   0  0  0  0  0  0
   40.5976   57.2683   35.9915 N   0  0  0  0  0  0
   40.0132   52.7041   33.6783 N   0  0  0  0  0  0
   41.5010   51.9721   31.9945 N   0  0  0  0  0  0
   36.2691   55.9978   35.8927 C   0  0  0  0  0  0
   37.1112   56.4518   36.8516 C   0  0  0  0  0  0
   36.5279   55.6804   34.4610 C   0  0  0  0  0  0
   38.5608   56.7035   36.8158 C   0  0  0  0  0  0
   35.6800   55.7246   33.2772 C   0  0  0  0  0  0
   34.9604   55.9410   36.4837 C   0  0  0  0  0  0
   36.3479   56.7136   38.0437 C   0  0  0  0  0  0
   39.5635   56.4606   37.8350 C   0  0  0  0  0  0
   36.5348   55.5661   32.1377 C   0  0  0  0  0  0
   40.8326   56.8044   37.2696 C   0  0  0  0  0  0
   37.7554   55.2769   33.9755 C   0  0  0  0  0  0
   39.2494   57.2431   35.7464 C   0  0  0  0  0  0
   34.3033   55.8991   33.0229 C   0  0  0  0  0  0
   39.5459   55.9718   39.1562 C   0  0  0  0  0  0
   36.0530   55.6150   30.8228 C   0  0  0  0  0  0
   42.0348   56.6649   37.9773 C   0  0  0  0  0  0
   39.0185   55.2054   31.7772 C   0  0  0  0  0  0
   33.8275   55.9401   31.7153 C   0  0  0  0  0  0
   34.6908   55.8122   30.6406 C   0  0  0  0  0  0
   40.7392   55.8436   39.8621 C   0  0  0  0  0  0
   41.9560   56.1804   39.2811 C   0  0  0  0  0  0
   41.6148   57.6880   35.0454 C   0  0  0  0  0  0
   40.2536   55.9424   32.3630 C   0  0  0  0  0  0
   41.6072   55.2816   32.0525 C   0  0  0  0  0  0
   41.0793   52.7734   33.0162 C   0  0  0  0  0  0
   34.3229   56.4666   38.3710 H   0  0  0  0  0  0
   39.4552   51.9138   33.3936 H   0  0  0  0  0  0
   40.8657   51.2667   31.6347 H   0  0  0  0  0  0
   42.4941   51.7364   31.9700 H   0  0  0  0  0  0
   38.6493   55.0164   34.5269 H   0  0  0  0  0  0
   38.8821   57.5713   34.7875 H   0  0  0  0  0  0
   33.5840   55.9720   33.8120 H   0  0  0  0  0  0
   38.6229   55.6852   39.6341 H   0  0  0  0  0  0
   36.7014   55.4900   29.9741 H   0  0  0  0  0  0
   42.9896   56.9238   37.5415 H   0  0  0  0  0  0
   38.8322   55.5920   30.7737 H   0  0  0  0  0  0
   39.1659   54.1345   31.6571 H   0  0  0  0  0  0
   32.7717   56.0750   31.5296 H   0  0  0  0  0  0
   34.2957   55.8402   29.6359 H   0  0  0  0  0  0
   40.7187   55.4677   40.8762 H   0  0  0  0  0  0
   42.8657   56.0570   39.8519 H   0  0  0  0  0  0
   42.1761   56.8164   34.7059 H   0  0  0  0  0  0
   41.1639   58.2067   34.1969 H   0  0  0  0  0  0
   42.3010   58.3619   35.5495 H   0  0  0  0  0  0
   40.1937   56.0192   33.4418 H   0  0  0  0  0  0
   40.2503   56.9778   32.0235 H   0  0  0  0  0  0
   42.3637   56.0644   32.0316 H   0  0  0  0  0  0
   41.6197   54.8216   31.0639 H   0  0  0  0  0  0
  1 32  1  0  0  0
  1 33  1  0  0  0
  2 14  2  0  0  0
  3 15  2  0  0  0
  4 17  1  0  0  0
  4 19  1  0  0  0
  4 25  1  0  0  0
  5 14  1  0  0  0
  5 15  1  0  0  0
  5 34  1  0  0  0
  6 18  1  0  0  0
  6 20  1  0  0  0
  6 30  1  0  0  0
  7 33  2  0  0  0
  7 35  1  0  0  0
  8 33  1  0  0  0
  8 36  1  0  0  0
  8 37  1  0  0  0
  9 10  2  0  0  0
  9 11  1  0  0  0
  9 14  1  0  0  0
 10 12  1  0  0  0
 10 15  1  0  0  0
 11 13  1  0  0  0
 11 19  2  0  0  0
 12 16  1  0  0  0
 12 20  2  0  0  0
 13 17  2  0  0  0
 13 21  1  0  0  0
 16 18  2  0  0  0
 16 22  1  0  0  0
 17 23  1  0  0  0
 18 24  1  0  0  0
 19 38  1  0  0  0
 20 39  1  0  0  0
 21 26  2  0  0  0
 21 40  1  0  0  0
 22 28  2  0  0  0
 22 41  1  0  0  0
 23 27  2  0  0  0
 23 42  1  0  0  0
 24 29  2  0  0  0
 24 43  1  0  0  0
 25 31  1  0  0  0
 25 44  1  0  0  0
 25 45  1  0  0  0
 26 27  1  0  0  0
 26 46  1  0  0  0
 27 47  1  0  0  0
 28 29  1  0  0  0
 28 48  1  0  0  0
 29 49  1  0  0  0
 30 50  1  0  0  0
 30 51  1  0  0  0
 30 52  1  0  0  0
 31 32  1  0  0  0
 31 53  1  0  0  0
 31 54  1  0  0  0
 32 55  1  0  0  0
 32 56  1  0  0  0
M  END
> <s_m_entry_id>
3273

> <s_m_entry_name>
dock_pv.2

> <s_m_Source_Path>
/home/csk/Desktop/cluster/DUD-E-result/kpcb

> <s_m_Source_File>
dock_pv.maegz

> <i_m_Source_File_Index>
2

> <chembl_id>
CHEMBL6291

> <chembl_pref_name>
BISINDOLYLMALEIMIDE IX

> <i_lp_mmshare_version>
53161

> <i_f3d_flags>
0

> <r_lp_tautomer_probability>
1

> <s_lp_Force_Field>
OPLS_2005

> <r_lp_Energy>
18.131775

> <b_lp_Chiralities_Consistent>
1

> <s_lp_Variant>
CHEMBL3045_lig2-1

> <s_i_glide_gridfile>
glide-grid_2i0e

> <i_i_glide_lignum>
2

> <i_i_glide_rotatable_bonds>
7

> <r_i_docking_score>
-10.2774664172104

> <r_i_glide_ligand_efficiency>
-0.311438376279102

> <r_i_glide_ligand_efficiency_sa>
-0.998949282429099

> <r_i_glide_ligand_efficiency_ln>
-2.28565531731442

> <r_i_glide_gscore>
-10.2774664172104

> <r_i_glide_lipo>
-3.01247139730345

> <r_i_glide_hbond>
-1.12

> <r_i_glide_metal>
0

> <r_i_glide_rewards>
-2.32508637914023

> <r_i_glide_evdw>
-50.3652763366699

> <r_i_glide_ecoul>
-10.8821783065796

> <r_i_glide_erotb>
0.470589805773951

> <r_i_glide_esite>
-0.139907883720192

> <r_i_glide_emodel>
-92.9118485330941

> <r_i_glide_energy>
-61.2474546432495

> <r_i_glide_einternal>
14.9878492355347

> <i_i_glide_confnum>
83

> <i_i_glide_posenum>
111

> <r_i_glide_eff_state_penalty>
0

> <s_user_duplicate_titles>
CHEMBL3045_lig2,213

> <s_m_subgroup_title>
dock_pv

> <s_m_subgroupid>
dock_pv

> <b_m_subgroup_collapsed>
1

$$$$
CHEMBL3045_lig355
                    3D
 Schrodinger Suite 2021-1.
 47 51  0  0  1  0            999 V2000
   36.3992   56.4209   35.8261 C   0  0  0  0  0  0
   37.1837   56.7550   36.8777 C   0  0  0  0  0  0
   36.3322   56.7720   38.0387 C   0  0  0  0  0  0
   35.1010   56.5106   37.6017 N   0  0  0  0  0  0
   35.0464   56.2694   36.2948 C   0  0  0  0  0  0
   38.5358   57.0074   37.0889 N   0  0  0  0  0  0
   39.6240   57.2512   36.2347 C   0  0  0  0  0  0
   36.7100   56.1045   34.4261 C   0  0  0  0  0  0
   36.6157   55.7349   32.1332 C   0  0  0  0  0  0
   35.9870   56.4313   33.2137 C   0  0  0  0  0  0
   34.8532   57.2045   32.9217 C   0  0  0  0  0  0
   34.3168   57.1748   31.6349 C   0  0  0  0  0  0
   34.9152   56.4290   30.6230 C   0  0  0  0  0  0
   36.0987   55.7261   30.8336 C   0  0  0  0  0  0
   36.6348   56.9967   39.2121 O   0  0  0  0  0  0
   34.0292   55.9720   35.6709 O   0  0  0  0  0  0
   40.8956   56.9679   36.7405 C   0  0  0  0  0  0
   42.0229   57.1206   35.9378 C   0  0  0  0  0  0
   41.8806   57.5720   34.6287 C   0  0  0  0  0  0
   40.6251   57.8942   34.1236 C   0  0  0  0  0  0
   39.5010   57.7360   34.9300 C   0  0  0  0  0  0
   37.7323   55.2748   34.0261 C   0  0  0  0  0  0
   37.7179   55.1106   32.6635 N   0  0  0  0  0  0
   38.7010   54.1568   32.2003 C   0  0  0  0  0  0
   39.7331   54.2649   33.3242 C   0  0  1  0  0  0
   38.8743   54.4805   34.5819 C   0  0  0  0  0  0
   40.6690   53.0630   33.4356 C   0  0  0  0  0  0
   39.9010   51.9720   33.8736 O   0  0  0  0  0  0
   34.2802   56.4990   38.1934 H   0  0  0  0  0  0
   38.8388   56.9456   38.0510 H   0  0  0  0  0  0
   34.3665   57.7675   33.7034 H   0  0  0  0  0  0
   33.4132   57.7275   31.4196 H   0  0  0  0  0  0
   34.4589   56.4107   29.6423 H   0  0  0  0  0  0
   36.5702   55.1720   30.0340 H   0  0  0  0  0  0
   41.0178   56.5986   37.7488 H   0  0  0  0  0  0
   43.0037   56.8867   36.3258 H   0  0  0  0  0  0
   42.7576   57.6893   34.0092 H   0  0  0  0  0  0
   40.5214   58.2530   33.1101 H   0  0  0  0  0  0
   38.5360   57.9719   34.5205 H   0  0  0  0  0  0
   38.2656   53.1560   32.1822 H   0  0  0  0  0  0
   39.0683   54.3809   31.1975 H   0  0  0  0  0  0
   40.3451   55.1523   33.1468 H   0  0  0  0  0  0
   39.4654   54.9411   35.3615 H   0  0  0  0  0  0
   38.4787   53.5656   35.0232 H   0  0  0  0  0  0
   41.1418   52.8273   32.4808 H   0  0  0  0  0  0
   41.4651   53.2531   34.1570 H   0  0  0  0  0  0
   40.5184   51.2392   34.0370 H   0  0  0  0  0  0
  1  2  2  0  0  0
  1  5  1  0  0  0
  1  8  1  0  0  0
  2  3  1  0  0  0
  2  6  1  0  0  0
  3  4  1  0  0  0
  3 15  2  0  0  0
  4  5  1  0  0  0
  4 29  1  0  0  0
  5 16  2  0  0  0
  6  7  1  0  0  0
  6 30  1  0  0  0
  7 17  2  0  0  0
  7 21  1  0  0  0
  8 10  1  0  0  0
  8 22  2  0  0  0
  9 23  1  0  0  0
  9 10  2  0  0  0
  9 14  1  0  0  0
 10 11  1  0  0  0
 11 12  2  0  0  0
 11 31  1  0  0  0
 12 13  1  0  0  0
 12 32  1  0  0  0
 13 14  2  0  0  0
 13 33  1  0  0  0
 14 34  1  0  0  0
 17 18  1  0  0  0
 17 35  1  0  0  0
 18 19  2  0  0  0
 18 36  1  0  0  0
 19 20  1  0  0  0
 19 37  1  0  0  0
 20 21  2  0  0  0
 20 38  1  0  0  0
 21 39  1  0  0  0
 22 23  1  0  0  0
 22 26  1  0  0  0
 23 24  1  0  0  0
 24 25  1  0  0  0
 24 40  1  0  0  0
 24 41  1  0  0  0
 25 26  1  0  0  0
 25 27  1  0  0  0
 25 42  1  0  0  0
 26 43  1  0  0  0
 26 44  1  0  0  0
 27 28  1  0  0  0
 27 45  1  0  0  0
 27 46  1  0  0  0
 28 47  1  0  0  0
M  END
> <s_m_entry_id>
3274

> <s_m_entry_name>
dock_pv.3

> <s_m_Source_Path>
/home/csk/Desktop/cluster/DUD-E-result/kpcb

> <s_m_Source_File>
dock_pv.maegz

> <i_m_Source_File_Index>
3

> <chembl_id>
CHEMBL2236796

> <chembl_pref_name>
None

> <i_lp_mmshare_version>
53161

> <i_f3d_flags>
0

> <r_lp_tautomer_probability>
0.999999999997686

> <s_lp_Force_Field>
OPLS_2005

> <r_lp_Energy>
44.855832

> <b_lp_Chiralities_Consistent>
1

> <s_lp_Variant>
CHEMBL3045_lig355-1

> <s_i_glide_gridfile>
glide-grid_2i0e

> <i_i_glide_lignum>
519

> <i_i_glide_rotatable_bonds>
5

> <r_i_docking_score>
-9.87599959642572

> <r_i_glide_ligand_efficiency>
-0.352714271300919

> <r_i_glide_ligand_efficiency_sa>
-1.07104826526588

> <r_i_glide_ligand_efficiency_ln>
-2.27967067880328

> <r_i_glide_gscore>
-9.87599959642572

> <r_i_glide_lipo>
-2.87533102507598

> <r_i_glide_hbond>
-0.864

> <r_i_glide_metal>
0

> <r_i_glide_rewards>
-2.84222158209445

> <r_i_glide_evdw>
-41.1352386474609

> <r_i_glide_ecoul>
-10.83837890625

> <r_i_glide_erotb>
0.388071779055265

> <r_i_glide_esite>
0

> <r_i_glide_emodel>
-81.6723882115314

> <r_i_glide_energy>
-51.9736175537109

> <r_i_glide_einternal>
8.88908290863037

> <i_i_glide_confnum>
14

> <i_i_glide_posenum>
17

> <r_i_glide_eff_state_penalty>
0

> <s_user_duplicate_titles>
CHEMBL3045_lig355

> <s_m_subgroup_title>
dock_pv

> <s_m_subgroupid>
dock_pv

> <b_m_subgroup_collapsed>
1

$$$$
CHEMBL3045_lig396
                    3D
 Schrodinger Suite 2021-1.
 48 52  0  0  1  0            999 V2000
   36.0041   56.2834   35.4757 C   0  0  0  0  0  0
   36.7839   56.6032   36.5278 C   0  0  0  0  0  0
   35.9281   56.6979   37.6802 C   0  0  0  0  0  0
   34.7021   56.3919   37.2383 N   0  0  0  0  0  0
   34.6452   56.1817   35.9222 C   0  0  0  0  0  0
   38.2406   56.8582   36.5452 C   0  0  0  0  0  0
   38.9501   57.2952   35.4419 C   0  0  0  0  0  0
   40.2937   57.3591   35.6934 N   0  0  0  0  0  0
   39.2327   56.7075   37.5920 C   0  0  0  0  0  0
   40.5103   57.0207   37.0153 C   0  0  0  0  0  0
   41.7044   56.9506   37.7471 C   0  0  0  0  0  0
   41.6094   56.5718   39.0848 C   0  0  0  0  0  0
   40.3908   56.2611   39.6726 C   0  0  0  0  0  0
   39.2047   56.3147   38.9430 C   0  0  0  0  0  0
   41.3119   57.6505   34.6985 C   0  0  0  0  0  0
   36.3951   56.0686   34.0533 C   0  0  0  0  0  0
   35.7420   56.8090   33.0599 C   0  0  0  0  0  0
   36.0923   56.7076   31.7214 C   0  0  0  0  0  0
   37.1304   55.8729   31.3315 C   0  0  0  0  0  0
   37.4338   55.1578   33.6606 C   0  0  0  0  0  0
   37.8254   55.0998   32.2865 C   0  0  0  0  0  0
   38.9049   54.2683   31.9007 C   0  0  0  0  0  0
   39.5733   53.4839   32.8368 C   0  0  0  0  0  0
   39.1509   53.4822   34.1638 C   0  0  0  0  0  0
   38.1043   54.2984   34.5773 C   0  0  0  0  0  0
   36.2017   57.0075   38.8373 O   0  0  0  0  0  0
   33.6297   55.9672   35.2635 O   0  0  0  0  0  0
   40.7339   52.6107   32.3876 C   0  0  0  0  0  0
   41.9025   52.7723   33.2321 N   0  0  0  0  0  0
   33.8831   56.4121   37.8326 H   0  0  0  0  0  0
   38.6016   57.5247   34.4454 H   0  0  0  0  0  0
   42.6615   57.1801   37.3026 H   0  0  0  0  0  0
   42.5101   56.5061   39.6784 H   0  0  0  0  0  0
   40.3611   55.9593   40.7102 H   0  0  0  0  0  0
   38.2874   56.0283   39.4305 H   0  0  0  0  0  0
   42.0182   58.3713   35.1032 H   0  0  0  0  0  0
   41.8441   56.7306   34.4509 H   0  0  0  0  0  0
   40.8604   58.0597   33.7925 H   0  0  0  0  0  0
   34.9484   57.4894   33.3304 H   0  0  0  0  0  0
   35.5652   57.2925   30.9825 H   0  0  0  0  0  0
   37.4100   55.7989   30.2936 H   0  0  0  0  0  0
   39.2044   54.2428   30.8623 H   0  0  0  0  0  0
   39.6499   52.8556   34.8888 H   0  0  0  0  0  0
   37.8127   54.2792   35.6150 H   0  0  0  0  0  0
   40.4218   51.5706   32.4076 H   0  0  0  0  0  0
   41.0065   52.8458   31.3582 H   0  0  0  0  0  0
   41.7840   52.1755   34.0439 H   0  0  0  0  0  0
   42.7119   52.3615   32.7605 H   0  0  0  0  0  0
  1  2  2  0  0  0
  1  5  1  0  0  0
  1 16  1  0  0  0
  2  3  1  0  0  0
  2  6  1  0  0  0
  3  4  1  0  0  0
  3 26  2  0  0  0
  4  5  1  0  0  0
  4 30  1  0  0  0
  5 27  2  0  0  0
  6  7  2  0  0  0
  6  9  1  0  0  0
  7  8  1  0  0  0
  7 31  1  0  0  0
  8 10  1  0  0  0
  8 15  1  0  0  0
  9 10  2  0  0  0
  9 14  1  0  0  0
 10 11  1  0  0  0
 11 12  2  0  0  0
 11 32  1  0  0  0
 12 13  1  0  0  0
 12 33  1  0  0  0
 13 14  2  0  0  0
 13 34  1  0  0  0
 14 35  1  0  0  0
 15 36  1  0  0  0
 15 37  1  0  0  0
 15 38  1  0  0  0
 16 17  2  0  0  0
 16 20  1  0  0  0
 17 18  1  0  0  0
 17 39  1  0  0  0
 18 19  2  0  0  0
 18 40  1  0  0  0
 19 21  1  0  0  0
 19 41  1  0  0  0
 20 21  1  0  0  0
 20 25  2  0  0  0
 21 22  2  0  0  0
 22 23  1  0  0  0
 22 42  1  0  0  0
 23 24  2  0  0  0
 23 28  1  0  0  0
 24 25  1  0  0  0
 24 43  1  0  0  0
 25 44  1  0  0  0
 28 29  1  0  0  0
 28 45  1  0  0  0
 28 46  1  0  0  0
 29 47  1  0  0  0
 29 48  1  0  0  0
M  END
> <s_m_entry_id>
3275

> <s_m_entry_name>
dock_pv.4

> <s_m_Source_Path>
/home/csk/Desktop/cluster/DUD-E-result/kpcb

> <s_m_Source_File>
dock_pv.maegz

> <i_m_Source_File_Index>
4

> <chembl_id>
CHEMBL4072709

> <chembl_pref_name>
None

> <i_lp_mmshare_version>
53161

> <i_f3d_flags>
0

> <r_lp_tautomer_probability>
1

> <s_lp_Force_Field>
OPLS_2005

> <r_lp_Energy>
30.896223

> <b_lp_Chiralities_Consistent>
1

> <s_lp_Variant>
CHEMBL3045_lig396-1

> <s_i_glide_gridfile>
glide-grid_2i0e

> <i_i_glide_lignum>
562

> <i_i_glide_rotatable_bonds>
3

> <r_i_docking_score>
-9.78057808558373

> <r_i_glide_ligand_efficiency>
-0.337261313295991

> <r_i_glide_ligand_efficiency_sa>
-1.03617360632914

> <r_i_glide_ligand_efficiency_ln>
-2.23950436753766

> <r_i_glide_gscore>
-9.78057808558373

> <r_i_glide_lipo>
-2.47284816616802

> <r_i_glide_hbond>
-1.01361876934889

> <r_i_glide_metal>
0

> <r_i_glide_rewards>
-2.73327902609017

> <r_i_glide_evdw>
-45.4736480712891

> <r_i_glide_ecoul>
-9.82626342773438

> <r_i_glide_erotb>
0.186789793747959

> <r_i_glide_esite>
0

> <r_i_glide_emodel>
-88.0388067456546

> <r_i_glide_energy>
-55.2999114990234

> <r_i_glide_einternal>
1.08314299583435

> <i_i_glide_confnum>
16

> <i_i_glide_posenum>
23

> <r_i_glide_eff_state_penalty>
0

> <s_user_duplicate_titles>
CHEMBL3045_lig396

> <s_m_subgroup_title>
dock_pv

> <s_m_subgroupid>
dock_pv

> <b_m_subgroup_collapsed>
1

$$$$
CHEMBL3045_lig32
                    3D
 Schrodinger Suite 2021-1.
 52 56  0  0  1  0            999 V2000
   36.2620   56.0496   35.5515 C   0  0  0  0  0  0
   36.9784   56.5250   36.5943 C   0  0  0  0  0  0
   36.7003   55.7048   34.1821 C   0  0  0  0  0  0
   38.4273   56.7894   36.6798 C   0  0  0  0  0  0
   36.0787   56.7203   37.7010 C   0  0  0  0  0  0
   34.8869   55.9610   35.9672 C   0  0  0  0  0  0
   34.8759   56.3718   37.2368 N   0  0  0  0  0  0
   37.9043   55.1016   33.8415 C   0  0  0  0  0  0
   39.2127   57.1732   35.6071 C   0  0  0  0  0  0
   38.0832   55.0623   32.4772 N   0  0  0  0  0  0
   40.5524   57.1783   35.9227 N   0  0  0  0  0  0
   36.9183   55.5128   31.8836 C   0  0  0  0  0  0
   40.6600   56.9177   37.2762 C   0  0  0  0  0  0
   39.3471   56.6761   37.7915 C   0  0  0  0  0  0
   36.0234   55.9196   32.9201 C   0  0  0  0  0  0
   36.6681   55.5713   30.5691 N   0  0  0  0  0  0
   41.7987   56.8775   37.9826 N   0  0  0  0  0  0
   33.9011   55.5881   35.3357 O   0  0  0  0  0  0
   36.3007   57.1400   38.8366 O   0  0  0  0  0  0
   39.3064   54.6291   31.8016 C   0  0  0  0  0  0
   41.6779   57.3471   34.9997 C   0  0  0  0  0  0
   39.2615   56.3685   39.1636 C   0  0  0  0  0  0
   34.7760   56.4258   32.5058 C   0  0  0  0  0  0
   39.4712   53.0905   31.7947 C   0  0  0  0  0  0
   41.9016   53.1701   31.9080 O   0  0  0  0  0  0
   35.4293   56.0039   30.2303 C   0  0  0  0  0  0
   41.6534   56.5926   39.3013 C   0  0  0  0  0  0
   40.7511   52.5855   32.4884 C   0  0  0  0  0  0
   41.2977   57.9461   33.6322 C   0  0  0  0  0  0
   40.4328   56.3361   39.9206 C   0  0  0  0  0  0
   34.4743   56.4431   31.1428 C   0  0  0  0  0  0
   34.0338   56.4296   37.7925 H   0  0  0  0  0  0
   38.7046   54.7535   34.4791 H   0  0  0  0  0  0
   38.9055   57.3852   34.5950 H   0  0  0  0  0  0
   39.2866   55.0066   30.7776 H   0  0  0  0  0  0
   40.1486   55.1234   32.2857 H   0  0  0  0  0  0
   42.4248   57.9711   35.4882 H   0  0  0  0  0  0
   42.1295   56.3637   34.8608 H   0  0  0  0  0  0
   38.3215   56.1345   39.6371 H   0  0  0  0  0  0
   34.0508   56.7701   33.2208 H   0  0  0  0  0  0
   38.6109   52.5961   32.2476 H   0  0  0  0  0  0
   39.4744   52.7370   30.7604 H   0  0  0  0  0  0
   42.6438   52.5605   32.0367 H   0  0  0  0  0  0
   35.2072   56.0028   29.1724 H   0  0  0  0  0  0
   42.5669   56.5576   39.8768 H   0  0  0  0  0  0
   40.7530   52.8709   33.5414 H   0  0  0  0  0  0
   40.8250   51.4994   32.4338 H   0  0  0  0  0  0
   42.1716   57.9716   32.9864 H   0  0  0  0  0  0
   40.5530   57.3482   33.1075 H   0  0  0  0  0  0
   40.9205   58.9634   33.7295 H   0  0  0  0  0  0
   40.3872   56.0989   40.9743 H   0  0  0  0  0  0
   33.5124   56.7922   30.7951 H   0  0  0  0  0  0
  1  2  2  0  0  0
  1  3  1  0  0  0
  1  6  1  0  0  0
  2  4  1  0  0  0
  2  5  1  0  0  0
  3  8  2  0  0  0
  3 15  1  0  0  0
  4  9  2  0  0  0
  4 14  1  0  0  0
  5 19  2  0  0  0
  5  7  1  0  0  0
  6  7  1  0  0  0
  6 18  2  0  0  0
  7 32  1  0  0  0
  8 10  1  0  0  0
  8 33  1  0  0  0
  9 11  1  0  0  0
  9 34  1  0  0  0
 10 20  1  0  0  0
 10 12  1  0  0  0
 11 21  1  0  0  0
 11 13  1  0  0  0
 12 15  2  0  0  0
 12 16  1  0  0  0
 13 14  2  0  0  0
 13 17  1  0  0  0
 14 22  1  0  0  0
 15 23  1  0  0  0
 16 26  2  0  0  0
 17 27  2  0  0  0
 20 24  1  0  0  0
 20 35  1  0  0  0
 20 36  1  0  0  0
 21 29  1  0  0  0
 21 37  1  0  0  0
 21 38  1  0  0  0
 22 30  2  0  0  0
 22 39  1  0  0  0
 23 31  2  0  0  0
 23 40  1  0  0  0
 24 28  1  0  0  0
 24 41  1  0  0  0
 24 42  1  0  0  0
 25 28  1  0  0  0
 25 43  1  0  0  0
 26 31  1  0  0  0
 26 44  1  0  0  0
 27 30  1  0  0  0
 27 45  1  0  0  0
 28 46  1  0  0  0
 28 47  1  0  0  0
 29 48  1  0  0  0
 29 49  1  0  0  0
 29 50  1  0  0  0
 30 51  1  0  0  0
 31 52  1  0  0  0
M  END
> <s_m_entry_id>
3276

> <s_m_entry_name>
dock_pv.5

> <s_m_Source_Path>
/home/csk/Desktop/cluster/DUD-E-result/kpcb

> <s_m_Source_File>
dock_pv.maegz

> <i_m_Source_File_Index>
5

> <chembl_id>
CHEMBL110000

> <chembl_pref_name>
None

> <i_lp_mmshare_version>
53161

> <i_f3d_flags>
0

> <r_lp_tautomer_probability>
1

> <s_lp_Force_Field>
OPLS_2005

> <r_lp_Energy>
27.966435

> <b_lp_Chiralities_Consistent>
1

> <s_lp_Variant>
CHEMBL3045_lig32-1

> <s_i_glide_gridfile>
glide-grid_2i0e

> <i_i_glide_lignum>
34

> <i_i_glide_rotatable_bonds>
7

> <r_i_docking_score>
-9.7588404488326

> <r_i_glide_ligand_efficiency>
-0.314801304801052

> <r_i_glide_ligand_efficiency_sa>
-0.988910727117621

> <r_i_glide_ligand_efficiency_ln>
-2.20091759375425

> <r_i_glide_gscore>
-9.7588404488326

> <r_i_glide_lipo>
-2.54046086506006

> <r_i_glide_hbond>
-0.698989773273566

> <r_i_glide_metal>
0

> <r_i_glide_rewards>
-2.90047310312574

> <r_i_glide_evdw>
-52.4787445068359

> <r_i_glide_ecoul>
-9.30280685424805

> <r_i_glide_erotb>
0.400441546105773

> <r_i_glide_esite>
0

> <r_i_glide_emodel>
-92.8788527925465

> <r_i_glide_energy>
-61.781551361084

> <r_i_glide_einternal>
13.4536571502686

> <i_i_glide_confnum>
254

> <i_i_glide_posenum>
322

> <r_i_glide_eff_state_penalty>
0

> <s_user_duplicate_titles>
CHEMBL3045_lig32

> <s_m_subgroup_title>
dock_pv

> <s_m_subgroupid>
dock_pv

> <b_m_subgroup_collapsed>
1

$$$$
CHEMBL3045_lig370
                    3D
 Schrodinger Suite 2021-1.
 50 54  0  0  1  0            999 V2000
   36.5046   56.1344   35.8902 C   0  0  0  0  0  0
   37.2166   56.6159   36.9318 C   0  0  0  0  0  0
   36.2964   56.7718   38.0274 C   0  0  0  0  0  0
   35.1011   56.4084   37.5590 N   0  0  0  0  0  0
   35.1290   56.0137   36.2870 C   0  0  0  0  0  0
   38.5542   56.9246   37.1487 N   0  0  0  0  0  0
   39.6315   57.1156   36.2646 C   0  0  0  0  0  0
   36.9320   55.6985   34.5559 C   0  0  0  0  0  0
   37.1143   55.4082   32.2786 C   0  0  0  0  0  0
   36.3587   56.0703   33.2910 C   0  0  0  0  0  0
   35.2961   56.9053   32.9022 C   0  0  0  0  0  0
   34.9934   57.0364   31.5498 C   0  0  0  0  0  0
   35.7414   56.3743   30.5816 C   0  0  0  0  0  0
   36.8298   55.5719   30.9162 C   0  0  0  0  0  0
   37.9640   54.8101   34.2925 C   0  0  0  0  0  0
   38.0878   54.6540   32.9140 N   0  0  0  0  0  0
   39.1466   53.8797   32.2299 C   0  0  0  0  0  0
   39.9577   53.0433   33.2482 C   0  0  0  0  0  0
   40.2293   53.8304   34.5450 C   0  0  1  0  0  0
   38.8653   54.0311   35.2374 C   0  0  0  0  0  0
   36.5214   57.1690   39.1707 O   0  0  0  0  0  0
   34.1612   55.6312   35.6323 O   0  0  0  0  0  0
   40.9174   56.8596   36.7488 C   0  0  0  0  0  0
   42.0266   57.0286   35.9231 C   0  0  0  0  0  0
   41.8512   57.4669   34.6131 C   0  0  0  0  0  0
   40.5783   57.7435   34.1238 C   0  0  0  0  0  0
   39.4725   57.5717   34.9523 C   0  0  0  0  0  0
   41.2337   53.1560   35.4994 C   0  0  0  0  0  0
   40.7013   51.9715   36.0373 O   0  0  0  0  0  0
   34.2480   56.4464   38.1017 H   0  0  0  0  0  0
   38.8504   56.9475   38.1150 H   0  0  0  0  0  0
   34.7091   57.4268   33.6441 H   0  0  0  0  0  0
   34.1638   57.6580   31.2461 H   0  0  0  0  0  0
   35.4743   56.4855   29.5413 H   0  0  0  0  0  0
   37.4031   55.0701   30.1499 H   0  0  0  0  0  0
   39.7912   54.5870   31.7055 H   0  0  0  0  0  0
   38.7015   53.2437   31.4650 H   0  0  0  0  0  0
   40.9069   52.7585   32.7914 H   0  0  0  0  0  0
   39.4800   52.0862   33.4658 H   0  0  0  0  0  0
   40.6608   54.8017   34.2968 H   0  0  0  0  0  0
   38.3969   53.0708   35.4586 H   0  0  0  0  0  0
   38.9907   54.5099   36.2051 H   0  0  0  0  0  0
   41.0652   56.5136   37.7617 H   0  0  0  0  0  0
   43.0204   56.8219   36.2928 H   0  0  0  0  0  0
   42.7147   57.5995   33.9769 H   0  0  0  0  0  0
   40.4470   58.0871   33.1085 H   0  0  0  0  0  0
   38.4934   57.7901   34.5639 H   0  0  0  0  0  0
   41.4658   53.8289   36.3248 H   0  0  0  0  0  0
   42.1791   52.9460   34.9971 H   0  0  0  0  0  0
   40.9992   51.2450   35.4703 H   0  0  0  0  0  0
  1  2  2  0  0  0
  1  5  1  0  0  0
  1  8  1  0  0  0
  2  3  1  0  0  0
  2  6  1  0  0  0
  3  4  1  0  0  0
  3 21  2  0  0  0
  4  5  1  0  0  0
  4 30  1  0  0  0
  5 22  2  0  0  0
  6  7  1  0  0  0
  6 31  1  0  0  0
  7 23  2  0  0  0
  7 27  1  0  0  0
  8 10  1  0  0  0
  8 15  2  0  0  0
  9 16  1  0  0  0
  9 10  2  0  0  0
  9 14  1  0  0  0
 10 11  1  0  0  0
 11 12  2  0  0  0
 11 32  1  0  0  0
 12 13  1  0  0  0
 12 33  1  0  0  0
 13 14  2  0  0  0
 13 34  1  0  0  0
 14 35  1  0  0  0
 15 16  1  0  0  0
 15 20  1  0  0  0
 16 17  1  0  0  0
 17 18  1  0  0  0
 17 36  1  0  0  0
 17 37  1  0  0  0
 18 19  1  0  0  0
 18 38  1  0  0  0
 18 39  1  0  0  0
 19 20  1  0  0  0
 19 28  1  0  0  0
 19 40  1  0  0  0
 20 41  1  0  0  0
 20 42  1  0  0  0
 23 24  1  0  0  0
 23 43  1  0  0  0
 24 25  2  0  0  0
 24 44  1  0  0  0
 25 26  1  0  0  0
 25 45  1  0  0  0
 26 27  2  0  0  0
 26 46  1  0  0  0
 27 47  1  0  0  0
 28 29  1  0  0  0
 28 48  1  0  0  0
 28 49  1  0  0  0
 29 50  1  0  0  0
M  END
> <s_m_entry_id>
3277

> <s_m_entry_name>
dock_pv.6

> <s_m_Source_Path>
/home/csk/Desktop/cluster/DUD-E-result/kpcb

> <s_m_Source_File>
dock_pv.maegz

> <i_m_Source_File_Index>
6

> <chembl_id>
CHEMBL2236798

> <chembl_pref_name>
None

> <i_lp_mmshare_version>
53161

> <i_f3d_flags>
0

> <r_lp_tautomer_probability>
0.999999999997686

> <s_lp_Force_Field>
OPLS_2005

> <r_lp_Energy>
31.98386

> <b_lp_Chiralities_Consistent>
1

> <s_lp_Variant>
CHEMBL3045_lig370-1

> <s_i_glide_gridfile>
glide-grid_2i0e

> <i_i_glide_lignum>
534

> <i_i_glide_rotatable_bonds>
5

> <r_i_docking_score>
-9.72832942596077

> <r_i_glide_ligand_efficiency>
-0.335459635377958

> <r_i_glide_ligand_efficiency_sa>
-1.03063828095332

> <r_i_glide_ligand_efficiency_ln>
-2.2275407493957

> <r_i_glide_gscore>
-9.72832942596077

> <r_i_glide_lipo>
-2.67424827894389

> <r_i_glide_hbond>
-0.864

> <r_i_glide_metal>
0

> <r_i_glide_rewards>
-2.61220912253469

> <r_i_glide_evdw>
-46.5546722412109

> <r_i_glide_ecoul>
-10.7559823989868

> <r_i_glide_erotb>
0.363258947426382

> <r_i_glide_esite>
0

> <r_i_glide_emodel>
-88.7098593521498

> <r_i_glide_energy>
-57.3106546401978

> <r_i_glide_einternal>
6.4909348487854

> <i_i_glide_confnum>
6

> <i_i_glide_posenum>
302

> <r_i_glide_eff_state_penalty>
0

> <s_user_duplicate_titles>
CHEMBL3045_lig370

> <s_m_subgroup_title>
dock_pv

> <s_m_subgroupid>
dock_pv

> <b_m_subgroup_collapsed>
1

$$$$
CHEMBL3045_lig406
                    3D
 Schrodinger Suite 2021-1.
 57 61  0  0  1  0            999 V2000
   36.2409   56.5336   35.8522 C   0  0  0  0  0  0
   37.1138   56.7969   36.8545 C   0  0  0  0  0  0
   36.3379   56.7718   38.0768 C   0  0  0  0  0  0
   35.1011   56.4342   37.7182 N   0  0  0  0  0  0
   34.9471   56.2695   36.4091 C   0  0  0  0  0  0
   38.5866   57.0531   36.8822 C   0  0  0  0  0  0
   39.3578   57.0198   38.0440 C   0  0  0  0  0  0
   40.6907   57.2020   37.7897 N   0  0  0  0  0  0
   39.5585   57.2984   35.8280 C   0  0  0  0  0  0
   40.8631   57.2889   36.4251 C   0  0  0  0  0  0
   42.0404   57.3678   35.6688 C   0  0  0  0  0  0
   41.9085   57.5054   34.2905 C   0  0  0  0  0  0
   40.6655   57.5896   33.6844 C   0  0  0  0  0  0
   39.5008   57.5025   34.4398 C   0  0  0  0  0  0
   36.4404   56.3957   34.3837 C   0  0  0  0  0  0
   35.8293   57.2956   33.4863 C   0  0  0  0  0  0
   36.0130   57.1727   32.1138 C   0  0  0  0  0  0
   36.8778   56.2249   31.5900 C   0  0  0  0  0  0
   37.2716   55.3557   33.8505 C   0  0  0  0  0  0
   37.5358   55.3184   32.4453 C   0  0  0  0  0  0
   38.4515   54.3721   31.9325 C   0  0  0  0  0  0
   39.0068   53.4070   32.7634 C   0  0  0  0  0  0
   38.6989   53.3820   34.1210 C   0  0  0  0  0  0
   37.8694   54.3580   34.6660 C   0  0  0  0  0  0
   36.6787   57.0013   39.2367 O   0  0  0  0  0  0
   33.9012   55.9723   35.8357 O   0  0  0  0  0  0
   34.8481   58.6179   34.0313 Cl  0  0  0  0  0  0
   41.7467   57.1687   38.7917 C   0  0  0  0  0  0
   39.2198   52.2643   35.0026 C   0  0  0  0  0  0
   40.6623   52.3720   35.1255 N   0  0  1  0  0  0
   41.1616   52.7376   36.4355 C   0  0  0  0  0  0
   40.6623   54.1199   36.8266 C   0  0  0  0  0  0
   42.6855   52.7576   36.3233 C   0  0  0  0  0  0
   34.3326   56.3609   38.3697 H   0  0  0  0  0  0
   39.0668   56.8473   39.0704 H   0  0  0  0  0  0
   43.0197   57.3411   36.1245 H   0  0  0  0  0  0
   42.7989   57.5687   33.6819 H   0  0  0  0  0  0
   40.6013   57.7132   32.6125 H   0  0  0  0  0  0
   38.5597   57.5719   33.9385 H   0  0  0  0  0  0
   35.5247   57.8667   31.4453 H   0  0  0  0  0  0
   37.0538   56.1769   30.5251 H   0  0  0  0  0  0
   38.6782   54.3606   30.8748 H   0  0  0  0  0  0
   39.6623   52.6558   32.3437 H   0  0  0  0  0  0
   37.6521   54.3337   35.7228 H   0  0  0  0  0  0
   42.1399   56.1567   38.8790 H   0  0  0  0  0  0
   42.5555   57.8378   38.4958 H   0  0  0  0  0  0
   41.3574   57.4985   39.7564 H   0  0  0  0  0  0
   38.9807   51.3129   34.5283 H   0  0  0  0  0  0
   38.7229   52.2619   35.9736 H   0  0  0  0  0  0
   41.1011   51.4844   34.8369 H   0  0  0  0  0  0
   40.8513   51.9930   37.1698 H   0  0  0  0  0  0
   41.0732   54.4276   37.7857 H   0  0  0  0  0  0
   39.5804   54.1836   36.8963 H   0  0  0  0  0  0
   40.9804   54.8195   36.0603 H   0  0  0  0  0  0
   43.1016   53.1723   37.2378 H   0  0  0  0  0  0
   43.0968   51.7593   36.1691 H   0  0  0  0  0  0
   43.0316   53.3895   35.5035 H   0  0  0  0  0  0
  1  2  2  0  0  0
  1  5  1  0  0  0
  1 15  1  0  0  0
  2  3  1  0  0  0
  2  6  1  0  0  0
  3  4  1  0  0  0
  3 25  2  0  0  0
  4  5  1  0  0  0
  4 34  1  0  0  0
  5 26  2  0  0  0
  6  7  2  0  0  0
  6  9  1  0  0  0
  7  8  1  0  0  0
  7 35  1  0  0  0
  8 10  1  0  0  0
  8 28  1  0  0  0
  9 10  2  0  0  0
  9 14  1  0  0  0
 10 11  1  0  0  0
 11 12  2  0  0  0
 11 36  1  0  0  0
 12 13  1  0  0  0
 12 37  1  0  0  0
 13 14  2  0  0  0
 13 38  1  0  0  0
 14 39  1  0  0  0
 15 16  2  0  0  0
 15 19  1  0  0  0
 16 17  1  0  0  0
 16 27  1  0  0  0
 17 18  2  0  0  0
 17 40  1  0  0  0
 18 20  1  0  0  0
 18 41  1  0  0  0
 19 20  1  0  0  0
 19 24  2  0  0  0
 20 21  2  0  0  0
 21 22  1  0  0  0
 21 42  1  0  0  0
 22 23  2  0  0  0
 22 43  1  0  0  0
 23 24  1  0  0  0
 23 29  1  0  0  0
 24 44  1  0  0  0
 28 45  1  0  0  0
 28 46  1  0  0  0
 28 47  1  0  0  0
 29 30  1  0  0  0
 29 48  1  0  0  0
 29 49  1  0  0  0
 30 31  1  0  0  0
 30 50  1  0  0  0
 31 32  1  0  0  0
 31 33  1  0  0  0
 31 51  1  0  0  0
 32 52  1  0  0  0
 32 53  1  0  0  0
 32 54  1  0  0  0
 33 55  1  0  0  0
 33 56  1  0  0  0
 33 57  1  0  0  0
M  END
> <s_m_entry_id>
3278

> <s_m_entry_name>
dock_pv.7

> <s_m_Source_Path>
/home/csk/Desktop/cluster/DUD-E-result/kpcb

> <s_m_Source_File>
dock_pv.maegz

> <i_m_Source_File_Index>
7

> <chembl_id>
CHEMBL4083319

> <chembl_pref_name>
None

> <i_lp_mmshare_version>
53161

> <i_f3d_flags>
0

> <r_lp_tautomer_probability>
1

> <s_lp_Force_Field>
OPLS_2005

> <r_lp_Energy>
31.351302

> <b_lp_Chiralities_Consistent>
1

> <s_lp_Variant>
CHEMBL3045_lig406-1

> <s_i_glide_gridfile>
glide-grid_2i0e

> <i_i_glide_lignum>
572

> <i_i_glide_rotatable_bonds>
5

> <r_i_docking_score>
-9.70792570517007

> <r_i_glide_ligand_efficiency>
-0.294179566823335

> <r_i_glide_ligand_efficiency_sa>
-0.943591058669392

> <r_i_glide_ligand_efficiency_ln>
-2.15899241188064

> <r_i_glide_gscore>
-9.70792570517007

> <r_i_glide_lipo>
-3.21110478604226

> <r_i_glide_hbond>
-0.801169582591339

> <r_i_glide_metal>
0

> <r_i_glide_rewards>
-2.11339901570247

> <r_i_glide_evdw>
-46.531494140625

> <r_i_glide_ecoul>
-10.1610383987427

> <r_i_glide_erotb>
0.26847814600865

> <r_i_glide_esite>
0

> <r_i_glide_emodel>
-86.5937837524511

> <r_i_glide_energy>
-56.6925325393677

> <r_i_glide_einternal>
7.30517530441284

> <i_i_glide_confnum>
42

> <i_i_glide_posenum>
280

> <r_i_glide_eff_state_penalty>
0

> <s_user_duplicate_titles>
CHEMBL3045_lig406

> <s_m_subgroup_title>
dock_pv

> <s_m_subgroupid>
dock_pv

> <b_m_subgroup_collapsed>
1

$$$$
CHEMBL3045_lig50
                    3D
 Schrodinger Suite 2021-1.
 56 61  0  0  1  0            999 V2000
   37.3070   56.4685   36.9829 C   0  0  0  0  0  0
   36.5390   56.0930   35.9429 C   0  0  0  0  0  0
   38.7730   56.6365   37.0770 C   0  0  0  0  0  0
   36.9240   55.6693   34.5990 C   0  0  0  0  0  0
   35.1634   56.0939   36.3621 C   0  0  0  0  0  0
   36.4278   56.7169   38.0968 C   0  0  0  0  0  0
   40.8823   56.5809   37.9754 N   0  0  0  0  0  0
   35.1950   56.4699   37.6407 N   0  0  0  0  0  0
   39.5307   56.4455   38.2192 C   0  0  0  0  0  0
   39.7253   56.9997   36.0577 C   0  0  0  0  0  0
   41.0353   56.8779   36.6278 C   0  0  0  0  0  0
   37.9325   54.7691   34.2952 C   0  0  0  0  0  0
   36.3368   56.0605   33.3410 C   0  0  0  0  0  0
   38.0382   54.6359   32.9331 N   0  0  0  0  0  0
   41.9902   56.3435   38.9292 C   0  0  0  0  0  0
   41.2256   54.4399   41.0765 N   0  0  1  0  0  0
   37.0778   55.4034   32.3092 C   0  0  0  0  0  0
   34.1525   55.8160   35.7202 O   0  0  0  0  0  0
   36.7006   57.0904   39.2369 O   0  0  0  0  0  0
   41.7813   56.8298   40.3765 C   0  0  0  0  0  0
   42.4730   54.8877   38.9361 C   0  0  0  0  0  0
   41.5004   53.9799   39.7052 C   0  0  0  0  0  0
   40.9445   55.8778   41.2593 C   0  0  0  0  0  0
   42.1945   57.0634   35.8592 C   0  0  0  0  0  0
   39.6220   57.4130   34.7185 C   0  0  0  0  0  0
   35.2751   56.9040   32.9678 C   0  0  0  0  0  0
   40.1191   53.6658   41.6394 C   0  0  0  0  0  0
   36.7864   55.5793   30.9534 C   0  0  0  0  0  0
   40.7718   57.6005   33.9607 C   0  0  0  0  0  0
   42.0283   57.4079   34.5188 C   0  0  0  0  0  0
   34.9437   57.0247   31.6193 C   0  0  0  0  0  0
   35.6815   56.3689   30.6397 C   0  0  0  0  0  0
   34.3622   56.5768   38.2029 H   0  0  0  0  0  0
   39.1842   56.1472   39.1929 H   0  0  0  0  0  0
   38.6109   54.2312   34.9441 H   0  0  0  0  0  0
   38.7267   54.0388   32.4936 H   0  0  0  0  0  0
   42.7935   56.9645   38.5288 H   0  0  0  0  0  0
   41.3592   57.8354   40.3813 H   0  0  0  0  0  0
   42.7501   57.0005   40.8490 H   0  0  0  0  0  0
   43.4853   54.8118   39.3371 H   0  0  0  0  0  0
   42.6120   54.5322   37.9143 H   0  0  0  0  0  0
   40.5667   53.9724   39.1489 H   0  0  0  0  0  0
   41.8519   52.9470   39.7188 H   0  0  0  0  0  0
   39.9008   56.0866   41.0581 H   0  0  0  0  0  0
   41.0663   56.1165   42.3158 H   0  0  0  0  0  0
   43.1866   56.9558   36.2726 H   0  0  0  0  0  0
   38.6569   57.5658   34.2677 H   0  0  0  0  0  0
   34.7021   57.4275   33.7180 H   0  0  0  0  0  0
   39.1832   53.8755   41.1188 H   0  0  0  0  0  0
   40.3006   52.5928   41.5745 H   0  0  0  0  0  0
   39.9687   53.9197   42.6885 H   0  0  0  0  0  0
   37.3695   55.1173   30.1734 H   0  0  0  0  0  0
   40.6894   57.8908   32.9228 H   0  0  0  0  0  0
   42.9051   57.5594   33.9060 H   0  0  0  0  0  0
   34.1019   57.6373   31.3269 H   0  0  0  0  0  0
   35.3989   56.4674   29.6033 H   0  0  0  0  0  0
  1  2  2  0  0  0
  1  3  1  0  0  0
  1  6  1  0  0  0
  2  4  1  0  0  0
  2  5  1  0  0  0
  3  9  2  0  0  0
  3 10  1  0  0  0
  4 12  2  0  0  0
  4 13  1  0  0  0
  5 18  2  0  0  0
  5  8  1  0  0  0
  6  8  1  0  0  0
  6 19  2  0  0  0
  7  9  1  0  0  0
  7 15  1  0  0  0
  7 11  1  0  0  0
  8 33  1  0  0  0
  9 34  1  0  0  0
 10 11  2  0  0  0
 10 25  1  0  0  0
 11 24  1  0  0  0
 12 14  1  0  0  0
 12 35  1  0  0  0
 13 17  2  0  0  0
 13 26  1  0  0  0
 14 17  1  0  0  0
 14 36  1  0  0  0
 15 20  1  0  0  0
 15 21  1  0  0  0
 15 37  1  0  0  0
 16 22  1  0  0  0
 16 27  1  0  0  0
 16 23  1  0  0  0
 17 28  1  0  0  0
 20 23  1  0  0  0
 20 38  1  0  0  0
 20 39  1  0  0  0
 21 22  1  0  0  0
 21 40  1  0  0  0
 21 41  1  0  0  0
 22 42  1  0  0  0
 22 43  1  0  0  0
 23 44  1  0  0  0
 23 45  1  0  0  0
 24 30  2  0  0  0
 24 46  1  0  0  0
 25 29  2  0  0  0
 25 47  1  0  0  0
 26 31  2  0  0  0
 26 48  1  0  0  0
 27 49  1  0  0  0
 27 50  1  0  0  0
 27 51  1  0  0  0
 28 32  2  0  0  0
 28 52  1  0  0  0
 29 30  1  0  0  0
 29 53  1  0  0  0
 30 54  1  0  0  0
 31 32  1  0  0  0
 31 55  1  0  0  0
 32 56  1  0  0  0
M  END
> <s_m_entry_id>
3279

> <s_m_entry_name>
dock_pv.8

> <s_m_Source_Path>
/home/csk/Desktop/cluster/DUD-E-result/kpcb

> <s_m_Source_File>
dock_pv.maegz

> <i_m_Source_File_Index>
8

> <chembl_id>
CHEMBL52654

> <chembl_pref_name>
None

> <i_lp_mmshare_version>
53161

> <i_f3d_flags>
0

> <r_lp_tautomer_probability>
1

> <s_lp_Force_Field>
OPLS_2005

> <r_lp_Energy>
39.784655

> <b_lp_Chiralities_Consistent>
1

> <s_lp_Variant>
CHEMBL3045_lig50-1

> <s_i_glide_gridfile>
glide-grid_2i0e

> <i_i_glide_lignum>
53

> <i_i_glide_rotatable_bonds>
3

> <r_i_docking_score>
-9.67357555673085

> <r_i_glide_ligand_efficiency>
-0.302299236147839

> <r_i_glide_ligand_efficiency_sa>
-0.95974024983179

> <r_i_glide_ligand_efficiency_ln>
-2.16617725886256

> <r_i_glide_gscore>
-9.67357555673085

> <r_i_glide_lipo>
-3.32526594109595

> <r_i_glide_hbond>
-0.608

> <r_i_glide_metal>
0

> <r_i_glide_rewards>
-2.38540830082445

> <r_i_glide_evdw>
-53.5453147888184

> <r_i_glide_ecoul>
-6.05814027786255

> <r_i_glide_erotb>
0.231085466309854

> <r_i_glide_esite>
0

> <r_i_glide_emodel>
-88.7121086465174

> <r_i_glide_energy>
-59.6034550666809

> <r_i_glide_einternal>
8.88989067077637

> <i_i_glide_confnum>
100

> <i_i_glide_posenum>
245

> <r_i_glide_eff_state_penalty>
0

> <s_user_duplicate_titles>
CHEMBL3045_lig50,83299

> <s_m_subgroup_title>
dock_pv

> <s_m_subgroupid>
dock_pv

> <b_m_subgroup_collapsed>
1

$$$$
CHEMBL3045_lig364
                    3D
 Schrodinger Suite 2021-1.
 47 51  0  0  1  0            999 V2000
   36.5397   55.8652   35.9627 C   0  0  0  0  0  0
   37.2571   56.1967   37.0484 C   0  0  0  0  0  0
   36.3171   56.5227   38.0842 C   0  0  0  0  0  0
   35.1017   56.3722   37.5455 N   0  0  0  0  0  0
   35.1402   55.9777   36.2725 C   0  0  0  0  0  0
   38.6205   56.2564   37.2992 N   0  0  0  0  0  0
   39.6821   56.5716   36.4342 C   0  0  0  0  0  0
   37.0055   55.4265   34.6493 C   0  0  0  0  0  0
   37.3008   55.2799   32.3614 C   0  0  0  0  0  0
   36.5881   55.9754   33.3850 C   0  0  0  0  0  0
   35.6814   56.9832   33.0086 C   0  0  0  0  0  0
   35.4664   57.2353   31.6578 C   0  0  0  0  0  0
   36.1676   56.5396   30.6812 C   0  0  0  0  0  0
   37.1139   55.5683   31.0027 C   0  0  0  0  0  0
   36.5422   56.8833   39.2368 O   0  0  0  0  0  0
   34.1630   55.7695   35.5555 O   0  0  0  0  0  0
   40.9697   56.1924   36.8173 C   0  0  0  0  0  0
   42.0599   56.4853   36.0001 C   0  0  0  0  0  0
   41.8619   57.1718   34.8045 C   0  0  0  0  0  0
   40.5844   57.5695   34.4184 C   0  0  0  0  0  0
   39.4977   57.2711   35.2359 C   0  0  0  0  0  0
   37.9201   54.4224   34.3605 C   0  0  0  0  0  0
   38.0830   54.3322   33.0002 N   0  0  0  0  0  0
   38.8357   53.1569   32.6035 C   0  0  0  0  0  0
   39.6458   52.8202   33.8641 C   0  0  2  0  0  0
   38.8274   53.4085   35.0292 C   0  0  0  0  0  0
   41.1090   53.3054   33.8311 C   0  0  0  0  0  0
   41.8033   52.7761   34.9450 O   0  0  0  0  0  0
   34.2387   56.5503   38.0431 H   0  0  0  0  0  0
   38.9278   56.0867   38.2456 H   0  0  0  0  0  0
   35.1261   57.5296   33.7557 H   0  0  0  0  0  0
   34.7353   57.9750   31.3633 H   0  0  0  0  0  0
   35.9629   56.7494   29.6416 H   0  0  0  0  0  0
   37.6456   55.0310   30.2296 H   0  0  0  0  0  0
   41.1312   55.6495   37.7376 H   0  0  0  0  0  0
   43.0550   56.1801   36.2902 H   0  0  0  0  0  0
   42.7118   57.3999   34.1764 H   0  0  0  0  0  0
   40.4372   58.1030   33.4900 H   0  0  0  0  0  0
   38.5111   57.5750   34.9280 H   0  0  0  0  0  0
   38.1378   52.3392   32.4136 H   0  0  0  0  0  0
   39.4098   53.3111   31.6884 H   0  0  0  0  0  0
   39.6794   51.7343   33.9642 H   0  0  0  0  0  0
   39.4706   53.8620   35.7824 H   0  0  0  0  0  0
   38.2904   52.6225   35.5505 H   0  0  0  0  0  0
   41.6058   52.9675   32.9204 H   0  0  0  0  0  0
   41.1597   54.3964   33.8462 H   0  0  0  0  0  0
   41.9020   51.8179   34.8152 H   0  0  0  0  0  0
  1  2  2  0  0  0
  1  5  1  0  0  0
  1  8  1  0  0  0
  2  3  1  0  0  0
  2  6  1  0  0  0
  3  4  1  0  0  0
  3 15  2  0  0  0
  4  5  1  0  0  0
  4 29  1  0  0  0
  5 16  2  0  0  0
  6  7  1  0  0  0
  6 30  1  0  0  0
  7 17  2  0  0  0
  7 21  1  0  0  0
  8 10  1  0  0  0
  8 22  2  0  0  0
  9 23  1  0  0  0
  9 10  2  0  0  0
  9 14  1  0  0  0
 10 11  1  0  0  0
 11 12  2  0  0  0
 11 31  1  0  0  0
 12 13  1  0  0  0
 12 32  1  0  0  0
 13 14  2  0  0  0
 13 33  1  0  0  0
 14 34  1  0  0  0
 17 18  1  0  0  0
 17 35  1  0  0  0
 18 19  2  0  0  0
 18 36  1  0  0  0
 19 20  1  0  0  0
 19 37  1  0  0  0
 20 21  2  0  0  0
 20 38  1  0  0  0
 21 39  1  0  0  0
 22 23  1  0  0  0
 22 26  1  0  0  0
 23 24  1  0  0  0
 24 25  1  0  0  0
 24 40  1  0  0  0
 24 41  1  0  0  0
 25 26  1  0  0  0
 25 27  1  0  0  0
 25 42  1  0  0  0
 26 43  1  0  0  0
 26 44  1  0  0  0
 27 28  1  0  0  0
 27 45  1  0  0  0
 27 46  1  0  0  0
 28 47  1  0  0  0
M  END
> <s_m_entry_id>
3280

> <s_m_entry_name>
dock_pv.9

> <s_m_Source_Path>
/home/csk/Desktop/cluster/DUD-E-result/kpcb

> <s_m_Source_File>
dock_pv.maegz

> <i_m_Source_File_Index>
9

> <chembl_id>
CHEMBL2236804

> <chembl_pref_name>
None

> <i_lp_mmshare_version>
53161

> <i_f3d_flags>
0

> <r_lp_tautomer_probability>
0.999999999997686

> <s_lp_Force_Field>
OPLS_2005

> <r_lp_Energy>
44.855815

> <b_lp_Chiralities_Consistent>
1

> <s_lp_Variant>
CHEMBL3045_lig364-1

> <s_i_glide_gridfile>
glide-grid_2i0e

> <i_i_glide_lignum>
528

> <i_i_glide_rotatable_bonds>
5

> <r_i_docking_score>
-9.63383531966363

> <r_i_glide_ligand_efficiency>
-0.344065547130844

> <r_i_glide_ligand_efficiency_sa>
-1.04478564485941

> <r_i_glide_ligand_efficiency_ln>
-2.22377205347446

> <r_i_glide_gscore>
-9.63383531966363

> <r_i_glide_lipo>
-2.57226540563555

> <r_i_glide_hbond>
-0.864

> <r_i_glide_metal>
0

> <r_i_glide_rewards>
-2.72567560574204

> <r_i_glide_evdw>
-45.1474533081055

> <r_i_glide_ecoul>
-10.6839561462402

> <r_i_glide_erotb>
0.388071779055265

> <r_i_glide_esite>
0

> <r_i_glide_emodel>
-89.0195256121725

> <r_i_glide_energy>
-55.8314094543457

> <r_i_glide_einternal>
0.611477136611938

> <i_i_glide_confnum>
7

> <i_i_glide_posenum>
336

> <r_i_glide_eff_state_penalty>
0

> <s_user_duplicate_titles>
CHEMBL3045_lig364

> <s_m_subgroup_title>
dock_pv

> <s_m_subgroupid>
dock_pv

> <b_m_subgroup_collapsed>
1

$$$$
CHEMBL3045_lig48
                    3D
 Schrodinger Suite 2021-1.
 56 61  0  0  1  0            999 V2000
   36.2864   56.0018   35.5826 C   0  0  0  0  0  0
   37.0020   56.2982   36.6854 C   0  0  0  0  0  0
   36.7410   55.6682   34.2253 C   0  0  0  0  0  0
   38.4573   56.4382   36.8888 C   0  0  0  0  0  0
   36.0740   56.4876   37.7699 C   0  0  0  0  0  0
   34.8907   55.9857   35.9443 C   0  0  0  0  0  0
   38.0234   54.8026   32.5449 N   0  0  0  0  0  0
   34.8631   56.3072   37.2380 N   0  0  0  0  0  0
   37.8701   54.9349   33.9106 C   0  0  0  0  0  0
   39.1242   56.1036   38.0572 C   0  0  0  0  0  0
   40.4813   56.2435   37.9138 N   0  0  0  0  0  0
   36.1406   56.0136   32.9613 C   0  0  0  0  0  0
   36.9530   55.4403   31.9307 C   0  0  0  0  0  0
   39.4839   56.9231   35.9958 C   0  0  0  0  0  0
   40.7446   56.7380   36.6500 C   0  0  0  0  0  0
   39.1649   54.1693   31.8533 C   0  0  0  0  0  0
   33.9025   55.7306   35.2579 O   0  0  0  0  0  0
   36.3009   56.7719   38.9452 O   0  0  0  0  0  0
   41.9010   53.1704   32.2906 N   0  0  2  0  0  0
   41.4693   55.9166   38.9294 C   0  0  0  0  0  0
   40.3954   55.0910   32.0204 C   0  0  0  0  0  0
   39.4632   52.7720   32.4487 C   0  0  0  0  0  0
   36.6204   55.5719   30.5751 C   0  0  0  0  0  0
   35.0033   56.7499   32.5830 C   0  0  0  0  0  0
   39.4851   57.5000   34.7150 C   0  0  0  0  0  0
   41.9608   57.0424   36.0250 C   0  0  0  0  0  0
   40.8283   52.2355   31.9783 C   0  0  0  0  0  0
   41.7182   54.4329   31.5813 C   0  0  0  0  0  0
   40.6921   57.8317   34.1059 C   0  0  0  0  0  0
   34.6562   56.8373   31.2388 C   0  0  0  0  0  0
   35.4451   56.2470   30.2607 C   0  0  0  0  0  0
   41.9005   57.5719   34.7381 C   0  0  0  0  0  0
   34.0088   56.3974   37.7701 H   0  0  0  0  0  0
   38.6131   54.5132   34.5729 H   0  0  0  0  0  0
   38.7316   55.7118   38.9862 H   0  0  0  0  0  0
   38.8987   54.0746   30.7998 H   0  0  0  0  0  0
   42.7832   52.7092   32.0529 H   0  0  0  0  0  0
   40.9836   55.5347   39.8280 H   0  0  0  0  0  0
   42.1468   55.1564   38.5394 H   0  0  0  0  0  0
   42.0397   56.8114   39.1794 H   0  0  0  0  0  0
   40.2582   55.9628   31.3801 H   0  0  0  0  0  0
   40.4851   55.4882   33.0269 H   0  0  0  0  0  0
   39.3555   52.6950   33.5300 H   0  0  0  0  0  0
   38.7177   52.0758   32.0614 H   0  0  0  0  0  0
   37.2174   55.1255   29.7929 H   0  0  0  0  0  0
   34.3792   57.2201   33.3253 H   0  0  0  0  0  0
   38.5567   57.6634   34.1931 H   0  0  0  0  0  0
   42.9121   56.8829   36.5121 H   0  0  0  0  0  0
   40.8175   52.0626   30.9006 H   0  0  0  0  0  0
   41.0553   51.2742   32.4372 H   0  0  0  0  0  0
   41.7271   54.2582   30.5042 H   0  0  0  0  0  0
   42.5599   55.0867   31.8138 H   0  0  0  0  0  0
   40.6920   58.2623   33.1148 H   0  0  0  0  0  0
   33.7590   57.3658   30.9492 H   0  0  0  0  0  0
   35.1389   56.3124   29.2265 H   0  0  0  0  0  0
   42.8221   57.8188   34.2307 H   0  0  0  0  0  0
  1  2  2  0  0  0
  1  3  1  0  0  0
  1  6  1  0  0  0
  2  4  1  0  0  0
  2  5  1  0  0  0
  3  9  2  0  0  0
  3 12  1  0  0  0
  4 10  2  0  0  0
  4 14  1  0  0  0
  5 18  2  0  0  0
  5  8  1  0  0  0
  6  8  1  0  0  0
  6 17  2  0  0  0
  7  9  1  0  0  0
  7 16  1  0  0  0
  7 13  1  0  0  0
  8 33  1  0  0  0
  9 34  1  0  0  0
 10 11  1  0  0  0
 10 35  1  0  0  0
 11 20  1  0  0  0
 11 15  1  0  0  0
 12 13  2  0  0  0
 12 24  1  0  0  0
 13 23  1  0  0  0
 14 15  2  0  0  0
 14 25  1  0  0  0
 15 26  1  0  0  0
 16 21  1  0  0  0
 16 22  1  0  0  0
 16 36  1  0  0  0
 19 27  1  0  0  0
 19 28  1  0  0  0
 19 37  1  0  0  0
 20 38  1  0  0  0
 20 39  1  0  0  0
 20 40  1  0  0  0
 21 28  1  0  0  0
 21 41  1  0  0  0
 21 42  1  0  0  0
 22 27  1  0  0  0
 22 43  1  0  0  0
 22 44  1  0  0  0
 23 31  2  0  0  0
 23 45  1  0  0  0
 24 30  2  0  0  0
 24 46  1  0  0  0
 25 29  2  0  0  0
 25 47  1  0  0  0
 26 32  2  0  0  0
 26 48  1  0  0  0
 27 49  1  0  0  0
 27 50  1  0  0  0
 28 51  1  0  0  0
 28 52  1  0  0  0
 29 32  1  0  0  0
 29 53  1  0  0  0
 30 31  1  0  0  0
 30 54  1  0  0  0
 31 55  1  0  0  0
 32 56  1  0  0  0
M  END
> <s_m_entry_id>
3281

> <s_m_entry_name>
dock_pv.10

> <s_m_Source_Path>
/home/csk/Desktop/cluster/DUD-E-result/kpcb

> <s_m_Source_File>
dock_pv.maegz

> <i_m_Source_File_Index>
10

> <chembl_id>
CHEMBL55788

> <chembl_pref_name>
None

> <i_lp_mmshare_version>
53161

> <i_f3d_flags>
0

> <r_lp_tautomer_probability>
1

> <s_lp_Force_Field>
OPLS_2005

> <r_lp_Energy>
38.647208

> <b_lp_Chiralities_Consistent>
1

> <s_lp_Variant>
CHEMBL3045_lig48-1

> <s_i_glide_gridfile>
glide-grid_2i0e

> <i_i_glide_lignum>
51

> <i_i_glide_rotatable_bonds>
3

> <r_i_docking_score>
-9.60460079870017

> <r_i_glide_ligand_efficiency>
-0.30014377495938

> <r_i_glide_ligand_efficiency_sa>
-0.952897087123624

> <r_i_glide_ligand_efficiency_ln>
-2.1507319303586

> <r_i_glide_gscore>
-9.60460079870017

> <r_i_glide_lipo>
-2.80188832436492

> <r_i_glide_hbond>
-0.714635952646949

> <r_i_glide_metal>
0

> <r_i_glide_rewards>
-2.525202942588

> <r_i_glide_evdw>
-49.4857177734375

> <r_i_glide_ecoul>
-8.79782104492188

> <r_i_glide_erotb>
0.231085466309854

> <r_i_glide_esite>
0

> <r_i_glide_emodel>
-91.484400989266

> <r_i_glide_energy>
-58.2835388183594

> <r_i_glide_einternal>
3.01526999473572

> <i_i_glide_confnum>
15

> <i_i_glide_posenum>
112

> <r_i_glide_eff_state_penalty>
0

> <s_user_duplicate_titles>
CHEMBL3045_lig48,83665

> <s_m_subgroup_title>
dock_pv

> <s_m_subgroupid>
dock_pv

> <b_m_subgroup_collapsed>
1

$$$$
CHEMBL3045_lig229
                    3D
 Schrodinger Suite 2021-1.
 51 54  0  0  1  0            999 V2000
   36.4309   56.1928   35.9084 C   0  0  0  0  0  0
   36.7984   55.7914   34.5469 C   0  0  0  0  0  0
   37.2144   56.5211   36.9570 C   0  0  0  0  0  0
   35.0575   56.2157   36.3346 C   0  0  0  0  0  0
   35.1013   56.5599   37.6212 N   0  0  0  0  0  0
   36.3411   56.7507   38.0772 C   0  0  0  0  0  0
   37.8421   54.9521   34.2265 C   0  0  0  0  0  0
   37.9486   54.7833   32.8637 N   0  0  0  0  0  0
   36.1857   56.1469   33.2914 C   0  0  0  0  0  0
   36.9203   55.4864   32.2545 C   0  0  0  0  0  0
   38.5849   56.6282   37.1525 N   0  0  0  0  0  0
   42.3057   53.2612   35.7643 C   0  0  0  0  0  0
   34.0347   55.9721   35.6970 O   0  0  0  0  0  0
   42.2667   53.6731   36.9501 N   0  0  0  0  0  0
   36.6334   57.0634   39.2322 O   0  0  0  0  0  0
   41.1740   53.9871   34.5647 S   0  0  0  0  0  0
   43.1994   52.3726   35.2371 N   0  0  0  0  0  0
   39.0038   54.0403   32.1704 C   0  0  0  0  0  0
   39.6366   56.9801   36.2896 C   0  0  0  0  0  0
   35.1011   56.9618   32.9270 C   0  0  0  0  0  0
   39.2585   52.6516   32.7961 C   0  0  0  0  0  0
   36.5623   55.6032   30.9029 C   0  0  0  0  0  0
   40.4252   52.5072   33.8033 C   0  0  0  0  0  0
   39.4489   57.5444   35.0235 C   0  0  0  0  0  0
   40.9356   56.7710   36.7574 C   0  0  0  0  0  0
   34.7292   57.0482   31.5879 C   0  0  0  0  0  0
   35.4388   56.3692   30.6032 C   0  0  0  0  0  0
   42.0314   57.0670   35.9508 C   0  0  0  0  0  0
   40.5400   57.8269   34.2064 C   0  0  0  0  0  0
   41.8267   57.5720   34.6700 C   0  0  0  0  0  0
   34.2663   56.6729   38.1839 H   0  0  0  0  0  0
   38.5426   54.4697   34.8898 H   0  0  0  0  0  0
   38.9144   56.4906   38.0978 H   0  0  0  0  0  0
   42.9857   53.2272   37.5097 H   0  0  0  0  0  0
   43.9264   51.9923   35.8290 H   0  0  0  0  0  0
   42.9784   51.8670   34.3890 H   0  0  0  0  0  0
   39.9040   54.6539   32.1238 H   0  0  0  0  0  0
   38.7024   53.8981   31.1323 H   0  0  0  0  0  0
   34.5454   57.4965   33.6808 H   0  0  0  0  0  0
   39.4650   51.9726   31.9712 H   0  0  0  0  0  0
   38.3373   52.2567   33.2286 H   0  0  0  0  0  0
   37.1074   55.1046   30.1143 H   0  0  0  0  0  0
   41.2288   51.9737   33.2903 H   0  0  0  0  0  0
   40.0802   51.8580   34.6093 H   0  0  0  0  0  0
   38.4588   57.7395   34.6512 H   0  0  0  0  0  0
   41.1081   56.3445   37.7351 H   0  0  0  0  0  0
   33.8746   57.6477   31.3064 H   0  0  0  0  0  0
   35.1154   56.4430   29.5750 H   0  0  0  0  0  0
   43.0342   56.8807   36.3071 H   0  0  0  0  0  0
   40.3884   58.2338   33.2174 H   0  0  0  0  0  0
   42.6776   57.7864   34.0403 H   0  0  0  0  0  0
  1  2  1  0  0  0
  1  3  2  0  0  0
  1  4  1  0  0  0
  2  7  2  0  0  0
  2  9  1  0  0  0
  3  6  1  0  0  0
  3 11  1  0  0  0
  4  5  1  0  0  0
  4 13  2  0  0  0
  5  6  1  0  0  0
  5 31  1  0  0  0
  6 15  2  0  0  0
  7  8  1  0  0  0
  7 32  1  0  0  0
  8 10  1  0  0  0
  8 18  1  0  0  0
  9 10  2  0  0  0
  9 20  1  0  0  0
 10 22  1  0  0  0
 11 19  1  0  0  0
 11 33  1  0  0  0
 12 14  2  0  0  0
 12 16  1  0  0  0
 12 17  1  0  0  0
 14 34  1  0  0  0
 16 23  1  0  0  0
 17 35  1  0  0  0
 17 36  1  0  0  0
 18 21  1  0  0  0
 18 37  1  0  0  0
 18 38  1  0  0  0
 19 24  2  0  0  0
 19 25  1  0  0  0
 20 26  2  0  0  0
 20 39  1  0  0  0
 21 23  1  0  0  0
 21 40  1  0  0  0
 21 41  1  0  0  0
 22 27  2  0  0  0
 22 42  1  0  0  0
 23 43  1  0  0  0
 23 44  1  0  0  0
 24 29  1  0  0  0
 24 45  1  0  0  0
 25 28  2  0  0  0
 25 46  1  0  0  0
 26 27  1  0  0  0
 26 47  1  0  0  0
 27 48  1  0  0  0
 28 30  1  0  0  0
 28 49  1  0  0  0
 29 30  2  0  0  0
 29 50  1  0  0  0
 30 51  1  0  0  0
M  END
> <s_m_entry_id>
3282

> <s_m_entry_name>
dock_pv.11

> <s_m_Source_Path>
/home/csk/Desktop/cluster/DUD-E-result/kpcb

> <s_m_Source_File>
dock_pv.maegz

> <i_m_Source_File_Index>
11

> <chembl_id>
CHEMBL540357

> <chembl_pref_name>
None

> <i_lp_mmshare_version>
53161

> <i_f3d_flags>
0

> <r_lp_tautomer_probability>
0.999999999997686

> <s_lp_Force_Field>
OPLS_2005

> <r_lp_Energy>
25.114283

> <b_lp_Chiralities_Consistent>
1

> <s_lp_Variant>
CHEMBL3045_lig229-1

> <s_i_glide_gridfile>
glide-grid_2i0e

> <i_i_glide_lignum>
387

> <i_i_glide_rotatable_bonds>
8

> <r_i_docking_score>
-9.46979120686969

> <r_i_glide_ligand_efficiency>
-0.315659706895656

> <r_i_glide_ligand_efficiency_sa>
-0.980828100974055

> <r_i_glide_ligand_efficiency_ln>
-2.15163974384019

> <r_i_glide_gscore>
-9.46979120686969

> <r_i_glide_lipo>
-2.68854118080403

> <r_i_glide_hbond>
-0.744794203414564

> <r_i_glide_metal>
0

> <r_i_glide_rewards>
-2.44176562200368

> <r_i_glide_evdw>
-49.9892997741699

> <r_i_glide_ecoul>
-10.8896293640137

> <r_i_glide_erotb>
0.629558034700003

> <r_i_glide_esite>
-0.0913388420368752

> <r_i_glide_emodel>
-95.9542432790237

> <r_i_glide_energy>
-60.8789291381836

> <r_i_glide_einternal>
7.26702976226807

> <i_i_glide_confnum>
57

> <i_i_glide_posenum>
97

> <r_i_glide_eff_state_penalty>
0

> <s_user_duplicate_titles>
CHEMBL3045_lig229,552851

> <s_m_subgroup_title>
dock_pv

> <s_m_subgroupid>
dock_pv

> <b_m_subgroup_collapsed>
1

$$$$
CHEMBL3045_lig266
                    3D
 Schrodinger Suite 2021-1.
 47 52  0  0  1  0            999 V2000
   39.8841   56.2218   34.8786 N   0  0  0  0  0  0
   39.2478   56.4655   37.0492 C   0  0  0  0  0  0
   38.0779   56.2939   36.2725 C   0  0  0  0  0  0
   39.4878   56.6041   38.4318 C   0  0  0  0  0  0
   40.7890   56.7738   38.8894 C   0  0  0  0  0  0
   40.3539   56.4735   36.1640 C   0  0  0  0  0  0
   41.8553   56.8160   38.0030 C   0  0  0  0  0  0
   41.6679   56.6729   36.6307 C   0  0  0  0  0  0
   35.7601   55.9915   35.6270 C   0  0  0  0  0  0
   36.1134   55.9241   34.2772 C   0  0  0  0  0  0
   36.7079   56.2211   36.6050 C   0  0  0  0  0  0
   37.4763   56.0388   33.8848 C   0  0  0  0  0  0
   38.4762   56.1810   34.8977 C   0  0  0  0  0  0
   37.4833   55.9990   32.4746 N   0  0  0  0  0  0
   35.3230   55.7593   33.1293 C   0  0  0  0  0  0
   33.9412   55.5721   32.9381 C   0  0  0  0  0  0
   33.4460   55.4890   31.6407 C   0  0  0  0  0  0
   34.3005   55.5720   30.5498 C   0  0  0  0  0  0
   36.1815   55.8224   32.0102 C   0  0  0  0  0  0
   35.6773   55.7183   30.7022 C   0  0  0  0  0  0
   34.4000   55.9033   36.2452 C   0  0  0  0  0  0
   34.7011   56.1661   37.6344 N   0  0  0  0  0  0
   35.9886   56.3812   37.9165 C   0  0  0  0  0  0
   36.4092   56.6777   39.0284 O   0  0  0  0  0  0
   40.8201   56.0575   33.7750 C   0  0  0  0  0  0
   38.5877   56.0796   31.5241 C   0  0  0  0  0  0
   39.0343   54.6787   31.0418 C   0  0  0  0  0  0
   38.9209   53.6018   32.0440 C   0  0  0  0  0  0
   38.8253   52.7648   32.8372 N   0  0  0  0  0  0
   38.6993   56.5645   39.1613 H   0  0  0  0  0  0
   40.9713   56.8774   39.9501 H   0  0  0  0  0  0
   42.8551   56.9544   38.3886 H   0  0  0  0  0  0
   42.5210   56.6975   35.9699 H   0  0  0  0  0  0
   33.2628   55.5139   33.7748 H   0  0  0  0  0  0
   32.3841   55.3661   31.4782 H   0  0  0  0  0  0
   33.8946   55.4980   29.5524 H   0  0  0  0  0  0
   36.3132   55.7538   29.8316 H   0  0  0  0  0  0
   33.9415   54.9238   36.1230 H   0  0  0  0  0  0
   33.7084   56.6535   35.8593 H   0  0  0  0  0  0
   33.9675   56.3498   38.3127 H   0  0  0  0  0  0
   41.7922   55.7283   34.1395 H   0  0  0  0  0  0
   40.4860   55.2670   33.1171 H   0  0  0  0  0  0
   40.9579   57.0079   33.2599 H   0  0  0  0  0  0
   38.2483   56.6532   30.6633 H   0  0  0  0  0  0
   39.3682   56.7088   31.9145 H   0  0  0  0  0  0
   38.4208   54.3727   30.1953 H   0  0  0  0  0  0
   40.0624   54.7103   30.6793 H   0  0  0  0  0  0
  1  6  1  0  0  0
  1 13  1  0  0  0
  1 25  1  0  0  0
  2  6  1  0  0  0
  2  3  1  0  0  0
  2  4  2  0  0  0
  3 13  2  0  0  0
  3 11  1  0  0  0
  4  5  1  0  0  0
  4 30  1  0  0  0
  5  7  2  0  0  0
  5 31  1  0  0  0
  6  8  2  0  0  0
  7  8  1  0  0  0
  7 32  1  0  0  0
  8 33  1  0  0  0
  9 10  1  0  0  0
  9 11  2  0  0  0
  9 21  1  0  0  0
 10 12  2  0  0  0
 10 15  1  0  0  0
 11 23  1  0  0  0
 12 13  1  0  0  0
 12 14  1  0  0  0
 14 19  1  0  0  0
 14 26  1  0  0  0
 15 19  2  0  0  0
 15 16  1  0  0  0
 16 17  2  0  0  0
 16 34  1  0  0  0
 17 18  1  0  0  0
 17 35  1  0  0  0
 18 20  2  0  0  0
 18 36  1  0  0  0
 19 20  1  0  0  0
 20 37  1  0  0  0
 21 22  1  0  0  0
 21 38  1  0  0  0
 21 39  1  0  0  0
 22 23  1  0  0  0
 22 40  1  0  0  0
 23 24  2  0  0  0
 25 41  1  0  0  0
 25 42  1  0  0  0
 25 43  1  0  0  0
 26 27  1  0  0  0
 26 44  1  0  0  0
 26 45  1  0  0  0
 27 28  1  0  0  0
 27 46  1  0  0  0
 27 47  1  0  0  0
 28 29  3  0  0  0
M  END
> <s_m_entry_id>
3283

> <s_m_entry_name>
dock_pv.12

> <s_m_Source_Path>
/home/csk/Desktop/cluster/DUD-E-result/kpcb

> <s_m_Source_File>
dock_pv.maegz

> <i_m_Source_File_Index>
12

> <chembl_id>
CHEMBL302449

> <chembl_pref_name>
GO-6976

> <i_lp_mmshare_version>
53161

> <i_f3d_flags>
0

> <r_lp_tautomer_probability>
1

> <s_lp_Force_Field>
OPLS_2005

> <r_lp_Energy>
91.344719

> <b_lp_Chiralities_Consistent>
1

> <s_lp_Variant>
CHEMBL3045_lig266-1

> <s_i_glide_gridfile>
glide-grid_2i0e

> <i_i_glide_lignum>
426

> <i_i_glide_rotatable_bonds>
2

> <r_i_docking_score>
-9.46572831953514

> <r_i_glide_ligand_efficiency>
-0.326404424811557

> <r_i_glide_ligand_efficiency_sa>
-1.00281780520126

> <r_i_glide_ligand_efficiency_ln>
-2.16741175501373

> <r_i_glide_gscore>
-9.46572831953514

> <r_i_glide_lipo>
-3.18636558743789

> <r_i_glide_hbond>
-0.608

> <r_i_glide_metal>
0

> <r_i_glide_rewards>
-2.4055133853931

> <r_i_glide_evdw>
-44.6528472900391

> <r_i_glide_ecoul>
-7.353675365448

> <r_i_glide_erotb>
0.0947258581296114

> <r_i_glide_esite>
-0.0248815355146091

> <r_i_glide_emodel>
-81.0790938225402

> <r_i_glide_energy>
-52.0065226554871

> <r_i_glide_einternal>
0.901221930980682

> <i_i_glide_confnum>
3

> <i_i_glide_posenum>
228

> <r_i_glide_eff_state_penalty>
0

> <s_user_duplicate_titles>
CHEMBL3045_lig266,92744

> <s_m_subgroup_title>
dock_pv

> <s_m_subgroupid>
dock_pv

> <b_m_subgroup_collapsed>
1

$$$$
CHEMBL3045_lig394
                    3D
 Schrodinger Suite 2021-1.
 48 52  0  0  1  0            999 V2000
   36.0399   56.2079   35.4874 C   0  0  0  0  0  0
   36.7984   56.5762   36.5409 C   0  0  0  0  0  0
   35.9284   56.6969   37.6828 C   0  0  0  0  0  0
   34.7120   56.3718   37.2309 N   0  0  0  0  0  0
   34.6788   56.0945   35.9242 C   0  0  0  0  0  0
   38.2523   56.8296   36.5706 C   0  0  0  0  0  0
   38.9679   57.2368   35.4609 C   0  0  0  0  0  0
   40.3127   57.2435   35.7077 N   0  0  0  0  0  0
   39.2343   56.6976   37.6274 C   0  0  0  0  0  0
   40.5189   56.9623   37.0445 C   0  0  0  0  0  0
   41.7098   56.9006   37.7817 C   0  0  0  0  0  0
   41.6064   56.5689   39.1308 C   0  0  0  0  0  0
   40.3806   56.2981   39.7247 C   0  0  0  0  0  0
   39.1983   56.3529   38.9917 C   0  0  0  0  0  0
   41.3358   57.5011   34.7107 C   0  0  0  0  0  0
   36.4529   55.9238   34.0799 C   0  0  0  0  0  0
   35.8014   56.5977   33.0396 C   0  0  0  0  0  0
   36.1666   56.4213   31.7105 C   0  0  0  0  0  0
   37.2129   55.5723   31.3755 C   0  0  0  0  0  0
   37.5090   55.0081   33.7466 C   0  0  0  0  0  0
   37.9047   54.8552   32.3787 C   0  0  0  0  0  0
   38.9763   53.9868   32.0501 C   0  0  0  0  0  0
   39.6554   53.2946   33.0498 C   0  0  0  0  0  0
   39.2769   53.4281   34.3822 C   0  0  0  0  0  0
   38.2023   54.2412   34.7233 C   0  0  0  0  0  0
   40.0257   52.7063   35.4833 C   0  0  0  0  0  0
   39.5010   51.3687   35.6368 N   0  0  0  0  0  0
   36.1841   57.0387   38.8360 O   0  0  0  0  0  0
   33.6815   55.8156   35.2654 O   0  0  0  0  0  0
   33.8857   56.4010   37.8137 H   0  0  0  0  0  0
   38.6270   57.4499   34.4577 H   0  0  0  0  0  0
   42.6739   57.0955   37.3314 H   0  0  0  0  0  0
   42.5055   56.5091   39.7286 H   0  0  0  0  0  0
   40.3427   56.0290   40.7718 H   0  0  0  0  0  0
   38.2783   56.0969   39.4872 H   0  0  0  0  0  0
   42.0032   56.6393   34.6474 H   0  0  0  0  0  0
   40.8878   57.6774   33.7314 H   0  0  0  0  0  0
   41.9019   58.3765   35.0104 H   0  0  0  0  0  0
   34.9976   57.2852   33.2642 H   0  0  0  0  0  0
   35.6423   56.9601   30.9356 H   0  0  0  0  0  0
   37.4995   55.4421   30.3423 H   0  0  0  0  0  0
   39.2697   53.8667   31.0178 H   0  0  0  0  0  0
   40.4789   52.6469   32.7829 H   0  0  0  0  0  0
   37.9133   54.3017   35.7619 H   0  0  0  0  0  0
   39.9222   53.2403   36.4294 H   0  0  0  0  0  0
   41.0943   52.6602   35.2644 H   0  0  0  0  0  0
   38.6691   51.2816   35.0662 H   0  0  0  0  0  0
   40.1875   50.7397   35.2158 H   0  0  0  0  0  0
  1  2  2  0  0  0
  1  5  1  0  0  0
  1 16  1  0  0  0
  2  3  1  0  0  0
  2  6  1  0  0  0
  3  4  1  0  0  0
  3 28  2  0  0  0
  4  5  1  0  0  0
  4 30  1  0  0  0
  5 29  2  0  0  0
  6  7  2  0  0  0
  6  9  1  0  0  0
  7  8  1  0  0  0
  7 31  1  0  0  0
  8 10  1  0  0  0
  8 15  1  0  0  0
  9 10  2  0  0  0
  9 14  1  0  0  0
 10 11  1  0  0  0
 11 12  2  0  0  0
 11 32  1  0  0  0
 12 13  1  0  0  0
 12 33  1  0  0  0
 13 14  2  0  0  0
 13 34  1  0  0  0
 14 35  1  0  0  0
 15 36  1  0  0  0
 15 37  1  0  0  0
 15 38  1  0  0  0
 16 17  2  0  0  0
 16 20  1  0  0  0
 17 18  1  0  0  0
 17 39  1  0  0  0
 18 19  2  0  0  0
 18 40  1  0  0  0
 19 21  1  0  0  0
 19 41  1  0  0  0
 20 21  1  0  0  0
 20 25  2  0  0  0
 21 22  2  0  0  0
 22 23  1  0  0  0
 22 42  1  0  0  0
 23 24  2  0  0  0
 23 43  1  0  0  0
 24 25  1  0  0  0
 24 26  1  0  0  0
 25 44  1  0  0  0
 26 27  1  0  0  0
 26 45  1  0  0  0
 26 46  1  0  0  0
 27 47  1  0  0  0
 27 48  1  0  0  0
M  END
> <s_m_entry_id>
3284

> <s_m_entry_name>
dock_pv.13

> <s_m_Source_Path>
/home/csk/Desktop/cluster/DUD-E-result/kpcb

> <s_m_Source_File>
dock_pv.maegz

> <i_m_Source_File_Index>
13

> <chembl_id>
CHEMBL4083182

> <chembl_pref_name>
None

> <i_lp_mmshare_version>
53161

> <i_f3d_flags>
0

> <r_lp_tautomer_probability>
1

> <s_lp_Force_Field>
OPLS_2005

> <r_lp_Energy>
28.620822

> <b_lp_Chiralities_Consistent>
1

> <s_lp_Variant>
CHEMBL3045_lig394-1

> <s_i_glide_gridfile>
glide-grid_2i0e

> <i_i_glide_lignum>
560

> <i_i_glide_rotatable_bonds>
3

> <r_i_docking_score>
-9.38635530736475

> <r_i_glide_ligand_efficiency>
-0.323667424391888

> <r_i_glide_ligand_efficiency_sa>
-0.994408872769442

> <r_i_glide_ligand_efficiency_ln>
-2.14923734795264

> <r_i_glide_gscore>
-9.38635530736475

> <r_i_glide_lipo>
-2.36045484969068

> <r_i_glide_hbond>
-0.85656704472585

> <r_i_glide_metal>
0

> <r_i_glide_rewards>
-2.69639706381288

> <r_i_glide_evdw>
-46.1674461364746

> <r_i_glide_ecoul>
-9.00902557373047

> <r_i_glide_erotb>
0.186789793747959

> <r_i_glide_esite>
0

> <r_i_glide_emodel>
-86.3826567299435

> <r_i_glide_energy>
-55.1764717102051

> <r_i_glide_einternal>
1.60887932777405

> <i_i_glide_confnum>
1

> <i_i_glide_posenum>
355

> <r_i_glide_eff_state_penalty>
0

> <s_user_duplicate_titles>
CHEMBL3045_lig394

> <s_m_subgroup_title>
dock_pv

> <s_m_subgroupid>
dock_pv

> <b_m_subgroup_collapsed>
1

$$$$
CHEMBL3045_lig214
                    3D
 Schrodinger Suite 2021-1.
 46 51  0  0  1  0            999 V2000
   36.9767   56.4145   36.8590 C   0  0  0  0  0  0
   36.2604   56.0894   35.7712 C   0  0  0  0  0  0
   38.4237   56.6064   37.0259 C   0  0  0  0  0  0
   36.7230   55.7300   34.4355 C   0  0  0  0  0  0
   36.0606   56.5877   37.9480 C   0  0  0  0  0  0
   34.8720   56.0540   36.1320 C   0  0  0  0  0  0
   38.0414   54.7824   32.8277 N   0  0  0  0  0  0
   34.8491   56.3719   37.4279 N   0  0  0  0  0  0
   39.1165   56.3719   38.1942 N   0  0  0  0  0  0
   37.8129   54.9350   34.1801 C   0  0  0  0  0  0
   36.1844   56.0771   33.1532 C   0  0  0  0  0  0
   37.0055   55.4495   32.1571 C   0  0  0  0  0  0
   39.4416   57.0172   36.1113 C   0  0  0  0  0  0
   40.4474   56.5262   38.1466 N   0  0  0  0  0  0
   40.6596   56.9018   36.8533 C   0  0  0  0  0  0
   39.1921   54.1301   32.3018 C   0  0  0  0  0  0
   36.3014   56.8826   39.1137 O   0  0  0  0  0  0
   33.8956   55.7939   35.4369 O   0  0  0  0  0  0
   40.7960   53.8298   30.4979 N   0  0  0  0  0  0
   36.6897   55.5715   30.7931 C   0  0  0  0  0  0
   39.4908   57.4575   34.7764 C   0  0  0  0  0  0
   35.0928   56.8616   32.7431 C   0  0  0  0  0  0
   39.6871   54.4085   31.0207 C   0  0  0  0  0  0
   41.4841   52.9645   31.2746 C   0  0  0  0  0  0
   41.8937   57.1686   36.2433 C   0  0  0  0  0  0
   39.9099   53.1935   33.0679 C   0  0  0  0  0  0
   40.7232   57.7087   34.1844 C   0  0  0  0  0  0
   35.5629   56.3113   30.4406 C   0  0  0  0  0  0
   34.7886   56.9581   31.3902 C   0  0  0  0  0  0
   41.0856   52.6393   32.5660 C   0  0  0  0  0  0
   41.9027   57.5563   34.9037 C   0  0  0  0  0  0
   33.9947   56.4565   37.9627 H   0  0  0  0  0  0
   38.6647   56.0730   39.0466 H   0  0  0  0  0  0
   38.4946   54.5071   34.9012 H   0  0  0  0  0  0
   37.2414   55.0628   30.0204 H   0  0  0  0  0  0
   38.5872   57.5745   34.1987 H   0  0  0  0  0  0
   34.4777   57.3638   33.4725 H   0  0  0  0  0  0
   39.2495   55.1568   30.3817 H   0  0  0  0  0  0
   42.3801   52.5312   30.8522 H   0  0  0  0  0  0
   42.8196   57.0744   36.7914 H   0  0  0  0  0  0
   39.5979   52.9001   34.0587 H   0  0  0  0  0  0
   40.7685   58.0206   33.1517 H   0  0  0  0  0  0
   35.2846   56.3734   29.3987 H   0  0  0  0  0  0
   33.9273   57.5321   31.0744 H   0  0  0  0  0  0
   41.6823   51.9726   33.1666 H   0  0  0  0  0  0
   42.8468   57.7588   34.4203 H   0  0  0  0  0  0
  1  2  2  0  0  0
  1  3  1  0  0  0
  1  5  1  0  0  0
  2  4  1  0  0  0
  2  6  1  0  0  0
  3  9  1  0  0  0
  3 13  2  0  0  0
  4 10  2  0  0  0
  4 11  1  0  0  0
  5  8  1  0  0  0
  5 17  2  0  0  0
  6 18  2  0  0  0
  6  8  1  0  0  0
  7 10  1  0  0  0
  7 16  1  0  0  0
  7 12  1  0  0  0
  8 32  1  0  0  0
  9 14  1  0  0  0
  9 33  1  0  0  0
 10 34  1  0  0  0
 11 12  2  0  0  0
 11 22  1  0  0  0
 12 20  1  0  0  0
 13 15  1  0  0  0
 13 21  1  0  0  0
 14 15  2  0  0  0
 15 25  1  0  0  0
 16 23  2  0  0  0
 16 26  1  0  0  0
 19 23  1  0  0  0
 19 24  2  0  0  0
 20 28  2  0  0  0
 20 35  1  0  0  0
 21 27  2  0  0  0
 21 36  1  0  0  0
 22 29  2  0  0  0
 22 37  1  0  0  0
 23 38  1  0  0  0
 24 30  1  0  0  0
 24 39  1  0  0  0
 25 31  2  0  0  0
 25 40  1  0  0  0
 26 30  2  0  0  0
 26 41  1  0  0  0
 27 31  1  0  0  0
 27 42  1  0  0  0
 28 29  1  0  0  0
 28 43  1  0  0  0
 29 44  1  0  0  0
 30 45  1  0  0  0
 31 46  1  0  0  0
M  END
> <s_m_entry_id>
3285

> <s_m_entry_name>
dock_pv.14

> <s_m_Source_Path>
/home/csk/Desktop/cluster/DUD-E-result/kpcb

> <s_m_Source_File>
dock_pv.maegz

> <i_m_Source_File_Index>
14

> <chembl_id>
CHEMBL175956

> <chembl_pref_name>
None

> <i_lp_mmshare_version>
53161

> <i_f3d_flags>
0

> <r_lp_tautomer_probability>
1

> <s_lp_Force_Field>
OPLS_2005

> <r_lp_Energy>
43.621206

> <b_lp_Chiralities_Consistent>
1

> <s_lp_Variant>
CHEMBL3045_lig214-1

> <s_i_glide_gridfile>
glide-grid_2i0e

> <i_i_glide_lignum>
371

> <i_i_glide_rotatable_bonds>
3

> <r_i_docking_score>
-9.32083902287051

> <r_i_glide_ligand_efficiency>
-0.30067222654421

> <r_i_glide_ligand_efficiency_sa>
-0.944525914096259

> <r_i_glide_ligand_efficiency_ln>
-2.10213484906815

> <r_i_glide_gscore>
-9.32083902287051

> <r_i_glide_lipo>
-2.68224985773234

> <r_i_glide_hbond>
-0.608

> <r_i_glide_metal>
0

> <r_i_glide_rewards>
-2.51292742201447

> <r_i_glide_evdw>
-49.5958862304688

> <r_i_glide_ecoul>
-8.59313106536865

> <r_i_glide_erotb>
0.251102228205037

> <r_i_glide_esite>
0

> <r_i_glide_emodel>
-91.2183632688

> <r_i_glide_energy>
-58.1890172958374

> <r_i_glide_einternal>
1.8892730474472

> <i_i_glide_confnum>
28

> <i_i_glide_posenum>
119

> <r_i_glide_eff_state_penalty>
0

> <s_user_duplicate_titles>
CHEMBL3045_lig214,296937

> <s_m_subgroup_title>
dock_pv

> <s_m_subgroupid>
dock_pv

> <b_m_subgroup_collapsed>
1

$$$$
CHEMBL3045_lig398
                    3D
 Schrodinger Suite 2021-1.
 51 55  0  0  1  0            999 V2000
   36.2524   56.0581   35.4515 C   0  0  0  0  0  0
   36.9165   56.3572   36.5863 C   0  0  0  0  0  0
   35.9405   56.4509   37.6463 C   0  0  0  0  0  0
   34.7654   56.1724   37.0763 N   0  0  0  0  0  0
   34.8592   55.8928   35.7745 C   0  0  0  0  0  0
   38.3591   56.5693   36.8355 C   0  0  0  0  0  0
   38.9854   56.2977   38.0439 C   0  0  0  0  0  0
   40.3414   56.4813   37.9606 N   0  0  0  0  0  0
   39.4255   56.9962   35.9528 C   0  0  0  0  0  0
   40.6572   56.8853   36.6776 C   0  0  0  0  0  0
   41.9009   57.1618   36.0908 C   0  0  0  0  0  0
   41.9006   57.5715   34.7574 C   0  0  0  0  0  0
   40.7240   57.7258   34.0379 C   0  0  0  0  0  0
   39.4913   57.4506   34.6228 C   0  0  0  0  0  0
   36.7751   55.8148   34.0684 C   0  0  0  0  0  0
   36.3084   56.5960   32.9851 C   0  0  0  0  0  0
   36.7715   56.3729   31.6905 C   0  0  0  0  0  0
   37.7134   55.3971   31.4196 C   0  0  0  0  0  0
   37.7579   54.7880   33.7972 C   0  0  0  0  0  0
   38.2221   54.5923   32.4567 C   0  0  0  0  0  0
   39.1783   53.5851   32.1754 C   0  0  0  0  0  0
   39.6654   52.7711   33.1883 C   0  0  0  0  0  0
   39.2275   52.9413   34.4983 C   0  0  0  0  0  0
   38.2983   53.9351   34.8031 C   0  0  0  0  0  0
   39.7180   52.0178   35.5949 C   0  0  0  0  0  0
   41.0514   52.3721   36.0371 N   0  0  0  0  0  0
   36.0988   56.7268   38.8367 O   0  0  0  0  0  0
   33.9253   55.5749   35.0414 O   0  0  0  0  0  0
   35.3382   57.7605   33.1701 C   0  0  0  0  0  0
   41.2874   56.2082   39.0315 C   0  0  0  0  0  0
   33.8940   56.1706   37.5848 H   0  0  0  0  0  0
   38.5678   55.9356   38.9750 H   0  0  0  0  0  0
   42.8254   57.0619   36.6402 H   0  0  0  0  0  0
   42.8441   57.7891   34.2772 H   0  0  0  0  0  0
   40.7683   58.0540   33.0085 H   0  0  0  0  0  0
   38.6000   57.5725   34.0378 H   0  0  0  0  0  0
   36.4094   56.9800   30.8721 H   0  0  0  0  0  0
   38.0613   55.2408   30.4079 H   0  0  0  0  0  0
   39.5173   53.4381   31.1581 H   0  0  0  0  0  0
   40.3823   51.9960   32.9525 H   0  0  0  0  0  0
   37.9628   54.0340   35.8222 H   0  0  0  0  0  0
   39.6849   50.9782   35.2667 H   0  0  0  0  0  0
   39.0419   52.0887   36.4369 H   0  0  0  0  0  0
   41.7068   51.8191   35.4879 H   0  0  0  0  0  0
   41.2377   53.3388   35.8075 H   0  0  0  0  0  0
   35.4666   58.2495   34.1358 H   0  0  0  0  0  0
   35.5036   58.5381   32.4272 H   0  0  0  0  0  0
   34.3102   57.4148   33.0749 H   0  0  0  0  0  0
   41.9390   57.0714   39.1688 H   0  0  0  0  0  0
   40.7589   56.0080   39.9657 H   0  0  0  0  0  0
   41.8907   55.3401   38.7651 H   0  0  0  0  0  0
  1  2  2  0  0  0
  1  5  1  0  0  0
  1 15  1  0  0  0
  2  3  1  0  0  0
  2  6  1  0  0  0
  3  4  1  0  0  0
  3 27  2  0  0  0
  4  5  1  0  0  0
  4 31  1  0  0  0
  5 28  2  0  0  0
  6  7  2  0  0  0
  6  9  1  0  0  0
  7  8  1  0  0  0
  7 32  1  0  0  0
  8 10  1  0  0  0
  8 30  1  0  0  0
  9 10  2  0  0  0
  9 14  1  0  0  0
 10 11  1  0  0  0
 11 12  2  0  0  0
 11 33  1  0  0  0
 12 13  1  0  0  0
 12 34  1  0  0  0
 13 14  2  0  0  0
 13 35  1  0  0  0
 14 36  1  0  0  0
 15 16  2  0  0  0
 15 19  1  0  0  0
 16 17  1  0  0  0
 16 29  1  0  0  0
 17 18  2  0  0  0
 17 37  1  0  0  0
 18 20  1  0  0  0
 18 38  1  0  0  0
 19 20  1  0  0  0
 19 24  2  0  0  0
 20 21  2  0  0  0
 21 22  1  0  0  0
 21 39  1  0  0  0
 22 23  2  0  0  0
 22 40  1  0  0  0
 23 24  1  0  0  0
 23 25  1  0  0  0
 24 41  1  0  0  0
 25 26  1  0  0  0
 25 42  1  0  0  0
 25 43  1  0  0  0
 26 44  1  0  0  0
 26 45  1  0  0  0
 29 46  1  0  0  0
 29 47  1  0  0  0
 29 48  1  0  0  0
 30 49  1  0  0  0
 30 50  1  0  0  0
 30 51  1  0  0  0
M  END
> <s_m_entry_id>
3286

> <s_m_entry_name>
dock_pv.15

> <s_m_Source_Path>
/home/csk/Desktop/cluster/DUD-E-result/kpcb

> <s_m_Source_File>
dock_pv.maegz

> <i_m_Source_File_Index>
15

> <chembl_id>
CHEMBL4078759

> <chembl_pref_name>
None

> <i_lp_mmshare_version>
53161

> <i_f3d_flags>
0

> <r_lp_tautomer_probability>
1

> <s_lp_Force_Field>
OPLS_2005

> <r_lp_Energy>
28.035739

> <b_lp_Chiralities_Consistent>
1

> <s_lp_Variant>
CHEMBL3045_lig398-1

> <s_i_glide_gridfile>
glide-grid_2i0e

> <i_i_glide_lignum>
564

> <i_i_glide_rotatable_bonds>
3

> <r_i_docking_score>
-9.31385808568683

> <r_i_glide_ligand_efficiency>
-0.310461936189561

> <r_i_glide_ligand_efficiency_sa>
-0.964677418895891

> <r_i_glide_ligand_efficiency_ln>
-2.11621003968001

> <r_i_glide_gscore>
-9.31385808568683

> <r_i_glide_lipo>
-2.57389195730171

> <r_i_glide_hbond>
-0.67516673613333

> <r_i_glide_metal>
0

> <r_i_glide_rewards>
-2.57279811130642

> <r_i_glide_evdw>
-49.8615684509277

> <r_i_glide_ecoul>
-7.82657814025879

> <r_i_glide_erotb>
0.175063862639834

> <r_i_glide_esite>
0

> <r_i_glide_emodel>
-89.5151959611404

> <r_i_glide_energy>
-57.6881465911865

> <r_i_glide_einternal>
1.08284425735474

> <i_i_glide_confnum>
7

> <i_i_glide_posenum>
26

> <r_i_glide_eff_state_penalty>
0

> <s_user_duplicate_titles>
CHEMBL3045_lig398

> <s_m_subgroup_title>
dock_pv

> <s_m_subgroupid>
dock_pv

> <b_m_subgroup_collapsed>
1

$$$$
CHEMBL3045_lig397
                    3D
 Schrodinger Suite 2021-1.
 48 52  0  0  1  0            999 V2000
   36.2275   56.1109   35.4500 C   0  0  0  0  0  0
   36.8911   56.3979   36.5906 C   0  0  0  0  0  0
   35.9087   56.4977   37.6453 C   0  0  0  0  0  0
   34.7341   56.2361   37.0663 N   0  0  0  0  0  0
   34.8330   55.9525   35.7661 C   0  0  0  0  0  0
   38.3360   56.6005   36.8477 C   0  0  0  0  0  0
   38.9498   56.3412   38.0680 C   0  0  0  0  0  0
   40.3053   56.5066   37.9716 N   0  0  0  0  0  0
   39.4112   57.0109   35.9627 C   0  0  0  0  0  0
   40.6365   56.9033   36.6980 C   0  0  0  0  0  0
   41.8861   57.1710   36.1277 C   0  0  0  0  0  0
   41.9010   57.5691   34.7914 C   0  0  0  0  0  0
   40.7312   57.7207   34.0581 C   0  0  0  0  0  0
   39.4908   57.4529   34.6302 C   0  0  0  0  0  0
   36.7486   55.8652   34.0649 C   0  0  0  0  0  0
   36.2890   56.6504   32.9820 C   0  0  0  0  0  0
   36.7471   56.4178   31.6869 C   0  0  0  0  0  0
   37.6775   55.4299   31.4174 C   0  0  0  0  0  0
   37.7113   54.8238   33.7942 C   0  0  0  0  0  0
   38.1734   54.6181   32.4537 C   0  0  0  0  0  0
   39.1151   53.5948   32.1750 C   0  0  0  0  0  0
   39.5874   52.7735   33.1901 C   0  0  0  0  0  0
   39.1506   52.9536   34.4978 C   0  0  0  0  0  0
   38.2366   53.9636   34.8003 C   0  0  0  0  0  0
   39.6356   52.0276   35.5950 C   0  0  0  0  0  0
   40.9722   52.3727   36.0368 N   0  0  0  0  0  0
   36.0603   56.7686   38.8369 O   0  0  0  0  0  0
   33.9018   55.6362   35.0277 O   0  0  0  0  0  0
   35.3282   57.8232   33.1683 C   0  0  0  0  0  0
   33.8585   56.2424   37.5701 H   0  0  0  0  0  0
   38.5322   55.9945   39.0047 H   0  0  0  0  0  0
   40.9330   56.3271   38.7409 H   0  0  0  0  0  0
   42.8054   57.0748   36.6862 H   0  0  0  0  0  0
   42.8490   57.7795   34.3180 H   0  0  0  0  0  0
   40.7872   58.0417   33.0266 H   0  0  0  0  0  0
   38.6042   57.5754   34.0372 H   0  0  0  0  0  0
   36.3856   57.0256   30.8698 H   0  0  0  0  0  0
   38.0224   55.2692   30.4054 H   0  0  0  0  0  0
   39.4521   53.4380   31.1592 H   0  0  0  0  0  0
   40.2909   51.9867   32.9544 H   0  0  0  0  0  0
   37.9043   54.0678   35.8210 H   0  0  0  0  0  0
   39.5960   50.9884   35.2658 H   0  0  0  0  0  0
   38.9607   52.1009   36.4370 H   0  0  0  0  0  0
   41.6273   51.8211   35.4866 H   0  0  0  0  0  0
   41.1629   53.3409   35.8142 H   0  0  0  0  0  0
   35.4486   58.3014   34.1410 H   0  0  0  0  0  0
   35.5087   58.6079   32.4348 H   0  0  0  0  0  0
   34.3010   57.4856   33.0554 H   0  0  0  0  0  0
  1  2  2  0  0  0
  1  5  1  0  0  0
  1 15  1  0  0  0
  2  3  1  0  0  0
  2  6  1  0  0  0
  3  4  1  0  0  0
  3 27  2  0  0  0
  4  5  1  0  0  0
  4 30  1  0  0  0
  5 28  2  0  0  0
  6  7  2  0  0  0
  6  9  1  0  0  0
  7  8  1  0  0  0
  7 31  1  0  0  0
  8 10  1  0  0  0
  8 32  1  0  0  0
  9 10  2  0  0  0
  9 14  1  0  0  0
 10 11  1  0  0  0
 11 12  2  0  0  0
 11 33  1  0  0  0
 12 13  1  0  0  0
 12 34  1  0  0  0
 13 14  2  0  0  0
 13 35  1  0  0  0
 14 36  1  0  0  0
 15 16  2  0  0  0
 15 19  1  0  0  0
 16 17  1  0  0  0
 16 29  1  0  0  0
 17 18  2  0  0  0
 17 37  1  0  0  0
 18 20  1  0  0  0
 18 38  1  0  0  0
 19 20  1  0  0  0
 19 24  2  0  0  0
 20 21  2  0  0  0
 21 22  1  0  0  0
 21 39  1  0  0  0
 22 23  2  0  0  0
 22 40  1  0  0  0
 23 24  1  0  0  0
 23 25  1  0  0  0
 24 41  1  0  0  0
 25 26  1  0  0  0
 25 42  1  0  0  0
 25 43  1  0  0  0
 26 44  1  0  0  0
 26 45  1  0  0  0
 29 46  1  0  0  0
 29 47  1  0  0  0
 29 48  1  0  0  0
M  END
> <s_m_entry_id>
3287

> <s_m_entry_name>
dock_pv.16

> <s_m_Source_Path>
/home/csk/Desktop/cluster/DUD-E-result/kpcb

> <s_m_Source_File>
dock_pv.maegz

> <i_m_Source_File_Index>
16

> <chembl_id>
CHEMBL4099609

> <chembl_pref_name>
None

> <i_lp_mmshare_version>
53161

> <i_f3d_flags>
0

> <r_lp_tautomer_probability>
1

> <s_lp_Force_Field>
OPLS_2005

> <r_lp_Energy>
28.324531

> <b_lp_Chiralities_Consistent>
1

> <s_lp_Variant>
CHEMBL3045_lig397-1

> <s_i_glide_gridfile>
glide-grid_2i0e

> <i_i_glide_lignum>
563

> <i_i_glide_rotatable_bonds>
3

> <r_i_docking_score>
-9.28317517446311

> <r_i_glide_ligand_efficiency>
-0.32010948877459

> <r_i_glide_ligand_efficiency_sa>
-0.98347776731998

> <r_i_glide_ligand_efficiency_ln>
-2.12561171394058

> <r_i_glide_gscore>
-9.28317517446311

> <r_i_glide_lipo>
-2.55684554986533

> <r_i_glide_hbond>
-0.714196769856992

> <r_i_glide_metal>
0

> <r_i_glide_rewards>
-2.56509408003018

> <r_i_glide_evdw>
-48.7762565612793

> <r_i_glide_ecoul>
-7.96677160263062

> <r_i_glide_erotb>
0.186789793747959

> <r_i_glide_esite>
0

> <r_i_glide_emodel>
-87.8604783384432

> <r_i_glide_energy>
-56.7430281639099

> <r_i_glide_einternal>
1.01662194728851

> <i_i_glide_confnum>
4

> <i_i_glide_posenum>
400

> <r_i_glide_eff_state_penalty>
0

> <s_user_duplicate_titles>
CHEMBL3045_lig397

> <s_m_subgroup_title>
dock_pv

> <s_m_subgroupid>
dock_pv

> <b_m_subgroup_collapsed>
1

$$$$
CHEMBL3045_lig357
                    3D
 Schrodinger Suite 2021-1.
 48 52  0  0  1  0            999 V2000
   36.4834   56.0230   35.9481 C   0  0  0  0  0  0
   37.2441   56.3308   37.0136 C   0  0  0  0  0  0
   36.3449   56.6565   38.0873 C   0  0  0  0  0  0
   35.1104   56.5242   37.5905 N   0  0  0  0  0  0
   35.0975   56.1538   36.3094 C   0  0  0  0  0  0
   38.6136   56.3608   37.2296 N   0  0  0  0  0  0
   39.6715   56.6433   36.3483 C   0  0  0  0  0  0
   36.8846   55.5713   34.6156 C   0  0  0  0  0  0
   37.0515   55.3358   32.3203 C   0  0  0  0  0  0
   36.4197   56.0933   33.3543 C   0  0  0  0  0  0
   35.5268   57.1147   32.9864 C   0  0  0  0  0  0
   35.2620   57.3316   31.6369 C   0  0  0  0  0  0
   35.8900   56.5756   30.6528 C   0  0  0  0  0  0
   36.8034   55.5720   30.9642 C   0  0  0  0  0  0
   36.6184   56.9979   39.2371 O   0  0  0  0  0  0
   34.0914   55.9732   35.6260 O   0  0  0  0  0  0
   40.9594   56.2750   36.7429 C   0  0  0  0  0  0
   42.0492   56.5320   35.9150 C   0  0  0  0  0  0
   41.8519   57.1707   34.6941 C   0  0  0  0  0  0
   40.5754   57.5603   34.2969 C   0  0  0  0  0  0
   39.4885   57.2999   35.1266 C   0  0  0  0  0  0
   37.7664   54.5462   34.3087 C   0  0  0  0  0  0
   37.8380   54.3922   32.9472 N   0  0  0  0  0  0
   38.5213   53.1780   32.5537 C   0  0  0  0  0  0
   39.4366   52.9166   33.7604 C   0  0  2  0  0  0
   38.6836   53.5316   34.9547 C   0  0  0  0  0  0
   40.8647   53.4706   33.5793 C   0  0  0  0  0  0
   41.5010   52.7782   32.4737 N   0  0  0  0  0  0
   34.2652   56.7057   38.1187 H   0  0  0  0  0  0
   38.9333   56.1954   38.1742 H   0  0  0  0  0  0
   35.0296   57.7078   33.7393 H   0  0  0  0  0  0
   34.5521   58.0927   31.3472 H   0  0  0  0  0  0
   35.6576   56.7666   29.6163 H   0  0  0  0  0  0
   37.2828   54.9910   30.1879 H   0  0  0  0  0  0
   41.1229   55.7733   37.6855 H   0  0  0  0  0  0
   43.0435   56.2361   36.2177 H   0  0  0  0  0  0
   42.6994   57.3740   34.0559 H   0  0  0  0  0  0
   40.4278   58.0565   33.3499 H   0  0  0  0  0  0
   38.5039   57.5992   34.8090 H   0  0  0  0  0  0
   37.7985   52.3657   32.4600 H   0  0  0  0  0  0
   39.0161   53.2738   31.5855 H   0  0  0  0  0  0
   39.5302   51.8426   33.9291 H   0  0  0  0  0  0
   39.3686   53.9691   35.6798 H   0  0  0  0  0  0
   38.1209   52.7759   35.4968 H   0  0  0  0  0  0
   40.8523   54.5447   33.3867 H   0  0  0  0  0  0
   41.4542   53.3086   34.4836 H   0  0  0  0  0  0
   42.4946   52.9724   32.4362 H   0  0  0  0  0  0
   41.4550   51.7777   32.6313 H   0  0  0  0  0  0
  1  2  2  0  0  0
  1  5  1  0  0  0
  1  8  1  0  0  0
  2  3  1  0  0  0
  2  6  1  0  0  0
  3  4  1  0  0  0
  3 15  2  0  0  0
  4  5  1  0  0  0
  4 29  1  0  0  0
  5 16  2  0  0  0
  6  7  1  0  0  0
  6 30  1  0  0  0
  7 17  2  0  0  0
  7 21  1  0  0  0
  8 10  1  0  0  0
  8 22  2  0  0  0
  9 23  1  0  0  0
  9 10  2  0  0  0
  9 14  1  0  0  0
 10 11  1  0  0  0
 11 12  2  0  0  0
 11 31  1  0  0  0
 12 13  1  0  0  0
 12 32  1  0  0  0
 13 14  2  0  0  0
 13 33  1  0  0  0
 14 34  1  0  0  0
 17 18  1  0  0  0
 17 35  1  0  0  0
 18 19  2  0  0  0
 18 36  1  0  0  0
 19 20  1  0  0  0
 19 37  1  0  0  0
 20 21  2  0  0  0
 20 38  1  0  0  0
 21 39  1  0  0  0
 22 23  1  0  0  0
 22 26  1  0  0  0
 23 24  1  0  0  0
 24 25  1  0  0  0
 24 40  1  0  0  0
 24 41  1  0  0  0
 25 26  1  0  0  0
 25 27  1  0  0  0
 25 42  1  0  0  0
 26 43  1  0  0  0
 26 44  1  0  0  0
 27 28  1  0  0  0
 27 45  1  0  0  0
 27 46  1  0  0  0
 28 47  1  0  0  0
 28 48  1  0  0  0
M  END
> <s_m_entry_id>
3288

> <s_m_entry_name>
dock_pv.17

> <s_m_Source_Path>
/home/csk/Desktop/cluster/DUD-E-result/kpcb

> <s_m_Source_File>
dock_pv.maegz

> <i_m_Source_File_Index>
17

> <chembl_id>
CHEMBL2236794

> <chembl_pref_name>
None

> <i_lp_mmshare_version>
53161

> <i_f3d_flags>
0

> <r_lp_tautomer_probability>
0.999999999997686

> <s_lp_Force_Field>
OPLS_2005

> <r_lp_Energy>
46.845093

> <b_lp_Chiralities_Consistent>
1

> <s_lp_Variant>
CHEMBL3045_lig357-1

> <s_i_glide_gridfile>
glide-grid_2i0e

> <i_i_glide_lignum>
521

> <i_i_glide_rotatable_bonds>
4

> <r_i_docking_score>
-9.24274332077986

> <r_i_glide_ligand_efficiency>
-0.330097975742138

> <r_i_glide_ligand_efficiency_sa>
-1.00237187166369

> <r_i_glide_ligand_efficiency_ln>
-2.13349653717203

> <r_i_glide_gscore>
-9.24274332077986

> <r_i_glide_lipo>
-2.66305028530243

> <r_i_glide_hbond>
-0.650098347721185

> <r_i_glide_metal>
0

> <r_i_glide_rewards>
-2.77703227553838

> <r_i_glide_evdw>
-46.2805442810059

> <r_i_glide_ecoul>
-7.53977966308594

> <r_i_glide_erotb>
0.292431751295314

> <r_i_glide_esite>
0

> <r_i_glide_emodel>
-85.1243419640846

> <r_i_glide_energy>
-53.8203239440918

> <r_i_glide_einternal>
0.111534610390663

> <i_i_glide_confnum>
5

> <i_i_glide_posenum>
392

> <r_i_glide_eff_state_penalty>
0

> <s_user_duplicate_titles>
CHEMBL3045_lig357

> <s_m_subgroup_title>
dock_pv

> <s_m_subgroupid>
dock_pv

> <b_m_subgroup_collapsed>
1

$$$$
CHEMBL3045_lig243
                    3D
 Schrodinger Suite 2021-1.
 38 42  0  0  1  0            999 V2000
   37.0599   56.3719   36.9996 C   0  0  0  0  0  0
   36.3636   56.0224   35.9035 C   0  0  0  0  0  0
   36.8380   55.6186   34.5840 C   0  0  0  0  0  0
   38.5114   56.5454   37.1919 C   0  0  0  0  0  0
   34.9630   56.0259   36.2267 C   0  0  0  0  0  0
   36.1119   56.5741   38.0622 C   0  0  0  0  0  0
   34.9132   56.3723   37.5121 N   0  0  0  0  0  0
   37.8442   54.7029   34.3287 C   0  0  0  0  0  0
   39.1903   56.3710   38.3901 C   0  0  0  0  0  0
   39.5197   56.9335   36.2291 C   0  0  0  0  0  0
   36.3380   56.0419   33.3011 C   0  0  0  0  0  0
   40.5396   56.5068   38.1939 N   0  0  0  0  0  0
   38.0004   54.5551   32.9741 N   0  0  0  0  0  0
   37.0879   55.3442   32.3069 C   0  0  0  0  0  0
   40.7894   56.8326   36.8797 C   0  0  0  0  0  0
   33.9935   55.7737   35.5131 O   0  0  0  0  0  0
   36.3070   56.8841   39.2358 O   0  0  0  0  0  0
   39.5008   57.3606   34.8890 C   0  0  0  0  0  0
   35.3349   56.9317   32.8827 C   0  0  0  0  0  0
   41.9957   57.0565   36.2087 C   0  0  0  0  0  0
   36.8396   55.5002   30.9408 C   0  0  0  0  0  0
   35.0443   57.0375   31.5253 C   0  0  0  0  0  0
   40.6978   57.5744   34.2139 C   0  0  0  0  0  0
   35.7723   56.3203   30.5785 C   0  0  0  0  0  0
   41.9139   57.4037   34.8601 C   0  0  0  0  0  0
   34.0467   56.4823   38.0228 H   0  0  0  0  0  0
   38.4706   54.1410   35.0075 H   0  0  0  0  0  0
   38.8202   56.0954   39.3693 H   0  0  0  0  0  0
   41.2153   56.3638   38.9309 H   0  0  0  0  0  0
   38.6831   53.9313   32.5673 H   0  0  0  0  0  0
   38.5678   57.5077   34.3740 H   0  0  0  0  0  0
   34.7676   57.4928   33.6083 H   0  0  0  0  0  0
   42.9540   56.9632   36.6997 H   0  0  0  0  0  0
   37.4093   54.9542   30.2004 H   0  0  0  0  0  0
   34.2292   57.6715   31.2105 H   0  0  0  0  0  0
   40.6849   57.8723   33.1747 H   0  0  0  0  0  0
   35.5005   56.3780   29.5344 H   0  0  0  0  0  0
   42.8269   57.5685   34.3064 H   0  0  0  0  0  0
  1  2  2  0  0  0
  1  4  1  0  0  0
  1  6  1  0  0  0
  2  3  1  0  0  0
  2  5  1  0  0  0
  3  8  2  0  0  0
  3 11  1  0  0  0
  4  9  2  0  0  0
  4 10  1  0  0  0
  5 16  2  0  0  0
  5  7  1  0  0  0
  6  7  1  0  0  0
  6 17  2  0  0  0
  7 26  1  0  0  0
  8 13  1  0  0  0
  8 27  1  0  0  0
  9 12  1  0  0  0
  9 28  1  0  0  0
 10 15  2  0  0  0
 10 18  1  0  0  0
 11 14  2  0  0  0
 11 19  1  0  0  0
 12 15  1  0  0  0
 12 29  1  0  0  0
 13 14  1  0  0  0
 13 30  1  0  0  0
 14 21  1  0  0  0
 15 20  1  0  0  0
 18 23  2  0  0  0
 18 31  1  0  0  0
 19 22  2  0  0  0
 19 32  1  0  0  0
 20 25  2  0  0  0
 20 33  1  0  0  0
 21 24  2  0  0  0
 21 34  1  0  0  0
 22 24  1  0  0  0
 22 35  1  0  0  0
 23 25  1  0  0  0
 23 36  1  0  0  0
 24 37  1  0  0  0
 25 38  1  0  0  0
M  END
> <s_m_entry_id>
3289

> <s_m_entry_name>
dock_pv.18

> <s_m_Source_Path>
/home/csk/Desktop/cluster/DUD-E-result/kpcb

> <s_m_Source_File>
dock_pv.maegz

> <i_m_Source_File_Index>
18

> <chembl_id>
CHEMBL266487

> <chembl_pref_name>
RO-316233

> <i_lp_mmshare_version>
53161

> <i_f3d_flags>
0

> <r_lp_tautomer_probability>
1

> <s_lp_Force_Field>
OPLS_2005

> <r_lp_Energy>
23.210603

> <b_lp_Chiralities_Consistent>
1

> <s_lp_Variant>
CHEMBL3045_lig243-1

> <s_i_glide_gridfile>
glide-grid_2i0e

> <i_i_glide_lignum>
401

> <i_i_glide_rotatable_bonds>
2

> <r_i_docking_score>
-9.24248271507689

> <r_i_glide_ligand_efficiency>
-0.369699308603076

> <r_i_glide_ligand_efficiency_sa>
-1.08100733500055

> <r_i_glide_ligand_efficiency_ln>
-2.1907453783297

> <r_i_glide_gscore>
-9.24248271507689

> <r_i_glide_lipo>
-2.70496488162608

> <r_i_glide_hbond>
-0.608

> <r_i_glide_metal>
0

> <r_i_glide_rewards>
-2.95731803803647

> <r_i_glide_evdw>
-41.3155250549316

> <r_i_glide_ecoul>
-7.67752838134766

> <r_i_glide_erotb>
0.245205714534392

> <r_i_glide_esite>
0

> <r_i_glide_emodel>
-75.4722997928822

> <r_i_glide_energy>
-48.9930534362793

> <r_i_glide_einternal>
3.95515775680542

> <i_i_glide_confnum>
3

> <i_i_glide_posenum>
28

> <r_i_glide_eff_state_penalty>
0

> <s_user_duplicate_titles>
CHEMBL3045_lig243,2241

> <s_m_subgroup_title>
dock_pv

> <s_m_subgroupid>
dock_pv

> <b_m_subgroup_collapsed>
1

$$$$
CHEMBL3045_lig351
                    3D
 Schrodinger Suite 2021-1.
 52 57  0  0  1  0            999 V2000
   33.9082   55.6197   35.4085 O   0  0  0  0  0  0
   36.3013   57.1250   38.9488 O   0  0  0  0  0  0
   34.8645   56.3912   37.3325 N   0  0  0  0  0  0
   37.7455   54.6546   34.4926 N   0  0  0  0  0  0
   37.8960   54.4756   32.1030 N   0  0  0  0  0  0
   40.4813   56.5429   37.8841 N   0  0  0  0  0  0
   39.2558   53.1514   33.5029 N   0  0  0  0  0  0
   42.1728   53.1826   33.8393 N   0  0  0  0  0  0
   36.2645   56.0551   35.6765 C   0  0  0  0  0  0
   36.9881   56.4606   36.7373 C   0  0  0  0  0  0
   36.7541   55.5695   34.3648 C   0  0  0  0  0  0
   38.4461   56.6347   36.8956 C   0  0  0  0  0  0
   34.8847   55.9752   36.0659 C   0  0  0  0  0  0
   36.2285   55.9524   33.0911 C   0  0  0  0  0  0
   36.0695   56.7111   37.8152 C   0  0  0  0  0  0
   39.4596   57.0077   35.9272 C   0  0  0  0  0  0
   36.8481   55.3305   31.9655 C   0  0  0  0  0  0
   38.2985   54.1561   33.3618 C   0  0  0  0  0  0
   40.7285   56.9130   36.5825 C   0  0  0  0  0  0
   39.1356   56.3874   38.0753 C   0  0  0  0  0  0
   35.1594   56.8635   32.8619 C   0  0  0  0  0  0
   39.4523   57.4073   34.5779 C   0  0  0  0  0  0
   36.3426   55.5711   30.6685 C   0  0  0  0  0  0
   41.9390   57.1634   35.9267 C   0  0  0  0  0  0
   34.6599   57.0444   31.5736 C   0  0  0  0  0  0
   35.2264   56.3781   30.4923 C   0  0  0  0  0  0
   40.6563   57.6519   33.9205 C   0  0  0  0  0  0
   39.9007   52.8030   34.7850 C   0  0  0  0  0  0
   40.1833   52.7720   32.4219 C   0  0  0  0  0  0
   41.8709   57.5216   34.5816 C   0  0  0  0  0  0
   41.2880   53.4650   34.9648 C   0  0  0  0  0  0
   41.5467   53.4883   32.5573 C   0  0  0  0  0  0
   34.0141   56.4747   37.8742 H   0  0  0  0  0  0
   41.1608   56.3793   38.6116 H   0  0  0  0  0  0
   42.5531   52.2412   33.8549 H   0  0  0  0  0  0
   38.7730   56.0664   39.0434 H   0  0  0  0  0  0
   34.7007   57.3834   33.6889 H   0  0  0  0  0  0
   38.5258   57.5185   34.0398 H   0  0  0  0  0  0
   36.8004   55.0809   29.8203 H   0  0  0  0  0  0
   42.8924   57.0794   36.4284 H   0  0  0  0  0  0
   33.8170   57.7011   31.4112 H   0  0  0  0  0  0
   34.8162   56.5080   29.5012 H   0  0  0  0  0  0
   40.6495   57.9407   32.8789 H   0  0  0  0  0  0
   39.2760   53.0819   35.6318 H   0  0  0  0  0  0
   39.9892   51.7170   34.8445 H   0  0  0  0  0  0
   40.3316   51.6915   32.4394 H   0  0  0  0  0  0
   39.7643   52.9847   31.4378 H   0  0  0  0  0  0
   42.7872   57.7149   34.0430 H   0  0  0  0  0  0
   41.7493   53.1001   35.8801 H   0  0  0  0  0  0
   41.1632   54.5427   35.0607 H   0  0  0  0  0  0
   42.2087   53.1556   31.7573 H   0  0  0  0  0  0
   41.4129   54.5660   32.4543 H   0  0  0  0  0  0
  1 13  2  0  0  0
  2 15  2  0  0  0
  3 13  1  0  0  0
  3 15  1  0  0  0
  3 33  1  0  0  0
  4 11  2  0  0  0
  4 18  1  0  0  0
  5 17  1  0  0  0
  5 18  2  0  0  0
  6 19  1  0  0  0
  6 20  1  0  0  0
  6 34  1  0  0  0
  7 18  1  0  0  0
  7 28  1  0  0  0
  7 29  1  0  0  0
  8 31  1  0  0  0
  8 32  1  0  0  0
  8 35  1  0  0  0
  9 10  2  0  0  0
  9 11  1  0  0  0
  9 13  1  0  0  0
 10 12  1  0  0  0
 10 15  1  0  0  0
 11 14  1  0  0  0
 12 16  1  0  0  0
 12 20  2  0  0  0
 14 17  1  0  0  0
 14 21  2  0  0  0
 16 19  1  0  0  0
 16 22  2  0  0  0
 17 23  2  0  0  0
 19 24  2  0  0  0
 20 36  1  0  0  0
 21 25  1  0  0  0
 21 37  1  0  0  0
 22 27  1  0  0  0
 22 38  1  0  0  0
 23 26  1  0  0  0
 23 39  1  0  0  0
 24 30  1  0  0  0
 24 40  1  0  0  0
 25 26  2  0  0  0
 25 41  1  0  0  0
 26 42  1  0  0  0
 27 30  2  0  0  0
 27 43  1  0  0  0
 28 31  1  0  0  0
 28 44  1  0  0  0
 28 45  1  0  0  0
 29 32  1  0  0  0
 29 46  1  0  0  0
 29 47  1  0  0  0
 30 48  1  0  0  0
 31 49  1  0  0  0
 31 50  1  0  0  0
 32 51  1  0  0  0
 32 52  1  0  0  0
M  END
> <s_m_entry_id>
3290

> <s_m_entry_name>
dock_pv.19

> <s_m_Source_Path>
/home/csk/Desktop/cluster/DUD-E-result/kpcb

> <s_m_Source_File>
dock_pv.maegz

> <i_m_Source_File_Index>
19

> <chembl_id>
CHEMBL1996510

> <chembl_pref_name>
None

> <i_lp_mmshare_version>
53161

> <i_f3d_flags>
0

> <r_lp_tautomer_probability>
1

> <s_lp_Force_Field>
OPLS_2005

> <r_lp_Energy>
40.181211

> <b_lp_Chiralities_Consistent>
1

> <s_lp_Variant>
CHEMBL3045_lig351-1

> <s_i_glide_gridfile>
glide-grid_2i0e

> <i_i_glide_lignum>
515

> <i_i_glide_rotatable_bonds>
3

> <r_i_docking_score>
-9.23056058945327

> <r_i_glide_ligand_efficiency>
-0.288455018420415

> <r_i_glide_ligand_efficiency_sa>
-0.915787598314186

> <r_i_glide_ligand_efficiency_ln>
-2.0669741315572

> <r_i_glide_gscore>
-9.23056058945327

> <r_i_glide_lipo>
-2.66920938672417

> <r_i_glide_hbond>
-0.667544240244998

> <r_i_glide_metal>
0

> <r_i_glide_rewards>
-2.49467487165376

> <r_i_glide_evdw>
-52.7448043823242

> <r_i_glide_ecoul>
-6.62011003494263

> <r_i_glide_erotb>
0.231124633527251

> <r_i_glide_esite>
0

> <r_i_glide_emodel>
-88.9759250141635

> <r_i_glide_energy>
-59.3649144172668

> <r_i_glide_einternal>
5.56852388381958

> <i_i_glide_confnum>
120

> <i_i_glide_posenum>
73

> <r_i_glide_eff_state_penalty>
0

> <s_user_duplicate_titles>
CHEMBL3045_lig351

> <s_m_subgroup_title>
dock_pv

> <s_m_subgroupid>
dock_pv

> <b_m_subgroup_collapsed>
1

$$$$
CHEMBL3045_lig359
                    3D
 Schrodinger Suite 2021-1.
 51 55  0  0  1  0            999 V2000
   36.5412   55.9719   35.8998 C   0  0  0  0  0  0
   37.2546   56.2097   37.0135 C   0  0  0  0  0  0
   36.3114   56.4907   38.0602 C   0  0  0  0  0  0
   35.1010   56.3974   37.4998 N   0  0  0  0  0  0
   35.1415   56.0953   36.2010 C   0  0  0  0  0  0
   38.6158   56.2146   37.2747 N   0  0  0  0  0  0
   39.6837   56.5495   36.4252 C   0  0  0  0  0  0
   37.0091   55.5783   34.5726 C   0  0  0  0  0  0
   38.0854   54.5520   32.7995 C   0  0  0  0  0  0
   37.9521   54.5431   34.2248 C   0  0  0  0  0  0
   38.7003   53.6082   34.9608 C   0  0  0  0  0  0
   39.5497   52.7336   34.2865 C   0  0  0  0  0  0
   39.6738   52.7752   32.9013 C   0  0  0  0  0  0
   38.9598   53.6882   32.1252 C   0  0  0  0  0  0
   36.5318   56.7722   39.2370 O   0  0  0  0  0  0
   34.1678   55.9560   35.4614 O   0  0  0  0  0  0
   40.9512   56.0535   36.7362 C   0  0  0  0  0  0
   42.0414   56.3600   35.9252 C   0  0  0  0  0  0
   41.8646   57.1715   34.8068 C   0  0  0  0  0  0
   40.6082   57.6834   34.4938 C   0  0  0  0  0  0
   39.5219   57.3794   35.3100 C   0  0  0  0  0  0
   36.6477   56.1869   33.3869 C   0  0  0  0  0  0
   37.2391   55.5396   32.3320 N   0  0  0  0  0  0
   36.9864   56.1915   31.0633 C   0  0  0  0  0  0
   35.7160   57.0127   31.3559 C   0  0  2  0  0  0
   35.7785   57.3052   32.8647 C   0  0  0  0  0  0
   34.3860   56.3675   30.8812 C   0  0  0  0  0  0
   34.0285   55.1709   31.6371 N   0  0  2  0  0  0
   32.7015   54.7071   31.2585 C   0  0  0  0  0  0
   34.2374   56.5579   38.0020 H   0  0  0  0  0  0
   38.9175   55.9563   38.2038 H   0  0  0  0  0  0
   38.6256   53.5701   36.0372 H   0  0  0  0  0  0
   40.1312   52.0102   34.8426 H   0  0  0  0  0  0
   40.3458   52.0790   32.4156 H   0  0  0  0  0  0
   39.0738   53.7042   31.0495 H   0  0  0  0  0  0
   41.0964   55.4165   37.5970 H   0  0  0  0  0  0
   43.0192   55.9654   36.1599 H   0  0  0  0  0  0
   42.7120   57.4087   34.1799 H   0  0  0  0  0  0
   40.4775   58.3144   33.6273 H   0  0  0  0  0  0
   38.5533   57.7830   35.0687 H   0  0  0  0  0  0
   37.8124   56.8694   30.8415 H   0  0  0  0  0  0
   36.9091   55.4780   30.2410 H   0  0  0  0  0  0
   35.7955   57.9668   30.8368 H   0  0  0  0  0  0
   34.7840   57.3270   33.3103 H   0  0  0  0  0  0
   36.2276   58.2750   33.0778 H   0  0  0  0  0  0
   33.5890   57.1083   30.9757 H   0  0  0  0  0  0
   34.4649   56.1088   29.8232 H   0  0  0  0  0  0
   34.0855   55.3576   32.6317 H   0  0  0  0  0  0
   32.4341   53.8234   31.8382 H   0  0  0  0  0  0
   31.9449   55.4694   31.4520 H   0  0  0  0  0  0
   32.6646   54.4405   30.2007 H   0  0  0  0  0  0
  1  2  2  0  0  0
  1  5  1  0  0  0
  1  8  1  0  0  0
  2  3  1  0  0  0
  2  6  1  0  0  0
  3  4  1  0  0  0
  3 15  2  0  0  0
  4  5  1  0  0  0
  4 30  1  0  0  0
  5 16  2  0  0  0
  6  7  1  0  0  0
  6 31  1  0  0  0
  7 17  2  0  0  0
  7 21  1  0  0  0
  8 10  1  0  0  0
  8 22  2  0  0  0
  9 23  1  0  0  0
  9 10  2  0  0  0
  9 14  1  0  0  0
 10 11  1  0  0  0
 11 12  2  0  0  0
 11 32  1  0  0  0
 12 13  1  0  0  0
 12 33  1  0  0  0
 13 14  2  0  0  0
 13 34  1  0  0  0
 14 35  1  0  0  0
 17 18  1  0  0  0
 17 36  1  0  0  0
 18 19  2  0  0  0
 18 37  1  0  0  0
 19 20  1  0  0  0
 19 38  1  0  0  0
 20 21  2  0  0  0
 20 39  1  0  0  0
 21 40  1  0  0  0
 22 23  1  0  0  0
 22 26  1  0  0  0
 23 24  1  0  0  0
 24 25  1  0  0  0
 24 41  1  0  0  0
 24 42  1  0  0  0
 25 26  1  0  0  0
 25 27  1  0  0  0
 25 43  1  0  0  0
 26 44  1  0  0  0
 26 45  1  0  0  0
 27 28  1  0  0  0
 27 46  1  0  0  0
 27 47  1  0  0  0
 28 29  1  0  0  0
 28 48  1  0  0  0
 29 49  1  0  0  0
 29 50  1  0  0  0
 29 51  1  0  0  0
M  END
> <s_m_entry_id>
3291

> <s_m_entry_name>
dock_pv.20

> <s_m_Source_Path>
/home/csk/Desktop/cluster/DUD-E-result/kpcb

> <s_m_Source_File>
dock_pv.maegz

> <i_m_Source_File_Index>
20

> <chembl_id>
CHEMBL2236809

> <chembl_pref_name>
None

> <i_lp_mmshare_version>
53161

> <i_f3d_flags>
0

> <r_lp_tautomer_probability>
0.999999999997686

> <s_lp_Force_Field>
OPLS_2005

> <r_lp_Energy>
46.953803

> <b_lp_Chiralities_Consistent>
1

> <s_lp_Variant>
CHEMBL3045_lig359-1

> <s_i_glide_gridfile>
glide-grid_2i0e

> <i_i_glide_lignum>
523

> <i_i_glide_rotatable_bonds>
5

> <r_i_docking_score>
-9.19091837646354

> <r_i_glide_ligand_efficiency>
-0.316928219878053

> <r_i_glide_ligand_efficiency_sa>
-0.97370390137309

> <r_i_glide_ligand_efficiency_ln>
-2.10448724662923

> <r_i_glide_gscore>
-9.19091837646354

> <r_i_glide_lipo>
-2.7799906183806

> <r_i_glide_hbond>
-0.608

> <r_i_glide_metal>
0

> <r_i_glide_rewards>
-2.61795248583763

> <r_i_glide_evdw>
-50.4499816894531

> <r_i_glide_ecoul>
-6.84932041168213

> <r_i_glide_erotb>
0.364921873979661

> <r_i_glide_esite>
0

> <r_i_glide_emodel>
-86.7990543425785

> <r_i_glide_energy>
-57.2993021011353

> <r_i_glide_einternal>
4.84413290023804

> <i_i_glide_confnum>
11

> <i_i_glide_posenum>
359

> <r_i_glide_eff_state_penalty>
0

> <s_user_duplicate_titles>
CHEMBL3045_lig359

> <s_m_subgroup_title>
dock_pv

> <s_m_subgroupid>
dock_pv

> <b_m_subgroup_collapsed>
1

$$$$
CHEMBL3045_lig47
                    3D
 Schrodinger Suite 2021-1.
 66 72  0  0  1  0            999 V2000
   36.0720   55.9935   35.5382 C   0  0  0  0  0  0
   36.7991   56.4750   36.5673 C   0  0  0  0  0  0
   36.5046   55.6296   34.1770 C   0  0  0  0  0  0
   38.2432   56.7793   36.6093 C   0  0  0  0  0  0
   37.8629   54.8373   32.5255 N   0  0  0  0  0  0
   34.7014   55.9158   35.9576 C   0  0  0  0  0  0
   35.9130   56.6418   37.6912 C   0  0  0  0  0  0
   34.7018   56.3041   37.2362 N   0  0  0  0  0  0
   37.6774   54.9631   33.8834 C   0  0  0  0  0  0
   38.9758   57.1727   35.5036 C   0  0  0  0  0  0
   40.3010   57.3274   35.8039 N   0  0  0  0  0  0
   35.8694   55.8615   32.9005 C   0  0  0  0  0  0
   36.7680   55.3991   31.8870 C   0  0  0  0  0  0
   39.2046   56.7157   37.6921 C   0  0  0  0  0  0
   40.4786   57.0954   37.1531 C   0  0  0  0  0  0
   39.0521   54.2737   31.8698 C   0  0  2  0  0  0
   40.8603   53.9300   33.3885 N   0  0  2  0  0  0
   39.7829   53.2137   32.7106 C   0  0  0  0  0  0
   33.7127   55.5722   35.3155 O   0  0  0  0  0  0
   36.1519   57.0316   38.8337 O   0  0  0  0  0  0
   40.1266   55.3504   31.6541 C   0  0  0  0  0  0
   41.3770   54.7683   32.3143 C   0  0  0  0  0  0
   41.8367   53.0068   33.9679 C   0  0  0  0  0  0
   41.3477   57.5996   34.8354 C   0  0  0  0  0  0
   36.4759   55.5313   30.5217 C   0  0  0  0  0  0
   34.6498   56.4257   32.4915 C   0  0  0  0  0  0
   42.9521   53.7076   34.7287 C   0  0  0  0  0  0
   39.1486   56.3672   39.0542 C   0  0  0  0  0  0
   41.6370   57.1664   37.9393 C   0  0  0  0  0  0
   44.1652   53.9745   34.0887 C   0  0  0  0  0  0
   42.7392   54.1371   36.0402 C   0  0  0  0  0  0
   40.3041   56.4149   39.8287 C   0  0  0  0  0  0
   34.3353   56.4961   31.1387 C   0  0  0  0  0  0
   35.2334   56.0548   30.1768 C   0  0  0  0  0  0
   41.5207   56.8038   39.2799 C   0  0  0  0  0  0
   43.7582   54.7919   36.7258 C   0  0  0  0  0  0
   45.1783   54.6418   34.7709 C   0  0  0  0  0  0
   44.9711   55.0455   36.0880 C   0  0  0  0  0  0
   33.8668   56.3598   37.8031 H   0  0  0  0  0  0
   38.4421   54.6040   34.5585 H   0  0  0  0  0  0
   38.6544   57.3337   34.4856 H   0  0  0  0  0  0
   38.7011   53.8383   30.9346 H   0  0  0  0  0  0
   40.2103   52.4349   32.0737 H   0  0  0  0  0  0
   39.1473   52.6506   33.3955 H   0  0  0  0  0  0
   39.8749   56.3119   32.1053 H   0  0  0  0  0  0
   40.2996   55.5324   30.5975 H   0  0  0  0  0  0
   42.0269   55.5366   32.7329 H   0  0  0  0  0  0
   42.0076   54.2068   31.6197 H   0  0  0  0  0  0
   42.2619   52.3670   33.1915 H   0  0  0  0  0  0
   41.3031   52.3739   34.6752 H   0  0  0  0  0  0
   41.9272   56.6894   34.6791 H   0  0  0  0  0  0
   40.9202   57.9330   33.8897 H   0  0  0  0  0  0
   42.0047   58.3714   35.2219 H   0  0  0  0  0  0
   37.1509   55.1718   29.7567 H   0  0  0  0  0  0
   33.9388   56.7712   33.2171 H   0  0  0  0  0  0
   38.2323   56.0380   39.5150 H   0  0  0  0  0  0
   42.5908   57.4619   37.5237 H   0  0  0  0  0  0
   44.3276   53.6437   33.0719 H   0  0  0  0  0  0
   41.7969   53.9457   36.5335 H   0  0  0  0  0  0
   40.2507   56.1375   40.8713 H   0  0  0  0  0  0
   33.3800   56.8964   30.8266 H   0  0  0  0  0  0
   34.9527   56.1109   29.1342 H   0  0  0  0  0  0
   42.3975   56.8260   39.9096 H   0  0  0  0  0  0
   43.6118   55.0964   37.7513 H   0  0  0  0  0  0
   46.1235   54.8353   34.2839 H   0  0  0  0  0  0
   45.7607   55.5537   36.6224 H   0  0  0  0  0  0
  1  2  2  0  0  0
  1  3  1  0  0  0
  1  6  1  0  0  0
  2  4  1  0  0  0
  2  7  1  0  0  0
  3  9  2  0  0  0
  3 12  1  0  0  0
  4 10  2  0  0  0
  4 14  1  0  0  0
  5  9  1  0  0  0
  5 16  1  0  0  0
  5 13  1  0  0  0
  6  8  1  0  0  0
  6 19  2  0  0  0
  7 20  2  0  0  0
  7  8  1  0  0  0
  8 39  1  0  0  0
  9 40  1  0  0  0
 10 11  1  0  0  0
 10 41  1  0  0  0
 11 24  1  0  0  0
 11 15  1  0  0  0
 12 13  2  0  0  0
 12 26  1  0  0  0
 13 25  1  0  0  0
 14 15  2  0  0  0
 14 28  1  0  0  0
 15 29  1  0  0  0
 16 18  1  0  0  0
 16 21  1  0  0  0
 16 42  1  0  0  0
 17 18  1  0  0  0
 17 23  1  0  0  0
 17 22  1  0  0  0
 18 43  1  0  0  0
 18 44  1  0  0  0
 21 22  1  0  0  0
 21 45  1  0  0  0
 21 46  1  0  0  0
 22 47  1  0  0  0
 22 48  1  0  0  0
 23 27  1  0  0  0
 23 49  1  0  0  0
 23 50  1  0  0  0
 24 51  1  0  0  0
 24 52  1  0  0  0
 24 53  1  0  0  0
 25 34  2  0  0  0
 25 54  1  0  0  0
 26 33  2  0  0  0
 26 55  1  0  0  0
 27 30  2  0  0  0
 27 31  1  0  0  0
 28 32  2  0  0  0
 28 56  1  0  0  0
 29 35  2  0  0  0
 29 57  1  0  0  0
 30 37  1  0  0  0
 30 58  1  0  0  0
 31 36  2  0  0  0
 31 59  1  0  0  0
 32 35  1  0  0  0
 32 60  1  0  0  0
 33 34  1  0  0  0
 33 61  1  0  0  0
 34 62  1  0  0  0
 35 63  1  0  0  0
 36 38  1  0  0  0
 36 64  1  0  0  0
 37 38  2  0  0  0
 37 65  1  0  0  0
 38 66  1  0  0  0
M  END
> <s_m_entry_id>
3292

> <s_m_entry_name>
dock_pv.21

> <s_m_Source_Path>
/home/csk/Desktop/cluster/DUD-E-result/kpcb

> <s_m_Source_File>
dock_pv.maegz

> <i_m_Source_File_Index>
21

> <chembl_id>
CHEMBL291975

> <chembl_pref_name>
None

> <i_lp_mmshare_version>
53161

> <i_f3d_flags>
0

> <r_lp_tautomer_probability>
1

> <s_lp_Force_Field>
OPLS_2005

> <r_lp_Energy>
55.117921

> <b_lp_Chiralities_Consistent>
1

> <s_lp_Variant>
CHEMBL3045_lig47-1

> <s_i_glide_gridfile>
glide-grid_2i0e

> <i_i_glide_lignum>
49

> <i_i_glide_rotatable_bonds>
5

> <r_i_docking_score>
-9.18177075116401

> <r_i_glide_ligand_efficiency>
-0.241625546083264

> <r_i_glide_ligand_efficiency_sa>
-0.812339142601317

> <r_i_glide_ligand_efficiency_ln>
-1.97985987428118

> <r_i_glide_gscore>
-9.18177075116401

> <r_i_glide_lipo>
-2.89358298182293

> <r_i_glide_hbond>
-0.598380061925966

> <r_i_glide_metal>
0

> <r_i_glide_rewards>
-2.08936523715742

> <r_i_glide_evdw>
-53.6621589660645

> <r_i_glide_ecoul>
-8.01700115203857

> <r_i_glide_erotb>
0.285215650851312

> <r_i_glide_esite>
0

> <r_i_glide_emodel>
-93.0133387380447

> <r_i_glide_energy>
-61.679160118103

> <r_i_glide_einternal>
8.07328033447266

> <i_i_glide_confnum>
207

> <i_i_glide_posenum>
235

> <r_i_glide_eff_state_penalty>
0

> <s_user_duplicate_titles>
CHEMBL3045_lig47,83427

> <s_m_subgroup_title>
dock_pv

> <s_m_subgroupid>
dock_pv

> <b_m_subgroup_collapsed>
1

$$$$
CHEMBL3045_lig282
                    3D
 Schrodinger Suite 2021-1.
 49 52  0  0  1  0            999 V2000
   34.2390   56.2818   31.0453 C   0  0  0  0  0  0
   35.1890   55.9662   30.0852 C   0  0  0  0  0  0
   36.4585   55.5135   30.4377 C   0  0  0  0  0  0
   34.5335   56.1770   32.4031 C   0  0  0  0  0  0
   35.8100   55.7560   32.8222 C   0  0  0  0  0  0
   36.7439   55.3924   31.8012 C   0  0  0  0  0  0
   37.8596   54.9006   32.4384 N   0  0  0  0  0  0
   37.6916   54.9760   33.7949 C   0  0  0  0  0  0
   36.4846   55.5871   34.1014 C   0  0  0  0  0  0
   36.0590   55.9125   35.4817 C   0  0  0  0  0  0
   38.2584   56.6198   36.6188 C   0  0  0  0  0  0
   36.7997   56.2957   36.5472 C   0  0  0  0  0  0
   34.6874   55.8516   35.9112 C   0  0  0  0  0  0
   34.7010   56.1797   37.2035 N   0  0  0  0  0  0
   35.9158   56.4523   37.6744 C   0  0  0  0  0  0
   33.6784   55.5719   35.2741 O   0  0  0  0  0  0
   36.1671   56.7722   38.8369 O   0  0  0  0  0  0
   39.0004   56.3788   37.7868 C   0  0  0  0  0  0
   40.3649   56.6928   37.8727 C   0  0  0  0  0  0
   41.0123   57.1720   36.7370 C   0  0  0  0  0  0
   40.3017   57.4229   35.5671 C   0  0  0  0  0  0
   38.9329   57.1725   35.5224 C   0  0  0  0  0  0
   41.1380   56.5337   39.0044 O   0  0  0  0  0  0
   40.5422   56.6363   40.3012 C   0  0  0  0  0  0
   41.3632   55.8361   41.3390 C   0  0  0  0  0  0
   41.2805   54.3716   41.2449 N   0  0  0  0  0  0
   39.9548   53.8447   41.5600 C   0  0  0  0  0  0
   41.7630   53.8415   39.9726 C   0  0  0  0  0  0
   33.2523   56.5940   30.7291 H   0  0  0  0  0  0
   34.9162   56.0222   29.0409 H   0  0  0  0  0  0
   37.1585   55.1783   29.6836 H   0  0  0  0  0  0
   33.7550   56.3743   33.1112 H   0  0  0  0  0  0
   38.6927   54.5219   32.0075 H   0  0  0  0  0  0
   38.4829   54.6277   34.4454 H   0  0  0  0  0  0
   33.8654   56.2375   37.7678 H   0  0  0  0  0  0
   38.5041   55.9189   38.6252 H   0  0  0  0  0  0
   42.0710   57.3873   36.7760 H   0  0  0  0  0  0
   40.8086   57.8244   34.7012 H   0  0  0  0  0  0
   38.3992   57.4103   34.6141 H   0  0  0  0  0  0
   39.5014   56.3354   40.3621 H   0  0  0  0  0  0
   40.5571   57.6897   40.5760 H   0  0  0  0  0  0
   41.0611   56.1359   42.3437 H   0  0  0  0  0  0
   42.4131   56.1248   41.2625 H   0  0  0  0  0  0
   39.6329   54.1744   42.5466 H   0  0  0  0  0  0
   39.9627   52.7536   41.5677 H   0  0  0  0  0  0
   39.2052   54.1653   40.8369 H   0  0  0  0  0  0
   42.7515   54.2368   39.7292 H   0  0  0  0  0  0
   41.8524   52.7606   40.0247 H   0  0  0  0  0  0
   41.0884   54.0745   39.1487 H   0  0  0  0  0  0
  1  2  2  0  0  0
  1  4  1  0  0  0
  1 29  1  0  0  0
  2  3  1  0  0  0
  2 30  1  0  0  0
  3  6  2  0  0  0
  3 31  1  0  0  0
  4  5  2  0  0  0
  4 32  1  0  0  0
  5  9  1  0  0  0
  5  6  1  0  0  0
  6  7  1  0  0  0
  7  8  1  0  0  0
  7 33  1  0  0  0
  8  9  2  0  0  0
  8 34  1  0  0  0
  9 10  1  0  0  0
 10 13  1  0  0  0
 10 12  2  0  0  0
 11 18  2  0  0  0
 11 22  1  0  0  0
 11 12  1  0  0  0
 12 15  1  0  0  0
 13 14  1  0  0  0
 13 16  2  0  0  0
 14 15  1  0  0  0
 14 35  1  0  0  0
 15 17  2  0  0  0
 18 19  1  0  0  0
 18 36  1  0  0  0
 19 20  2  0  0  0
 19 23  1  0  0  0
 20 21  1  0  0  0
 20 37  1  0  0  0
 21 22  2  0  0  0
 21 38  1  0  0  0
 22 39  1  0  0  0
 23 24  1  0  0  0
 24 25  1  0  0  0
 24 40  1  0  0  0
 24 41  1  0  0  0
 25 26  1  0  0  0
 25 42  1  0  0  0
 25 43  1  0  0  0
 26 27  1  0  0  0
 26 28  1  0  0  0
 27 44  1  0  0  0
 27 45  1  0  0  0
 27 46  1  0  0  0
 28 47  1  0  0  0
 28 48  1  0  0  0
 28 49  1  0  0  0
M  END
> <s_m_entry_id>
3293

> <s_m_entry_name>
dock_pv.22

> <s_m_Source_Path>
/home/csk/Desktop/cluster/DUD-E-result/kpcb

> <s_m_Source_File>
dock_pv.maegz

> <i_m_Source_File_Index>
22

> <chembl_id>
CHEMBL566853

> <chembl_pref_name>
None

> <i_lp_mmshare_version>
53161

> <i_f3d_flags>
0

> <r_lp_tautomer_probability>
1

> <s_lp_Force_Field>
OPLS_2005

> <r_lp_Energy>
33.384787

> <b_lp_Chiralities_Consistent>
1

> <s_lp_Variant>
CHEMBL3045_lig282-1

> <s_i_glide_gridfile>
glide-grid_2i0e

> <i_i_glide_lignum>
442

> <i_i_glide_rotatable_bonds>
6

> <r_i_docking_score>
-9.17038653388475

> <r_i_glide_ligand_efficiency>
-0.327513804781598

> <r_i_glide_ligand_efficiency_sa>
-0.994524806632186

> <r_i_glide_ligand_efficiency_ln>
-2.11679446626906

> <r_i_glide_gscore>
-9.17038653388475

> <r_i_glide_lipo>
-3.11089670633644

> <r_i_glide_hbond>
-0.584913173621851

> <r_i_glide_metal>
0

> <r_i_glide_rewards>
-2.51627793059437

> <r_i_glide_evdw>
-48.3084907531738

> <r_i_glide_ecoul>
-6.82208871841431

> <r_i_glide_erotb>
0.480439122088747

> <r_i_glide_esite>
0

> <r_i_glide_emodel>
-84.4722549792917

> <r_i_glide_energy>
-55.1305794715881

> <r_i_glide_einternal>
3.99945402145386

> <i_i_glide_confnum>
66

> <i_i_glide_posenum>
382

> <r_i_glide_eff_state_penalty>
0

> <s_user_duplicate_titles>
CHEMBL3045_lig282

> <s_m_subgroup_title>
dock_pv

> <s_m_subgroupid>
dock_pv

> <b_m_subgroup_collapsed>
1

$$$$
CHEMBL3045_lig36
                    3D
 Schrodinger Suite 2021-1.
 43 46  0  0  1  0            999 V2000
   37.1094   56.4314   36.7772 C   0  0  0  0  0  0
   38.5502   56.6367   37.0257 C   0  0  0  0  0  0
   36.4480   56.0415   35.6715 C   0  0  0  0  0  0
   36.1295   56.6525   37.8052 C   0  0  0  0  0  0
   35.0452   55.9741   35.9694 C   0  0  0  0  0  0
   34.9489   56.3726   37.2401 N   0  0  0  0  0  0
   39.1783   56.5054   38.2615 C   0  0  0  0  0  0
   40.5369   56.6987   38.1675 N   0  0  0  0  0  0
   40.8346   56.9505   36.8394 C   0  0  0  0  0  0
   39.6076   56.9812   36.1055 C   0  0  0  0  0  0
   37.0018   55.5985   34.3707 C   0  0  0  0  0  0
   42.0537   57.1606   36.3254 N   0  0  0  0  0  0
   34.1116   55.6451   35.2401 O   0  0  0  0  0  0
   36.3005   57.0248   38.9651 O   0  0  0  0  0  0
   36.7151   56.2580   33.1565 C   0  0  0  0  0  0
   41.4847   56.6434   39.2810 C   0  0  0  0  0  0
   35.6664   57.6352   33.0882 Cl  0  0  0  0  0  0
   39.6994   57.3285   34.7441 C   0  0  0  0  0  0
   41.8988   55.1971   39.6476 C   0  0  0  0  0  0
   37.9023   54.5256   34.3569 C   0  0  0  0  0  0
   40.7009   55.0573   41.7582 O   0  0  0  0  0  0
   42.0853   57.4181   34.9926 C   0  0  0  0  0  0
   40.8956   54.4108   40.5161 C   0  0  0  0  0  0
   37.3210   55.8369   31.9710 C   0  0  0  0  0  0
   40.9590   57.5334   34.1830 C   0  0  0  0  0  0
   38.5045   54.1112   33.1700 C   0  0  0  0  0  0
   38.2201   54.7722   31.9769 C   0  0  0  0  0  0
   34.0718   56.4590   37.7328 H   0  0  0  0  0  0
   38.7523   56.2688   39.2269 H   0  0  0  0  0  0
   42.3702   57.2202   39.0122 H   0  0  0  0  0  0
   41.0446   57.1588   40.1367 H   0  0  0  0  0  0
   38.8228   57.4386   34.1305 H   0  0  0  0  0  0
   42.1074   54.6319   38.7368 H   0  0  0  0  0  0
   42.8534   55.2253   40.1749 H   0  0  0  0  0  0
   38.1493   54.0163   35.2799 H   0  0  0  0  0  0
   39.7773   55.3389   41.8078 H   0  0  0  0  0  0
   43.0704   57.5717   34.5740 H   0  0  0  0  0  0
   39.9202   54.3717   40.0359 H   0  0  0  0  0  0
   41.2281   53.3828   40.6745 H   0  0  0  0  0  0
   37.1076   56.3449   31.0407 H   0  0  0  0  0  0
   41.0629   57.7731   33.1342 H   0  0  0  0  0  0
   39.1964   53.2834   33.1775 H   0  0  0  0  0  0
   38.6915   54.4549   31.0569 H   0  0  0  0  0  0
  1  2  1  0  0  0
  1  3  2  0  0  0
  1  4  1  0  0  0
  2  7  2  0  0  0
  2 10  1  0  0  0
  3  5  1  0  0  0
  3 11  1  0  0  0
  4  6  1  0  0  0
  4 14  2  0  0  0
  5 13  2  0  0  0
  5  6  1  0  0  0
  6 28  1  0  0  0
  7  8  1  0  0  0
  7 29  1  0  0  0
  8 16  1  0  0  0
  8  9  1  0  0  0
  9 10  2  0  0  0
  9 12  1  0  0  0
 10 18  1  0  0  0
 11 15  1  0  0  0
 11 20  2  0  0  0
 12 22  2  0  0  0
 15 17  1  0  0  0
 15 24  2  0  0  0
 16 19  1  0  0  0
 16 30  1  0  0  0
 16 31  1  0  0  0
 18 25  2  0  0  0
 18 32  1  0  0  0
 19 23  1  0  0  0
 19 33  1  0  0  0
 19 34  1  0  0  0
 20 26  1  0  0  0
 20 35  1  0  0  0
 21 23  1  0  0  0
 21 36  1  0  0  0
 22 25  1  0  0  0
 22 37  1  0  0  0
 23 38  1  0  0  0
 23 39  1  0  0  0
 24 27  1  0  0  0
 24 40  1  0  0  0
 25 41  1  0  0  0
 26 27  2  0  0  0
 26 42  1  0  0  0
 27 43  1  0  0  0
M  END
> <s_m_entry_id>
3294

> <s_m_entry_name>
dock_pv.23

> <s_m_Source_Path>
/home/csk/Desktop/cluster/DUD-E-result/kpcb

> <s_m_Source_File>
dock_pv.maegz

> <i_m_Source_File_Index>
23

> <chembl_id>
CHEMBL326971

> <chembl_pref_name>
None

> <i_lp_mmshare_version>
53161

> <i_f3d_flags>
0

> <r_lp_tautomer_probability>
1

> <s_lp_Force_Field>
OPLS_2005

> <r_lp_Energy>
25.196874

> <b_lp_Chiralities_Consistent>
1

> <s_lp_Variant>
CHEMBL3045_lig36-1

> <s_i_glide_gridfile>
glide-grid_2i0e

> <i_i_glide_lignum>
38

> <i_i_glide_rotatable_bonds>
6

> <r_i_docking_score>
-9.14039625141658

> <r_i_glide_ligand_efficiency>
-0.33853319449691

> <r_i_glide_ligand_efficiency_sa>
-1.01559958237498

> <r_i_glide_ligand_efficiency_ln>
-2.12773355612042

> <r_i_glide_gscore>
-9.14039625141658

> <r_i_glide_lipo>
-2.43339691437358

> <r_i_glide_hbond>
-0.855526362044966

> <r_i_glide_metal>
0

> <r_i_glide_rewards>
-2.73132800004798

> <r_i_glide_evdw>
-43.5032234191895

> <r_i_glide_ecoul>
-9.4074239730835

> <r_i_glide_erotb>
0.466129791971945

> <r_i_glide_esite>
0

> <r_i_glide_emodel>
-81.322055766429

> <r_i_glide_energy>
-52.9106473922729

> <r_i_glide_einternal>
3.6806161403656

> <i_i_glide_confnum>
114

> <i_i_glide_posenum>
73

> <r_i_glide_eff_state_penalty>
0

> <s_user_duplicate_titles>
CHEMBL3045_lig36,182257

> <s_m_subgroup_title>
dock_pv

> <s_m_subgroupid>
dock_pv

> <b_m_subgroup_collapsed>
1

$$$$
CHEMBL3045_lig29
                    3D
 Schrodinger Suite 2021-1.
 54 57  0  0  1  0            999 V2000
   36.4516   56.0473   35.6807 C   0  0  0  0  0  0
   36.8071   55.6729   34.3056 C   0  0  0  0  0  0
   37.2451   56.4823   36.6807 C   0  0  0  0  0  0
   35.1031   55.9685   36.1676 C   0  0  0  0  0  0
   36.3981   56.7281   37.8255 C   0  0  0  0  0  0
   35.1692   56.3721   37.4379 N   0  0  0  0  0  0
   37.8876   54.8914   33.9205 C   0  0  0  0  0  0
   37.9500   54.7660   32.5491 N   0  0  0  0  0  0
   36.8741   55.4550   32.0083 C   0  0  0  0  0  0
   42.0389   53.5281   35.0016 S   0  0  0  0  0  0
   36.1233   56.0162   33.0859 C   0  0  0  0  0  0
   38.7116   56.7956   36.6039 C   0  0  0  0  0  0
   36.5664   55.5718   30.7107 N   0  0  0  0  0  0
   34.0832   55.6186   35.5778 O   0  0  0  0  0  0
   36.6754   57.1728   38.9376 O   0  0  0  0  0  0
   41.3174   53.1983   36.2349 O   0  0  0  0  0  0
   42.2989   54.9227   34.6374 O   0  0  0  0  0  0
   41.1706   52.7722   33.6733 N   0  0  1  0  0  0
   39.6251   56.5107   37.6452 C   0  0  0  0  0  0
   38.9391   53.9635   31.8242 C   0  0  0  0  0  0
   43.6823   52.6238   35.0217 C   0  0  0  0  0  0
   34.9621   56.7397   32.7491 C   0  0  0  0  0  0
   39.1414   55.9698   38.8204 O   0  0  0  0  0  0
   40.3904   54.4655   32.0281 C   0  0  0  0  0  0
   39.2188   57.3384   35.4116 C   0  0  0  0  0  0
   41.3825   53.3173   32.3143 C   0  0  0  0  0  0
   35.4268   56.2548   30.4404 C   0  0  0  0  0  0
   40.9962   56.7567   37.4496 C   0  0  0  0  0  0
   40.0489   55.4988   39.8107 C   0  0  0  0  0  0
   34.6116   56.8438   31.4038 C   0  0  0  0  0  0
   40.5770   57.5703   35.2281 C   0  0  0  0  0  0
   41.4692   57.2641   36.2466 C   0  0  0  0  0  0
   34.3585   56.4439   38.0354 H   0  0  0  0  0  0
   38.6447   54.4122   34.5271 H   0  0  0  0  0  0
   41.2870   51.7498   33.7092 H   0  0  0  0  0  0
   38.7010   53.9722   30.7581 H   0  0  0  0  0  0
   38.8121   52.9323   32.1610 H   0  0  0  0  0  0
   44.2934   53.0205   35.8297 H   0  0  0  0  0  0
   44.1784   52.7713   34.0639 H   0  0  0  0  0  0
   43.5017   51.5653   35.1893 H   0  0  0  0  0  0
   34.3379   57.1820   33.5104 H   0  0  0  0  0  0
   40.4589   55.2188   32.8142 H   0  0  0  0  0  0
   40.7063   54.9823   31.1199 H   0  0  0  0  0  0
   38.5542   57.5726   34.5944 H   0  0  0  0  0  0
   42.4127   53.6681   32.2356 H   0  0  0  0  0  0
   41.2491   52.5178   31.5824 H   0  0  0  0  0  0
   35.1647   56.3189   29.3936 H   0  0  0  0  0  0
   41.7218   56.5423   38.2177 H   0  0  0  0  0  0
   39.5010   54.9512   40.5750 H   0  0  0  0  0  0
   40.7787   54.8022   39.3940 H   0  0  0  0  0  0
   40.5679   56.3243   40.2992 H   0  0  0  0  0  0
   33.7160   57.3718   31.1102 H   0  0  0  0  0  0
   40.9389   57.9720   34.2932 H   0  0  0  0  0  0
   42.5285   57.4293   36.1042 H   0  0  0  0  0  0
  1  2  1  0  0  0
  1  3  2  0  0  0
  1  4  1  0  0  0
  2  7  2  0  0  0
  2 11  1  0  0  0
  3  5  1  0  0  0
  3 12  1  0  0  0
  4  6  1  0  0  0
  4 14  2  0  0  0
  5 15  2  0  0  0
  5  6  1  0  0  0
  6 33  1  0  0  0
  7  8  1  0  0  0
  7 34  1  0  0  0
  8 20  1  0  0  0
  8  9  1  0  0  0
  9 11  2  0  0  0
  9 13  1  0  0  0
 10 18  1  0  0  0
 10 16  2  0  0  0
 10 17  2  0  0  0
 10 21  1  0  0  0
 11 22  1  0  0  0
 12 19  1  0  0  0
 12 25  2  0  0  0
 13 27  2  0  0  0
 18 26  1  0  0  0
 18 35  1  0  0  0
 19 23  1  0  0  0
 19 28  2  0  0  0
 20 24  1  0  0  0
 20 36  1  0  0  0
 20 37  1  0  0  0
 21 38  1  0  0  0
 21 39  1  0  0  0
 21 40  1  0  0  0
 22 30  2  0  0  0
 22 41  1  0  0  0
 23 29  1  0  0  0
 24 26  1  0  0  0
 24 42  1  0  0  0
 24 43  1  0  0  0
 25 31  1  0  0  0
 25 44  1  0  0  0
 26 45  1  0  0  0
 26 46  1  0  0  0
 27 30  1  0  0  0
 27 47  1  0  0  0
 28 32  1  0  0  0
 28 48  1  0  0  0
 29 49  1  0  0  0
 29 50  1  0  0  0
 29 51  1  0  0  0
 30 52  1  0  0  0
 31 32  2  0  0  0
 31 53  1  0  0  0
 32 54  1  0  0  0
M  END
> <s_m_entry_id>
3295

> <s_m_entry_name>
dock_pv.24

> <s_m_Source_Path>
/home/csk/Desktop/cluster/DUD-E-result/kpcb

> <s_m_Source_File>
dock_pv.maegz

> <i_m_Source_File_Index>
24

> <chembl_id>
CHEMBL326208

> <chembl_pref_name>
None

> <i_lp_mmshare_version>
53161

> <i_f3d_flags>
0

> <r_lp_tautomer_probability>
1

> <s_lp_Force_Field>
OPLS_2005

> <r_lp_Energy>
20.815799

> <b_lp_Chiralities_Consistent>
1

> <s_lp_Variant>
CHEMBL3045_lig29-1

> <s_i_glide_gridfile>
glide-grid_2i0e

> <i_i_glide_lignum>
31

> <i_i_glide_rotatable_bonds>
8

> <r_i_docking_score>
-9.14014769281831

> <r_i_glide_ligand_efficiency>
-0.285629615400572

> <r_i_glide_ligand_efficiency_sa>
-0.906817502872685

> <r_i_glide_ligand_efficiency_ln>
-2.04672821943815

> <r_i_glide_gscore>
-9.14014769281831

> <r_i_glide_lipo>
-2.18597185845417

> <r_i_glide_hbond>
-0.762187563824023

> <r_i_glide_metal>
0

> <r_i_glide_rewards>
-2.39992480900834

> <r_i_glide_evdw>
-51.7860717773438

> <r_i_glide_ecoul>
-9.74469757080078

> <r_i_glide_erotb>
0.408300719632828

> <r_i_glide_esite>
-0.149355956677309

> <r_i_glide_emodel>
-92.1236083193006

> <r_i_glide_energy>
-61.5307693481445

> <r_i_glide_einternal>
6.93525314331055

> <i_i_glide_confnum>
81

> <i_i_glide_posenum>
118

> <r_i_glide_eff_state_penalty>
0

> <s_user_duplicate_titles>
CHEMBL3045_lig29

> <s_m_subgroup_title>
dock_pv

> <s_m_subgroupid>
dock_pv

> <b_m_subgroup_collapsed>
1

$$$$
CHEMBL3045_lig35
                    3D
 Schrodinger Suite 2021-1.
 53 56  0  0  1  0            999 V2000
   36.4203   56.2833   35.8075 C   0  0  0  0  0  0
   36.4481   55.9957   34.3308 C   0  0  0  0  0  0
   37.4078   56.5700   36.7117 C   0  0  0  0  0  0
   35.1749   56.3465   36.5359 C   0  0  0  0  0  0
   36.7826   56.8141   37.9915 C   0  0  0  0  0  0
   35.4931   56.5840   37.8014 N   0  0  0  0  0  0
   37.6179   55.8925   33.6058 C   0  0  0  0  0  0
   37.4414   55.8160   32.2524 N   0  0  0  0  0  0
   39.5700   52.7167   33.5305 S   0  0  0  0  0  0
   36.0821   55.7476   32.0340 C   0  0  0  0  0  0
   35.4205   55.7554   33.3099 C   0  0  0  0  0  0
   38.8991   56.7626   36.5432 C   0  0  0  0  0  0
   35.4912   55.6822   30.8317 N   0  0  0  0  0  0
   38.2870   52.8281   32.8360 O   0  0  0  0  0  0
   39.6576   52.0639   34.8387 O   0  0  0  0  0  0
   34.0186   56.2305   36.1562 O   0  0  0  0  0  0
   37.2610   57.1853   39.0614 O   0  0  0  0  0  0
   40.2915   54.3013   33.6911 N   0  0  2  0  0  0
   40.7012   51.9720   32.4371 N   0  0  0  0  0  0
   39.8539   56.2246   37.4433 C   0  0  0  0  0  0
   38.4875   55.9707   31.2365 C   0  0  0  0  0  0
   34.0171   55.5721   33.2526 C   0  0  0  0  0  0
   39.4015   55.5721   38.5719 O   0  0  0  0  0  0
   39.6889   54.9978   31.2939 C   0  0  0  0  0  0
   39.3869   57.5167   35.4674 C   0  0  0  0  0  0
   40.6765   55.0661   32.4812 C   0  0  0  0  0  0
   34.1422   55.5724   30.8504 C   0  0  0  0  0  0
   41.2281   56.3649   37.1750 C   0  0  0  0  0  0
   40.3130   55.1716   39.5910 C   0  0  0  0  0  0
   33.3839   55.4878   32.0119 C   0  0  0  0  0  0
   40.7456   57.6118   35.1862 C   0  0  0  0  0  0
   41.6713   57.0379   36.0440 C   0  0  0  0  0  0
   34.7898   56.6854   38.5154 H   0  0  0  0  0  0
   38.6241   55.9329   33.9452 H   0  0  0  0  0  0
   41.0243   54.3112   34.4059 H   0  0  0  0  0  0
   41.4474   51.4794   32.9449 H   0  0  0  0  0  0
   40.2542   51.3094   31.7835 H   0  0  0  0  0  0
   38.8294   57.0042   31.2864 H   0  0  0  0  0  0
   38.0209   55.8403   30.2636 H   0  0  0  0  0  0
   33.3978   55.5053   34.1262 H   0  0  0  0  0  0
   40.3011   55.2528   30.4371 H   0  0  0  0  0  0
   39.3797   53.9836   31.0483 H   0  0  0  0  0  0
   38.7002   57.9719   34.7768 H   0  0  0  0  0  0
   40.9093   56.0959   32.7549 H   0  0  0  0  0  0
   41.6202   54.6262   32.1534 H   0  0  0  0  0  0
   33.6608   55.5283   29.8826 H   0  0  0  0  0  0
   41.9759   55.9427   37.8279 H   0  0  0  0  0  0
   39.7529   54.7700   40.4352 H   0  0  0  0  0  0
   40.9855   54.3880   39.2407 H   0  0  0  0  0  0
   40.8992   56.0138   39.9597 H   0  0  0  0  0  0
   32.3093   55.3784   31.9500 H   0  0  0  0  0  0
   41.0827   58.1547   34.3148 H   0  0  0  0  0  0
   42.7299   57.1295   35.8446 H   0  0  0  0  0  0
  1  2  1  0  0  0
  1  3  2  0  0  0
  1  4  1  0  0  0
  2  7  2  0  0  0
  2 11  1  0  0  0
  3  5  1  0  0  0
  3 12  1  0  0  0
  4  6  1  0  0  0
  4 16  2  0  0  0
  5 17  2  0  0  0
  5  6  1  0  0  0
  6 33  1  0  0  0
  7  8  1  0  0  0
  7 34  1  0  0  0
  8 21  1  0  0  0
  8 10  1  0  0  0
  9 18  1  0  0  0
  9 14  2  0  0  0
  9 15  2  0  0  0
  9 19  1  0  0  0
 10 11  2  0  0  0
 10 13  1  0  0  0
 11 22  1  0  0  0
 12 20  1  0  0  0
 12 25  2  0  0  0
 13 27  2  0  0  0
 18 26  1  0  0  0
 18 35  1  0  0  0
 19 36  1  0  0  0
 19 37  1  0  0  0
 20 23  1  0  0  0
 20 28  2  0  0  0
 21 24  1  0  0  0
 21 38  1  0  0  0
 21 39  1  0  0  0
 22 30  2  0  0  0
 22 40  1  0  0  0
 23 29  1  0  0  0
 24 26  1  0  0  0
 24 41  1  0  0  0
 24 42  1  0  0  0
 25 31  1  0  0  0
 25 43  1  0  0  0
 26 44  1  0  0  0
 26 45  1  0  0  0
 27 30  1  0  0  0
 27 46  1  0  0  0
 28 32  1  0  0  0
 28 47  1  0  0  0
 29 48  1  0  0  0
 29 49  1  0  0  0
 29 50  1  0  0  0
 30 51  1  0  0  0
 31 32  2  0  0  0
 31 52  1  0  0  0
 32 53  1  0  0  0
M  END
> <s_m_entry_id>
3296

> <s_m_entry_name>
dock_pv.25

> <s_m_Source_Path>
/home/csk/Desktop/cluster/DUD-E-result/kpcb

> <s_m_Source_File>
dock_pv.maegz

> <i_m_Source_File_Index>
25

> <chembl_id>
CHEMBL423323

> <chembl_pref_name>
None

> <i_lp_mmshare_version>
53161

> <i_f3d_flags>
0

> <r_lp_tautomer_probability>
1

> <s_lp_Force_Field>
OPLS_2005

> <r_lp_Energy>
33.190821

> <b_lp_Chiralities_Consistent>
1

> <s_lp_Variant>
CHEMBL3045_lig35-1

> <s_i_glide_gridfile>
glide-grid_2i0e

> <i_i_glide_lignum>
37

> <i_i_glide_rotatable_bonds>
8

> <r_i_docking_score>
-9.13607627897328

> <r_i_glide_ligand_efficiency>
-0.285502383717915

> <r_i_glide_ligand_efficiency_sa>
-0.906413567459364

> <r_i_glide_ligand_efficiency_ln>
-2.0458165188957

> <r_i_glide_gscore>
-9.13607627897328

> <r_i_glide_lipo>
-2.4106609054271

> <r_i_glide_hbond>
-0.73228093292291

> <r_i_glide_metal>
0

> <r_i_glide_rewards>
-2.39354563886707

> <r_i_glide_evdw>
-50.5331115722656

> <r_i_glide_ecoul>
-9.09750652313232

> <r_i_glide_erotb>
0.406690340692066

> <r_i_glide_esite>
-0.11499758536514

> <r_i_glide_emodel>
-89.2531219132341

> <r_i_glide_energy>
-59.6306180953979

> <r_i_glide_einternal>
7.01423501968384

> <i_i_glide_confnum>
46

> <i_i_glide_posenum>
303

> <r_i_glide_eff_state_penalty>
0

> <s_user_duplicate_titles>
CHEMBL3045_lig35,181981

> <s_m_subgroup_title>
dock_pv

> <s_m_subgroupid>
dock_pv

> <b_m_subgroup_collapsed>
1

$$$$
CHEMBL3045_lig352
                    3D
 Schrodinger Suite 2021-1.
 55 60  0  0  1  0            999 V2000
   35.1005   56.3829   37.6462 N   0  0  0  0  0  0
   36.3091   56.7177   38.1113 C   0  0  0  0  0  0
   37.2127   56.4306   37.0339 C   0  0  0  0  0  0
   36.4875   55.9816   35.9941 C   0  0  0  0  0  0
   35.1077   55.9586   36.3792 C   0  0  0  0  0  0
   36.5491   57.1716   39.2303 O   0  0  0  0  0  0
   34.1249   55.6427   35.7135 O   0  0  0  0  0  0
   38.1124   54.3049   32.4587 N   0  0  0  0  0  0
   38.4760   53.9691   33.7265 C   0  0  0  0  0  0
   37.9096   54.4782   34.8499 N   0  0  0  0  0  0
   36.9741   55.4492   34.6991 C   0  0  0  0  0  0
   36.5223   55.8892   33.4167 C   0  0  0  0  0  0
   35.5466   56.8959   33.1760 C   0  0  0  0  0  0
   35.1597   57.1932   31.8716 C   0  0  0  0  0  0
   35.7415   56.5362   30.7904 C   0  0  0  0  0  0
   36.7326   55.5780   30.9886 C   0  0  0  0  0  0
   37.1377   55.2418   32.2997 C   0  0  0  0  0  0
   39.4359   52.9636   33.8827 N   0  0  0  0  0  0
   40.0755   52.6478   35.1781 C   0  0  0  0  0  0
   41.4128   53.3975   35.3838 C   0  0  0  0  0  0
   42.3410   53.1719   34.2775 N   0  0  0  0  0  0
   41.7210   53.4422   32.9841 C   0  0  0  0  0  0
   40.4083   52.6391   32.8198 C   0  0  0  0  0  0
   39.4136   56.3722   38.2871 C   0  0  0  0  0  0
   38.6635   56.6209   37.1508 C   0  0  0  0  0  0
   39.6083   57.0194   36.1374 C   0  0  0  0  0  0
   39.4987   57.4484   34.8041 C   0  0  0  0  0  0
   40.6473   57.7093   34.0651 C   0  0  0  0  0  0
   41.9037   57.5648   34.6368 C   0  0  0  0  0  0
   42.0729   57.1721   35.9647 C   0  0  0  0  0  0
   40.9142   56.9159   36.7098 C   0  0  0  0  0  0
   40.7533   56.5386   38.0310 N   0  0  0  0  0  0
   41.8232   56.2892   38.9840 C   0  0  0  0  0  0
   34.2488   56.4971   38.1802 H   0  0  0  0  0  0
   35.0888   57.4211   34.0005 H   0  0  0  0  0  0
   34.4007   57.9398   31.6913 H   0  0  0  0  0  0
   35.4214   56.7698   29.7865 H   0  0  0  0  0  0
   37.1933   55.0829   30.1428 H   0  0  0  0  0  0
   39.4107   52.8686   36.0144 H   0  0  0  0  0  0
   40.2471   51.5724   35.2352 H   0  0  0  0  0  0
   41.8781   53.0615   36.3103 H   0  0  0  0  0  0
   41.2180   54.4653   35.4735 H   0  0  0  0  0  0
   42.7683   52.2520   34.3000 H   0  0  0  0  0  0
   42.4191   53.1681   32.1918 H   0  0  0  0  0  0
   41.5152   54.5093   32.8925 H   0  0  0  0  0  0
   40.6301   51.5715   32.8401 H   0  0  0  0  0  0
   39.9968   52.8198   31.8262 H   0  0  0  0  0  0
   39.0968   56.0413   39.2687 H   0  0  0  0  0  0
   38.5315   57.5674   34.3444 H   0  0  0  0  0  0
   40.5665   58.0179   33.0320 H   0  0  0  0  0  0
   42.7809   57.7693   34.0404 H   0  0  0  0  0  0
   43.0608   57.0822   36.3913 H   0  0  0  0  0  0
   41.4194   56.1048   39.9799 H   0  0  0  0  0  0
   42.3975   55.4206   38.6583 H   0  0  0  0  0  0
   42.4798   57.1582   39.0254 H   0  0  0  0  0  0
  1  2  1  0  0  0
  1  5  1  0  0  0
  1 34  1  0  0  0
  2  3  1  0  0  0
  2  6  2  0  0  0
  3  4  2  0  0  0
  3 25  1  0  0  0
  4  5  1  0  0  0
  4 11  1  0  0  0
  5  7  2  0  0  0
  8  9  1  0  0  0
  8 17  2  0  0  0
  9 10  2  0  0  0
  9 18  1  0  0  0
 10 11  1  0  0  0
 11 12  2  0  0  0
 12 13  1  0  0  0
 12 17  1  0  0  0
 13 14  2  0  0  0
 13 35  1  0  0  0
 14 15  1  0  0  0
 14 36  1  0  0  0
 15 16  2  0  0  0
 15 37  1  0  0  0
 16 17  1  0  0  0
 16 38  1  0  0  0
 18 19  1  0  0  0
 18 23  1  0  0  0
 19 20  1  0  0  0
 19 39  1  0  0  0
 19 40  1  0  0  0
 20 21  1  0  0  0
 20 41  1  0  0  0
 20 42  1  0  0  0
 21 22  1  0  0  0
 21 43  1  0  0  0
 22 23  1  0  0  0
 22 44  1  0  0  0
 22 45  1  0  0  0
 23 46  1  0  0  0
 23 47  1  0  0  0
 24 32  1  0  0  0
 24 25  2  0  0  0
 24 48  1  0  0  0
 25 26  1  0  0  0
 26 27  1  0  0  0
 26 31  2  0  0  0
 27 28  2  0  0  0
 27 49  1  0  0  0
 28 29  1  0  0  0
 28 50  1  0  0  0
 29 30  2  0  0  0
 29 51  1  0  0  0
 30 31  1  0  0  0
 30 52  1  0  0  0
 31 32  1  0  0  0
 32 33  1  0  0  0
 33 53  1  0  0  0
 33 54  1  0  0  0
 33 55  1  0  0  0
M  END
> <s_m_entry_id>
3297

> <s_m_entry_name>
dock_pv.26

> <s_m_Source_Path>
/home/csk/Desktop/cluster/DUD-E-result/kpcb

> <s_m_Source_File>
dock_pv.maegz

> <i_m_Source_File_Index>
26

> <chembl_id>
CHEMBL2151415

> <chembl_pref_name>
None

> <i_lp_mmshare_version>
53161

> <i_f3d_flags>
0

> <r_lp_tautomer_probability>
1

> <s_lp_Force_Field>
OPLS_2005

> <r_lp_Energy>
40.642879

> <b_lp_Chiralities_Consistent>
1

> <s_lp_Variant>
CHEMBL3045_lig352-1

> <s_i_glide_gridfile>
glide-grid_2i0e

> <i_i_glide_lignum>
516

> <i_i_glide_rotatable_bonds>
3

> <r_i_docking_score>
-9.10988524720776

> <r_i_glide_ligand_efficiency>
-0.276057128703265

> <r_i_glide_ligand_efficiency_sa>
-0.885462716323791

> <r_i_glide_ligand_efficiency_ln>
-2.0259913105176

> <r_i_glide_gscore>
-9.10988524720776

> <r_i_glide_lipo>
-2.71934961657003

> <r_i_glide_hbond>
-0.640062964505112

> <r_i_glide_metal>
0

> <r_i_glide_rewards>
-2.40292805824844

> <r_i_glide_evdw>
-52.994987487793

> <r_i_glide_ecoul>
-6.10465717315674

> <r_i_glide_erotb>
0.217903342478992

> <r_i_glide_esite>
0

> <r_i_glide_emodel>
-91.2670160670373

> <r_i_glide_energy>
-59.0996446609497

> <r_i_glide_einternal>
1.59550368785858

> <i_i_glide_confnum>
107

> <i_i_glide_posenum>
41

> <r_i_glide_eff_state_penalty>
0

> <s_user_duplicate_titles>
CHEMBL3045_lig352

> <s_m_subgroup_title>
dock_pv

> <s_m_subgroupid>
dock_pv

> <b_m_subgroup_collapsed>
1

$$$$
CHEMBL3045_lig248
                    3D
 Schrodinger Suite 2021-1.
 46 49  0  0  1  0            999 V2000
   36.4092   55.9895   35.8573 C   0  0  0  0  0  0
   36.7856   55.6280   34.4822 C   0  0  0  0  0  0
   37.2041   56.2656   36.9145 C   0  0  0  0  0  0
   35.0401   56.0466   36.2912 C   0  0  0  0  0  0
   35.1010   56.3722   37.5817 N   0  0  0  0  0  0
   36.3450   56.5014   38.0441 C   0  0  0  0  0  0
   37.9061   54.8897   34.1569 C   0  0  0  0  0  0
   38.0698   54.7935   32.7948 N   0  0  0  0  0  0
   36.1520   55.9428   33.2198 C   0  0  0  0  0  0
   36.9929   55.4160   32.1817 C   0  0  0  0  0  0
   38.5789   56.3166   37.1052 N   0  0  0  0  0  0
   34.0063   55.8425   35.6601 O   0  0  0  0  0  0
   36.6505   56.7753   39.2057 O   0  0  0  0  0  0
   39.2568   54.2539   32.1303 C   0  0  0  0  0  0
   39.6211   56.7173   36.2529 C   0  0  0  0  0  0
   34.9828   56.6319   32.8401 C   0  0  0  0  0  0
   39.6587   52.8593   32.6576 C   0  0  0  0  0  0
   36.6816   55.5719   30.8250 C   0  0  0  0  0  0
   42.0761   53.1725   32.5243 O   0  0  0  0  0  0
   41.0001   52.3587   32.1028 C   0  0  0  0  0  0
   40.9255   56.3901   36.6298 C   0  0  0  0  0  0
   39.4072   57.4432   35.0777 C   0  0  0  0  0  0
   34.6659   56.7588   31.4898 C   0  0  0  0  0  0
   35.5000   56.2380   30.5087 C   0  0  0  0  0  0
   40.4792   57.8108   34.2684 C   0  0  0  0  0  0
   42.0011   56.7594   35.8253 C   0  0  0  0  0  0
   41.7738   57.4652   34.6462 C   0  0  0  0  0  0
   34.2735   56.5042   38.1483 H   0  0  0  0  0  0
   38.6607   54.4761   34.8104 H   0  0  0  0  0  0
   38.9138   56.1039   38.0351 H   0  0  0  0  0  0
   39.0875   54.2014   31.0533 H   0  0  0  0  0  0
   40.0642   54.9746   32.2775 H   0  0  0  0  0  0
   34.3137   57.0554   33.5746 H   0  0  0  0  0  0
   39.7152   52.8357   33.7456 H   0  0  0  0  0  0
   38.8816   52.1434   32.3846 H   0  0  0  0  0  0
   37.3088   55.1740   30.0406 H   0  0  0  0  0  0
   42.8785   52.6321   32.4375 H   0  0  0  0  0  0
   41.1765   51.3278   32.4135 H   0  0  0  0  0  0
   40.9933   52.3727   31.0110 H   0  0  0  0  0  0
   41.1144   55.8367   37.5381 H   0  0  0  0  0  0
   38.4066   57.6984   34.7742 H   0  0  0  0  0  0
   33.7595   57.2693   31.1967 H   0  0  0  0  0  0
   35.2179   56.3510   29.4724 H   0  0  0  0  0  0
   40.3038   58.3581   33.3544 H   0  0  0  0  0  0
   43.0099   56.4961   36.1110 H   0  0  0  0  0  0
   42.6118   57.7515   34.0267 H   0  0  0  0  0  0
  1  2  1  0  0  0
  1  3  2  0  0  0
  1  4  1  0  0  0
  2  7  2  0  0  0
  2  9  1  0  0  0
  3  6  1  0  0  0
  3 11  1  0  0  0
  4  5  1  0  0  0
  4 12  2  0  0  0
  5  6  1  0  0  0
  5 28  1  0  0  0
  6 13  2  0  0  0
  7  8  1  0  0  0
  7 29  1  0  0  0
  8 14  1  0  0  0
  8 10  1  0  0  0
  9 10  2  0  0  0
  9 16  1  0  0  0
 10 18  1  0  0  0
 11 15  1  0  0  0
 11 30  1  0  0  0
 14 17  1  0  0  0
 14 31  1  0  0  0
 14 32  1  0  0  0
 15 21  1  0  0  0
 15 22  2  0  0  0
 16 23  2  0  0  0
 16 33  1  0  0  0
 17 20  1  0  0  0
 17 34  1  0  0  0
 17 35  1  0  0  0
 18 24  2  0  0  0
 18 36  1  0  0  0
 19 20  1  0  0  0
 19 37  1  0  0  0
 20 38  1  0  0  0
 20 39  1  0  0  0
 21 26  2  0  0  0
 21 40  1  0  0  0
 22 25  1  0  0  0
 22 41  1  0  0  0
 23 24  1  0  0  0
 23 42  1  0  0  0
 24 43  1  0  0  0
 25 27  2  0  0  0
 25 44  1  0  0  0
 26 27  1  0  0  0
 26 45  1  0  0  0
 27 46  1  0  0  0
M  END
> <s_m_entry_id>
3298

> <s_m_entry_name>
dock_pv.27

> <s_m_Source_Path>
/home/csk/Desktop/cluster/DUD-E-result/kpcb

> <s_m_Source_File>
dock_pv.maegz

> <i_m_Source_File_Index>
27

> <chembl_id>
CHEMBL185221

> <chembl_pref_name>
None

> <i_lp_mmshare_version>
53161

> <i_f3d_flags>
0

> <r_lp_tautomer_probability>
0.999999999997686

> <s_lp_Force_Field>
OPLS_2005

> <r_lp_Energy>
30.599597

> <b_lp_Chiralities_Consistent>
1

> <s_lp_Variant>
CHEMBL3045_lig248-1

> <s_i_glide_gridfile>
glide-grid_2i0e

> <i_i_glide_lignum>
406

> <i_i_glide_rotatable_bonds>
7

> <r_i_docking_score>
-9.10957941190196

> <r_i_glide_ligand_efficiency>
-0.337391830070443

> <r_i_glide_ligand_efficiency_sa>
-1.01217548909934

> <r_i_glide_ligand_efficiency_ln>
-2.12055990393672

> <r_i_glide_gscore>
-9.10957941190196

> <r_i_glide_lipo>
-2.56850348883319

> <r_i_glide_hbond>
-0.72

> <r_i_glide_metal>
0

> <r_i_glide_rewards>
-2.80847631035766

> <r_i_glide_evdw>
-45.7332954406738

> <r_i_glide_ecoul>
-8.95363426208496

> <r_i_glide_erotb>
0.617110298635315

> <r_i_glide_esite>
0

> <r_i_glide_emodel>
-83.970946002187

> <r_i_glide_energy>
-54.6869297027588

> <r_i_glide_einternal>
6.13512325286865

> <i_i_glide_confnum>
115

> <i_i_glide_posenum>
240

> <r_i_glide_eff_state_penalty>
0

> <s_user_duplicate_titles>
CHEMBL3045_lig248,309158

> <s_m_subgroup_title>
dock_pv

> <s_m_subgroupid>
dock_pv

> <b_m_subgroup_collapsed>
1

$$$$
CHEMBL3045_lig31
                    3D
 Schrodinger Suite 2021-1.
 48 51  0  0  1  0            999 V2000
   36.3533   56.0273   35.4750 C   0  0  0  0  0  0
   36.6485   55.6639   34.0639 C   0  0  0  0  0  0
   37.1837   56.4816   36.4473 C   0  0  0  0  0  0
   35.0309   55.9398   36.0407 C   0  0  0  0  0  0
   36.3851   56.7455   37.6232 C   0  0  0  0  0  0
   35.1460   56.3715   37.2963 N   0  0  0  0  0  0
   37.8448   55.1260   33.6073 C   0  0  0  0  0  0
   37.8930   55.0698   32.2289 N   0  0  0  0  0  0
   36.6634   55.4845   31.7519 C   0  0  0  0  0  0
   35.8336   55.7921   32.8715 C   0  0  0  0  0  0
   38.6523   56.7912   36.3390 C   0  0  0  0  0  0
   36.3026   55.5721   30.4629 N   0  0  0  0  0  0
   36.7015   57.2119   38.7162 O   0  0  0  0  0  0
   33.9811   55.5626   35.5324 O   0  0  0  0  0  0
   39.5917   56.4806   37.3517 C   0  0  0  0  0  0
   39.0603   54.7617   31.3945 C   0  0  0  0  0  0
   34.5094   56.1650   32.5728 C   0  0  0  0  0  0
   40.8954   52.7707   29.9313 N   0  0  0  0  0  0
   39.1285   55.9714   38.5500 O   0  0  0  0  0  0
   40.0600   53.7653   32.0286 C   0  0  0  0  0  0
   39.1359   57.3572   35.1495 C   0  0  0  0  0  0
   35.0198   55.9485   30.2373 C   0  0  0  0  0  0
   41.2789   53.4868   31.1324 C   0  0  0  0  0  0
   40.9634   56.6749   37.1080 C   0  0  0  0  0  0
   40.0449   55.6061   39.5787 C   0  0  0  0  0  0
   34.1024   56.2379   31.2414 C   0  0  0  0  0  0
   40.4948   57.5426   34.9179 C   0  0  0  0  0  0
   41.4116   57.1724   35.8907 C   0  0  0  0  0  0
   34.3596   56.4427   37.9254 H   0  0  0  0  0  0
   38.7221   54.8581   34.1786 H   0  0  0  0  0  0
   38.7039   54.3688   30.4407 H   0  0  0  0  0  0
   39.5592   55.7062   31.1674 H   0  0  0  0  0  0
   33.8029   56.3720   33.3523 H   0  0  0  0  0  0
   40.5528   51.8484   30.1928 H   0  0  0  0  0  0
   40.1156   53.2081   29.4513 H   0  0  0  0  0  0
   40.4381   54.1690   32.9686 H   0  0  0  0  0  0
   39.5600   52.8252   32.2769 H   0  0  0  0  0  0
   38.4487   57.6247   34.3626 H   0  0  0  0  0  0
   34.7160   55.9866   29.2007 H   0  0  0  0  0  0
   41.7742   54.4195   30.8571 H   0  0  0  0  0  0
   42.0148   52.8881   31.6731 H   0  0  0  0  0  0
   41.7076   56.4308   37.8491 H   0  0  0  0  0  0
   39.5017   55.2075   40.4337 H   0  0  0  0  0  0
   40.7338   54.8295   39.2398 H   0  0  0  0  0  0
   40.6170   56.4668   39.9273 H   0  0  0  0  0  0
   33.0877   56.5139   30.9884 H   0  0  0  0  0  0
   40.8339   57.9560   33.9782 H   0  0  0  0  0  0
   42.4705   57.3065   35.7166 H   0  0  0  0  0  0
  1  2  1  0  0  0
  1  3  2  0  0  0
  1  4  1  0  0  0
  2  7  2  0  0  0
  2 10  1  0  0  0
  3  5  1  0  0  0
  3 11  1  0  0  0
  4  6  1  0  0  0
  4 14  2  0  0  0
  5 13  2  0  0  0
  5  6  1  0  0  0
  6 29  1  0  0  0
  7  8  1  0  0  0
  7 30  1  0  0  0
  8 16  1  0  0  0
  8  9  1  0  0  0
  9 10  2  0  0  0
  9 12  1  0  0  0
 10 17  1  0  0  0
 11 15  1  0  0  0
 11 21  2  0  0  0
 12 22  2  0  0  0
 15 19  1  0  0  0
 15 24  2  0  0  0
 16 20  1  0  0  0
 16 31  1  0  0  0
 16 32  1  0  0  0
 17 26  2  0  0  0
 17 33  1  0  0  0
 18 23  1  0  0  0
 18 34  1  0  0  0
 18 35  1  0  0  0
 19 25  1  0  0  0
 20 23  1  0  0  0
 20 36  1  0  0  0
 20 37  1  0  0  0
 21 27  1  0  0  0
 21 38  1  0  0  0
 22 26  1  0  0  0
 22 39  1  0  0  0
 23 40  1  0  0  0
 23 41  1  0  0  0
 24 28  1  0  0  0
 24 42  1  0  0  0
 25 43  1  0  0  0
 25 44  1  0  0  0
 25 45  1  0  0  0
 26 46  1  0  0  0
 27 28  2  0  0  0
 27 47  1  0  0  0
 28 48  1  0  0  0
M  END
> <s_m_entry_id>
3299

> <s_m_entry_name>
dock_pv.28

> <s_m_Source_Path>
/home/csk/Desktop/cluster/DUD-E-result/kpcb

> <s_m_Source_File>
dock_pv.maegz

> <i_m_Source_File_Index>
28

> <chembl_id>
CHEMBL324268

> <chembl_pref_name>
None

> <i_lp_mmshare_version>
53161

> <i_f3d_flags>
0

> <r_lp_tautomer_probability>
1

> <s_lp_Force_Field>
OPLS_2005

> <r_lp_Energy>
27.145613

> <b_lp_Chiralities_Consistent>
1

> <s_lp_Variant>
CHEMBL3045_lig31-1

> <s_i_glide_gridfile>
glide-grid_2i0e

> <i_i_glide_lignum>
33

> <i_i_glide_rotatable_bonds>
6

> <r_i_docking_score>
-9.10278946628382

> <r_i_glide_ligand_efficiency>
-0.325099623795851

> <r_i_glide_ligand_efficiency_sa>
-0.987193931282896

> <r_i_glide_ligand_efficiency_ln>
-2.10119107833062

> <r_i_glide_gscore>
-9.10278946628382

> <r_i_glide_lipo>
-2.20638884601307

> <r_i_glide_hbond>
-0.650696683864054

> <r_i_glide_metal>
0

> <r_i_glide_rewards>
-3.01323544088575

> <r_i_glide_evdw>
-47.4374237060547

> <r_i_glide_ecoul>
-8.28763103485107

> <r_i_glide_erotb>
0.382547345009454

> <r_i_glide_esite>
0

> <r_i_glide_emodel>
-83.7962105419431

> <r_i_glide_energy>
-55.7250547409058

> <r_i_glide_einternal>
6.34069871902466

> <i_i_glide_confnum>
145

> <i_i_glide_posenum>
120

> <r_i_glide_eff_state_penalty>
0

> <s_user_duplicate_titles>
CHEMBL3045_lig31

> <s_m_subgroup_title>
dock_pv

> <s_m_subgroupid>
dock_pv

> <b_m_subgroup_collapsed>
1

$$$$
CHEMBL3045_lig404
                    3D
 Schrodinger Suite 2021-1.
 51 55  0  0  1  0            999 V2000
   36.2146   56.0894   35.4529 C   0  0  0  0  0  0
   36.8563   56.4065   36.5981 C   0  0  0  0  0  0
   35.8578   56.4690   37.6423 C   0  0  0  0  0  0
   34.7009   56.1652   37.0494 N   0  0  0  0  0  0
   34.8200   55.8972   35.7484 C   0  0  0  0  0  0
   38.2909   56.6400   36.8812 C   0  0  0  0  0  0
   38.8827   56.4174   38.1189 C   0  0  0  0  0  0
   40.2369   56.6244   38.0770 N   0  0  0  0  0  0
   39.3830   57.0364   36.0139 C   0  0  0  0  0  0
   40.5923   56.9519   36.7823 C   0  0  0  0  0  0
   41.8568   57.1717   36.2161 C   0  0  0  0  0  0
   41.9003   57.5111   34.8659 C   0  0  0  0  0  0
   40.7461   57.6621   34.1113 C   0  0  0  0  0  0
   39.4923   57.4429   34.6722 C   0  0  0  0  0  0
   36.7455   55.8606   34.0747 C   0  0  0  0  0  0
   36.3142   56.6787   33.0079 C   0  0  0  0  0  0
   36.7635   56.4663   31.7107 C   0  0  0  0  0  0
   37.6900   55.4761   31.4256 C   0  0  0  0  0  0
   37.7225   54.8350   33.7952 C   0  0  0  0  0  0
   38.1924   54.6539   32.4542 C   0  0  0  0  0  0
   39.1531   53.6507   32.1680 C   0  0  0  0  0  0
   39.6506   52.8421   33.1817 C   0  0  0  0  0  0
   39.2105   53.0015   34.4905 C   0  0  0  0  0  0
   38.2558   53.9718   34.7959 C   0  0  0  0  0  0
   35.9864   56.7417   38.8368 O   0  0  0  0  0  0
   33.9042   55.5719   34.9939 O   0  0  0  0  0  0
   35.2433   58.0234   33.2492 Cl  0  0  0  0  0  0
   41.1472   56.4104   39.1907 C   0  0  0  0  0  0
   39.7264   52.0884   35.5923 C   0  0  0  0  0  0
   41.0872   52.3720   36.0364 N   0  0  2  0  0  0
   41.3357   53.7306   36.4781 C   0  0  0  0  0  0
   33.8207   56.1414   37.5441 H   0  0  0  0  0  0
   38.4400   56.0832   39.0481 H   0  0  0  0  0  0
   42.7672   57.0850   36.7916 H   0  0  0  0  0  0
   42.8590   57.6845   34.3981 H   0  0  0  0  0  0
   40.8253   57.9447   33.0703 H   0  0  0  0  0  0
   38.6204   57.5719   34.0564 H   0  0  0  0  0  0
   36.4064   57.0985   30.9095 H   0  0  0  0  0  0
   38.0398   55.3317   30.4126 H   0  0  0  0  0  0
   39.4954   53.5102   31.1514 H   0  0  0  0  0  0
   40.3782   52.0754   32.9438 H   0  0  0  0  0  0
   37.9185   54.0659   35.8163 H   0  0  0  0  0  0
   41.7158   55.4962   39.0214 H   0  0  0  0  0  0
   41.8347   57.2529   39.2650 H   0  0  0  0  0  0
   40.5919   56.3247   40.1266 H   0  0  0  0  0  0
   39.6947   51.0596   35.2347 H   0  0  0  0  0  0
   39.0548   52.1182   36.4370 H   0  0  0  0  0  0
   41.7753   52.0071   35.3834 H   0  0  0  0  0  0
   40.6942   53.9808   37.3242 H   0  0  0  0  0  0
   41.1658   54.4442   35.6701 H   0  0  0  0  0  0
   42.3727   53.8308   36.7997 H   0  0  0  0  0  0
  1  2  2  0  0  0
  1  5  1  0  0  0
  1 15  1  0  0  0
  2  3  1  0  0  0
  2  6  1  0  0  0
  3  4  1  0  0  0
  3 25  2  0  0  0
  4  5  1  0  0  0
  4 32  1  0  0  0
  5 26  2  0  0  0
  6  7  2  0  0  0
  6  9  1  0  0  0
  7  8  1  0  0  0
  7 33  1  0  0  0
  8 10  1  0  0  0
  8 28  1  0  0  0
  9 10  2  0  0  0
  9 14  1  0  0  0
 10 11  1  0  0  0
 11 12  2  0  0  0
 11 34  1  0  0  0
 12 13  1  0  0  0
 12 35  1  0  0  0
 13 14  2  0  0  0
 13 36  1  0  0  0
 14 37  1  0  0  0
 15 16  2  0  0  0
 15 19  1  0  0  0
 16 17  1  0  0  0
 16 27  1  0  0  0
 17 18  2  0  0  0
 17 38  1  0  0  0
 18 20  1  0  0  0
 18 39  1  0  0  0
 19 20  1  0  0  0
 19 24  2  0  0  0
 20 21  2  0  0  0
 21 22  1  0  0  0
 21 40  1  0  0  0
 22 23  2  0  0  0
 22 41  1  0  0  0
 23 24  1  0  0  0
 23 29  1  0  0  0
 24 42  1  0  0  0
 28 43  1  0  0  0
 28 44  1  0  0  0
 28 45  1  0  0  0
 29 30  1  0  0  0
 29 46  1  0  0  0
 29 47  1  0  0  0
 30 31  1  0  0  0
 30 48  1  0  0  0
 31 49  1  0  0  0
 31 50  1  0  0  0
 31 51  1  0  0  0
M  END
> <s_m_entry_id>
3300

> <s_m_entry_name>
dock_pv.29

> <s_m_Source_Path>
/home/csk/Desktop/cluster/DUD-E-result/kpcb

> <s_m_Source_File>
dock_pv.maegz

> <i_m_Source_File_Index>
29

> <chembl_id>
CHEMBL4072879

> <chembl_pref_name>
None

> <i_lp_mmshare_version>
53161

> <i_f3d_flags>
0

> <r_lp_tautomer_probability>
1

> <s_lp_Force_Field>
OPLS_2005

> <r_lp_Energy>
30.596666

> <b_lp_Chiralities_Consistent>
1

> <s_lp_Variant>
CHEMBL3045_lig404-1

> <s_i_glide_gridfile>
glide-grid_2i0e

> <i_i_glide_lignum>
570

> <i_i_glide_rotatable_bonds>
4

> <r_i_docking_score>
-9.09990316650824

> <r_i_glide_ligand_efficiency>
-0.29354526343575

> <r_i_glide_ligand_efficiency_sa>
-0.922137410102663

> <r_i_glide_ligand_efficiency_ln>
-2.05230704258762

> <r_i_glide_gscore>
-9.09990316650824

> <r_i_glide_lipo>
-2.63271450626941

> <r_i_glide_hbond>
-0.575339207596961

> <r_i_glide_metal>
0

> <r_i_glide_rewards>
-2.35353041076509

> <r_i_glide_evdw>
-51.3696670532227

> <r_i_glide_ecoul>
-7.97126483917236

> <r_i_glide_erotb>
0.225854036660211

> <r_i_glide_esite>
0

> <r_i_glide_emodel>
-88.4747426730403

> <r_i_glide_energy>
-59.340931892395

> <r_i_glide_einternal>
6.45740032196045

> <i_i_glide_confnum>
60

> <i_i_glide_posenum>
356

> <r_i_glide_eff_state_penalty>
0

> <s_user_duplicate_titles>
CHEMBL3045_lig404

> <s_m_subgroup_title>
dock_pv

> <s_m_subgroupid>
dock_pv

> <b_m_subgroup_collapsed>
1

$$$$
CHEMBL3045_lig342
                    3D
 Schrodinger Suite 2021-1.
 58 63  0  0  1  0            999 V2000
   35.2771   56.5596   37.5695 N   0  0  0  0  0  0
   36.4869   56.7708   38.0974 C   0  0  0  0  0  0
   37.4247   56.4378   37.0584 C   0  0  0  0  0  0
   36.7207   56.0309   35.9881 C   0  0  0  0  0  0
   35.3188   56.1174   36.3112 C   0  0  0  0  0  0
   36.7013   57.1729   39.2367 O   0  0  0  0  0  0
   34.3423   55.8527   35.6119 O   0  0  0  0  0  0
   37.9009   55.0425   32.0282 N   0  0  0  0  0  0
   37.0045   55.9905   32.3853 C   0  0  0  0  0  0
   36.6631   56.3061   33.6547 N   0  0  0  0  0  0
   37.2107   55.5848   34.6545 C   0  0  0  0  0  0
   38.1965   54.5804   34.4033 C   0  0  0  0  0  0
   38.8639   53.8260   35.3981 C   0  0  0  0  0  0
   39.8751   52.9388   35.0478 C   0  0  0  0  0  0
   40.2274   52.7625   33.7150 C   0  0  0  0  0  0
   39.5588   53.4319   32.6957 C   0  0  0  0  0  0
   38.5306   54.3603   33.0257 C   0  0  0  0  0  0
   36.4174   56.7328   31.3704 N   0  0  0  0  0  0
   35.5427   57.8748   31.6704 C   0  0  0  0  0  0
   34.0707   57.4526   31.8589 C   0  0  0  0  0  0
   33.5906   56.7659   30.6636 N   0  0  0  0  0  0
   34.4402   55.6070   30.3740 C   0  0  0  0  0  0
   35.9001   56.0649   30.1610 C   0  0  0  0  0  0
   32.2147   56.3312   30.8435 C   0  0  0  0  0  0
   39.9365   53.1751   31.2405 C   0  0  0  0  0  0
   40.9110   56.3273   38.1918 N   0  0  0  0  0  0
   39.5596   56.2847   38.4131 C   0  0  0  0  0  0
   38.8787   56.5625   37.2372 C   0  0  0  0  0  0
   39.8932   56.8970   36.2623 C   0  0  0  0  0  0
   39.8813   57.3427   34.9280 C   0  0  0  0  0  0
   41.0827   57.4609   34.2342 C   0  0  0  0  0  0
   42.2950   57.1724   34.8516 C   0  0  0  0  0  0
   42.3696   56.7963   36.1919 C   0  0  0  0  0  0
   41.1617   56.6693   36.8829 C   0  0  0  0  0  0
   34.4133   56.7313   38.0656 H   0  0  0  0  0  0
   38.6103   53.9624   36.4371 H   0  0  0  0  0  0
   40.3987   52.3843   35.8134 H   0  0  0  0  0  0
   41.0176   52.0679   33.4672 H   0  0  0  0  0  0
   35.8911   58.4233   32.5452 H   0  0  0  0  0  0
   35.6607   58.5534   30.8383 H   0  0  0  0  0  0
   33.9652   56.8114   32.7376 H   0  0  0  0  0  0
   33.4701   58.3449   32.0346 H   0  0  0  0  0  0
   34.0851   55.1260   29.4613 H   0  0  0  0  0  0
   34.3856   54.8675   31.1763 H   0  0  0  0  0  0
   35.9061   56.7624   29.3235 H   0  0  0  0  0  0
   36.5252   55.2214   29.8653 H   0  0  0  0  0  0
   31.9078   55.7415   29.9823 H   0  0  0  0  0  0
   32.0987   55.7061   31.7295 H   0  0  0  0  0  0
   31.5421   57.1853   30.9277 H   0  0  0  0  0  0
   39.1027   52.7169   30.7092 H   0  0  0  0  0  0
   40.1899   54.1062   30.7346 H   0  0  0  0  0  0
   40.7931   52.5054   31.1543 H   0  0  0  0  0  0
   41.5893   56.1011   38.9054 H   0  0  0  0  0  0
   39.1839   55.9900   39.3851 H   0  0  0  0  0  0
   38.9528   57.5699   34.4301 H   0  0  0  0  0  0
   41.0743   57.7746   33.2005 H   0  0  0  0  0  0
   43.2101   57.2806   34.2879 H   0  0  0  0  0  0
   43.3233   56.6056   36.6626 H   0  0  0  0  0  0
  1  2  1  0  0  0
  1  5  1  0  0  0
  1 35  1  0  0  0
  2  3  1  0  0  0
  2  6  2  0  0  0
  3  4  2  0  0  0
  3 28  1  0  0  0
  4  5  1  0  0  0
  4 11  1  0  0  0
  5  7  2  0  0  0
  8  9  1  0  0  0
  8 17  2  0  0  0
  9 10  2  0  0  0
  9 18  1  0  0  0
 10 11  1  0  0  0
 11 12  2  0  0  0
 12 13  1  0  0  0
 12 17  1  0  0  0
 13 14  2  0  0  0
 13 36  1  0  0  0
 14 15  1  0  0  0
 14 37  1  0  0  0
 15 16  2  0  0  0
 15 38  1  0  0  0
 16 17  1  0  0  0
 16 25  1  0  0  0
 18 19  1  0  0  0
 18 23  1  0  0  0
 19 20  1  0  0  0
 19 39  1  0  0  0
 19 40  1  0  0  0
 20 21  1  0  0  0
 20 41  1  0  0  0
 20 42  1  0  0  0
 21 22  1  0  0  0
 21 24  1  0  0  0
 22 23  1  0  0  0
 22 43  1  0  0  0
 22 44  1  0  0  0
 23 45  1  0  0  0
 23 46  1  0  0  0
 24 47  1  0  0  0
 24 48  1  0  0  0
 24 49  1  0  0  0
 25 50  1  0  0  0
 25 51  1  0  0  0
 25 52  1  0  0  0
 26 27  1  0  0  0
 26 34  1  0  0  0
 26 53  1  0  0  0
 27 28  2  0  0  0
 27 54  1  0  0  0
 28 29  1  0  0  0
 29 30  1  0  0  0
 29 34  2  0  0  0
 30 31  2  0  0  0
 30 55  1  0  0  0
 31 32  1  0  0  0
 31 56  1  0  0  0
 32 33  2  0  0  0
 32 57  1  0  0  0
 33 34  1  0  0  0
 33 58  1  0  0  0
M  END
> <s_m_entry_id>
3301

> <s_m_entry_name>
dock_pv.30

> <s_m_Source_Path>
/home/csk/Desktop/cluster/DUD-E-result/kpcb

> <s_m_Source_File>
dock_pv.maegz

> <i_m_Source_File_Index>
30

> <chembl_id>
CHEMBL2151406

> <chembl_pref_name>
None

> <i_lp_mmshare_version>
53161

> <i_f3d_flags>
0

> <r_lp_tautomer_probability>
1

> <s_lp_Force_Field>
OPLS_2005

> <r_lp_Energy>
42.881557

> <b_lp_Chiralities_Consistent>
1

> <s_lp_Variant>
CHEMBL3045_lig342-1

> <s_i_glide_gridfile>
glide-grid_2i0e

> <i_i_glide_lignum>
506

> <i_i_glide_rotatable_bonds>
3

> <r_i_docking_score>
-9.03454438255498

> <r_i_glide_ligand_efficiency>
-0.265721893604558

> <r_i_glide_ligand_efficiency_sa>
-0.860835781367254

> <r_i_glide_ligand_efficiency_ln>
-1.99598426449274

> <r_i_glide_gscore>
-9.03454438255498

> <r_i_glide_lipo>
-2.56845204310745

> <r_i_glide_hbond>
-0.608

> <r_i_glide_metal>
0

> <r_i_glide_rewards>
-2.52854783306669

> <r_i_glide_evdw>
-53.7912254333496

> <r_i_glide_ecoul>
-5.63847780227661

> <r_i_glide_erotb>
0.205788435628134

> <r_i_glide_esite>
0

> <r_i_glide_emodel>
-84.3873739734652

> <r_i_glide_energy>
-59.4297032356262

> <r_i_glide_einternal>
3.51463913917542

> <i_i_glide_confnum>
47

> <i_i_glide_posenum>
12

> <r_i_glide_eff_state_penalty>
0

> <s_user_duplicate_titles>
CHEMBL3045_lig342

> <s_m_subgroup_title>
dock_pv

> <s_m_subgroupid>
dock_pv

> <b_m_subgroup_collapsed>
1

$$$$
CHEMBL3045_lig285
                    3D
 Schrodinger Suite 2021-1.
 51 55  0  0  1  0            999 V2000
   34.4674   56.9503   31.2665 C   0  0  0  0  0  0
   35.1745   56.3073   30.2567 C   0  0  0  0  0  0
   36.3266   55.5721   30.5208 C   0  0  0  0  0  0
   34.8756   56.8594   32.5951 C   0  0  0  0  0  0
   35.9900   56.0665   32.9243 C   0  0  0  0  0  0
   36.7055   55.4376   31.8604 C   0  0  0  0  0  0
   37.7341   54.7267   32.4382 N   0  0  0  0  0  0
   37.6897   54.8615   33.8033 C   0  0  0  0  0  0
   36.6400   55.6894   34.1601 C   0  0  0  0  0  0
   36.2438   56.0398   35.5286 C   0  0  0  0  0  0
   38.4639   56.5920   36.7186 C   0  0  0  0  0  0
   36.9825   56.3820   36.6040 C   0  0  0  0  0  0
   34.8635   55.9740   35.9314 C   0  0  0  0  0  0
   34.8531   56.3392   37.2136 N   0  0  0  0  0  0
   36.0680   56.6029   37.6975 C   0  0  0  0  0  0
   33.8772   55.6564   35.2709 O   0  0  0  0  0  0
   36.3013   56.9665   38.8472 O   0  0  0  0  0  0
   39.2465   56.9879   35.6202 C   0  0  0  0  0  0
   40.6459   57.1384   35.6981 C   0  0  0  0  0  0
   41.2417   56.9517   36.9553 C   0  0  0  0  0  0
   40.4935   56.5660   38.0609 C   0  0  0  0  0  0
   39.1242   56.3715   37.9369 C   0  0  0  0  0  0
   41.4268   57.4863   34.5853 N   0  0  0  0  0  0
   42.8070   56.9629   34.4509 C   0  0  0  0  0  0
   42.8356   55.5424   33.8309 C   0  0  0  0  0  0
   42.2720   55.5849   32.4792 N   0  0  0  0  0  0
   40.9002   56.0937   32.5575 C   0  0  0  0  0  0
   40.8856   57.5015   33.2104 C   0  0  0  0  0  0
   42.2942   54.2531   31.8778 C   0  0  0  0  0  0
   33.5851   57.5220   31.0146 H   0  0  0  0  0  0
   34.8207   56.3757   29.2373 H   0  0  0  0  0  0
   36.8707   55.0893   29.7214 H   0  0  0  0  0  0
   34.3127   57.3619   33.3654 H   0  0  0  0  0  0
   38.4194   54.1523   31.9652 H   0  0  0  0  0  0
   38.4141   54.3439   34.4182 H   0  0  0  0  0  0
   34.0095   56.4181   37.7652 H   0  0  0  0  0  0
   38.7430   57.1733   34.6875 H   0  0  0  0  0  0
   42.2990   57.0979   37.1052 H   0  0  0  0  0  0
   40.9775   56.4057   39.0134 H   0  0  0  0  0  0
   38.5863   56.0373   38.8120 H   0  0  0  0  0  0
   43.3718   57.6303   33.7989 H   0  0  0  0  0  0
   43.3665   56.9877   35.3825 H   0  0  0  0  0  0
   42.2884   54.8391   34.4631 H   0  0  0  0  0  0
   43.8666   55.1878   33.7844 H   0  0  0  0  0  0
   40.4705   56.1504   31.5563 H   0  0  0  0  0  0
   40.2810   55.4074   33.1345 H   0  0  0  0  0  0
   41.4997   58.1683   32.6048 H   0  0  0  0  0  0
   39.9008   57.9586   33.1708 H   0  0  0  0  0  0
   43.3150   53.8715   31.8181 H   0  0  0  0  0  0
   41.8997   54.2860   30.8608 H   0  0  0  0  0  0
   41.7017   53.5334   32.4481 H   0  0  0  0  0  0
  1  4  1  0  0  0
  1  2  2  0  0  0
  1 30  1  0  0  0
  2  3  1  0  0  0
  2 31  1  0  0  0
  3  6  2  0  0  0
  3 32  1  0  0  0
  4  5  2  0  0  0
  4 33  1  0  0  0
  5  9  1  0  0  0
  5  6  1  0  0  0
  6  7  1  0  0  0
  7  8  1  0  0  0
  7 34  1  0  0  0
  8  9  2  0  0  0
  8 35  1  0  0  0
  9 10  1  0  0  0
 10 13  1  0  0  0
 10 12  2  0  0  0
 11 18  2  0  0  0
 11 22  1  0  0  0
 11 12  1  0  0  0
 12 15  1  0  0  0
 13 14  1  0  0  0
 13 16  2  0  0  0
 14 15  1  0  0  0
 14 36  1  0  0  0
 15 17  2  0  0  0
 18 19  1  0  0  0
 18 37  1  0  0  0
 19 20  2  0  0  0
 19 23  1  0  0  0
 20 21  1  0  0  0
 20 38  1  0  0  0
 21 22  2  0  0  0
 21 39  1  0  0  0
 22 40  1  0  0  0
 23 24  1  0  0  0
 23 28  1  0  0  0
 24 25  1  0  0  0
 24 41  1  0  0  0
 24 42  1  0  0  0
 25 26  1  0  0  0
 25 43  1  0  0  0
 25 44  1  0  0  0
 26 27  1  0  0  0
 26 29  1  0  0  0
 27 28  1  0  0  0
 27 45  1  0  0  0
 27 46  1  0  0  0
 28 47  1  0  0  0
 28 48  1  0  0  0
 29 49  1  0  0  0
 29 50  1  0  0  0
 29 51  1  0  0  0
M  END
> <s_m_entry_id>
3302

> <s_m_entry_name>
dock_pv.31

> <s_m_Source_Path>
/home/csk/Desktop/cluster/DUD-E-result/kpcb

> <s_m_Source_File>
dock_pv.maegz

> <i_m_Source_File_Index>
31

> <chembl_id>
CHEMBL585500

> <chembl_pref_name>
None

> <i_lp_mmshare_version>
53161

> <i_f3d_flags>
0

> <r_lp_tautomer_probability>
1

> <s_lp_Force_Field>
OPLS_2005

> <r_lp_Energy>
49.772224

> <b_lp_Chiralities_Consistent>
1

> <s_lp_Variant>
CHEMBL3045_lig285-1

> <s_i_glide_gridfile>
glide-grid_2i0e

> <i_i_glide_lignum>
445

> <i_i_glide_rotatable_bonds>
3

> <r_i_docking_score>
-9.0338002307781

> <r_i_glide_ligand_efficiency>
-0.311510352785452

> <r_i_glide_ligand_efficiency_sa>
-0.957058497163844

> <r_i_glide_ligand_efficiency_ln>
-2.06851117543967

> <r_i_glide_gscore>
-9.0338002307781

> <r_i_glide_lipo>
-2.74145621082191

> <r_i_glide_hbond>
-0.608

> <r_i_glide_metal>
0

> <r_i_glide_rewards>
-2.76159475256648

> <r_i_glide_evdw>
-46.6435470581055

> <r_i_glide_ecoul>
-5.76175546646118

> <r_i_glide_erotb>
0.273691405484746

> <r_i_glide_esite>
0

> <r_i_glide_emodel>
-79.5579185896133

> <r_i_glide_energy>
-52.4053025245667

> <r_i_glide_einternal>
0.884105563163757

> <i_i_glide_confnum>
1

> <i_i_glide_posenum>
52

> <r_i_glide_eff_state_penalty>
0

> <s_user_duplicate_titles>
CHEMBL3045_lig285

> <s_m_subgroup_title>
dock_pv

> <s_m_subgroupid>
dock_pv

> <b_m_subgroup_collapsed>
1

$$$$
CHEMBL3045_lig283
                    3D
 Schrodinger Suite 2021-1.
 54 58  0  0  1  0            999 V2000
   40.5968   57.6637   34.0147 C   0  0  0  0  0  0
   41.8876   57.4404   34.4698 C   0  0  0  0  0  0
   42.1228   56.9692   35.7571 C   0  0  0  0  0  0
   39.4970   57.4000   34.8277 C   0  0  0  0  0  0
   39.6703   56.8775   36.1237 C   0  0  0  0  0  0
   41.0176   56.6961   36.5782 C   0  0  0  0  0  0
   41.0820   56.1171   38.2306 S   0  0  0  0  0  0
   39.3452   56.0807   38.2770 C   0  0  0  0  0  0
   38.6986   56.4826   37.1157 C   0  0  0  0  0  0
   37.2210   56.4377   36.9990 C   0  0  0  0  0  0
   34.8008   57.1270   31.6807 C   0  0  0  0  0  0
   35.4159   56.3718   30.6893 C   0  0  0  0  0  0
   36.4610   55.4973   30.9748 C   0  0  0  0  0  0
   35.1864   57.0027   33.0118 C   0  0  0  0  0  0
   36.2019   56.0949   33.3572 C   0  0  0  0  0  0
   36.8597   55.3643   32.3160 C   0  0  0  0  0  0
   37.8622   54.6072   32.9224 N   0  0  0  0  0  0
   37.7754   54.7814   34.2845 C   0  0  0  0  0  0
   36.7912   55.6909   34.6057 C   0  0  0  0  0  0
   38.8244   53.7018   32.2928 C   0  0  0  0  0  0
   39.6419   54.3841   31.1703 C   0  0  0  0  0  0
   40.6148   53.4147   30.4629 C   0  0  0  0  0  0
   42.0078   53.5807   30.8882 N   0  0  0  0  0  0
   42.2146   53.2032   32.2872 C   0  0  0  0  0  0
   42.8742   52.7725   30.0339 C   0  0  0  0  0  0
   36.4313   56.1309   35.9530 C   0  0  0  0  0  0
   36.3553   56.7718   38.1012 C   0  0  0  0  0  0
   35.1101   56.6073   37.6432 N   0  0  0  0  0  0
   35.0579   56.2165   36.3706 C   0  0  0  0  0  0
   36.6556   57.1403   39.2367 O   0  0  0  0  0  0
   34.0286   55.9869   35.7362 O   0  0  0  0  0  0
   40.4472   58.0467   33.0148 H   0  0  0  0  0  0
   42.7240   57.6513   33.8209 H   0  0  0  0  0  0
   43.1340   56.8201   36.1105 H   0  0  0  0  0  0
   38.5063   57.5728   34.4428 H   0  0  0  0  0  0
   38.8728   55.7270   39.1842 H   0  0  0  0  0  0
   34.0042   57.8086   31.4131 H   0  0  0  0  0  0
   35.0725   56.4667   29.6690 H   0  0  0  0  0  0
   36.9119   54.9279   30.1763 H   0  0  0  0  0  0
   34.6985   57.5914   33.7735 H   0  0  0  0  0  0
   38.4477   54.2411   34.9364 H   0  0  0  0  0  0
   38.3011   52.8218   31.9297 H   0  0  0  0  0  0
   39.5015   53.3193   33.0578 H   0  0  0  0  0  0
   40.1998   55.2053   31.6271 H   0  0  0  0  0  0
   39.0133   54.8428   30.4110 H   0  0  0  0  0  0
   40.5447   53.5733   29.3849 H   0  0  0  0  0  0
   40.3099   52.3791   30.6285 H   0  0  0  0  0  0
   41.6739   53.8679   32.9629 H   0  0  0  0  0  0
   43.2693   53.2848   32.5551 H   0  0  0  0  0  0
   41.8969   52.1759   32.4798 H   0  0  0  0  0  0
   42.7956   53.0932   28.9944 H   0  0  0  0  0  0
   43.9213   52.8781   30.3236 H   0  0  0  0  0  0
   42.6143   51.7131   30.0774 H   0  0  0  0  0  0
   34.2759   56.7724   38.1956 H   0  0  0  0  0  0
  1  2  2  0  0  0
  1  4  1  0  0  0
  1 32  1  0  0  0
  2  3  1  0  0  0
  2 33  1  0  0  0
  3  6  2  0  0  0
  3 34  1  0  0  0
  4  5  2  0  0  0
  4 35  1  0  0  0
  5  9  1  0  0  0
  5  6  1  0  0  0
  6  7  1  0  0  0
  7  8  1  0  0  0
  8  9  2  0  0  0
  8 36  1  0  0  0
  9 10  1  0  0  0
 10 26  2  0  0  0
 10 27  1  0  0  0
 11 12  2  0  0  0
 11 14  1  0  0  0
 11 37  1  0  0  0
 12 13  1  0  0  0
 12 38  1  0  0  0
 13 16  2  0  0  0
 13 39  1  0  0  0
 14 15  2  0  0  0
 14 40  1  0  0  0
 15 16  1  0  0  0
 15 19  1  0  0  0
 16 17  1  0  0  0
 17 18  1  0  0  0
 17 20  1  0  0  0
 18 19  2  0  0  0
 18 41  1  0  0  0
 19 26  1  0  0  0
 20 21  1  0  0  0
 20 42  1  0  0  0
 20 43  1  0  0  0
 21 22  1  0  0  0
 21 44  1  0  0  0
 21 45  1  0  0  0
 22 23  1  0  0  0
 22 46  1  0  0  0
 22 47  1  0  0  0
 23 24  1  0  0  0
 23 25  1  0  0  0
 24 48  1  0  0  0
 24 49  1  0  0  0
 24 50  1  0  0  0
 25 51  1  0  0  0
 25 52  1  0  0  0
 25 53  1  0  0  0
 26 29  1  0  0  0
 27 28  1  0  0  0
 27 30  2  0  0  0
 28 29  1  0  0  0
 28 54  1  0  0  0
 29 31  2  0  0  0
M  END
> <s_m_entry_id>
3303

> <s_m_entry_name>
dock_pv.32

> <s_m_Source_Path>
/home/csk/Desktop/cluster/DUD-E-result/kpcb

> <s_m_Source_File>
dock_pv.maegz

> <i_m_Source_File_Index>
32

> <chembl_id>
CHEMBL566424

> <chembl_pref_name>
None

> <i_lp_mmshare_version>
53161

> <i_f3d_flags>
0

> <r_lp_tautomer_probability>
1

> <s_lp_Force_Field>
OPLS_2005

> <r_lp_Energy>
29.227329

> <b_lp_Chiralities_Consistent>
1

> <s_lp_Variant>
CHEMBL3045_lig283-1

> <s_i_glide_gridfile>
glide-grid_2i0e

> <i_i_glide_lignum>
443

> <i_i_glide_rotatable_bonds>
6

> <r_i_docking_score>
-9.03218716025315

> <r_i_glide_ligand_efficiency>
-0.291360876137198

> <r_i_glide_ligand_efficiency_sa>
-0.915275418113519

> <r_i_glide_ligand_efficiency_ln>
-2.03703500793073

> <r_i_glide_gscore>
-9.03218716025315

> <r_i_glide_lipo>
-2.83624595150761

> <r_i_glide_hbond>
-0.608

> <r_i_glide_metal>
0

> <r_i_glide_rewards>
-2.44501321370551

> <r_i_glide_evdw>
-50.4803314208984

> <r_i_glide_ecoul>
-6.63940668106079

> <r_i_glide_erotb>
0.376999578164013

> <r_i_glide_esite>
0

> <r_i_glide_emodel>
-86.5421315752616

> <r_i_glide_energy>
-57.1197381019592

> <r_i_glide_einternal>
5.52458000183105

> <i_i_glide_confnum>
236

> <i_i_glide_posenum>
187

> <r_i_glide_eff_state_penalty>
0

> <s_user_duplicate_titles>
CHEMBL3045_lig283

> <s_m_subgroup_title>
dock_pv

> <s_m_subgroupid>
dock_pv

> <b_m_subgroup_collapsed>
1

$$$$
CHEMBL3045_lig395
                    3D
 Schrodinger Suite 2021-1.
 45 49  0  0  1  0            999 V2000
   36.0708   56.2351   35.4726 C   0  0  0  0  0  0
   36.8185   56.5966   36.5344 C   0  0  0  0  0  0
   35.9405   56.6873   37.6738 C   0  0  0  0  0  0
   34.7244   56.3722   37.2114 N   0  0  0  0  0  0
   34.7079   56.0925   35.9042 C   0  0  0  0  0  0
   38.2640   56.9000   36.5771 C   0  0  0  0  0  0
   38.9869   57.3731   35.4919 C   0  0  0  0  0  0
   40.3078   57.5114   35.8104 N   0  0  0  0  0  0
   39.2313   56.7805   37.6544 C   0  0  0  0  0  0
   40.5063   57.1712   37.1282 C   0  0  0  0  0  0
   41.6792   57.1621   37.8908 C   0  0  0  0  0  0
   41.5669   56.7558   39.2203 C   0  0  0  0  0  0
   40.3476   56.3703   39.7660 C   0  0  0  0  0  0
   39.1825   56.3712   39.0009 C   0  0  0  0  0  0
   36.4906   55.9869   34.0590 C   0  0  0  0  0  0
   35.7993   56.6414   33.0315 C   0  0  0  0  0  0
   36.1447   56.4800   31.6956 C   0  0  0  0  0  0
   37.2085   55.6626   31.3374 C   0  0  0  0  0  0
   37.5719   55.1092   33.7034 C   0  0  0  0  0  0
   37.9431   54.9722   32.3264 C   0  0  0  0  0  0
   39.0367   54.1419   31.9709 C   0  0  0  0  0  0
   39.7502   53.4606   32.9488 C   0  0  0  0  0  0
   39.3875   53.5667   34.2879 C   0  0  0  0  0  0
   38.3008   54.3532   34.6604 C   0  0  0  0  0  0
   40.1636   52.8232   35.3537 C   0  0  0  0  0  0
   39.5008   51.5715   35.6363 N   0  0  0  0  0  0
   36.1931   56.9977   38.8370 O   0  0  0  0  0  0
   33.7163   55.7917   35.2415 O   0  0  0  0  0  0
   33.8937   56.3891   37.7891 H   0  0  0  0  0  0
   38.6637   57.5931   34.4837 H   0  0  0  0  0  0
   41.0062   57.8086   35.1440 H   0  0  0  0  0  0
   42.6340   57.4514   37.4744 H   0  0  0  0  0  0
   42.4512   56.7318   39.8427 H   0  0  0  0  0  0
   40.3003   56.0544   40.8006 H   0  0  0  0  0  0
   38.2654   56.0358   39.4560 H   0  0  0  0  0  0
   34.9746   57.2984   33.2700 H   0  0  0  0  0  0
   35.5850   56.9990   30.9298 H   0  0  0  0  0  0
   37.4753   55.5426   30.2977 H   0  0  0  0  0  0
   39.3145   54.0401   30.9295 H   0  0  0  0  0  0
   40.5861   52.8336   32.6619 H   0  0  0  0  0  0
   38.0248   54.3944   35.7042 H   0  0  0  0  0  0
   40.2251   53.4179   36.2675 H   0  0  0  0  0  0
   41.1883   52.6357   35.0244 H   0  0  0  0  0  0
   38.7412   51.4748   34.9798 H   0  0  0  0  0  0
   40.1598   50.8373   35.3866 H   0  0  0  0  0  0
  1  2  2  0  0  0
  1  5  1  0  0  0
  1 15  1  0  0  0
  2  3  1  0  0  0
  2  6  1  0  0  0
  3  4  1  0  0  0
  3 27  2  0  0  0
  4  5  1  0  0  0
  4 29  1  0  0  0
  5 28  2  0  0  0
  6  7  2  0  0  0
  6  9  1  0  0  0
  7  8  1  0  0  0
  7 30  1  0  0  0
  8 10  1  0  0  0
  8 31  1  0  0  0
  9 10  2  0  0  0
  9 14  1  0  0  0
 10 11  1  0  0  0
 11 12  2  0  0  0
 11 32  1  0  0  0
 12 13  1  0  0  0
 12 33  1  0  0  0
 13 14  2  0  0  0
 13 34  1  0  0  0
 14 35  1  0  0  0
 15 16  2  0  0  0
 15 19  1  0  0  0
 16 17  1  0  0  0
 16 36  1  0  0  0
 17 18  2  0  0  0
 17 37  1  0  0  0
 18 20  1  0  0  0
 18 38  1  0  0  0
 19 20  1  0  0  0
 19 24  2  0  0  0
 20 21  2  0  0  0
 21 22  1  0  0  0
 21 39  1  0  0  0
 22 23  2  0  0  0
 22 40  1  0  0  0
 23 24  1  0  0  0
 23 25  1  0  0  0
 24 41  1  0  0  0
 25 26  1  0  0  0
 25 42  1  0  0  0
 25 43  1  0  0  0
 26 44  1  0  0  0
 26 45  1  0  0  0
M  END
> <s_m_entry_id>
3304

> <s_m_entry_name>
dock_pv.33

> <s_m_Source_Path>
/home/csk/Desktop/cluster/DUD-E-result/kpcb

> <s_m_Source_File>
dock_pv.maegz

> <i_m_Source_File_Index>
33

> <chembl_id>
CHEMBL4061321

> <chembl_pref_name>
None

> <i_lp_mmshare_version>
53161

> <i_f3d_flags>
0

> <r_lp_tautomer_probability>
1

> <s_lp_Force_Field>
OPLS_2005

> <r_lp_Energy>
28.568873

> <b_lp_Chiralities_Consistent>
1

> <s_lp_Variant>
CHEMBL3045_lig395-1

> <s_i_glide_gridfile>
glide-grid_2i0e

> <i_i_glide_lignum>
561

> <i_i_glide_rotatable_bonds>
3

> <r_i_docking_score>
-9.02325255485469

> <r_i_glide_ligand_efficiency>
-0.322259019816239

> <r_i_glide_ligand_efficiency_sa>
-0.978568184574522

> <r_i_glide_ligand_efficiency_ln>
-2.08283162386758

> <r_i_glide_gscore>
-9.02325255485469

> <r_i_glide_lipo>
-2.21304080477899

> <r_i_glide_hbond>
-0.852400606196667

> <r_i_glide_metal>
0

> <r_i_glide_rewards>
-2.6822207968721

> <r_i_glide_evdw>
-45.4907455444336

> <r_i_glide_ecoul>
-8.00529098510742

> <r_i_glide_erotb>
0.19974057798086

> <r_i_glide_esite>
0

> <r_i_glide_emodel>
-82.8017835977515

> <r_i_glide_energy>
-53.496036529541

> <r_i_glide_einternal>
0.893943071365356

> <i_i_glide_confnum>
1

> <i_i_glide_posenum>
87

> <r_i_glide_eff_state_penalty>
0

> <s_user_duplicate_titles>
CHEMBL3045_lig395

> <s_m_subgroup_title>
dock_pv

> <s_m_subgroupid>
dock_pv

> <b_m_subgroup_collapsed>
1

$$$$
CHEMBL3045_lig54
                    3D
 Schrodinger Suite 2021-1.
 59 64  0  0  1  0            999 V2000
   36.1740   56.0127   35.4998 C   0  0  0  0  0  0
   36.9238   56.4517   36.5337 C   0  0  0  0  0  0
   36.5642   55.6767   34.1123 C   0  0  0  0  0  0
   38.3759   56.7003   36.5931 C   0  0  0  0  0  0
   36.0512   56.6491   37.6653 C   0  0  0  0  0  0
   34.8117   55.9288   35.9542 C   0  0  0  0  0  0
   37.8400   54.9214   32.3704 N   0  0  0  0  0  0
   34.8344   56.3235   37.2282 N   0  0  0  0  0  0
   37.7392   55.0490   33.7399 C   0  0  0  0  0  0
   39.1405   57.1715   35.5408 C   0  0  0  0  0  0
   40.4676   57.2417   35.8865 N   0  0  0  0  0  0
   35.8517   55.9042   32.8719 C   0  0  0  0  0  0
   36.6907   55.4553   31.8013 C   0  0  0  0  0  0
   39.3081   56.4983   37.6846 C   0  0  0  0  0  0
   40.6106   56.8504   37.2033 C   0  0  0  0  0  0
   38.9778   54.3405   31.6331 C   0  0  0  0  0  0
   41.3938   53.5693   33.1041 N   0  0  1  0  0  0
   36.3010   57.0523   38.8008 O   0  0  0  0  0  0
   33.8088   55.5719   35.3444 O   0  0  0  0  0  0
   40.2400   55.2154   31.6634 C   0  0  0  0  0  0
   39.2867   52.8692   31.9764 C   0  0  0  0  0  0
   40.2111   52.7018   33.2001 C   0  0  0  0  0  0
   41.0828   54.9898   32.9280 C   0  0  0  0  0  0
   41.5544   57.6223   34.9997 C   0  0  0  0  0  0
   36.2996   55.5682   30.4560 C   0  0  0  0  0  0
   34.5967   56.4434   32.5363 C   0  0  0  0  0  0
   39.2035   56.0429   39.0118 C   0  0  0  0  0  0
   41.7575   56.7696   38.0067 C   0  0  0  0  0  0
   42.3071   53.3560   34.2220 C   0  0  0  0  0  0
   34.1959   56.5120   31.2066 C   0  0  0  0  0  0
   35.0332   56.0772   30.1914 C   0  0  0  0  0  0
   40.3409   55.9718   39.8122 C   0  0  0  0  0  0
   41.5888   56.3283   39.3175 C   0  0  0  0  0  0
   34.0071   56.3880   37.8044 H   0  0  0  0  0  0
   38.5392   54.6909   34.3688 H   0  0  0  0  0  0
   38.8388   57.4459   34.5396 H   0  0  0  0  0  0
   38.6384   54.3387   30.5980 H   0  0  0  0  0  0
   40.8526   55.0220   30.7846 H   0  0  0  0  0  0
   39.9732   56.2672   31.5493 H   0  0  0  0  0  0
   38.3618   52.3081   32.1128 H   0  0  0  0  0  0
   39.7377   52.3730   31.1155 H   0  0  0  0  0  0
   40.5512   51.6670   33.2308 H   0  0  0  0  0  0
   39.6832   52.8684   34.1386 H   0  0  0  0  0  0
   42.0179   55.5410   32.8219 H   0  0  0  0  0  0
   40.5869   55.3680   33.8198 H   0  0  0  0  0  0
   41.1695   58.0224   34.0616 H   0  0  0  0  0  0
   42.1692   58.3719   35.4878 H   0  0  0  0  0  0
   42.1833   56.7536   34.8082 H   0  0  0  0  0  0
   36.9080   55.1976   29.6432 H   0  0  0  0  0  0
   33.9147   56.7720   33.2970 H   0  0  0  0  0  0
   38.2578   55.7311   39.4258 H   0  0  0  0  0  0
   42.7368   57.0335   37.6338 H   0  0  0  0  0  0
   42.6398   52.3187   34.2578 H   0  0  0  0  0  0
   43.2026   53.9695   34.1137 H   0  0  0  0  0  0
   41.8389   53.5992   35.1765 H   0  0  0  0  0  0
   33.2176   56.8974   30.9556 H   0  0  0  0  0  0
   34.6823   56.1210   29.1702 H   0  0  0  0  0  0
   40.2495   55.6248   40.8323 H   0  0  0  0  0  0
   42.4506   56.2514   39.9643 H   0  0  0  0  0  0
  1  2  2  0  0  0
  1  3  1  0  0  0
  1  6  1  0  0  0
  2  4  1  0  0  0
  2  5  1  0  0  0
  3  9  2  0  0  0
  3 12  1  0  0  0
  4 10  2  0  0  0
  4 14  1  0  0  0
  5 18  2  0  0  0
  5  8  1  0  0  0
  6  8  1  0  0  0
  6 19  2  0  0  0
  7  9  1  0  0  0
  7 16  1  0  0  0
  7 13  1  0  0  0
  8 34  1  0  0  0
  9 35  1  0  0  0
 10 11  1  0  0  0
 10 36  1  0  0  0
 11 24  1  0  0  0
 11 15  1  0  0  0
 12 13  2  0  0  0
 12 26  1  0  0  0
 13 25  1  0  0  0
 14 15  2  0  0  0
 14 27  1  0  0  0
 15 28  1  0  0  0
 16 20  1  0  0  0
 16 21  1  0  0  0
 16 37  1  0  0  0
 17 22  1  0  0  0
 17 29  1  0  0  0
 17 23  1  0  0  0
 20 23  1  0  0  0
 20 38  1  0  0  0
 20 39  1  0  0  0
 21 22  1  0  0  0
 21 40  1  0  0  0
 21 41  1  0  0  0
 22 42  1  0  0  0
 22 43  1  0  0  0
 23 44  1  0  0  0
 23 45  1  0  0  0
 24 46  1  0  0  0
 24 47  1  0  0  0
 24 48  1  0  0  0
 25 31  2  0  0  0
 25 49  1  0  0  0
 26 30  2  0  0  0
 26 50  1  0  0  0
 27 32  2  0  0  0
 27 51  1  0  0  0
 28 33  2  0  0  0
 28 52  1  0  0  0
 29 53  1  0  0  0
 29 54  1  0  0  0
 29 55  1  0  0  0
 30 31  1  0  0  0
 30 56  1  0  0  0
 31 57  1  0  0  0
 32 33  1  0  0  0
 32 58  1  0  0  0
 33 59  1  0  0  0
M  END
> <s_m_entry_id>
3305

> <s_m_entry_name>
dock_pv.34

> <s_m_Source_Path>
/home/csk/Desktop/cluster/DUD-E-result/kpcb

> <s_m_Source_File>
dock_pv.maegz

> <i_m_Source_File_Index>
34

> <chembl_id>
CHEMBL53596

> <chembl_pref_name>
None

> <i_lp_mmshare_version>
53161

> <i_f3d_flags>
0

> <r_lp_tautomer_probability>
1

> <s_lp_Force_Field>
OPLS_2005

> <r_lp_Energy>
39.809658

> <b_lp_Chiralities_Consistent>
1

> <s_lp_Variant>
CHEMBL3045_lig54-1

> <s_i_glide_gridfile>
glide-grid_2i0e

> <i_i_glide_lignum>
57

> <i_i_glide_rotatable_bonds>
3

> <r_i_docking_score>
-9.00774267548238

> <r_i_glide_ligand_efficiency>
-0.272961899257042

> <r_i_glide_ligand_efficiency_sa>
-0.875534661627386

> <r_i_glide_ligand_efficiency_ln>
-2.00327533143181

> <r_i_glide_gscore>
-9.00774267548238

> <r_i_glide_lipo>
-2.78101900814003

> <r_i_glide_hbond>
-0.578588943184732

> <r_i_glide_metal>
0

> <r_i_glide_rewards>
-2.48334846202587

> <r_i_glide_evdw>
-50.7364845275879

> <r_i_glide_ecoul>
-5.6388635635376

> <r_i_glide_erotb>
0.217867498778286

> <r_i_glide_esite>
0

> <r_i_glide_emodel>
-83.1740621589827

> <r_i_glide_energy>
-56.3753480911255

> <r_i_glide_einternal>
9.4910306930542

> <i_i_glide_confnum>
79

> <i_i_glide_posenum>
5

> <r_i_glide_eff_state_penalty>
0

> <s_user_duplicate_titles>
CHEMBL3045_lig54,83189

> <s_m_subgroup_title>
dock_pv

> <s_m_subgroupid>
dock_pv

> <b_m_subgroup_collapsed>
1

$$$$
CHEMBL3045_lig30
                    3D
 Schrodinger Suite 2021-1.
 43 46  0  0  1  0            999 V2000
   35.9164   56.0509   35.3478 C   0  0  0  0  0  0
   36.7491   56.1170   36.4144 C   0  0  0  0  0  0
   36.2309   55.9544   33.8910 C   0  0  0  0  0  0
   34.5767   56.0701   35.8822 C   0  0  0  0  0  0
   35.9649   56.2807   37.6122 C   0  0  0  0  0  0
   34.7014   56.2329   37.2007 N   0  0  0  0  0  0
   37.5232   56.0719   33.3929 C   0  0  0  0  0  0
   37.5963   55.8395   32.0444 N   0  0  0  0  0  0
   36.3048   55.7482   31.5706 C   0  0  0  0  0  0
   35.4096   55.7842   32.6923 C   0  0  0  0  0  0
   38.2378   56.0618   36.4721 C   0  0  0  0  0  0
   38.9940   54.9528   36.0364 C   0  0  0  0  0  0
   35.9566   55.6396   30.2829 N   0  0  0  0  0  0
   40.3862   54.9591   36.1431 C   0  0  0  0  0  0
   38.9219   57.1360   37.0556 C   0  0  0  0  0  0
   33.5012   55.9718   35.3122 O   0  0  0  0  0  0
   36.3274   56.4383   38.7783 O   0  0  0  0  0  0
   41.0446   56.0483   36.7061 C   0  0  0  0  0  0
   38.2558   53.5591   35.3321 Cl  0  0  0  0  0  0
   38.8362   55.7885   31.2669 C   0  0  0  0  0  0
   40.3108   57.1356   37.1682 C   0  0  0  0  0  0
   42.3912   56.0489   36.8100 F   0  0  0  0  0  0
   34.0365   55.6537   32.3707 C   0  0  0  0  0  0
   39.8188   54.7154   31.7848 C   0  0  0  0  0  0
   40.2838   52.3720   32.1338 O   0  0  0  0  0  0
   34.6284   55.5723   30.0432 C   0  0  0  0  0  0
   39.3157   53.2692   31.6365 C   0  0  0  0  0  0
   33.6529   55.5702   31.0320 C   0  0  0  0  0  0
   33.9100   56.3235   37.8242 H   0  0  0  0  0  0
   38.4501   56.2628   33.9081 H   0  0  0  0  0  0
   40.9607   54.1123   35.7940 H   0  0  0  0  0  0
   38.3623   57.9720   37.4394 H   0  0  0  0  0  0
   38.5903   55.5720   30.2278 H   0  0  0  0  0  0
   39.2961   56.7732   31.2944 H   0  0  0  0  0  0
   40.8212   57.9709   37.6237 H   0  0  0  0  0  0
   33.2570   55.6340   33.1057 H   0  0  0  0  0  0
   40.7539   54.8156   31.2306 H   0  0  0  0  0  0
   40.0742   54.9104   32.8274 H   0  0  0  0  0  0
   40.1451   51.5043   31.7229 H   0  0  0  0  0  0
   34.3467   55.4833   29.0029 H   0  0  0  0  0  0
   38.3665   53.1250   32.1554 H   0  0  0  0  0  0
   39.1026   53.0489   30.5898 H   0  0  0  0  0  0
   32.6087   55.4999   30.7571 H   0  0  0  0  0  0
  1  2  2  0  0  0
  1  3  1  0  0  0
  1  4  1  0  0  0
  2  5  1  0  0  0
  2 11  1  0  0  0
  3  7  2  0  0  0
  3 10  1  0  0  0
  4  6  1  0  0  0
  4 16  2  0  0  0
  5 17  2  0  0  0
  5  6  1  0  0  0
  6 29  1  0  0  0
  7  8  1  0  0  0
  7 30  1  0  0  0
  8 20  1  0  0  0
  8  9  1  0  0  0
  9 10  2  0  0  0
  9 13  1  0  0  0
 10 23  1  0  0  0
 11 12  1  0  0  0
 11 15  2  0  0  0
 12 14  2  0  0  0
 12 19  1  0  0  0
 13 26  2  0  0  0
 14 18  1  0  0  0
 14 31  1  0  0  0
 15 21  1  0  0  0
 15 32  1  0  0  0
 18 21  2  0  0  0
 18 22  1  0  0  0
 20 24  1  0  0  0
 20 33  1  0  0  0
 20 34  1  0  0  0
 21 35  1  0  0  0
 23 28  2  0  0  0
 23 36  1  0  0  0
 24 27  1  0  0  0
 24 37  1  0  0  0
 24 38  1  0  0  0
 25 27  1  0  0  0
 25 39  1  0  0  0
 26 28  1  0  0  0
 26 40  1  0  0  0
 27 41  1  0  0  0
 27 42  1  0  0  0
 28 43  1  0  0  0
M  END
> <s_m_entry_id>
3306

> <s_m_entry_name>
dock_pv.35

> <s_m_Source_Path>
/home/csk/Desktop/cluster/DUD-E-result/kpcb

> <s_m_Source_File>
dock_pv.maegz

> <i_m_Source_File_Index>
35

> <chembl_id>
CHEMBL111005

> <chembl_pref_name>
None

> <i_lp_mmshare_version>
53161

> <i_f3d_flags>
0

> <r_lp_tautomer_probability>
1

> <s_lp_Force_Field>
OPLS_2005

> <r_lp_Energy>
24.54871

> <b_lp_Chiralities_Consistent>
1

> <s_lp_Variant>
CHEMBL3045_lig30-1

> <s_i_glide_gridfile>
glide-grid_2i0e

> <i_i_glide_lignum>
32

> <i_i_glide_rotatable_bonds>
6

> <r_i_docking_score>
-8.99041453082658

> <r_i_glide_ligand_efficiency>
-0.321086233243806

> <r_i_glide_ligand_efficiency_sa>
-0.975006913806265

> <r_i_glide_ligand_efficiency_ln>
-2.07525164375561

> <r_i_glide_gscore>
-8.99041453082658

> <r_i_glide_lipo>
-2.13753143528958

> <r_i_glide_hbond>
-0.85258047431377

> <r_i_glide_metal>
0

> <r_i_glide_rewards>
-2.92266555250753

> <r_i_glide_evdw>
-45.070686340332

> <r_i_glide_ecoul>
-8.35489368438721

> <r_i_glide_erotb>
0.429131300958983

> <r_i_glide_esite>
0

> <r_i_glide_emodel>
-81.0968865091546

> <r_i_glide_energy>
-53.4255800247192

> <r_i_glide_einternal>
4.41183233261108

> <i_i_glide_confnum>
280

> <i_i_glide_posenum>
303

> <r_i_glide_eff_state_penalty>
0

> <s_user_duplicate_titles>
CHEMBL3045_lig30

> <s_m_subgroup_title>
dock_pv

> <s_m_subgroupid>
dock_pv

> <b_m_subgroup_collapsed>
1

$$$$
CHEMBL3045_lig280
                    3D
 Schrodinger Suite 2021-1.
 55 59  0  0  1  0            999 V2000
   40.6799   57.7151   34.0400 C   0  0  0  0  0  0
   41.9285   57.5720   34.6317 C   0  0  0  0  0  0
   42.0767   57.2386   35.9778 C   0  0  0  0  0  0
   39.5160   57.4960   34.7713 C   0  0  0  0  0  0
   39.6065   57.1059   36.1196 C   0  0  0  0  0  0
   40.9071   57.0244   36.7116 C   0  0  0  0  0  0
   40.7252   56.6861   38.0323 N   0  0  0  0  0  0
   39.3926   56.4983   38.2853 C   0  0  0  0  0  0
   38.6561   56.6978   37.1264 C   0  0  0  0  0  0
   37.2106   56.4683   36.9922 C   0  0  0  0  0  0
   36.9587   55.5600   34.6012 C   0  0  0  0  0  0
   36.4861   56.0436   35.9372 C   0  0  0  0  0  0
   36.3058   56.7274   38.0801 C   0  0  0  0  0  0
   35.1010   56.3847   37.6216 N   0  0  0  0  0  0
   35.1141   55.9477   36.3599 C   0  0  0  0  0  0
   36.5433   57.1668   39.2051 O   0  0  0  0  0  0
   34.1315   55.5729   35.7248 O   0  0  0  0  0  0
   38.0360   54.6562   34.5511 C   0  0  0  0  0  0
   38.5587   54.1933   33.3377 C   0  0  0  0  0  0
   37.9630   54.5784   32.1521 C   0  0  0  0  0  0
   39.6242   53.3354   33.1778 O   0  0  0  0  0  0
   40.5023   52.9986   34.2416 C   0  0  0  0  0  0
   41.2911   54.1867   34.8209 C   0  0  0  0  0  0
   42.3043   53.8537   35.8300 N   0  0  0  0  0  0
   41.7373   53.2472   37.0297 C   0  0  0  0  0  0
   43.3981   53.0329   35.3053 C   0  0  0  0  0  0
   36.3629   55.9840   33.3560 C   0  0  0  0  0  0
   36.8488   55.4315   32.1305 C   0  0  0  0  0  0
   36.2100   55.7350   30.9053 C   0  0  0  0  0  0
   35.1221   56.5954   30.8751 C   0  0  0  0  0  0
   34.6996   57.2260   32.0378 C   0  0  0  0  0  0
   35.3092   56.9441   33.2583 C   0  0  0  0  0  0
   40.6110   57.9840   32.9948 H   0  0  0  0  0  0
   42.8162   57.7373   34.0371 H   0  0  0  0  0  0
   43.0578   57.1429   36.4198 H   0  0  0  0  0  0
   38.5585   57.5762   34.2853 H   0  0  0  0  0  0
   41.4416   56.5480   38.7326 H   0  0  0  0  0  0
   39.0741   56.1879   39.2738 H   0  0  0  0  0  0
   34.2502   56.4693   38.1629 H   0  0  0  0  0  0
   38.4723   54.3162   35.4785 H   0  0  0  0  0  0
   38.3522   54.1921   31.2208 H   0  0  0  0  0  0
   39.9811   52.4173   35.0023 H   0  0  0  0  0  0
   41.2387   52.3615   33.7695 H   0  0  0  0  0  0
   41.7709   54.7339   34.0084 H   0  0  0  0  0  0
   40.5945   54.8852   35.2632 H   0  0  0  0  0  0
   42.4958   53.1830   37.8107 H   0  0  0  0  0  0
   40.9172   53.8498   37.4230 H   0  0  0  0  0  0
   41.3580   52.2417   36.8370 H   0  0  0  0  0  0
   44.2018   52.9554   36.0369 H   0  0  0  0  0  0
   43.0805   52.0170   35.0632 H   0  0  0  0  0  0
   43.8207   53.4752   34.4016 H   0  0  0  0  0  0
   36.5602   55.2688   29.9944 H   0  0  0  0  0  0
   34.6111   56.7726   29.9399 H   0  0  0  0  0  0
   33.8776   57.9253   31.9971 H   0  0  0  0  0  0
   34.9469   57.4507   34.1371 H   0  0  0  0  0  0
  1  4  1  0  0  0
  1  2  2  0  0  0
  1 33  1  0  0  0
  2  3  1  0  0  0
  2 34  1  0  0  0
  3  6  2  0  0  0
  3 35  1  0  0  0
  4  5  2  0  0  0
  4 36  1  0  0  0
  5  9  1  0  0  0
  5  6  1  0  0  0
  6  7  1  0  0  0
  7  8  1  0  0  0
  7 37  1  0  0  0
  8  9  2  0  0  0
  8 38  1  0  0  0
  9 10  1  0  0  0
 10 12  2  0  0  0
 10 13  1  0  0  0
 11 18  2  0  0  0
 11 27  1  0  0  0
 11 12  1  0  0  0
 12 15  1  0  0  0
 13 16  2  0  0  0
 13 14  1  0  0  0
 14 15  1  0  0  0
 14 39  1  0  0  0
 15 17  2  0  0  0
 18 19  1  0  0  0
 18 40  1  0  0  0
 19 20  2  0  0  0
 19 21  1  0  0  0
 20 28  1  0  0  0
 20 41  1  0  0  0
 21 22  1  0  0  0
 22 23  1  0  0  0
 22 42  1  0  0  0
 22 43  1  0  0  0
 23 24  1  0  0  0
 23 44  1  0  0  0
 23 45  1  0  0  0
 24 25  1  0  0  0
 24 26  1  0  0  0
 25 46  1  0  0  0
 25 47  1  0  0  0
 25 48  1  0  0  0
 26 49  1  0  0  0
 26 50  1  0  0  0
 26 51  1  0  0  0
 27 28  1  0  0  0
 27 32  2  0  0  0
 28 29  2  0  0  0
 29 30  1  0  0  0
 29 52  1  0  0  0
 30 31  2  0  0  0
 30 53  1  0  0  0
 31 32  1  0  0  0
 31 54  1  0  0  0
 32 55  1  0  0  0
M  END
> <s_m_entry_id>
3307

> <s_m_entry_name>
dock_pv.36

> <s_m_Source_Path>
/home/csk/Desktop/cluster/DUD-E-result/kpcb

> <s_m_Source_File>
dock_pv.maegz

> <i_m_Source_File_Index>
36

> <chembl_id>
CHEMBL565632

> <chembl_pref_name>
None

> <i_lp_mmshare_version>
53161

> <i_f3d_flags>
0

> <r_lp_tautomer_probability>
1

> <s_lp_Force_Field>
OPLS_2005

> <r_lp_Energy>
37.072931

> <b_lp_Chiralities_Consistent>
1

> <s_lp_Variant>
CHEMBL3045_lig280-1

> <s_i_glide_gridfile>
glide-grid_2i0e

> <i_i_glide_lignum>
440

> <i_i_glide_rotatable_bonds>
6

> <r_i_docking_score>
-8.98134589380491

> <r_i_glide_ligand_efficiency>
-0.280667059181403

> <r_i_glide_ligand_efficiency_sa>
-0.891062368965366

> <r_i_glide_ligand_efficiency_ln>
-2.0111681678655

> <r_i_glide_gscore>
-8.98134589380491

> <r_i_glide_lipo>
-3.0720745300018

> <r_i_glide_hbond>
-0.608

> <r_i_glide_metal>
0

> <r_i_glide_rewards>
-2.33491632224938

> <r_i_glide_evdw>
-50.1065292358398

> <r_i_glide_ecoul>
-5.63039684295654

> <r_i_glide_erotb>
0.383530946681745

> <r_i_glide_esite>
0

> <r_i_glide_emodel>
-82.1180203076703

> <r_i_glide_energy>
-55.7369260787964

> <r_i_glide_einternal>
8.65597820281982

> <i_i_glide_confnum>
118

> <i_i_glide_posenum>
171

> <r_i_glide_eff_state_penalty>
0

> <s_user_duplicate_titles>
CHEMBL3045_lig280

> <s_m_subgroup_title>
dock_pv

> <s_m_subgroupid>
dock_pv

> <b_m_subgroup_collapsed>
1

$$$$
CHEMBL3045_lig400
                    3D
 Schrodinger Suite 2021-1.
 54 58  0  0  1  0            999 V2000
   36.0975   56.3664   35.4550 C   0  0  0  0  0  0
   36.8829   56.6701   36.5069 C   0  0  0  0  0  0
   36.0357   56.7201   37.6727 C   0  0  0  0  0  0
   34.8178   56.3731   37.2363 N   0  0  0  0  0  0
   34.7629   56.1469   35.9226 C   0  0  0  0  0  0
   38.3433   56.8912   36.5151 C   0  0  0  0  0  0
   39.0652   57.3003   35.4075 C   0  0  0  0  0  0
   40.4112   57.2680   35.6455 N   0  0  0  0  0  0
   39.3350   56.6950   37.5565 C   0  0  0  0  0  0
   40.6198   56.9402   36.9729 C   0  0  0  0  0  0
   41.8127   56.8187   37.7005 C   0  0  0  0  0  0
   41.7090   56.4571   39.0408 C   0  0  0  0  0  0
   40.4804   56.2071   39.6382 C   0  0  0  0  0  0
   39.2946   56.3102   38.9109 C   0  0  0  0  0  0
   36.4607   56.2029   34.0150 C   0  0  0  0  0  0
   35.9126   57.0668   33.0446 C   0  0  0  0  0  0
   36.1969   56.8996   31.6940 C   0  0  0  0  0  0
   37.0868   55.9268   31.2668 C   0  0  0  0  0  0
   37.4035   55.2020   33.5893 C   0  0  0  0  0  0
   37.7324   55.0934   32.2019 C   0  0  0  0  0  0
   38.7013   54.1489   31.7800 C   0  0  0  0  0  0
   39.3196   53.3136   32.6988 C   0  0  0  0  0  0
   39.0127   53.4024   34.0514 C   0  0  0  0  0  0
   38.0568   54.3138   34.4935 C   0  0  0  0  0  0
   39.7547   52.5404   35.0608 C   0  0  0  0  0  0
   40.9401   53.2193   35.5973 N   0  0  0  0  0  0
   36.3014   57.0206   38.8343 O   0  0  0  0  0  0
   33.7639   55.8360   35.2790 O   0  0  0  0  0  0
   34.8964   58.4033   33.4738 Cl  0  0  0  0  0  0
   41.4407   57.5280   34.6516 C   0  0  0  0  0  0
   41.4590   52.4643   36.7307 C   0  0  0  0  0  0
   42.0111   53.3465   34.6081 C   0  0  0  0  0  0
   34.0064   56.3345   37.8354 H   0  0  0  0  0  0
   38.7194   57.5531   34.4141 H   0  0  0  0  0  0
   42.7759   56.9926   37.2451 H   0  0  0  0  0  0
   42.6096   56.3557   39.6317 H   0  0  0  0  0  0
   40.4398   55.9137   40.6791 H   0  0  0  0  0  0
   38.3698   56.0682   39.4025 H   0  0  0  0  0  0
   35.7448   57.5558   30.9655 H   0  0  0  0  0  0
   37.3118   55.8120   30.2182 H   0  0  0  0  0  0
   38.9486   54.0734   30.7298 H   0  0  0  0  0  0
   40.0552   52.6012   32.3537 H   0  0  0  0  0  0
   37.8384   54.3636   35.5499 H   0  0  0  0  0  0
   39.9936   51.5726   34.6233 H   0  0  0  0  0  0
   39.0655   52.3278   35.8799 H   0  0  0  0  0  0
   42.0460   58.3719   34.9731 H   0  0  0  0  0  0
   42.0774   56.6457   34.5580 H   0  0  0  0  0  0
   40.9930   57.7521   33.6827 H   0  0  0  0  0  0
   40.7021   52.3735   37.5088 H   0  0  0  0  0  0
   42.3197   52.9718   37.1745 H   0  0  0  0  0  0
   41.7694   51.4593   36.4358 H   0  0  0  0  0  0
   41.7123   53.9905   33.7810 H   0  0  0  0  0  0
   42.8973   53.8008   35.0556 H   0  0  0  0  0  0
   42.3051   52.3779   34.1971 H   0  0  0  0  0  0
  1  2  2  0  0  0
  1  5  1  0  0  0
  1 15  1  0  0  0
  2  3  1  0  0  0
  2  6  1  0  0  0
  3  4  1  0  0  0
  3 27  2  0  0  0
  4  5  1  0  0  0
  4 33  1  0  0  0
  5 28  2  0  0  0
  6  7  2  0  0  0
  6  9  1  0  0  0
  7  8  1  0  0  0
  7 34  1  0  0  0
  8 10  1  0  0  0
  8 30  1  0  0  0
  9 10  2  0  0  0
  9 14  1  0  0  0
 10 11  1  0  0  0
 11 12  2  0  0  0
 11 35  1  0  0  0
 12 13  1  0  0  0
 12 36  1  0  0  0
 13 14  2  0  0  0
 13 37  1  0  0  0
 14 38  1  0  0  0
 15 16  2  0  0  0
 15 19  1  0  0  0
 16 17  1  0  0  0
 16 29  1  0  0  0
 17 18  2  0  0  0
 17 39  1  0  0  0
 18 20  1  0  0  0
 18 40  1  0  0  0
 19 20  1  0  0  0
 19 24  2  0  0  0
 20 21  2  0  0  0
 21 22  1  0  0  0
 21 41  1  0  0  0
 22 23  2  0  0  0
 22 42  1  0  0  0
 23 24  1  0  0  0
 23 25  1  0  0  0
 24 43  1  0  0  0
 25 26  1  0  0  0
 25 44  1  0  0  0
 25 45  1  0  0  0
 26 31  1  0  0  0
 26 32  1  0  0  0
 30 46  1  0  0  0
 30 47  1  0  0  0
 30 48  1  0  0  0
 31 49  1  0  0  0
 31 50  1  0  0  0
 31 51  1  0  0  0
 32 52  1  0  0  0
 32 53  1  0  0  0
 32 54  1  0  0  0
M  END
> <s_m_entry_id>
3308

> <s_m_entry_name>
dock_pv.37

> <s_m_Source_Path>
/home/csk/Desktop/cluster/DUD-E-result/kpcb

> <s_m_Source_File>
dock_pv.maegz

> <i_m_Source_File_Index>
37

> <chembl_id>
CHEMBL4077967

> <chembl_pref_name>
None

> <i_lp_mmshare_version>
53161

> <i_f3d_flags>
0

> <r_lp_tautomer_probability>
1

> <s_lp_Force_Field>
OPLS_2005

> <r_lp_Energy>
32.042545

> <b_lp_Chiralities_Consistent>
1

> <s_lp_Variant>
CHEMBL3045_lig400-1

> <s_i_glide_gridfile>
glide-grid_2i0e

> <i_i_glide_lignum>
566

> <i_i_glide_rotatable_bonds>
4

> <r_i_docking_score>
-8.96833512088333

> <r_i_glide_ligand_efficiency>
-0.280260472527604

> <r_i_glide_ligand_efficiency_sa>
-0.889771536802942

> <r_i_glide_ligand_efficiency_ln>
-2.00825470114808

> <r_i_glide_gscore>
-8.96833512088333

> <r_i_glide_lipo>
-2.82175946501886

> <r_i_glide_hbond>
-0.579383542304114

> <r_i_glide_metal>
0

> <r_i_glide_rewards>
-2.27091477857227

> <r_i_glide_evdw>
-50.7522087097168

> <r_i_glide_ecoul>
-6.47829627990723

> <r_i_glide_erotb>
0.213077542483843

> <r_i_glide_esite>
0

> <r_i_glide_emodel>
-87.1781037834878

> <r_i_glide_energy>
-57.230504989624

> <r_i_glide_einternal>
3.49116158485413

> <i_i_glide_confnum>
10

> <i_i_glide_posenum>
204

> <r_i_glide_eff_state_penalty>
0

> <s_user_duplicate_titles>
CHEMBL3045_lig400

> <s_m_subgroup_title>
dock_pv

> <s_m_subgroupid>
dock_pv

> <b_m_subgroup_collapsed>
1

$$$$
CHEMBL3045_lig333
                    3D
 Schrodinger Suite 2021-1.
 56 61  0  0  1  0            999 V2000
   35.3100   56.4146   37.5093 N   0  0  0  0  0  0
   36.5056   56.7005   38.0373 C   0  0  0  0  0  0
   37.4587   56.3861   37.0044 C   0  0  0  0  0  0
   36.7788   55.9413   35.9312 C   0  0  0  0  0  0
   35.3745   55.9720   36.2497 C   0  0  0  0  0  0
   36.7008   57.1437   39.1694 O   0  0  0  0  0  0
   34.4122   55.6636   35.5489 O   0  0  0  0  0  0
   37.3015   55.4974   34.6040 C   0  0  0  0  0  0
   36.7527   56.1972   33.5879 N   0  0  0  0  0  0
   37.1428   55.9661   32.3093 C   0  0  0  0  0  0
   38.1220   55.0308   31.9939 C   0  0  0  0  0  0
   38.7518   54.3183   33.0355 C   0  0  0  0  0  0
   39.8103   53.4268   32.7605 C   0  0  0  0  0  0
   40.4507   52.7721   33.8015 C   0  0  0  0  0  0
   40.0261   52.9328   35.1152 C   0  0  0  0  0  0
   38.9718   53.7902   35.4145 C   0  0  0  0  0  0
   38.3300   54.5280   34.3885 C   0  0  0  0  0  0
   36.5410   56.7205   31.3117 N   0  0  0  0  0  0
   35.7089   57.8804   31.6565 C   0  0  0  0  0  0
   34.2415   57.4916   31.9412 C   0  0  0  0  0  0
   33.6610   56.7707   30.8114 N   0  0  0  0  0  0
   34.4794   55.6087   30.4659 C   0  0  0  0  0  0
   35.9269   56.0464   30.1544 C   0  0  0  0  0  0
   32.3008   56.3498   31.1115 C   0  0  0  0  0  0
   40.9445   56.3527   38.1351 N   0  0  0  0  0  0
   39.5940   56.2985   38.3631 C   0  0  0  0  0  0
   38.9069   56.5545   37.1859 C   0  0  0  0  0  0
   39.9127   56.9044   36.2071 C   0  0  0  0  0  0
   39.8889   57.3492   34.8721 C   0  0  0  0  0  0
   41.0846   57.4642   34.1675 C   0  0  0  0  0  0
   42.3020   57.1723   34.7739 C   0  0  0  0  0  0
   42.3885   56.8042   36.1166 C   0  0  0  0  0  0
   41.1861   56.6837   36.8201 C   0  0  0  0  0  0
   34.4383   56.5483   38.0021 H   0  0  0  0  0  0
   38.4418   54.8759   30.9727 H   0  0  0  0  0  0
   40.1359   53.2735   31.7407 H   0  0  0  0  0  0
   41.2771   52.1149   33.5747 H   0  0  0  0  0  0
   40.5268   52.3925   35.9054 H   0  0  0  0  0  0
   38.6624   53.9209   36.4375 H   0  0  0  0  0  0
   36.1218   58.3825   32.5306 H   0  0  0  0  0  0
   35.8000   58.5843   30.8381 H   0  0  0  0  0  0
   34.1893   56.8881   32.8497 H   0  0  0  0  0  0
   33.6627   58.3993   32.1141 H   0  0  0  0  0  0
   34.0555   55.1511   29.5724 H   0  0  0  0  0  0
   34.4642   54.8611   31.2610 H   0  0  0  0  0  0
   35.9010   56.7354   29.3099 H   0  0  0  0  0  0
   36.5208   55.1944   29.8251 H   0  0  0  0  0  0
   31.9019   55.7530   30.2912 H   0  0  0  0  0  0
   32.2663   55.7462   32.0196 H   0  0  0  0  0  0
   31.6508   57.2155   31.2390 H   0  0  0  0  0  0
   41.6273   56.1366   38.8461 H   0  0  0  0  0  0
   39.2264   56.0044   39.3385 H   0  0  0  0  0  0
   38.9554   57.5704   34.3813 H   0  0  0  0  0  0
   41.0672   57.7713   33.1319 H   0  0  0  0  0  0
   43.2118   57.2699   34.1985 H   0  0  0  0  0  0
   43.3456   56.6149   36.5799 H   0  0  0  0  0  0
  1  2  1  0  0  0
  1  5  1  0  0  0
  1 34  1  0  0  0
  2  3  1  0  0  0
  2  6  2  0  0  0
  3  4  2  0  0  0
  3 27  1  0  0  0
  4  5  1  0  0  0
  4  8  1  0  0  0
  5  7  2  0  0  0
  8  9  2  0  0  0
  8 17  1  0  0  0
  9 10  1  0  0  0
 10 11  2  0  0  0
 10 18  1  0  0  0
 11 12  1  0  0  0
 11 35  1  0  0  0
 12 13  1  0  0  0
 12 17  2  0  0  0
 13 14  2  0  0  0
 13 36  1  0  0  0
 14 15  1  0  0  0
 14 37  1  0  0  0
 15 16  2  0  0  0
 15 38  1  0  0  0
 16 17  1  0  0  0
 16 39  1  0  0  0
 18 19  1  0  0  0
 18 23  1  0  0  0
 19 20  1  0  0  0
 19 40  1  0  0  0
 19 41  1  0  0  0
 20 21  1  0  0  0
 20 42  1  0  0  0
 20 43  1  0  0  0
 21 22  1  0  0  0
 21 24  1  0  0  0
 22 23  1  0  0  0
 22 44  1  0  0  0
 22 45  1  0  0  0
 23 46  1  0  0  0
 23 47  1  0  0  0
 24 48  1  0  0  0
 24 49  1  0  0  0
 24 50  1  0  0  0
 25 26  1  0  0  0
 25 33  1  0  0  0
 25 51  1  0  0  0
 26 27  2  0  0  0
 26 52  1  0  0  0
 27 28  1  0  0  0
 28 29  1  0  0  0
 28 33  2  0  0  0
 29 30  2  0  0  0
 29 53  1  0  0  0
 30 31  1  0  0  0
 30 54  1  0  0  0
 31 32  2  0  0  0
 31 55  1  0  0  0
 32 33  1  0  0  0
 32 56  1  0  0  0
M  END
> <s_m_entry_id>
3309

> <s_m_entry_name>
dock_pv.38

> <s_m_Source_Path>
/home/csk/Desktop/cluster/DUD-E-result/kpcb

> <s_m_Source_File>
dock_pv.maegz

> <i_m_Source_File_Index>
38

> <chembl_id>
CHEMBL2153748

> <chembl_pref_name>
None

> <i_lp_mmshare_version>
53161

> <i_f3d_flags>
0

> <r_lp_tautomer_probability>
1

> <s_lp_Force_Field>
OPLS_2005

> <r_lp_Energy>
48.772732

> <b_lp_Chiralities_Consistent>
1

> <s_lp_Variant>
CHEMBL3045_lig333-1

> <s_i_glide_gridfile>
glide-grid_2i0e

> <i_i_glide_lignum>
497

> <i_i_glide_rotatable_bonds>
3

> <r_i_docking_score>
-8.96578674788343

> <r_i_glide_ligand_efficiency>
-0.271690507511619

> <r_i_glide_ligand_efficiency_sa>
-0.871456628961822

> <r_i_glide_ligand_efficiency_ln>
-1.99394455036997

> <r_i_glide_gscore>
-8.96578674788343

> <r_i_glide_lipo>
-2.77679291284178

> <r_i_glide_hbond>
-0.549928091712763

> <r_i_glide_metal>
0

> <r_i_glide_rewards>
-2.43875004763942

> <r_i_glide_evdw>
-52.4912300109863

> <r_i_glide_ecoul>
-5.29700756072998

> <r_i_glide_erotb>
0.218796938969345

> <r_i_glide_esite>
0

> <r_i_glide_emodel>
-81.4717770266392

> <r_i_glide_energy>
-57.7882375717163

> <r_i_glide_einternal>
4.50519609451294

> <i_i_glide_confnum>
110

> <i_i_glide_posenum>
143

> <r_i_glide_eff_state_penalty>
0

> <s_user_duplicate_titles>
CHEMBL3045_lig333

> <s_m_subgroup_title>
dock_pv

> <s_m_subgroupid>
dock_pv

> <b_m_subgroup_collapsed>
1

$$$$
CHEMBL3045_lig149
                    3D
 Schrodinger Suite 2021-1.
 38 43  0  0  1  0            999 V2000
   37.1898   56.2344   36.7266 C   0  0  0  0  0  0
   36.3359   56.1281   35.6355 C   0  0  0  0  0  0
   39.0827   56.1341   35.2503 C   0  0  0  0  0  0
   36.3651   56.4021   37.9580 C   0  0  0  0  0  0
   34.9688   56.3690   36.2048 C   0  0  0  0  0  0
   35.1012   56.4066   37.5354 N   0  0  0  0  0  0
   38.5850   56.2286   36.5593 C   0  0  0  0  0  0
   40.4602   56.1939   35.2840 N   0  0  0  0  0  0
   36.8173   55.9467   34.2734 C   0  0  0  0  0  0
   38.2396   56.0152   34.1105 C   0  0  0  0  0  0
   39.7128   56.3340   37.4146 C   0  0  0  0  0  0
   40.8777   56.3268   36.5904 C   0  0  0  0  0  0
   36.0200   55.7480   33.0867 C   0  0  0  0  0  0
   38.8214   55.9879   32.8222 C   0  0  0  0  0  0
   33.9011   56.5460   35.6409 O   0  0  0  0  0  0
   36.7036   56.5490   39.1287 O   0  0  0  0  0  0
   36.6306   55.8405   31.7928 C   0  0  0  0  0  0
   38.0271   55.9550   31.6890 C   0  0  0  0  0  0
   39.8783   56.4413   38.8083 C   0  0  0  0  0  0
   42.1689   56.4379   37.1180 C   0  0  0  0  0  0
   34.6350   55.3972   33.0956 C   0  0  0  0  0  0
   35.8349   55.7833   30.6183 C   0  0  0  0  0  0
   41.1645   56.5433   39.3313 C   0  0  0  0  0  0
   42.2823   56.5447   38.5035 C   0  0  0  0  0  0
   33.8763   55.3404   31.9303 C   0  0  0  0  0  0
   34.4669   55.5721   30.6989 C   0  0  0  0  0  0
   34.3119   56.5564   38.1495 H   0  0  0  0  0  0
   41.0709   56.1433   34.4811 H   0  0  0  0  0  0
   39.8931   56.0446   32.7054 H   0  0  0  0  0  0
   38.4896   55.9801   30.7122 H   0  0  0  0  0  0
   39.0397   56.4355   39.4851 H   0  0  0  0  0  0
   43.0482   56.4350   36.4888 H   0  0  0  0  0  0
   34.1494   55.0819   33.9958 H   0  0  0  0  0  0
   36.2988   55.8817   29.6472 H   0  0  0  0  0  0
   41.2970   56.6190   40.4011 H   0  0  0  0  0  0
   43.2649   56.6220   38.9441 H   0  0  0  0  0  0
   32.8252   55.0975   31.9823 H   0  0  0  0  0  0
   33.8736   55.5265   29.7964 H   0  0  0  0  0  0
  1  2  1  0  0  0
  1  4  1  0  0  0
  1  7  2  0  0  0
  2  5  1  0  0  0
  2  9  2  0  0  0
  3  7  1  0  0  0
  3  8  1  0  0  0
  3 10  2  0  0  0
  4  6  1  0  0  0
  4 16  2  0  0  0
  5 15  2  0  0  0
  5  6  1  0  0  0
  6 27  1  0  0  0
  7 11  1  0  0  0
  8 12  1  0  0  0
  8 28  1  0  0  0
  9 13  1  0  0  0
  9 10  1  0  0  0
 10 14  1  0  0  0
 11 12  2  0  0  0
 11 19  1  0  0  0
 12 20  1  0  0  0
 13 17  1  0  0  0
 13 21  2  0  0  0
 14 18  2  0  0  0
 14 29  1  0  0  0
 17 22  2  0  0  0
 17 18  1  0  0  0
 18 30  1  0  0  0
 19 23  2  0  0  0
 19 31  1  0  0  0
 20 24  2  0  0  0
 20 32  1  0  0  0
 21 25  1  0  0  0
 21 33  1  0  0  0
 22 26  1  0  0  0
 22 34  1  0  0  0
 23 24  1  0  0  0
 23 35  1  0  0  0
 24 36  1  0  0  0
 25 26  2  0  0  0
 25 37  1  0  0  0
 26 38  1  0  0  0
M  END
> <s_m_entry_id>
3310

> <s_m_entry_name>
dock_pv.39

> <s_m_Source_Path>
/home/csk/Desktop/cluster/DUD-E-result/kpcb

> <s_m_Source_File>
dock_pv.maegz

> <i_m_Source_File_Index>
39

> <chembl_id>
CHEMBL332575

> <chembl_pref_name>
None

> <i_lp_mmshare_version>
53161

> <i_f3d_flags>
0

> <r_lp_tautomer_probability>
1

> <s_lp_Force_Field>
OPLS_2005

> <r_lp_Energy>
83.583909

> <b_lp_Chiralities_Consistent>
1

> <s_lp_Variant>
CHEMBL3045_lig149-1

> <s_i_glide_gridfile>
glide-grid_2i0e

> <i_i_glide_lignum>
271

> <i_i_glide_rotatable_bonds>
0

> <r_i_docking_score>
-8.95992426679072

> <r_i_glide_ligand_efficiency>
-0.344612471799643

> <r_i_glide_ligand_efficiency_sa>
-1.02091309172184

> <r_i_glide_ligand_efficiency_ln>
-2.10420881414632

> <r_i_glide_gscore>
-8.95992426679072

> <r_i_glide_lipo>
-2.61219190757606

> <r_i_glide_hbond>
-0.608

> <r_i_glide_metal>
0

> <r_i_glide_rewards>
-2.94684305028521

> <r_i_glide_evdw>
-41.4904441833496

> <r_i_glide_ecoul>
-4.78911399841309

> <r_i_glide_erotb>
0

> <r_i_glide_esite>
0

> <r_i_glide_emodel>
-70.1063484865005

> <r_i_glide_energy>
-46.2795581817627

> <r_i_glide_einternal>
0

> <i_i_glide_confnum>
1

> <i_i_glide_posenum>
84

> <r_i_glide_eff_state_penalty>
0

> <s_user_duplicate_titles>
CHEMBL3045_lig149

> <s_m_subgroup_title>
dock_pv

> <s_m_subgroupid>
dock_pv

> <b_m_subgroup_collapsed>
1

$$$$
CHEMBL3045_lig286
                    3D
 Schrodinger Suite 2021-1.
 51 56  0  0  1  0            999 V2000
   40.6827   57.6424   34.2062 C   0  0  0  0  0  0
   41.9008   57.5143   34.8623 C   0  0  0  0  0  0
   41.9805   57.1718   36.2124 C   0  0  0  0  0  0
   39.4839   57.4071   34.8739 C   0  0  0  0  0  0
   39.5044   57.0100   36.2237 C   0  0  0  0  0  0
   40.7749   56.9264   36.8778 C   0  0  0  0  0  0
   40.5300   56.5706   38.1847 N   0  0  0  0  0  0
   39.1842   56.4039   38.3781 C   0  0  0  0  0  0
   38.4991   56.6297   37.1923 C   0  0  0  0  0  0
   37.0507   56.4429   37.0086 C   0  0  0  0  0  0
   36.8845   55.5011   34.6504 C   0  0  0  0  0  0
   36.3585   56.0170   35.9360 C   0  0  0  0  0  0
   36.1060   56.7052   38.0576 C   0  0  0  0  0  0
   34.9164   56.3721   37.5495 N   0  0  0  0  0  0
   34.9666   55.9721   36.2779 C   0  0  0  0  0  0
   36.3035   57.1380   39.1918 O   0  0  0  0  0  0
   34.0050   55.6580   35.5801 O   0  0  0  0  0  0
   37.8284   54.5436   34.8226 N   0  0  0  0  0  0
   38.4013   54.0202   33.7112 C   0  0  0  0  0  0
   38.0485   54.3342   32.4378 N   0  0  0  0  0  0
   36.4461   55.9227   33.3580 C   0  0  0  0  0  0
   37.0752   55.2662   32.2565 C   0  0  0  0  0  0
   36.6786   55.5785   30.9371 C   0  0  0  0  0  0
   35.6787   56.5191   30.7159 C   0  0  0  0  0  0
   35.0866   57.1916   31.7804 C   0  0  0  0  0  0
   35.4653   56.9171   33.0926 C   0  0  0  0  0  0
   39.3518   53.0153   33.8885 N   0  0  0  0  0  0
   40.0181   52.7535   35.1766 C   0  0  0  0  0  0
   41.2861   53.6275   35.2908 C   0  0  0  0  0  0
   42.1734   53.3517   34.2094 O   0  0  0  0  0  0
   41.5743   53.4970   32.9214 C   0  0  0  0  0  0
   40.3012   52.6233   32.8303 C   0  0  0  0  0  0
   40.6683   57.9240   33.1625 H   0  0  0  0  0  0
   42.8141   57.7009   34.3153 H   0  0  0  0  0  0
   42.9374   57.0930   36.7079 H   0  0  0  0  0  0
   38.5516   57.5193   34.3461 H   0  0  0  0  0  0
   41.2097   56.4191   38.9164 H   0  0  0  0  0  0
   38.8191   56.0949   39.3499 H   0  0  0  0  0  0
   34.0510   56.4736   38.0651 H   0  0  0  0  0  0
   37.1513   55.0748   30.1046 H   0  0  0  0  0  0
   35.3677   56.7365   29.7050 H   0  0  0  0  0  0
   34.3220   57.9303   31.5861 H   0  0  0  0  0  0
   34.9957   57.4493   33.9058 H   0  0  0  0  0  0
   39.3476   52.9249   36.0195 H   0  0  0  0  0  0
   40.2861   51.6988   35.2389 H   0  0  0  0  0  0
   41.8013   53.4269   36.2301 H   0  0  0  0  0  0
   41.0246   54.6831   35.2903 H   0  0  0  0  0  0
   42.2958   53.1790   32.1680 H   0  0  0  0  0  0
   41.3508   54.5473   32.7233 H   0  0  0  0  0  0
   40.5711   51.5733   32.9405 H   0  0  0  0  0  0
   39.8511   52.6873   31.8390 H   0  0  0  0  0  0
  1  4  1  0  0  0
  1  2  2  0  0  0
  1 33  1  0  0  0
  2  3  1  0  0  0
  2 34  1  0  0  0
  3  6  2  0  0  0
  3 35  1  0  0  0
  4  5  2  0  0  0
  4 36  1  0  0  0
  5  9  1  0  0  0
  5  6  1  0  0  0
  6  7  1  0  0  0
  7  8  1  0  0  0
  7 37  1  0  0  0
  8  9  2  0  0  0
  8 38  1  0  0  0
  9 10  1  0  0  0
 10 12  2  0  0  0
 10 13  1  0  0  0
 11 18  2  0  0  0
 11 21  1  0  0  0
 11 12  1  0  0  0
 12 15  1  0  0  0
 13 16  2  0  0  0
 13 14  1  0  0  0
 14 15  1  0  0  0
 14 39  1  0  0  0
 15 17  2  0  0  0
 18 19  1  0  0  0
 19 20  2  0  0  0
 19 27  1  0  0  0
 20 22  1  0  0  0
 21 22  1  0  0  0
 21 26  2  0  0  0
 22 23  2  0  0  0
 23 24  1  0  0  0
 23 40  1  0  0  0
 24 25  2  0  0  0
 24 41  1  0  0  0
 25 26  1  0  0  0
 25 42  1  0  0  0
 26 43  1  0  0  0
 27 28  1  0  0  0
 27 32  1  0  0  0
 28 29  1  0  0  0
 28 44  1  0  0  0
 28 45  1  0  0  0
 29 30  1  0  0  0
 29 46  1  0  0  0
 29 47  1  0  0  0
 30 31  1  0  0  0
 31 32  1  0  0  0
 31 48  1  0  0  0
 31 49  1  0  0  0
 32 50  1  0  0  0
 32 51  1  0  0  0
M  END
> <s_m_entry_id>
3311

> <s_m_entry_name>
dock_pv.40

> <s_m_Source_Path>
/home/csk/Desktop/cluster/DUD-E-result/kpcb

> <s_m_Source_File>
dock_pv.maegz

> <i_m_Source_File_Index>
40

> <chembl_id>
CHEMBL584817

> <chembl_pref_name>
None

> <i_lp_mmshare_version>
53161

> <i_f3d_flags>
0

> <r_lp_tautomer_probability>
1

> <s_lp_Force_Field>
OPLS_2005

> <r_lp_Energy>
30.713179

> <b_lp_Chiralities_Consistent>
1

> <s_lp_Variant>
CHEMBL3045_lig286-1

> <s_i_glide_gridfile>
glide-grid_2i0e

> <i_i_glide_lignum>
446

> <i_i_glide_rotatable_bonds>
3

> <r_i_docking_score>
-8.95047514099278

> <r_i_glide_ligand_efficiency>
-0.279702348156024

> <r_i_glide_ligand_efficiency_sa>
-0.88799960237584

> <r_i_glide_ligand_efficiency_ln>
-2.00425536480592

> <r_i_glide_gscore>
-8.95047514099278

> <r_i_glide_lipo>
-2.68190161397067

> <r_i_glide_hbond>
-0.608

> <r_i_glide_metal>
0

> <r_i_glide_rewards>
-2.46018504199054

> <r_i_glide_evdw>
-51.6201095581055

> <r_i_glide_ecoul>
-5.66360330581665

> <r_i_glide_erotb>
0.230157488746209

> <r_i_glide_esite>
0

> <r_i_glide_emodel>
-84.5820329419474

> <r_i_glide_energy>
-57.2837128639221

> <r_i_glide_einternal>
5.04897737503052

> <i_i_glide_confnum>
27

> <i_i_glide_posenum>
104

> <r_i_glide_eff_state_penalty>
0

> <s_user_duplicate_titles>
CHEMBL3045_lig286

> <s_m_subgroup_title>
dock_pv

> <s_m_subgroupid>
dock_pv

> <b_m_subgroup_collapsed>
1

$$$$
CHEMBL3045_lig407
                    3D
 Schrodinger Suite 2021-1.
 55 60  0  0  1  0            999 V2000
   36.0520   56.3722   35.4399 C   0  0  0  0  0  0
   36.8538   56.6388   36.4910 C   0  0  0  0  0  0
   36.0173   56.6824   37.6646 C   0  0  0  0  0  0
   34.7891   56.3718   37.2363 N   0  0  0  0  0  0
   34.7188   56.1605   35.9177 C   0  0  0  0  0  0
   38.3183   56.8439   36.4862 C   0  0  0  0  0  0
   39.0363   57.2438   35.3712 C   0  0  0  0  0  0
   40.3864   57.2102   35.5997 N   0  0  0  0  0  0
   39.3158   56.6511   37.5225 C   0  0  0  0  0  0
   40.6010   56.9021   36.9308 C   0  0  0  0  0  0
   41.7973   56.8031   37.6563 C   0  0  0  0  0  0
   41.7027   56.4482   38.9978 C   0  0  0  0  0  0
   40.4779   56.1841   39.5997 C   0  0  0  0  0  0
   39.2909   56.2688   38.8780 C   0  0  0  0  0  0
   36.3951   56.2586   33.9884 C   0  0  0  0  0  0
   35.8511   57.1689   33.0583 C   0  0  0  0  0  0
   36.1354   57.0643   31.7032 C   0  0  0  0  0  0
   37.0392   56.1216   31.2353 C   0  0  0  0  0  0
   37.3367   55.2770   33.5144 C   0  0  0  0  0  0
   37.6917   55.2528   32.1294 C   0  0  0  0  0  0
   38.6948   54.3644   31.6679 C   0  0  0  0  0  0
   39.2976   53.4713   32.5451 C   0  0  0  0  0  0
   38.9291   53.4451   33.8864 C   0  0  0  0  0  0
   37.9631   54.3272   34.3691 C   0  0  0  0  0  0
   36.2995   56.9571   38.8311 O   0  0  0  0  0  0
   33.7123   55.8610   35.2812 O   0  0  0  0  0  0
   34.8329   58.4852   33.5432 Cl  0  0  0  0  0  0
   41.4087   57.4753   34.6018 C   0  0  0  0  0  0
   39.6130   52.4951   34.8512 C   0  0  0  0  0  0
   40.7692   53.1323   35.4626 N   0  0  0  0  0  0
   41.4716   52.4383   36.5329 C   0  0  0  0  0  0
   42.7841   53.0216   36.0371 C   0  0  0  0  0  0
   42.0331   53.2070   34.7281 C   0  0  0  0  0  0
   33.9816   56.3438   37.8440 H   0  0  0  0  0  0
   38.6902   57.4985   34.3815 H   0  0  0  0  0  0
   42.7587   56.9872   37.1962 H   0  0  0  0  0  0
   42.6065   56.3625   39.5856 H   0  0  0  0  0  0
   40.4465   55.8937   40.6401 H   0  0  0  0  0  0
   38.3684   56.0205   39.3790 H   0  0  0  0  0  0
   35.6785   57.7501   31.0022 H   0  0  0  0  0  0
   37.2628   56.0506   30.1851 H   0  0  0  0  0  0
   38.9722   54.3620   30.6232 H   0  0  0  0  0  0
   40.0561   52.7927   32.1751 H   0  0  0  0  0  0
   37.7155   54.2995   35.4183 H   0  0  0  0  0  0
   41.9537   58.3732   34.8735 H   0  0  0  0  0  0
   42.0992   56.6311   34.5628 H   0  0  0  0  0  0
   40.9555   57.6046   33.6179 H   0  0  0  0  0  0
   39.9002   51.5725   34.3429 H   0  0  0  0  0  0
   38.9092   52.2112   35.6359 H   0  0  0  0  0  0
   41.4265   51.3494   36.4371 H   0  0  0  0  0  0
   41.1382   52.7353   37.5304 H   0  0  0  0  0  0
   43.0845   53.9448   36.5334 H   0  0  0  0  0  0
   43.6147   52.3165   35.9984 H   0  0  0  0  0  0
   42.1810   54.1483   34.1986 H   0  0  0  0  0  0
   42.1829   52.3724   34.0347 H   0  0  0  0  0  0
  1  2  2  0  0  0
  1  5  1  0  0  0
  1 15  1  0  0  0
  2  3  1  0  0  0
  2  6  1  0  0  0
  3  4  1  0  0  0
  3 25  2  0  0  0
  4  5  1  0  0  0
  4 34  1  0  0  0
  5 26  2  0  0  0
  6  7  2  0  0  0
  6  9  1  0  0  0
  7  8  1  0  0  0
  7 35  1  0  0  0
  8 10  1  0  0  0
  8 28  1  0  0  0
  9 10  2  0  0  0
  9 14  1  0  0  0
 10 11  1  0  0  0
 11 12  2  0  0  0
 11 36  1  0  0  0
 12 13  1  0  0  0
 12 37  1  0  0  0
 13 14  2  0  0  0
 13 38  1  0  0  0
 14 39  1  0  0  0
 15 16  2  0  0  0
 15 19  1  0  0  0
 16 17  1  0  0  0
 16 27  1  0  0  0
 17 18  2  0  0  0
 17 40  1  0  0  0
 18 20  1  0  0  0
 18 41  1  0  0  0
 19 20  1  0  0  0
 19 24  2  0  0  0
 20 21  2  0  0  0
 21 22  1  0  0  0
 21 42  1  0  0  0
 22 23  2  0  0  0
 22 43  1  0  0  0
 23 24  1  0  0  0
 23 29  1  0  0  0
 24 44  1  0  0  0
 28 45  1  0  0  0
 28 46  1  0  0  0
 28 47  1  0  0  0
 29 30  1  0  0  0
 29 48  1  0  0  0
 29 49  1  0  0  0
 30 31  1  0  0  0
 30 33  1  0  0  0
 31 32  1  0  0  0
 31 50  1  0  0  0
 31 51  1  0  0  0
 32 33  1  0  0  0
 32 52  1  0  0  0
 32 53  1  0  0  0
 33 54  1  0  0  0
 33 55  1  0  0  0
M  END
> <s_m_entry_id>
3312

> <s_m_entry_name>
dock_pv.41

> <s_m_Source_Path>
/home/csk/Desktop/cluster/DUD-E-result/kpcb

> <s_m_Source_File>
dock_pv.maegz

> <i_m_Source_File_Index>
41

> <chembl_id>
CHEMBL4089217

> <chembl_pref_name>
None

> <i_lp_mmshare_version>
53161

> <i_f3d_flags>
0

> <r_lp_tautomer_probability>
1

> <s_lp_Force_Field>
OPLS_2005

> <r_lp_Energy>
42.062077

> <b_lp_Chiralities_Consistent>
1

> <s_lp_Variant>
CHEMBL3045_lig407-1

> <s_i_glide_gridfile>
glide-grid_2i0e

> <i_i_glide_lignum>
573

> <i_i_glide_rotatable_bonds>
4

> <r_i_docking_score>
-8.93180151634335

> <r_i_glide_ligand_efficiency>
-0.270660652010405

> <r_i_glide_ligand_efficiency_sa>
-0.868153332090592

> <r_i_glide_ligand_efficiency_ln>
-1.98638641084156

> <r_i_glide_gscore>
-8.93180151634335

> <r_i_glide_lipo>
-2.84650191649438

> <r_i_glide_hbond>
-0.585916180706839

> <r_i_glide_metal>
0

> <r_i_glide_rewards>
-2.18703649895543

> <r_i_glide_evdw>
-52.9210586547852

> <r_i_glide_ecoul>
-6.24624681472778

> <r_i_glide_erotb>
0.270643034761725

> <r_i_glide_esite>
0

> <r_i_glide_emodel>
-89.4364499861948

> <r_i_glide_energy>
-59.1673054695129

> <r_i_glide_einternal>
3.04409122467041

> <i_i_glide_confnum>
105

> <i_i_glide_posenum>
261

> <r_i_glide_eff_state_penalty>
0

> <s_user_duplicate_titles>
CHEMBL3045_lig407

> <s_m_subgroup_title>
dock_pv

> <s_m_subgroupid>
dock_pv

> <b_m_subgroup_collapsed>
1

$$$$
CHEMBL3045_lig399
                    3D
 Schrodinger Suite 2021-1.
 48 52  0  0  1  0            999 V2000
   36.2364   56.1426   35.4611 C   0  0  0  0  0  0
   36.9682   56.5555   36.5136 C   0  0  0  0  0  0
   36.0748   56.7045   37.6349 C   0  0  0  0  0  0
   34.8720   56.3429   37.1715 N   0  0  0  0  0  0
   34.8768   55.9713   35.8868 C   0  0  0  0  0  0
   38.4219   56.8034   36.5480 C   0  0  0  0  0  0
   39.1615   57.1770   35.4402 C   0  0  0  0  0  0
   40.5035   57.1723   35.7106 N   0  0  0  0  0  0
   39.3842   56.6896   37.6250 C   0  0  0  0  0  0
   40.6802   56.9492   37.0638 C   0  0  0  0  0  0
   41.8504   56.9277   37.8353 C   0  0  0  0  0  0
   41.7153   56.6351   39.1912 C   0  0  0  0  0  0
   40.4778   56.3579   39.7600 C   0  0  0  0  0  0
   39.3148   56.3724   38.9947 C   0  0  0  0  0  0
   36.6923   55.8626   34.0639 C   0  0  0  0  0  0
   36.2411   56.6685   32.9993 C   0  0  0  0  0  0
   36.6730   56.4457   31.6968 C   0  0  0  0  0  0
   37.5958   55.4528   31.4077 C   0  0  0  0  0  0
   37.6626   54.8340   33.7814 C   0  0  0  0  0  0
   38.1156   54.6408   32.4369 C   0  0  0  0  0  0
   39.0833   53.6427   32.1518 C   0  0  0  0  0  0
   39.6055   52.8561   33.1713 C   0  0  0  0  0  0
   39.1892   53.0397   34.4862 C   0  0  0  0  0  0
   38.2243   53.9979   34.7893 C   0  0  0  0  0  0
   39.7892   52.2032   35.5973 C   0  0  0  0  0  0
   41.0562   52.7640   36.0351 N   0  0  0  0  0  0
   36.3004   57.0886   38.7817 O   0  0  0  0  0  0
   33.9076   55.5797   35.2388 O   0  0  0  0  0  0
   35.1666   58.0067   33.2512 Cl  0  0  0  0  0  0
   41.5443   57.4366   34.7306 C   0  0  0  0  0  0
   34.0367   56.3609   37.7403 H   0  0  0  0  0  0
   38.8399   57.3755   34.4282 H   0  0  0  0  0  0
   42.8223   57.1198   37.4041 H   0  0  0  0  0  0
   42.5977   56.6057   39.8143 H   0  0  0  0  0  0
   40.4150   56.1173   40.8122 H   0  0  0  0  0  0
   38.3800   56.1242   39.4706 H   0  0  0  0  0  0
   36.3055   57.0714   30.8967 H   0  0  0  0  0  0
   37.9325   55.2997   30.3915 H   0  0  0  0  0  0
   39.4141   53.4916   31.1328 H   0  0  0  0  0  0
   40.3470   52.1039   32.9373 H   0  0  0  0  0  0
   37.9145   54.1145   35.8165 H   0  0  0  0  0  0
   39.9010   51.1711   35.2675 H   0  0  0  0  0  0
   39.1017   52.1777   36.4369 H   0  0  0  0  0  0
   41.3740   52.2851   36.8652 H   0  0  0  0  0  0
   41.7522   52.5480   35.3322 H   0  0  0  0  0  0
   42.3713   56.7421   34.8826 H   0  0  0  0  0  0
   41.1568   57.2979   33.7204 H   0  0  0  0  0  0
   41.9010   58.4559   34.8430 H   0  0  0  0  0  0
  1  2  2  0  0  0
  1  5  1  0  0  0
  1 15  1  0  0  0
  2  3  1  0  0  0
  2  6  1  0  0  0
  3  4  1  0  0  0
  3 27  2  0  0  0
  4  5  1  0  0  0
  4 31  1  0  0  0
  5 28  2  0  0  0
  6  7  2  0  0  0
  6  9  1  0  0  0
  7  8  1  0  0  0
  7 32  1  0  0  0
  8 10  1  0  0  0
  8 30  1  0  0  0
  9 10  2  0  0  0
  9 14  1  0  0  0
 10 11  1  0  0  0
 11 12  2  0  0  0
 11 33  1  0  0  0
 12 13  1  0  0  0
 12 34  1  0  0  0
 13 14  2  0  0  0
 13 35  1  0  0  0
 14 36  1  0  0  0
 15 16  2  0  0  0
 15 19  1  0  0  0
 16 17  1  0  0  0
 16 29  1  0  0  0
 17 18  2  0  0  0
 17 37  1  0  0  0
 18 20  1  0  0  0
 18 38  1  0  0  0
 19 20  1  0  0  0
 19 24  2  0  0  0
 20 21  2  0  0  0
 21 22  1  0  0  0
 21 39  1  0  0  0
 22 23  2  0  0  0
 22 40  1  0  0  0
 23 24  1  0  0  0
 23 25  1  0  0  0
 24 41  1  0  0  0
 25 26  1  0  0  0
 25 42  1  0  0  0
 25 43  1  0  0  0
 26 44  1  0  0  0
 26 45  1  0  0  0
 30 46  1  0  0  0
 30 47  1  0  0  0
 30 48  1  0  0  0
M  END
> <s_m_entry_id>
3313

> <s_m_entry_name>
dock_pv.42

> <s_m_Source_Path>
/home/csk/Desktop/cluster/DUD-E-result/kpcb

> <s_m_Source_File>
dock_pv.maegz

> <i_m_Source_File_Index>
42

> <chembl_id>
CHEMBL4089665

> <chembl_pref_name>
None

> <i_lp_mmshare_version>
53161

> <i_f3d_flags>
0

> <r_lp_tautomer_probability>
1

> <s_lp_Force_Field>
OPLS_2005

> <r_lp_Energy>
26.903292

> <b_lp_Chiralities_Consistent>
1

> <s_lp_Variant>
CHEMBL3045_lig399-1

> <s_i_glide_gridfile>
glide-grid_2i0e

> <i_i_glide_lignum>
565

> <i_i_glide_rotatable_bonds>
3

> <r_i_docking_score>
-8.9173550636788

> <r_i_glide_ligand_efficiency>
-0.297245168789293

> <r_i_glide_ligand_efficiency_sa>
-0.923609849652707

> <r_i_glide_ligand_efficiency_ln>
-2.02612023283334

> <r_i_glide_gscore>
-8.9173550636788

> <r_i_glide_lipo>
-2.5333279790727

> <r_i_glide_hbond>
-0.533431938848658

> <r_i_glide_metal>
0

> <r_i_glide_rewards>
-2.46237208077616

> <r_i_glide_evdw>
-50.7387962341309

> <r_i_glide_ecoul>
-6.74108743667603

> <r_i_glide_erotb>
0.15987986222667

> <r_i_glide_esite>
0

> <r_i_glide_emodel>
-88.6819563840884

> <r_i_glide_energy>
-57.4798836708069

> <r_i_glide_einternal>
0.843539714813232

> <i_i_glide_confnum>
3

> <i_i_glide_posenum>
1

> <r_i_glide_eff_state_penalty>
0

> <s_user_duplicate_titles>
CHEMBL3045_lig399

> <s_m_subgroup_title>
dock_pv

> <s_m_subgroupid>
dock_pv

> <b_m_subgroup_collapsed>
1

$$$$
CHEMBL3045_lig238
                    3D
 Schrodinger Suite 2021-1.
 36 39  0  0  1  0            999 V2000
   36.4936   55.9974   35.8689 C   0  0  0  0  0  0
   37.2376   56.2167   36.9710 C   0  0  0  0  0  0
   36.9200   55.6065   34.5227 C   0  0  0  0  0  0
   35.1038   56.1256   36.2167 C   0  0  0  0  0  0
   35.1007   56.4379   37.5137 N   0  0  0  0  0  0
   36.3246   56.5082   38.0429 C   0  0  0  0  0  0
   37.9121   54.6875   34.2286 C   0  0  0  0  0  0
   36.4052   56.0626   33.2509 C   0  0  0  0  0  0
   38.0404   54.5574   32.8685 N   0  0  0  0  0  0
   38.5973   56.1704   37.2332 N   0  0  0  0  0  0
   37.1329   55.3747   32.2300 C   0  0  0  0  0  0
   34.1023   55.9770   35.5194 O   0  0  0  0  0  0
   36.5778   56.7720   39.2195 O   0  0  0  0  0  0
   39.7032   56.5086   36.4374 C   0  0  0  0  0  0
   39.6108   57.2809   35.2735 C   0  0  0  0  0  0
   40.7600   57.6063   34.5495 C   0  0  0  0  0  0
   40.6764   58.3595   33.4303 F   0  0  0  0  0  0
   35.4116   56.9800   32.8585 C   0  0  0  0  0  0
   42.1100   56.4077   36.1508 C   0  0  0  0  0  0
   40.9617   56.0836   36.8744 C   0  0  0  0  0  0
   36.8825   55.5717   30.8670 C   0  0  0  0  0  0
   42.0069   57.1703   34.9885 C   0  0  0  0  0  0
   35.1402   57.1495   31.5030 C   0  0  0  0  0  0
   35.8554   56.4517   30.5346 C   0  0  0  0  0  0
   34.2518   56.6037   38.0375 H   0  0  0  0  0  0
   38.5427   54.1063   34.8890 H   0  0  0  0  0  0
   38.7115   53.9315   32.4390 H   0  0  0  0  0  0
   38.8691   55.9126   38.1748 H   0  0  0  0  0  0
   38.6519   57.6308   34.9238 H   0  0  0  0  0  0
   34.8474   57.5316   33.5938 H   0  0  0  0  0  0
   43.0772   56.0713   36.4930 H   0  0  0  0  0  0
   41.0601   55.4940   37.7754 H   0  0  0  0  0  0
   37.4347   55.0437   30.1026 H   0  0  0  0  0  0
   42.8958   57.4295   34.4313 H   0  0  0  0  0  0
   34.3568   57.8313   31.1992 H   0  0  0  0  0  0
   35.6115   56.5961   29.4936 H   0  0  0  0  0  0
  1  2  2  0  0  0
  1  3  1  0  0  0
  1  4  1  0  0  0
  2  6  1  0  0  0
  2 10  1  0  0  0
  3  7  2  0  0  0
  3  8  1  0  0  0
  4  5  1  0  0  0
  4 12  2  0  0  0
  5  6  1  0  0  0
  5 25  1  0  0  0
  6 13  2  0  0  0
  7  9  1  0  0  0
  7 26  1  0  0  0
  8 11  2  0  0  0
  8 18  1  0  0  0
  9 11  1  0  0  0
  9 27  1  0  0  0
 10 14  1  0  0  0
 10 28  1  0  0  0
 11 21  1  0  0  0
 14 15  2  0  0  0
 14 20  1  0  0  0
 15 16  1  0  0  0
 15 29  1  0  0  0
 16 17  1  0  0  0
 16 22  2  0  0  0
 18 23  2  0  0  0
 18 30  1  0  0  0
 19 20  2  0  0  0
 19 22  1  0  0  0
 19 31  1  0  0  0
 20 32  1  0  0  0
 21 24  2  0  0  0
 21 33  1  0  0  0
 22 34  1  0  0  0
 23 24  1  0  0  0
 23 35  1  0  0  0
 24 36  1  0  0  0
M  END
> <s_m_entry_id>
3314

> <s_m_entry_name>
dock_pv.43

> <s_m_Source_Path>
/home/csk/Desktop/cluster/DUD-E-result/kpcb

> <s_m_Source_File>
dock_pv.maegz

> <i_m_Source_File_Index>
43

> <chembl_id>
CHEMBL186981

> <chembl_pref_name>
None

> <i_lp_mmshare_version>
53161

> <i_f3d_flags>
0

> <r_lp_tautomer_probability>
0.999999999997686

> <s_lp_Force_Field>
OPLS_2005

> <r_lp_Energy>
29.104472

> <b_lp_Chiralities_Consistent>
1

> <s_lp_Variant>
CHEMBL3045_lig238-1

> <s_i_glide_gridfile>
glide-grid_2i0e

> <i_i_glide_lignum>
396

> <i_i_glide_rotatable_bonds>
3

> <r_i_docking_score>
-8.88463430046907

> <r_i_glide_ligand_efficiency>
-0.370193095852878

> <r_i_glide_ligand_efficiency_sa>
-1.06782166571797

> <r_i_glide_ligand_efficiency_ln>
-2.12650067740491

> <r_i_glide_gscore>
-8.88463430046907

> <r_i_glide_lipo>
-2.37368151507599

> <r_i_glide_hbond>
-0.608

> <r_i_glide_metal>
0

> <r_i_glide_rewards>
-3.27037330425473

> <r_i_glide_evdw>
-40.6869697570801

> <r_i_glide_ecoul>
-6.52204895019531

> <r_i_glide_erotb>
0.380076349244953

> <r_i_glide_esite>
0

> <r_i_glide_emodel>
-71.1721149914402

> <r_i_glide_energy>
-47.2090187072754

> <r_i_glide_einternal>
3.24078130722046

> <i_i_glide_confnum>
6

> <i_i_glide_posenum>
169

> <r_i_glide_eff_state_penalty>
0

> <s_user_duplicate_titles>
CHEMBL3045_lig238,308964

> <s_m_subgroup_title>
dock_pv

> <s_m_subgroupid>
dock_pv

> <b_m_subgroup_collapsed>
1

$$$$
CHEMBL3045_lig365
                    3D
 Schrodinger Suite 2021-1.
 57 61  0  0  1  0            999 V2000
   36.5411   55.9250   35.8786 C   0  0  0  0  0  0
   37.2648   56.3640   36.9319 C   0  0  0  0  0  0
   36.3430   56.5762   38.0218 C   0  0  0  0  0  0
   35.1289   56.3184   37.5328 N   0  0  0  0  0  0
   35.1532   55.8966   36.2683 C   0  0  0  0  0  0
   38.6148   56.6108   37.1513 N   0  0  0  0  0  0
   39.6586   56.9158   36.2614 C   0  0  0  0  0  0
   36.9564   55.5247   34.5183 C   0  0  0  0  0  0
   37.0444   55.4213   32.2184 C   0  0  0  0  0  0
   36.3253   55.9852   33.3043 C   0  0  0  0  0  0
   35.2377   56.8313   33.0071 C   0  0  0  0  0  0
   34.8456   57.0095   31.6817 C   0  0  0  0  0  0
   35.5416   56.3973   30.6462 C   0  0  0  0  0  0
   36.6704   55.6194   30.8812 C   0  0  0  0  0  0
   37.9917   54.6559   34.1403 C   0  0  0  0  0  0
   38.1005   54.7168   32.7556 N   0  0  0  0  0  0
   39.1286   54.0611   31.9411 C   0  0  0  0  0  0
   40.3473   53.6715   32.8017 C   0  0  1  0  0  0
   39.8189   52.8890   34.0216 C   0  0  0  0  0  0
   38.9631   53.7840   34.9520 C   0  0  0  0  0  0
   36.5817   56.9412   39.1762 O   0  0  0  0  0  0
   34.1669   55.5663   35.6122 O   0  0  0  0  0  0
   40.9661   56.7080   36.7064 C   0  0  0  0  0  0
   42.0419   56.9419   35.8538 C   0  0  0  0  0  0
   41.8124   57.3995   34.5584 C   0  0  0  0  0  0
   40.5161   57.6394   34.1157 C   0  0  0  0  0  0
   39.4444   57.4058   34.9705 C   0  0  0  0  0  0
   41.4225   52.8700   32.0055 C   0  0  0  0  0  0
   41.8302   53.4923   30.7290 N   0  0  0  0  0  0
   41.0120   53.0279   29.6023 C   0  0  0  0  0  0
   43.2162   53.1737   30.3828 C   0  0  0  0  0  0
   34.2737   56.4223   38.0637 H   0  0  0  0  0  0
   38.9294   56.5765   38.1114 H   0  0  0  0  0  0
   34.6856   57.3145   33.7984 H   0  0  0  0  0  0
   33.9887   57.6264   31.4547 H   0  0  0  0  0  0
   35.2056   56.5429   29.6310 H   0  0  0  0  0  0
   37.2156   55.1722   30.0623 H   0  0  0  0  0  0
   39.4203   54.7506   31.1499 H   0  0  0  0  0  0
   38.7017   53.1758   31.4752 H   0  0  0  0  0  0
   40.8279   54.5814   33.1644 H   0  0  0  0  0  0
   40.6606   52.5017   34.5978 H   0  0  0  0  0  0
   39.2843   51.9923   33.6982 H   0  0  0  0  0  0
   38.4158   53.1577   35.6580 H   0  0  0  0  0  0
   39.6342   54.3946   35.5473 H   0  0  0  0  0  0
   41.1484   56.3288   37.6995 H   0  0  0  0  0  0
   43.0528   56.7617   36.1913 H   0  0  0  0  0  0
   42.6445   57.5743   33.8959 H   0  0  0  0  0  0
   40.3381   57.9996   33.1143 H   0  0  0  0  0  0
   38.4474   57.5808   34.6089 H   0  0  0  0  0  0
   41.1214   51.8293   31.8656 H   0  0  0  0  0  0
   42.3000   52.8207   32.6534 H   0  0  0  0  0  0
   41.4015   53.4133   28.6571 H   0  0  0  0  0  0
   40.9940   51.9379   29.5396 H   0  0  0  0  0  0
   39.9809   53.3662   29.6483 H   0  0  0  0  0  0
   43.5517   53.8229   29.5720 H   0  0  0  0  0  0
   43.8917   53.3519   31.2191 H   0  0  0  0  0  0
   43.3374   52.1415   30.0378 H   0  0  0  0  0  0
  1  2  2  0  0  0
  1  5  1  0  0  0
  1  8  1  0  0  0
  2  3  1  0  0  0
  2  6  1  0  0  0
  3  4  1  0  0  0
  3 21  2  0  0  0
  4  5  1  0  0  0
  4 32  1  0  0  0
  5 22  2  0  0  0
  6  7  1  0  0  0
  6 33  1  0  0  0
  7 23  2  0  0  0
  7 27  1  0  0  0
  8 10  1  0  0  0
  8 15  2  0  0  0
  9 16  1  0  0  0
  9 10  2  0  0  0
  9 14  1  0  0  0
 10 11  1  0  0  0
 11 12  2  0  0  0
 11 34  1  0  0  0
 12 13  1  0  0  0
 12 35  1  0  0  0
 13 14  2  0  0  0
 13 36  1  0  0  0
 14 37  1  0  0  0
 15 16  1  0  0  0
 15 20  1  0  0  0
 16 17  1  0  0  0
 17 18  1  0  0  0
 17 38  1  0  0  0
 17 39  1  0  0  0
 18 19  1  0  0  0
 18 28  1  0  0  0
 18 40  1  0  0  0
 19 20  1  0  0  0
 19 41  1  0  0  0
 19 42  1  0  0  0
 20 43  1  0  0  0
 20 44  1  0  0  0
 23 24  1  0  0  0
 23 45  1  0  0  0
 24 25  2  0  0  0
 24 46  1  0  0  0
 25 26  1  0  0  0
 25 47  1  0  0  0
 26 27  2  0  0  0
 26 48  1  0  0  0
 27 49  1  0  0  0
 28 29  1  0  0  0
 28 50  1  0  0  0
 28 51  1  0  0  0
 29 30  1  0  0  0
 29 31  1  0  0  0
 30 52  1  0  0  0
 30 53  1  0  0  0
 30 54  1  0  0  0
 31 55  1  0  0  0
 31 56  1  0  0  0
 31 57  1  0  0  0
M  END
> <s_m_entry_id>
3315

> <s_m_entry_name>
dock_pv.44

> <s_m_Source_Path>
/home/csk/Desktop/cluster/DUD-E-result/kpcb

> <s_m_Source_File>
dock_pv.maegz

> <i_m_Source_File_Index>
44

> <chembl_id>
CHEMBL2236803

> <chembl_pref_name>
None

> <i_lp_mmshare_version>
53161

> <i_f3d_flags>
0

> <r_lp_tautomer_probability>
0.999999999997686

> <s_lp_Force_Field>
OPLS_2005

> <r_lp_Energy>
46.71087

> <b_lp_Chiralities_Consistent>
1

> <s_lp_Variant>
CHEMBL3045_lig365-1

> <s_i_glide_gridfile>
glide-grid_2i0e

> <i_i_glide_lignum>
529

> <i_i_glide_rotatable_bonds>
5

> <r_i_docking_score>
-8.88257086379341

> <r_i_glide_ligand_efficiency>
-0.286534543993336

> <r_i_glide_ligand_efficiency_sa>
-0.900114071712129

> <r_i_glide_ligand_efficiency_ln>
-2.00329194789023

> <r_i_glide_gscore>
-8.88257086379341

> <r_i_glide_lipo>
-2.65063186205469

> <r_i_glide_hbond>
-0.608

> <r_i_glide_metal>
0

> <r_i_glide_rewards>
-2.45425659140599

> <r_i_glide_evdw>
-49.5708236694336

> <r_i_glide_ecoul>
-6.75209712982178

> <r_i_glide_erotb>
0.321673342612222

> <r_i_glide_esite>
0

> <r_i_glide_emodel>
-81.8020560402629

> <r_i_glide_energy>
-56.3229207992554

> <r_i_glide_einternal>
10.9178123474121

> <i_i_glide_confnum>
47

> <i_i_glide_posenum>
376

> <r_i_glide_eff_state_penalty>
0

> <s_user_duplicate_titles>
CHEMBL3045_lig365

> <s_m_subgroup_title>
dock_pv

> <s_m_subgroupid>
dock_pv

> <b_m_subgroup_collapsed>
1

$$$$
CHEMBL3045_lig287
                    3D
 Schrodinger Suite 2021-1.
 54 58  0  0  1  0            999 V2000
   40.8411   55.8351   39.5966 C   0  0  0  0  0  0
   42.0103   56.2766   38.9832 C   0  0  0  0  0  0
   41.9958   56.8763   37.7222 C   0  0  0  0  0  0
   39.6022   55.9717   38.9701 C   0  0  0  0  0  0
   39.5382   56.5758   37.7015 C   0  0  0  0  0  0
   40.7480   57.0202   37.1077 C   0  0  0  0  0  0
   40.3800   57.5719   35.9069 N   0  0  0  0  0  0
   39.0510   57.5722   35.7453 N   0  0  0  0  0  0
   38.5153   56.8938   36.7318 C   0  0  0  0  0  0
   37.0675   56.6026   36.7841 C   0  0  0  0  0  0
   33.5150   55.5355   31.7568 C   0  0  0  0  0  0
   34.3277   55.5724   30.6373 C   0  0  0  0  0  0
   35.7063   55.6668   30.7407 C   0  0  0  0  0  0
   34.0562   55.6248   33.0375 C   0  0  0  0  0  0
   35.4516   55.7800   33.2215 C   0  0  0  0  0  0
   36.2547   55.7676   32.0267 C   0  0  0  0  0  0
   37.5724   55.8732   32.4121 N   0  0  0  0  0  0
   37.6141   55.8410   33.7795 C   0  0  0  0  0  0
   36.3646   55.9762   34.3550 C   0  0  0  0  0  0
   38.7307   55.9634   31.5245 C   0  0  0  0  0  0
   39.5283   54.6524   31.4746 C   0  0  0  0  0  0
   40.5802   54.5193   32.6062 C   0  0  0  0  0  0
   40.8050   53.1598   33.0882 N   0  0  0  0  0  0
   41.3500   52.2902   32.0502 C   0  0  0  0  0  0
   39.6364   52.5688   33.7384 C   0  0  0  0  0  0
   36.1772   56.2298   35.8222 C   0  0  0  0  0  0
   36.3547   56.7711   38.0261 C   0  0  0  0  0  0
   35.1010   56.4390   37.7505 N   0  0  0  0  0  0
   34.8882   56.1814   36.4652 C   0  0  0  0  0  0
   36.7484   57.1507   39.1267 O   0  0  0  0  0  0
   33.7786   55.9723   36.0047 O   0  0  0  0  0  0
   40.8918   55.3735   40.5716 H   0  0  0  0  0  0
   42.9536   56.1468   39.4929 H   0  0  0  0  0  0
   42.9083   57.2159   37.2532 H   0  0  0  0  0  0
   38.7152   55.6063   39.4653 H   0  0  0  0  0  0
   40.9811   58.0041   35.2181 H   0  0  0  0  0  0
   32.4465   55.4333   31.6297 H   0  0  0  0  0  0
   33.8986   55.4948   29.6500 H   0  0  0  0  0  0
   36.3094   55.6389   29.8483 H   0  0  0  0  0  0
   33.3620   55.5713   33.8507 H   0  0  0  0  0  0
   38.5784   55.8052   34.2440 H   0  0  0  0  0  0
   39.3608   56.7915   31.8531 H   0  0  0  0  0  0
   38.3872   56.2411   30.5324 H   0  0  0  0  0  0
   40.0843   54.6501   30.5343 H   0  0  0  0  0  0
   38.8765   53.7851   31.3734 H   0  0  0  0  0  0
   40.3576   55.1531   33.4595 H   0  0  0  0  0  0
   41.5373   54.9010   32.2428 H   0  0  0  0  0  0
   41.5325   51.2862   32.4339 H   0  0  0  0  0  0
   42.3004   52.6840   31.6882 H   0  0  0  0  0  0
   40.6796   52.2050   31.1960 H   0  0  0  0  0  0
   39.9018   51.6301   34.2245 H   0  0  0  0  0  0
   39.2518   53.2337   34.5128 H   0  0  0  0  0  0
   38.8292   52.3578   33.0362 H   0  0  0  0  0  0
   34.3503   56.4884   38.4241 H   0  0  0  0  0  0
  1  2  2  0  0  0
  1  4  1  0  0  0
  1 32  1  0  0  0
  2  3  1  0  0  0
  2 33  1  0  0  0
  3  6  2  0  0  0
  3 34  1  0  0  0
  4  5  2  0  0  0
  4 35  1  0  0  0
  5  9  1  0  0  0
  5  6  1  0  0  0
  6  7  1  0  0  0
  7  8  1  0  0  0
  7 36  1  0  0  0
  8  9  2  0  0  0
  9 10  1  0  0  0
 10 26  2  0  0  0
 10 27  1  0  0  0
 11 12  2  0  0  0
 11 14  1  0  0  0
 11 37  1  0  0  0
 12 13  1  0  0  0
 12 38  1  0  0  0
 13 16  2  0  0  0
 13 39  1  0  0  0
 14 15  2  0  0  0
 14 40  1  0  0  0
 15 16  1  0  0  0
 15 19  1  0  0  0
 16 17  1  0  0  0
 17 18  1  0  0  0
 17 20  1  0  0  0
 18 19  2  0  0  0
 18 41  1  0  0  0
 19 26  1  0  0  0
 20 21  1  0  0  0
 20 42  1  0  0  0
 20 43  1  0  0  0
 21 22  1  0  0  0
 21 44  1  0  0  0
 21 45  1  0  0  0
 22 23  1  0  0  0
 22 46  1  0  0  0
 22 47  1  0  0  0
 23 24  1  0  0  0
 23 25  1  0  0  0
 24 48  1  0  0  0
 24 49  1  0  0  0
 24 50  1  0  0  0
 25 51  1  0  0  0
 25 52  1  0  0  0
 25 53  1  0  0  0
 26 29  1  0  0  0
 27 28  1  0  0  0
 27 30  2  0  0  0
 28 29  1  0  0  0
 28 54  1  0  0  0
 29 31  2  0  0  0
M  END
> <s_m_entry_id>
3316

> <s_m_entry_name>
dock_pv.45

> <s_m_Source_Path>
/home/csk/Desktop/cluster/DUD-E-result/kpcb

> <s_m_Source_File>
dock_pv.maegz

> <i_m_Source_File_Index>
45

> <chembl_id>
CHEMBL585281

> <chembl_pref_name>
None

> <i_lp_mmshare_version>
53161

> <i_f3d_flags>
0

> <r_lp_tautomer_probability>
1

> <s_lp_Force_Field>
OPLS_2005

> <r_lp_Energy>
28.177007

> <b_lp_Chiralities_Consistent>
1

> <s_lp_Variant>
CHEMBL3045_lig287-1

> <s_i_glide_gridfile>
glide-grid_2i0e

> <i_i_glide_lignum>
447

> <i_i_glide_rotatable_bonds>
6

> <r_i_docking_score>
-8.88105618133793

> <r_i_glide_ligand_efficiency>
-0.286485683268966

> <r_i_glide_ligand_efficiency_sa>
-0.899960581578106

> <r_i_glide_ligand_efficiency_ln>
-2.00295034057708

> <r_i_glide_gscore>
-8.88105618133793

> <r_i_glide_lipo>
-2.76689435706659

> <r_i_glide_hbond>
-0.597692980565155

> <r_i_glide_metal>
0

> <r_i_glide_rewards>
-2.61068109737753

> <r_i_glide_evdw>
-51.4085578918457

> <r_i_glide_ecoul>
-4.92838621139526

> <r_i_glide_erotb>
0.403898079972913

> <r_i_glide_esite>
0

> <r_i_glide_emodel>
-84.4736580380949

> <r_i_glide_energy>
-56.336944103241

> <r_i_glide_einternal>
6.56172227859497

> <i_i_glide_confnum>
233

> <i_i_glide_posenum>
367

> <r_i_glide_eff_state_penalty>
0

> <s_user_duplicate_titles>
CHEMBL3045_lig287

> <s_m_subgroup_title>
dock_pv

> <s_m_subgroupid>
dock_pv

> <b_m_subgroup_collapsed>
1

$$$$
CHEMBL3045_lig281
                    3D
 Schrodinger Suite 2021-1.
 57 62  0  0  1  0            999 V2000
   40.6872   57.6494   34.2100 C   0  0  0  0  0  0
   41.9028   57.5033   34.8648 C   0  0  0  0  0  0
   41.9795   57.1677   36.2167 C   0  0  0  0  0  0
   39.4865   57.4371   34.8818 C   0  0  0  0  0  0
   39.5014   57.0470   36.2349 C   0  0  0  0  0  0
   40.7713   56.9462   36.8850 C   0  0  0  0  0  0
   40.5232   56.6014   38.1948 N   0  0  0  0  0  0
   39.1762   56.4556   38.3917 C   0  0  0  0  0  0
   38.4906   56.6841   37.2068 C   0  0  0  0  0  0
   37.0410   56.4979   37.0239 C   0  0  0  0  0  0
   36.8925   55.5258   34.6837 C   0  0  0  0  0  0
   36.3468   56.0826   35.9474 C   0  0  0  0  0  0
   36.1001   56.7375   38.0809 C   0  0  0  0  0  0
   34.9131   56.3810   37.5823 N   0  0  0  0  0  0
   34.9607   55.9901   36.3072 C   0  0  0  0  0  0
   36.3011   57.1647   39.2159 O   0  0  0  0  0  0
   33.9977   55.6591   35.6193 O   0  0  0  0  0  0
   37.9062   54.5746   34.8075 C   0  0  0  0  0  0
   38.5482   53.9850   33.7182 C   0  0  0  0  0  0
   38.1039   54.3347   32.4414 C   0  0  0  0  0  0
   36.4581   55.9055   33.3733 C   0  0  0  0  0  0
   37.0628   55.2699   32.2445 C   0  0  0  0  0  0
   36.6138   55.5826   30.9390 C   0  0  0  0  0  0
   35.5996   56.5133   30.7500 C   0  0  0  0  0  0
   35.0354   57.1726   31.8344 C   0  0  0  0  0  0
   35.4570   56.8896   33.1296 C   0  0  0  0  0  0
   39.5376   53.0139   33.9029 N   0  0  0  0  0  0
   40.0482   52.6215   35.2347 C   0  0  0  0  0  0
   41.3042   53.4192   35.6561 C   0  0  0  0  0  0
   42.3723   53.1721   34.6874 N   0  0  0  0  0  0
   41.9300   53.6036   33.3585 C   0  0  0  0  0  0
   40.6508   52.8310   32.9403 C   0  0  0  0  0  0
   43.6119   53.8373   35.0774 C   0  0  0  0  0  0
   40.6735   57.9251   33.1646 H   0  0  0  0  0  0
   42.8182   57.6783   34.3174 H   0  0  0  0  0  0
   42.9369   57.0764   36.7098 H   0  0  0  0  0  0
   38.5512   57.5591   34.3583 H   0  0  0  0  0  0
   41.2019   56.4438   38.9243 H   0  0  0  0  0  0
   38.8125   56.1522   39.3661 H   0  0  0  0  0  0
   34.0509   56.4592   38.1057 H   0  0  0  0  0  0
   38.2041   54.3186   35.8091 H   0  0  0  0  0  0
   38.5280   53.8725   31.5655 H   0  0  0  0  0  0
   37.0600   55.0913   30.0850 H   0  0  0  0  0  0
   35.2594   56.7316   29.7495 H   0  0  0  0  0  0
   34.2589   57.9051   31.6696 H   0  0  0  0  0  0
   35.0038   57.4181   33.9538 H   0  0  0  0  0  0
   39.2886   52.6625   36.0123 H   0  0  0  0  0  0
   40.3008   51.5694   35.2029 H   0  0  0  0  0  0
   41.0745   54.4837   35.7260 H   0  0  0  0  0  0
   41.6269   53.0924   36.6479 H   0  0  0  0  0  0
   42.7235   53.4044   32.6342 H   0  0  0  0  0  0
   41.7453   54.6809   33.3436 H   0  0  0  0  0  0
   40.8746   51.7685   32.8466 H   0  0  0  0  0  0
   40.3883   53.1402   31.9319 H   0  0  0  0  0  0
   44.3999   53.6404   34.3467 H   0  0  0  0  0  0
   43.4856   54.9188   35.1679 H   0  0  0  0  0  0
   43.9612   53.4501   36.0366 H   0  0  0  0  0  0
  1  4  1  0  0  0
  1  2  2  0  0  0
  1 34  1  0  0  0
  2  3  1  0  0  0
  2 35  1  0  0  0
  3  6  2  0  0  0
  3 36  1  0  0  0
  4  5  2  0  0  0
  4 37  1  0  0  0
  5  9  1  0  0  0
  5  6  1  0  0  0
  6  7  1  0  0  0
  7  8  1  0  0  0
  7 38  1  0  0  0
  8  9  2  0  0  0
  8 39  1  0  0  0
  9 10  1  0  0  0
 10 12  2  0  0  0
 10 13  1  0  0  0
 11 18  2  0  0  0
 11 21  1  0  0  0
 11 12  1  0  0  0
 12 15  1  0  0  0
 13 16  2  0  0  0
 13 14  1  0  0  0
 14 15  1  0  0  0
 14 40  1  0  0  0
 15 17  2  0  0  0
 18 19  1  0  0  0
 18 41  1  0  0  0
 19 20  2  0  0  0
 19 27  1  0  0  0
 20 22  1  0  0  0
 20 42  1  0  0  0
 21 22  1  0  0  0
 21 26  2  0  0  0
 22 23  2  0  0  0
 23 24  1  0  0  0
 23 43  1  0  0  0
 24 25  2  0  0  0
 24 44  1  0  0  0
 25 26  1  0  0  0
 25 45  1  0  0  0
 26 46  1  0  0  0
 27 28  1  0  0  0
 27 32  1  0  0  0
 28 29  1  0  0  0
 28 47  1  0  0  0
 28 48  1  0  0  0
 29 30  1  0  0  0
 29 49  1  0  0  0
 29 50  1  0  0  0
 30 31  1  0  0  0
 30 33  1  0  0  0
 31 32  1  0  0  0
 31 51  1  0  0  0
 31 52  1  0  0  0
 32 53  1  0  0  0
 32 54  1  0  0  0
 33 55  1  0  0  0
 33 56  1  0  0  0
 33 57  1  0  0  0
M  END
> <s_m_entry_id>
3317

> <s_m_entry_name>
dock_pv.46

> <s_m_Source_Path>
/home/csk/Desktop/cluster/DUD-E-result/kpcb

> <s_m_Source_File>
dock_pv.maegz

> <i_m_Source_File_Index>
46

> <chembl_id>
CHEMBL568580

> <chembl_pref_name>
None

> <i_lp_mmshare_version>
53161

> <i_f3d_flags>
0

> <r_lp_tautomer_probability>
1

> <s_lp_Force_Field>
OPLS_2005

> <r_lp_Energy>
57.532955

> <b_lp_Chiralities_Consistent>
1

> <s_lp_Variant>
CHEMBL3045_lig281-1

> <s_i_glide_gridfile>
glide-grid_2i0e

> <i_i_glide_lignum>
441

> <i_i_glide_rotatable_bonds>
3

> <r_i_docking_score>
-8.87947147452312

> <r_i_glide_ligand_efficiency>
-0.269074893167367

> <r_i_glide_ligand_efficiency_sa>
-0.863066956168383

> <r_i_glide_ligand_efficiency_ln>
-1.9747484804912

> <r_i_glide_gscore>
-8.87947147452312

> <r_i_glide_lipo>
-2.98863428408115

> <r_i_glide_hbond>
-0.608

> <r_i_glide_metal>
0

> <r_i_glide_rewards>
-2.24713815736662

> <r_i_glide_evdw>
-50.3167610168457

> <r_i_glide_ecoul>
-4.87899255752563

> <r_i_glide_erotb>
0.219696062990138

> <r_i_glide_esite>
-0.00770816159435491

> <r_i_glide_emodel>
-83.1789339576337

> <r_i_glide_energy>
-55.1957535743713

> <r_i_glide_einternal>
1.28579699993134

> <i_i_glide_confnum>
83

> <i_i_glide_posenum>
348

> <r_i_glide_eff_state_penalty>
0

> <s_user_duplicate_titles>
CHEMBL3045_lig281

> <s_m_subgroup_title>
dock_pv

> <s_m_subgroupid>
dock_pv

> <b_m_subgroup_collapsed>
1

$$$$
CHEMBL3045_lig26
                    3D
 Schrodinger Suite 2021-1.
 47 50  0  0  1  0            999 V2000
   36.4960   56.1695   35.4517 C   0  0  0  0  0  0
   36.8098   55.8506   34.0429 C   0  0  0  0  0  0
   37.3027   56.5827   36.4598 C   0  0  0  0  0  0
   35.1724   55.9892   35.9887 C   0  0  0  0  0  0
   36.4725   56.7623   37.6322 C   0  0  0  0  0  0
   35.2510   56.3713   37.2623 N   0  0  0  0  0  0
   38.0048   55.3149   33.5906 C   0  0  0  0  0  0
   38.0172   55.1413   32.2236 N   0  0  0  0  0  0
   36.7920   55.5675   31.7416 C   0  0  0  0  0  0
   36.0007   55.9919   32.8524 C   0  0  0  0  0  0
   38.7822   56.8770   36.3965 C   0  0  0  0  0  0
   36.4014   55.5720   30.4576 N   0  0  0  0  0  0
   36.7507   57.1869   38.7532 O   0  0  0  0  0  0
   34.1548   55.5729   35.4423 O   0  0  0  0  0  0
   39.6894   56.5105   37.4214 C   0  0  0  0  0  0
   39.1311   54.6577   31.3959 C   0  0  0  0  0  0
   34.7010   56.4386   32.5571 C   0  0  0  0  0  0
   39.1850   55.9725   38.5891 O   0  0  0  0  0  0
   40.2238   53.8496   32.1496 C   0  0  0  0  0  0
   39.3113   57.4556   35.2313 C   0  0  0  0  0  0
   38.7004   51.9721   32.4371 O   0  0  0  0  0  0
   35.1271   55.9774   30.2373 C   0  0  0  0  0  0
   39.7666   52.6692   33.0388 C   0  0  0  0  0  0
   41.0731   56.6711   37.2129 C   0  0  0  0  0  0
   40.0692   55.5685   39.6295 C   0  0  0  0  0  0
   34.2602   56.4177   31.2326 C   0  0  0  0  0  0
   40.6815   57.5737   35.0238 C   0  0  0  0  0  0
   41.5666   57.1720   36.0144 C   0  0  0  0  0  0
   34.4545   56.3819   37.8821 H   0  0  0  0  0  0
   38.8838   55.0593   34.1624 H   0  0  0  0  0  0
   38.7011   54.0311   30.6118 H   0  0  0  0  0  0
   39.5743   55.5229   30.8999 H   0  0  0  0  0  0
   34.0428   56.7722   33.3382 H   0  0  0  0  0  0
   40.9059   53.4521   31.3968 H   0  0  0  0  0  0
   40.8400   54.5223   32.7471 H   0  0  0  0  0  0
   38.6571   57.7737   34.4363 H   0  0  0  0  0  0
   39.0605   51.4173   31.7288 H   0  0  0  0  0  0
   34.7961   55.9448   29.2095 H   0  0  0  0  0  0
   40.5897   51.9719   33.1987 H   0  0  0  0  0  0
   39.4162   53.0012   34.0162 H   0  0  0  0  0  0
   41.7920   56.3862   37.9648 H   0  0  0  0  0  0
   39.4984   55.1166   40.4372 H   0  0  0  0  0  0
   40.7799   54.8151   39.2836 H   0  0  0  0  0  0
   40.6139   56.4183   40.0426 H   0  0  0  0  0  0
   33.2586   56.7354   30.9803 H   0  0  0  0  0  0
   41.0573   57.9816   34.0978 H   0  0  0  0  0  0
   42.6318   57.2698   35.8610 H   0  0  0  0  0  0
  1  2  1  0  0  0
  1  3  2  0  0  0
  1  4  1  0  0  0
  2  7  2  0  0  0
  2 10  1  0  0  0
  3  5  1  0  0  0
  3 11  1  0  0  0
  4  6  1  0  0  0
  4 14  2  0  0  0
  5 13  2  0  0  0
  5  6  1  0  0  0
  6 29  1  0  0  0
  7  8  1  0  0  0
  7 30  1  0  0  0
  8 16  1  0  0  0
  8  9  1  0  0  0
  9 10  2  0  0  0
  9 12  1  0  0  0
 10 17  1  0  0  0
 11 15  1  0  0  0
 11 20  2  0  0  0
 12 22  2  0  0  0
 15 18  1  0  0  0
 15 24  2  0  0  0
 16 19  1  0  0  0
 16 31  1  0  0  0
 16 32  1  0  0  0
 17 26  2  0  0  0
 17 33  1  0  0  0
 18 25  1  0  0  0
 19 23  1  0  0  0
 19 34  1  0  0  0
 19 35  1  0  0  0
 20 27  1  0  0  0
 20 36  1  0  0  0
 21 23  1  0  0  0
 21 37  1  0  0  0
 22 26  1  0  0  0
 22 38  1  0  0  0
 23 39  1  0  0  0
 23 40  1  0  0  0
 24 28  1  0  0  0
 24 41  1  0  0  0
 25 42  1  0  0  0
 25 43  1  0  0  0
 25 44  1  0  0  0
 26 45  1  0  0  0
 27 28  2  0  0  0
 27 46  1  0  0  0
 28 47  1  0  0  0
M  END
> <s_m_entry_id>
3318

> <s_m_entry_name>
dock_pv.47

> <s_m_Source_Path>
/home/csk/Desktop/cluster/DUD-E-result/kpcb

> <s_m_Source_File>
dock_pv.maegz

> <i_m_Source_File_Index>
47

> <chembl_id>
CHEMBL111298

> <chembl_pref_name>
None

> <i_lp_mmshare_version>
53161

> <i_f3d_flags>
0

> <r_lp_tautomer_probability>
1

> <s_lp_Force_Field>
OPLS_2005

> <r_lp_Energy>
28.839591

> <b_lp_Chiralities_Consistent>
1

> <s_lp_Variant>
CHEMBL3045_lig26-1

> <s_i_glide_gridfile>
glide-grid_2i0e

> <i_i_glide_lignum>
28

> <i_i_glide_rotatable_bonds>
7

> <r_i_docking_score>
-8.87931018539624

> <r_i_glide_ligand_efficiency>
-0.317118220907009

> <r_i_glide_ligand_efficiency_sa>
-0.962957691317462

> <r_i_glide_ligand_efficiency_ln>
-2.04960549866496

> <r_i_glide_gscore>
-8.87931018539624

> <r_i_glide_lipo>
-2.17816630004361

> <r_i_glide_hbond>
-0.515384824624862

> <r_i_glide_metal>
0

> <r_i_glide_rewards>
-3.01096131223374

> <r_i_glide_evdw>
-46.5008659362793

> <r_i_glide_ecoul>
-8.83804702758789

> <r_i_glide_erotb>
0.475952602458116

> <r_i_glide_esite>
0

> <r_i_glide_emodel>
-83.359663669073

> <r_i_glide_energy>
-55.3389129638672

> <r_i_glide_einternal>
4.20616817474365

> <i_i_glide_confnum>
64

> <i_i_glide_posenum>
384

> <r_i_glide_eff_state_penalty>
0

> <s_user_duplicate_titles>
CHEMBL3045_lig26

> <s_m_subgroup_title>
dock_pv

> <s_m_subgroupid>
dock_pv

> <b_m_subgroup_collapsed>
1

$$$$
CHEMBL3045_lig337
                    3D
 Schrodinger Suite 2021-1.
 58 63  0  0  1  0            999 V2000
   35.3532   56.7403   37.5506 N   0  0  0  0  0  0
   36.5684   56.8410   38.0941 C   0  0  0  0  0  0
   37.4862   56.4935   37.0440 C   0  0  0  0  0  0
   36.7614   56.0954   35.9843 C   0  0  0  0  0  0
   35.3662   56.2268   36.3179 C   0  0  0  0  0  0
   36.7960   57.1703   39.2529 O   0  0  0  0  0  0
   34.3748   55.9486   35.6458 O   0  0  0  0  0  0
   37.8854   55.0170   32.0242 N   0  0  0  0  0  0
   36.9942   55.9754   32.3749 C   0  0  0  0  0  0
   36.6737   56.3193   33.6446 N   0  0  0  0  0  0
   37.2283   55.6159   34.6534 C   0  0  0  0  0  0
   38.2043   54.6007   34.4085 C   0  0  0  0  0  0
   38.8928   53.8625   35.4001 C   0  0  0  0  0  0
   39.9068   52.9743   35.0463 C   0  0  0  0  0  0
   40.2199   52.7719   33.7030 C   0  0  0  0  0  0
   39.5196   53.4255   32.6962 C   0  0  0  0  0  0
   38.5135   54.3553   33.0324 C   0  0  0  0  0  0
   36.4032   56.7164   31.3583 N   0  0  0  0  0  0
   35.4882   57.8272   31.6592 C   0  0  0  0  0  0
   34.0333   57.3499   31.8313 C   0  0  0  0  0  0
   33.5739   56.6546   30.6349 N   0  0  0  0  0  0
   34.4733   55.5529   30.3063 C   0  0  0  0  0  0
   35.9184   56.0549   30.1331 C   0  0  0  0  0  0
   32.2324   56.1373   30.8408 C   0  0  0  0  0  0
   40.6957   52.2567   36.1258 C   0  0  0  0  0  0
   41.0004   56.2982   38.0910 N   0  0  0  0  0  0
   39.6535   56.2719   38.3511 C   0  0  0  0  0  0
   38.9445   56.5817   37.1992 C   0  0  0  0  0  0
   39.9367   56.9186   36.2014 C   0  0  0  0  0  0
   39.8910   57.3873   34.8751 C   0  0  0  0  0  0
   41.0731   57.4956   34.1446 C   0  0  0  0  0  0
   42.2996   57.1747   34.7187 C   0  0  0  0  0  0
   42.4094   56.7779   36.0526 C   0  0  0  0  0  0
   41.2196   56.6596   36.7798 C   0  0  0  0  0  0
   34.5003   56.9465   38.0493 H   0  0  0  0  0  0
   38.6537   54.0222   36.4367 H   0  0  0  0  0  0
   41.0070   52.0834   33.4276 H   0  0  0  0  0  0
   39.7616   53.2453   31.6588 H   0  0  0  0  0  0
   35.8134   58.3839   32.5374 H   0  0  0  0  0  0
   35.5743   58.5195   30.8379 H   0  0  0  0  0  0
   33.9523   56.7050   32.7110 H   0  0  0  0  0  0
   33.4007   58.2207   32.0031 H   0  0  0  0  0  0
   34.1451   55.1221   29.3607 H   0  0  0  0  0  0
   34.4316   54.7728   31.0673 H   0  0  0  0  0  0
   35.9048   56.7700   29.3164 H   0  0  0  0  0  0
   36.5742   55.2421   29.8229 H   0  0  0  0  0  0
   31.9074   55.5884   29.9591 H   0  0  0  0  0  0
   32.1852   55.4507   31.6849 H   0  0  0  0  0  0
   31.5244   56.9495   31.0120 H   0  0  0  0  0  0
   41.7482   52.1798   35.8511 H   0  0  0  0  0  0
   40.3101   51.2468   36.2654 H   0  0  0  0  0  0
   40.6699   52.7932   37.0749 H   0  0  0  0  0  0
   41.6967   56.0532   38.7812 H   0  0  0  0  0  0
   39.3026   55.9695   39.3298 H   0  0  0  0  0  0
   38.9507   57.6305   34.4080 H   0  0  0  0  0  0
   41.0377   57.8217   33.1136 H   0  0  0  0  0  0
   43.1979   57.2696   34.1236 H   0  0  0  0  0  0
   43.3748   56.5637   36.4896 H   0  0  0  0  0  0
  1  2  1  0  0  0
  1  5  1  0  0  0
  1 35  1  0  0  0
  2  3  1  0  0  0
  2  6  2  0  0  0
  3  4  2  0  0  0
  3 28  1  0  0  0
  4  5  1  0  0  0
  4 11  1  0  0  0
  5  7  2  0  0  0
  8  9  1  0  0  0
  8 17  2  0  0  0
  9 10  2  0  0  0
  9 18  1  0  0  0
 10 11  1  0  0  0
 11 12  2  0  0  0
 12 13  1  0  0  0
 12 17  1  0  0  0
 13 14  2  0  0  0
 13 36  1  0  0  0
 14 15  1  0  0  0
 14 25  1  0  0  0
 15 16  2  0  0  0
 15 37  1  0  0  0
 16 17  1  0  0  0
 16 38  1  0  0  0
 18 19  1  0  0  0
 18 23  1  0  0  0
 19 20  1  0  0  0
 19 39  1  0  0  0
 19 40  1  0  0  0
 20 21  1  0  0  0
 20 41  1  0  0  0
 20 42  1  0  0  0
 21 22  1  0  0  0
 21 24  1  0  0  0
 22 23  1  0  0  0
 22 43  1  0  0  0
 22 44  1  0  0  0
 23 45  1  0  0  0
 23 46  1  0  0  0
 24 47  1  0  0  0
 24 48  1  0  0  0
 24 49  1  0  0  0
 25 50  1  0  0  0
 25 51  1  0  0  0
 25 52  1  0  0  0
 26 27  1  0  0  0
 26 34  1  0  0  0
 26 53  1  0  0  0
 27 28  2  0  0  0
 27 54  1  0  0  0
 28 29  1  0  0  0
 29 30  1  0  0  0
 29 34  2  0  0  0
 30 31  2  0  0  0
 30 55  1  0  0  0
 31 32  1  0  0  0
 31 56  1  0  0  0
 32 33  2  0  0  0
 32 57  1  0  0  0
 33 34  1  0  0  0
 33 58  1  0  0  0
M  END
> <s_m_entry_id>
3319

> <s_m_entry_name>
dock_pv.48

> <s_m_Source_Path>
/home/csk/Desktop/cluster/DUD-E-result/kpcb

> <s_m_Source_File>
dock_pv.maegz

> <i_m_Source_File_Index>
48

> <chembl_id>
CHEMBL2153752

> <chembl_pref_name>
None

> <i_lp_mmshare_version>
53161

> <i_f3d_flags>
0

> <r_lp_tautomer_probability>
1

> <s_lp_Force_Field>
OPLS_2005

> <r_lp_Energy>
41.785635

> <b_lp_Chiralities_Consistent>
1

> <s_lp_Variant>
CHEMBL3045_lig337-1

> <s_i_glide_gridfile>
glide-grid_2i0e

> <i_i_glide_lignum>
501

> <i_i_glide_rotatable_bonds>
3

> <r_i_docking_score>
-8.87825099862334

> <r_i_glide_ligand_efficiency>
-0.261125029371275

> <r_i_glide_ligand_efficiency_sa>
-0.845943725765744

> <r_i_glide_ligand_efficiency_ln>
-1.96145467210132

> <r_i_glide_gscore>
-8.87825099862334

> <r_i_glide_lipo>
-2.54953443824583

> <r_i_glide_hbond>
-0.608

> <r_i_glide_metal>
0

> <r_i_glide_rewards>
-2.51849789876138

> <r_i_glide_evdw>
-53.5072441101074

> <r_i_glide_ecoul>
-4.88429927825928

> <r_i_glide_erotb>
0.205788435628134

> <r_i_glide_esite>
0

> <r_i_glide_emodel>
-83.4236898021985

> <r_i_glide_energy>
-58.3915433883667

> <r_i_glide_einternal>
3.29631900787354

> <i_i_glide_confnum>
36

> <i_i_glide_posenum>
57

> <r_i_glide_eff_state_penalty>
0

> <s_user_duplicate_titles>
CHEMBL3045_lig337

> <s_m_subgroup_title>
dock_pv

> <s_m_subgroupid>
dock_pv

> <b_m_subgroup_collapsed>
1

$$$$
CHEMBL3045_lig212
                    3D
 Schrodinger Suite 2021-1.
 61 66  0  0  1  0            999 V2000
   37.1838   56.5358   36.9182 C   0  0  0  0  0  0
   36.3929   56.1654   35.8954 C   0  0  0  0  0  0
   38.6437   56.7294   36.9215 C   0  0  0  0  0  0
   36.7845   55.7832   34.5387 C   0  0  0  0  0  0
   39.2682   57.1875   35.8614 N   0  0  0  0  0  0
   36.3444   56.7720   38.0595 C   0  0  0  0  0  0
   38.0250   54.8074   32.8886 N   0  0  0  0  0  0
   35.0303   56.1669   36.3467 C   0  0  0  0  0  0
   35.1008   56.5125   37.6367 N   0  0  0  0  0  0
   37.8629   54.9797   34.2453 C   0  0  0  0  0  0
   40.5891   57.1711   36.1080 N   0  0  0  0  0  0
   39.5968   56.4588   37.9674 C   0  0  0  0  0  0
   36.1929   56.1135   33.2719 C   0  0  0  0  0  0
   36.9765   55.4728   32.2541 C   0  0  0  0  0  0
   39.0993   54.1198   32.3559 C   0  0  0  0  0  0
   40.8630   56.7625   37.3992 C   0  0  0  0  0  0
   39.9511   52.8576   33.2071 S   0  0  0  0  0  0
   36.6491   57.1622   39.1863 O   0  0  0  0  0  0
   34.0011   55.9170   35.7230 O   0  0  0  0  0  0
   39.6912   54.3805   31.1201 C   0  0  0  0  0  0
   41.1008   52.7323   31.9222 C   0  0  0  0  0  0
   40.8037   53.5741   30.8627 C   0  0  0  0  0  0
   41.5198   57.4896   35.0334 C   0  0  0  0  0  0
   41.4618   56.4113   33.9274 C   0  0  0  0  0  0
   43.9124   56.4315   33.3582 N   0  0  0  0  0  0
   39.5535   55.9736   39.2836 C   0  0  0  0  0  0
   36.6326   55.5717   30.8953 C   0  0  0  0  0  0
   35.0875   56.8904   32.8845 C   0  0  0  0  0  0
   42.0649   56.6135   38.1062 C   0  0  0  0  0  0
   42.5445   56.5675   32.8454 C   0  0  0  0  0  0
   44.2046   55.0594   33.7726 C   0  0  0  0  0  0
   44.8735   56.8350   32.3352 C   0  0  0  0  0  0
   40.7445   55.8302   39.9947 C   0  0  0  0  0  0
   35.4973   56.3118   30.5708 C   0  0  0  0  0  0
   34.7472   56.9700   31.5379 C   0  0  0  0  0  0
   41.9714   56.1435   39.4174 C   0  0  0  0  0  0
   34.2735   56.6170   38.2143 H   0  0  0  0  0  0
   38.5713   54.5389   34.9326 H   0  0  0  0  0  0
   39.3550   55.1373   30.4291 H   0  0  0  0  0  0
   41.9004   52.0085   31.9912 H   0  0  0  0  0  0
   41.3875   53.6232   29.9573 H   0  0  0  0  0  0
   42.5246   57.5663   35.4506 H   0  0  0  0  0  0
   41.2785   58.4747   34.6292 H   0  0  0  0  0  0
   40.4934   56.4701   33.4335 H   0  0  0  0  0  0
   41.4986   55.4087   34.3576 H   0  0  0  0  0  0
   38.6162   55.7006   39.7425 H   0  0  0  0  0  0
   37.1913   55.0699   30.1165 H   0  0  0  0  0  0
   34.4916   57.3977   33.6264 H   0  0  0  0  0  0
   43.0239   56.8398   37.6621 H   0  0  0  0  0  0
   42.4373   57.5727   32.4377 H   0  0  0  0  0  0
   42.3704   55.8706   32.0221 H   0  0  0  0  0  0
   43.5709   54.7446   34.6009 H   0  0  0  0  0  0
   45.2328   54.9676   34.1253 H   0  0  0  0  0  0
   44.0651   54.3503   32.9529 H   0  0  0  0  0  0
   44.7143   57.8765   32.0474 H   0  0  0  0  0  0
   45.8946   56.7547   32.7098 H   0  0  0  0  0  0
   44.7893   56.2167   31.4404 H   0  0  0  0  0  0
   40.7110   55.4641   41.0129 H   0  0  0  0  0  0
   35.1871   56.3714   29.5371 H   0  0  0  0  0  0
   33.8782   57.5412   31.2432 H   0  0  0  0  0  0
   42.8771   56.0091   39.9924 H   0  0  0  0  0  0
  1  2  2  0  0  0
  1  3  1  0  0  0
  1  6  1  0  0  0
  2  4  1  0  0  0
  2  8  1  0  0  0
  3  5  2  0  0  0
  3 12  1  0  0  0
  4 10  2  0  0  0
  4 13  1  0  0  0
  5 11  1  0  0  0
  6  9  1  0  0  0
  6 18  2  0  0  0
  7 10  1  0  0  0
  7 15  1  0  0  0
  7 14  1  0  0  0
  8 19  2  0  0  0
  8  9  1  0  0  0
  9 37  1  0  0  0
 10 38  1  0  0  0
 11 23  1  0  0  0
 11 16  1  0  0  0
 12 16  2  0  0  0
 12 26  1  0  0  0
 13 14  2  0  0  0
 13 28  1  0  0  0
 14 27  1  0  0  0
 15 17  1  0  0  0
 15 20  2  0  0  0
 16 29  1  0  0  0
 17 21  1  0  0  0
 20 22  1  0  0  0
 20 39  1  0  0  0
 21 22  2  0  0  0
 21 40  1  0  0  0
 22 41  1  0  0  0
 23 24  1  0  0  0
 23 42  1  0  0  0
 23 43  1  0  0  0
 24 30  1  0  0  0
 24 44  1  0  0  0
 24 45  1  0  0  0
 25 30  1  0  0  0
 25 31  1  0  0  0
 25 32  1  0  0  0
 26 33  2  0  0  0
 26 46  1  0  0  0
 27 34  2  0  0  0
 27 47  1  0  0  0
 28 35  2  0  0  0
 28 48  1  0  0  0
 29 36  2  0  0  0
 29 49  1  0  0  0
 30 50  1  0  0  0
 30 51  1  0  0  0
 31 52  1  0  0  0
 31 53  1  0  0  0
 31 54  1  0  0  0
 32 55  1  0  0  0
 32 56  1  0  0  0
 32 57  1  0  0  0
 33 36  1  0  0  0
 33 58  1  0  0  0
 34 35  1  0  0  0
 34 59  1  0  0  0
 35 60  1  0  0  0
 36 61  1  0  0  0
M  END
> <s_m_entry_id>
3320

> <s_m_entry_name>
dock_pv.49

> <s_m_Source_Path>
/home/csk/Desktop/cluster/DUD-E-result/kpcb

> <s_m_Source_File>
dock_pv.maegz

> <i_m_Source_File_Index>
49

> <chembl_id>
CHEMBL178945

> <chembl_pref_name>
None

> <i_lp_mmshare_version>
53161

> <i_f3d_flags>
0

> <r_lp_tautomer_probability>
1

> <s_lp_Force_Field>
OPLS_2005

> <r_lp_Energy>
28.370947

> <b_lp_Chiralities_Consistent>
1

> <s_lp_Variant>
CHEMBL3045_lig212-1

> <s_i_glide_gridfile>
glide-grid_2i0e

> <i_i_glide_lignum>
369

> <i_i_glide_rotatable_bonds>
7

> <r_i_docking_score>
-8.86749400090035

> <r_i_glide_ligand_efficiency>
-0.246319277802788

> <r_i_glide_ligand_efficiency_sa>
-0.813328334333544

> <r_i_glide_ligand_efficiency_ln>
-1.93464761899451

> <r_i_glide_gscore>
-8.86749400090035

> <r_i_glide_lipo>
-2.75126101658078

> <r_i_glide_hbond>
-0.608

> <r_i_glide_metal>
0

> <r_i_glide_rewards>
-1.9997301872036

> <r_i_glide_evdw>
-58.2806854248047

> <r_i_glide_ecoul>
-6.28716516494751

> <r_i_glide_erotb>
0.348606248866389

> <r_i_glide_esite>
0

> <r_i_glide_emodel>
-99.3977388887388

> <r_i_glide_energy>
-64.5678505897522

> <r_i_glide_einternal>
2.1162576675415

> <i_i_glide_confnum>
111

> <i_i_glide_posenum>
358

> <r_i_glide_eff_state_penalty>
0

> <s_user_duplicate_titles>
CHEMBL3045_lig212,296913

> <s_m_subgroup_title>
dock_pv

> <s_m_subgroupid>
dock_pv

> <b_m_subgroup_collapsed>
1

$$$$
CHEMBL3045_lig403
                    3D
 Schrodinger Suite 2021-1.
 54 58  0  0  1  0            999 V2000
   36.4865   55.9674   36.4950 C   0  0  0  0  0  0
   35.6736   55.9768   35.4143 C   0  0  0  0  0  0
   34.3164   55.9720   35.8877 C   0  0  0  0  0  0
   34.3910   55.9723   37.2092 N   0  0  0  0  0  0
   35.6374   55.9720   37.6558 C   0  0  0  0  0  0
   35.9920   56.0088   33.9758 C   0  0  0  0  0  0
   37.1994   56.4495   33.4675 C   0  0  0  0  0  0
   37.2144   56.3720   32.1034 N   0  0  0  0  0  0
   35.1858   55.6798   32.8113 C   0  0  0  0  0  0
   35.9664   56.0173   31.6646 C   0  0  0  0  0  0
   35.4673   55.9631   30.3649 C   0  0  0  0  0  0
   34.1496   55.5720   30.2230 C   0  0  0  0  0  0
   33.3758   55.1506   31.2899 C   0  0  0  0  0  0
   33.8959   55.1566   32.5763 C   0  0  0  0  0  0
   37.9970   55.9419   36.5619 C   0  0  0  0  0  0
   38.7147   56.8776   37.3414 C   0  0  0  0  0  0
   40.0988   56.9745   37.2756 C   0  0  0  0  0  0
   40.8343   56.1731   36.4213 C   0  0  0  0  0  0
   38.7720   55.0224   35.7579 C   0  0  0  0  0  0
   40.1890   55.1944   35.6435 C   0  0  0  0  0  0
   40.9273   54.4042   34.7283 C   0  0  0  0  0  0
   40.2943   53.4436   33.9438 C   0  0  0  0  0  0
   38.9394   53.1917   34.1266 C   0  0  0  0  0  0
   38.1925   53.9503   35.0240 C   0  0  0  0  0  0
   33.2688   55.9720   35.2632 O   0  0  0  0  0  0
   35.9386   55.9720   38.8370 O   0  0  0  0  0  0
   37.9495   57.9720   38.4371 Cl  0  0  0  0  0  0
   41.0798   52.7222   32.8548 C   0  0  0  0  0  0
   41.1054   53.5003   31.6078 N   0  0  0  0  0  0
   42.1800   53.0212   30.7447 C   0  0  0  0  0  0
   39.8418   53.4004   30.8786 C   0  0  0  0  0  0
   38.3012   56.7529   31.2370 C   0  0  0  0  0  0
   33.5827   56.0121   37.8138 H   0  0  0  0  0  0
   38.0812   56.8135   33.9738 H   0  0  0  0  0  0
   36.0635   56.2134   29.5039 H   0  0  0  0  0  0
   33.7497   55.4907   29.2370 H   0  0  0  0  0  0
   32.3723   54.7915   31.1098 H   0  0  0  0  0  0
   33.2739   54.7721   33.3616 H   0  0  0  0  0  0
   40.6137   57.7059   37.8810 H   0  0  0  0  0  0
   41.9067   56.2910   36.3527 H   0  0  0  0  0  0
   41.9870   54.5820   34.6092 H   0  0  0  0  0  0
   38.4518   52.4291   33.5364 H   0  0  0  0  0  0
   37.1384   53.7486   35.1251 H   0  0  0  0  0  0
   40.7010   51.7110   32.6908 H   0  0  0  0  0  0
   42.0987   52.5935   33.2278 H   0  0  0  0  0  0
   43.1464   53.1720   31.2277 H   0  0  0  0  0  0
   42.2026   53.5723   29.8037 H   0  0  0  0  0  0
   42.0732   51.9590   30.5156 H   0  0  0  0  0  0
   39.0129   53.7874   31.4698 H   0  0  0  0  0  0
   39.8819   53.9861   29.9595 H   0  0  0  0  0  0
   39.6055   52.3721   30.6043 H   0  0  0  0  0  0
   37.9339   57.5721   30.6211 H   0  0  0  0  0  0
   39.1835   57.0471   31.8068 H   0  0  0  0  0  0
   38.5534   55.9161   30.5868 H   0  0  0  0  0  0
  1  2  2  0  0  0
  1  5  1  0  0  0
  1 15  1  0  0  0
  2  3  1  0  0  0
  2  6  1  0  0  0
  3  4  1  0  0  0
  3 25  2  0  0  0
  4  5  1  0  0  0
  4 33  1  0  0  0
  5 26  2  0  0  0
  6  7  2  0  0  0
  6  9  1  0  0  0
  7  8  1  0  0  0
  7 34  1  0  0  0
  8 10  1  0  0  0
  8 32  1  0  0  0
  9 10  2  0  0  0
  9 14  1  0  0  0
 10 11  1  0  0  0
 11 12  2  0  0  0
 11 35  1  0  0  0
 12 13  1  0  0  0
 12 36  1  0  0  0
 13 14  2  0  0  0
 13 37  1  0  0  0
 14 38  1  0  0  0
 15 16  2  0  0  0
 15 19  1  0  0  0
 16 17  1  0  0  0
 16 27  1  0  0  0
 17 18  2  0  0  0
 17 39  1  0  0  0
 18 20  1  0  0  0
 18 40  1  0  0  0
 19 20  1  0  0  0
 19 24  2  0  0  0
 20 21  2  0  0  0
 21 22  1  0  0  0
 21 41  1  0  0  0
 22 23  2  0  0  0
 22 28  1  0  0  0
 23 24  1  0  0  0
 23 42  1  0  0  0
 24 43  1  0  0  0
 28 29  1  0  0  0
 28 44  1  0  0  0
 28 45  1  0  0  0
 29 30  1  0  0  0
 29 31  1  0  0  0
 30 46  1  0  0  0
 30 47  1  0  0  0
 30 48  1  0  0  0
 31 49  1  0  0  0
 31 50  1  0  0  0
 31 51  1  0  0  0
 32 52  1  0  0  0
 32 53  1  0  0  0
 32 54  1  0  0  0
M  END
> <s_m_entry_id>
3321

> <s_m_entry_name>
dock_pv.50

> <s_m_Source_Path>
/home/csk/Desktop/cluster/DUD-E-result/kpcb

> <s_m_Source_File>
dock_pv.maegz

> <i_m_Source_File_Index>
50

> <chembl_id>
CHEMBL4064291

> <chembl_pref_name>
None

> <i_lp_mmshare_version>
53161

> <i_f3d_flags>
0

> <r_lp_tautomer_probability>
1

> <s_lp_Force_Field>
OPLS_2005

> <r_lp_Energy>
30.653934

> <b_lp_Chiralities_Consistent>
1

> <s_lp_Variant>
CHEMBL3045_lig403-1

> <s_i_glide_gridfile>
glide-grid_2i0e

> <i_i_glide_lignum>
569

> <i_i_glide_rotatable_bonds>
4

> <r_i_docking_score>
-8.85184290445529

> <r_i_glide_ligand_efficiency>
-0.276620090764228

> <r_i_glide_ligand_efficiency_sa>
-0.878214045134795

> <r_i_glide_ligand_efficiency_ln>
-1.98216891843196

> <r_i_glide_gscore>
-8.85184290445529

> <r_i_glide_lipo>
-2.93438127037057

> <r_i_glide_hbond>
-0.515887505494467

> <r_i_glide_metal>
0

> <r_i_glide_rewards>
-2.32023860516376

> <r_i_glide_evdw>
-45.6532974243164

> <r_i_glide_ecoul>
-6.74498796463013

> <r_i_glide_erotb>
0.213077542483843

> <r_i_glide_esite>
0

> <r_i_glide_emodel>
-74.7330947642369

> <r_i_glide_energy>
-52.3982853889465

> <r_i_glide_einternal>
9.68386268615723

> <i_i_glide_confnum>
4

> <i_i_glide_posenum>
136

> <r_i_glide_eff_state_penalty>
0

> <s_user_duplicate_titles>
CHEMBL3045_lig403

> <s_m_subgroup_title>
dock_pv

> <s_m_subgroupid>
dock_pv

> <b_m_subgroup_collapsed>
1

$$$$
CHEMBL3045_lig244
                    3D
 Schrodinger Suite 2021-1.
 50 53  0  0  1  0            999 V2000
   36.2527   56.2359   35.7809 C   0  0  0  0  0  0
   36.5631   56.0160   34.3410 C   0  0  0  0  0  0
   37.0917   56.6690   36.7476 C   0  0  0  0  0  0
   34.9583   56.0382   36.3770 C   0  0  0  0  0  0
   35.1055   56.3712   37.6576 N   0  0  0  0  0  0
   36.3345   56.7719   37.9719 C   0  0  0  0  0  0
   37.8601   55.8597   33.8766 C   0  0  0  0  0  0
   37.9104   55.7779   32.5104 N   0  0  0  0  0  0
   35.7320   55.8897   33.1473 C   0  0  0  0  0  0
   36.6182   55.7409   32.0246 C   0  0  0  0  0  0
   38.4139   57.0692   36.6255 N   0  0  0  0  0  0
   33.9043   55.6647   35.8799 O   0  0  0  0  0  0
   39.1427   55.6984   31.7294 C   0  0  0  0  0  0
   36.6801   57.1717   39.0842 O   0  0  0  0  0  0
   39.5516   56.7333   37.3835 C   0  0  0  0  0  0
   39.8392   53.4348   32.5171 N   0  0  0  0  0  0
   39.5488   54.2627   31.3390 C   0  0  0  0  0  0
   34.3476   55.8890   32.8719 C   0  0  0  0  0  0
   36.1547   55.6003   30.7094 C   0  0  0  0  0  0
   38.7084   52.5671   32.8478 C   0  0  0  0  0  0
   41.0245   52.6077   32.2932 C   0  0  0  0  0  0
   40.7846   57.1707   36.8940 C   0  0  0  0  0  0
   39.5141   55.9728   38.5594 C   0  0  0  0  0  0
   33.8912   55.7657   31.5623 C   0  0  0  0  0  0
   34.7787   55.6276   30.5057 C   0  0  0  0  0  0
   40.6901   55.6795   39.2458 C   0  0  0  0  0  0
   41.9627   56.8782   37.5765 C   0  0  0  0  0  0
   41.9095   56.1351   38.7530 C   0  0  0  0  0  0
   34.3359   56.3674   38.3114 H   0  0  0  0  0  0
   38.7950   55.8265   34.4157 H   0  0  0  0  0  0
   38.6691   57.4923   35.7469 H   0  0  0  0  0  0
   39.0136   56.3097   30.8387 H   0  0  0  0  0  0
   39.9450   56.1719   32.2976 H   0  0  0  0  0  0
   38.7998   53.8085   30.6887 H   0  0  0  0  0  0
   40.4383   54.3497   30.7119 H   0  0  0  0  0  0
   33.6105   55.9740   33.6468 H   0  0  0  0  0  0
   36.8298   55.4642   29.8789 H   0  0  0  0  0  0
   38.9235   51.9749   33.7388 H   0  0  0  0  0  0
   37.8115   53.1479   33.0579 H   0  0  0  0  0  0
   38.4769   51.8761   32.0358 H   0  0  0  0  0  0
   41.2293   51.9734   33.1556 H   0  0  0  0  0  0
   40.9123   51.9702   31.4149 H   0  0  0  0  0  0
   41.9067   53.2310   32.1390 H   0  0  0  0  0  0
   40.8416   57.7399   35.9777 H   0  0  0  0  0  0
   38.5908   55.5783   38.9517 H   0  0  0  0  0  0
   32.8283   55.7747   31.3617 H   0  0  0  0  0  0
   34.3882   55.5275   29.5018 H   0  0  0  0  0  0
   40.6531   55.0908   40.1508 H   0  0  0  0  0  0
   42.9124   57.2214   37.1922 H   0  0  0  0  0  0
   42.8226   55.9000   39.2807 H   0  0  0  0  0  0
  1  2  1  0  0  0
  1  3  2  0  0  0
  1  4  1  0  0  0
  2  7  2  0  0  0
  2  9  1  0  0  0
  3  6  1  0  0  0
  3 11  1  0  0  0
  4  5  1  0  0  0
  4 12  2  0  0  0
  5  6  1  0  0  0
  5 29  1  0  0  0
  6 14  2  0  0  0
  7  8  1  0  0  0
  7 30  1  0  0  0
  8 13  1  0  0  0
  8 10  1  0  0  0
  9 10  2  0  0  0
  9 18  1  0  0  0
 10 19  1  0  0  0
 11 15  1  0  0  0
 11 31  1  0  0  0
 13 17  1  0  0  0
 13 32  1  0  0  0
 13 33  1  0  0  0
 15 22  1  0  0  0
 15 23  2  0  0  0
 16 17  1  0  0  0
 16 20  1  0  0  0
 16 21  1  0  0  0
 17 34  1  0  0  0
 17 35  1  0  0  0
 18 24  2  0  0  0
 18 36  1  0  0  0
 19 25  2  0  0  0
 19 37  1  0  0  0
 20 38  1  0  0  0
 20 39  1  0  0  0
 20 40  1  0  0  0
 21 41  1  0  0  0
 21 42  1  0  0  0
 21 43  1  0  0  0
 22 27  2  0  0  0
 22 44  1  0  0  0
 23 26  1  0  0  0
 23 45  1  0  0  0
 24 25  1  0  0  0
 24 46  1  0  0  0
 25 47  1  0  0  0
 26 28  2  0  0  0
 26 48  1  0  0  0
 27 28  1  0  0  0
 27 49  1  0  0  0
 28 50  1  0  0  0
M  END
> <s_m_entry_id>
3322

> <s_m_entry_name>
dock_pv.51

> <s_m_Source_Path>
/home/csk/Desktop/cluster/DUD-E-result/kpcb

> <s_m_Source_File>
dock_pv.maegz

> <i_m_Source_File_Index>
51

> <chembl_id>
CHEMBL184649

> <chembl_pref_name>
None

> <i_lp_mmshare_version>
53161

> <i_f3d_flags>
0

> <r_lp_tautomer_probability>
0.999999999997686

> <s_lp_Force_Field>
OPLS_2005

> <r_lp_Energy>
37.959628

> <b_lp_Chiralities_Consistent>
1

> <s_lp_Variant>
CHEMBL3045_lig244-1

> <s_i_glide_gridfile>
glide-grid_2i0e

> <i_i_glide_lignum>
402

> <i_i_glide_rotatable_bonds>
6

> <r_i_docking_score>
-8.84883631653785

> <r_i_glide_ligand_efficiency>
-0.31602986844778

> <r_i_glide_ligand_efficiency_sa>
-0.959652812245926

> <r_i_glide_ligand_efficiency_ln>
-2.04257123498077

> <r_i_glide_gscore>
-8.84883631653785

> <r_i_glide_lipo>
-2.65969632781082

> <r_i_glide_hbond>
-0.585339357811927

> <r_i_glide_metal>
0

> <r_i_glide_rewards>
-2.83174159128269

> <r_i_glide_evdw>
-48.0914993286133

> <r_i_glide_ecoul>
-5.6679105758667

> <r_i_glide_erotb>
0.482702513178256

> <r_i_glide_esite>
0

> <r_i_glide_emodel>
-83.1842916044142

> <r_i_glide_energy>
-53.75940990448

> <r_i_glide_einternal>
2.30781507492065

> <i_i_glide_confnum>
1

> <i_i_glide_posenum>
6

> <r_i_glide_eff_state_penalty>
0

> <s_user_duplicate_titles>
CHEMBL3045_lig244,309106

> <s_m_subgroup_title>
dock_pv

> <s_m_subgroupid>
dock_pv

> <b_m_subgroup_collapsed>
1

$$$$
CHEMBL3045_lig236
                    3D
 Schrodinger Suite 2021-1.
 39 42  0  0  1  0            999 V2000
   36.9653   56.3727   36.6513 C   0  0  0  0  0  0
   36.2593   56.0843   35.5411 C   0  0  0  0  0  0
   38.4264   56.5317   36.8291 C   0  0  0  0  0  0
   36.0507   56.5070   37.7535 C   0  0  0  0  0  0
   34.8448   56.2769   37.2373 N   0  0  0  0  0  0
   34.8786   55.9376   35.9484 C   0  0  0  0  0  0
   39.1081   56.2351   38.0027 C   0  0  0  0  0  0
   39.4522   56.9387   35.8878 C   0  0  0  0  0  0
   40.4573   56.3870   37.8301 N   0  0  0  0  0  0
   36.7472   55.8153   34.2701 N   0  0  0  0  0  0
   40.7174   56.8061   36.5470 C   0  0  0  0  0  0
   36.2845   56.7751   38.9306 O   0  0  0  0  0  0
   33.9014   55.5725   35.2977 O   0  0  0  0  0  0
   36.1869   55.9806   32.9877 C   0  0  0  0  0  0
   34.9701   56.6296   32.7280 C   0  0  0  0  0  0
   34.4428   56.6765   31.4342 C   0  0  0  0  0  0
   39.4568   57.4057   34.5615 C   0  0  0  0  0  0
   36.4215   55.5720   30.6084 C   0  0  0  0  0  0
   36.9173   55.4778   31.9078 C   0  0  0  0  0  0
   41.9335   57.0813   35.9122 C   0  0  0  0  0  0
   35.1742   56.1420   30.3742 C   0  0  0  0  0  0
   33.0711   57.2775   31.1919 C   0  0  0  0  0  0
   40.6656   57.6777   33.9248 C   0  0  0  0  0  0
   41.8754   57.5084   34.5865 C   0  0  0  0  0  0
   33.9955   56.3102   37.7838 H   0  0  0  0  0  0
   38.7352   55.8826   38.9559 H   0  0  0  0  0  0
   41.1277   56.1890   38.5590 H   0  0  0  0  0  0
   37.7120   55.5207   34.2196 H   0  0  0  0  0  0
   34.4074   57.0905   33.5211 H   0  0  0  0  0  0
   38.5324   57.5720   34.0369 H   0  0  0  0  0  0
   36.9931   55.1713   29.7839 H   0  0  0  0  0  0
   37.8717   54.9956   32.0659 H   0  0  0  0  0  0
   42.8824   56.9717   36.4168 H   0  0  0  0  0  0
   34.7802   56.1657   29.3680 H   0  0  0  0  0  0
   32.7522   57.1685   30.1546 H   0  0  0  0  0  0
   33.0619   58.3345   31.4583 H   0  0  0  0  0  0
   32.3308   56.7696   31.8107 H   0  0  0  0  0  0
   40.6651   58.0283   32.9024 H   0  0  0  0  0  0
   42.7966   57.7308   34.0662 H   0  0  0  0  0  0
  1  2  2  0  0  0
  1  3  1  0  0  0
  1  4  1  0  0  0
  2  6  1  0  0  0
  2 10  1  0  0  0
  3  7  2  0  0  0
  3  8  1  0  0  0
  4  5  1  0  0  0
  4 12  2  0  0  0
  5  6  1  0  0  0
  5 25  1  0  0  0
  6 13  2  0  0  0
  7  9  1  0  0  0
  7 26  1  0  0  0
  8 11  2  0  0  0
  8 17  1  0  0  0
  9 11  1  0  0  0
  9 27  1  0  0  0
 10 14  1  0  0  0
 10 28  1  0  0  0
 11 20  1  0  0  0
 14 15  2  0  0  0
 14 19  1  0  0  0
 15 16  1  0  0  0
 15 29  1  0  0  0
 16 22  1  0  0  0
 16 21  2  0  0  0
 17 23  2  0  0  0
 17 30  1  0  0  0
 18 19  2  0  0  0
 18 21  1  0  0  0
 18 31  1  0  0  0
 19 32  1  0  0  0
 20 24  2  0  0  0
 20 33  1  0  0  0
 21 34  1  0  0  0
 22 35  1  0  0  0
 22 36  1  0  0  0
 22 37  1  0  0  0
 23 24  1  0  0  0
 23 38  1  0  0  0
 24 39  1  0  0  0
M  END
> <s_m_entry_id>
3323

> <s_m_entry_name>
dock_pv.52

> <s_m_Source_Path>
/home/csk/Desktop/cluster/DUD-E-result/kpcb

> <s_m_Source_File>
dock_pv.maegz

> <i_m_Source_File_Index>
52

> <chembl_id>
CHEMBL185573

> <chembl_pref_name>
None

> <i_lp_mmshare_version>
53161

> <i_f3d_flags>
0

> <r_lp_tautomer_probability>
0.999999999997686

> <s_lp_Force_Field>
OPLS_2005

> <r_lp_Energy>
28.859957

> <b_lp_Chiralities_Consistent>
1

> <s_lp_Variant>
CHEMBL3045_lig236-1

> <s_i_glide_gridfile>
glide-grid_2i0e

> <i_i_glide_lignum>
394

> <i_i_glide_rotatable_bonds>
3

> <r_i_docking_score>
-8.84693329532877

> <r_i_glide_ligand_efficiency>
-0.368622220638699

> <r_i_glide_ligand_efficiency_sa>
-1.06329047751745

> <r_i_glide_ligand_efficiency_ln>
-2.11747709688843

> <r_i_glide_gscore>
-8.84693329532877

> <r_i_glide_lipo>
-2.6446619505459

> <r_i_glide_hbond>
-0.590446452756907

> <r_i_glide_metal>
0

> <r_i_glide_rewards>
-3.02581268104067

> <r_i_glide_evdw>
-42.6463088989258

> <r_i_glide_ecoul>
-5.61450433731079

> <r_i_glide_erotb>
0.38847888455762

> <r_i_glide_esite>
0

> <r_i_glide_emodel>
-73.4748039867628

> <r_i_glide_energy>
-48.2608132362366

> <r_i_glide_einternal>
1.99287223815918

> <i_i_glide_confnum>
9

> <i_i_glide_posenum>
46

> <r_i_glide_eff_state_penalty>
0

> <s_user_duplicate_titles>
CHEMBL3045_lig236,308999

> <s_m_subgroup_title>
dock_pv

> <s_m_subgroupid>
dock_pv

> <b_m_subgroup_collapsed>
1

$$$$
CHEMBL3045_lig358
                    3D
 Schrodinger Suite 2021-1.
 54 58  0  0  1  0            999 V2000
   36.5180   55.9738   36.0134 C   0  0  0  0  0  0
   37.2480   56.3817   37.0662 C   0  0  0  0  0  0
   36.3181   56.7098   38.1095 C   0  0  0  0  0  0
   35.1013   56.4733   37.6091 N   0  0  0  0  0  0
   35.1243   56.0428   36.3472 C   0  0  0  0  0  0
   38.6090   56.5250   37.2961 N   0  0  0  0  0  0
   39.6543   56.8966   36.4312 C   0  0  0  0  0  0
   36.9694   55.5031   34.7092 C   0  0  0  0  0  0
   37.3058   55.3068   32.4317 C   0  0  0  0  0  0
   36.5406   55.9945   33.4252 C   0  0  0  0  0  0
   35.5987   56.9531   33.0139 C   0  0  0  0  0  0
   35.4047   57.1758   31.6539 C   0  0  0  0  0  0
   36.1537   56.4898   30.7065 C   0  0  0  0  0  0
   37.1357   55.5657   31.0654 C   0  0  0  0  0  0
   36.5567   57.1371   39.2371 O   0  0  0  0  0  0
   34.1426   55.7774   35.6561 O   0  0  0  0  0  0
   40.9602   56.7643   36.9088 C   0  0  0  0  0  0
   42.0414   57.1034   36.0999 C   0  0  0  0  0  0
   41.8152   57.5717   34.8084 C   0  0  0  0  0  0
   40.5179   57.7437   34.3336 C   0  0  0  0  0  0
   39.4401   57.4192   35.1513 C   0  0  0  0  0  0
   37.9044   54.5148   34.4608 C   0  0  0  0  0  0
   38.1241   54.4177   33.1090 N   0  0  0  0  0  0
   38.9825   53.2929   32.7769 C   0  0  0  0  0  0
   39.8032   53.1093   34.0673 C   0  0  2  0  0  0
   38.8249   53.5529   35.1751 C   0  0  0  0  0  0
   41.1487   53.8811   34.0462 C   0  0  0  0  0  0
   41.8055   53.9761   35.3530 N   0  0  1  0  0  0
   42.2542   52.7219   35.9452 C   0  0  0  0  0  0
   43.5002   52.1878   35.2355 C   0  0  0  0  0  0
   34.2421   56.6361   38.1199 H   0  0  0  0  0  0
   38.9215   56.4339   38.2529 H   0  0  0  0  0  0
   35.0105   57.4925   33.7417 H   0  0  0  0  0  0
   34.6586   57.8875   31.3279 H   0  0  0  0  0  0
   35.9665   56.6790   29.6577 H   0  0  0  0  0  0
   37.7085   55.0430   30.3111 H   0  0  0  0  0  0
   41.1492   56.3748   37.8994 H   0  0  0  0  0  0
   43.0503   56.9904   36.4637 H   0  0  0  0  0  0
   42.6548   57.8256   34.1779 H   0  0  0  0  0  0
   40.3472   58.1256   33.3382 H   0  0  0  0  0  0
   38.4418   57.5722   34.7761 H   0  0  0  0  0  0
   39.5551   53.4527   31.8629 H   0  0  0  0  0  0
   38.3617   52.4095   32.6131 H   0  0  0  0  0  0
   40.0385   52.0500   34.1893 H   0  0  0  0  0  0
   38.2947   52.6982   35.5884 H   0  0  0  0  0  0
   39.3332   54.0219   36.0174 H   0  0  0  0  0  0
   40.9565   54.9036   33.7212 H   0  0  0  0  0  0
   41.8272   53.4576   33.3035 H   0  0  0  0  0  0
   42.5929   54.6044   35.2855 H   0  0  0  0  0  0
   41.4548   51.9804   35.9667 H   0  0  0  0  0  0
   42.5120   52.9182   36.9855 H   0  0  0  0  0  0
   43.8359   51.2486   35.6749 H   0  0  0  0  0  0
   44.3311   52.8906   35.2939 H   0  0  0  0  0  0
   43.3023   51.9921   34.1846 H   0  0  0  0  0  0
  1  2  2  0  0  0
  1  5  1  0  0  0
  1  8  1  0  0  0
  2  3  1  0  0  0
  2  6  1  0  0  0
  3  4  1  0  0  0
  3 15  2  0  0  0
  4  5  1  0  0  0
  4 31  1  0  0  0
  5 16  2  0  0  0
  6  7  1  0  0  0
  6 32  1  0  0  0
  7 17  2  0  0  0
  7 21  1  0  0  0
  8 10  1  0  0  0
  8 22  2  0  0  0
  9 23  1  0  0  0
  9 10  2  0  0  0
  9 14  1  0  0  0
 10 11  1  0  0  0
 11 12  2  0  0  0
 11 33  1  0  0  0
 12 13  1  0  0  0
 12 34  1  0  0  0
 13 14  2  0  0  0
 13 35  1  0  0  0
 14 36  1  0  0  0
 17 18  1  0  0  0
 17 37  1  0  0  0
 18 19  2  0  0  0
 18 38  1  0  0  0
 19 20  1  0  0  0
 19 39  1  0  0  0
 20 21  2  0  0  0
 20 40  1  0  0  0
 21 41  1  0  0  0
 22 23  1  0  0  0
 22 26  1  0  0  0
 23 24  1  0  0  0
 24 25  1  0  0  0
 24 42  1  0  0  0
 24 43  1  0  0  0
 25 26  1  0  0  0
 25 27  1  0  0  0
 25 44  1  0  0  0
 26 45  1  0  0  0
 26 46  1  0  0  0
 27 28  1  0  0  0
 27 47  1  0  0  0
 27 48  1  0  0  0
 28 29  1  0  0  0
 28 49  1  0  0  0
 29 30  1  0  0  0
 29 50  1  0  0  0
 29 51  1  0  0  0
 30 52  1  0  0  0
 30 53  1  0  0  0
 30 54  1  0  0  0
M  END
> <s_m_entry_id>
3324

> <s_m_entry_name>
dock_pv.53

> <s_m_Source_Path>
/home/csk/Desktop/cluster/DUD-E-result/kpcb

> <s_m_Source_File>
dock_pv.maegz

> <i_m_Source_File_Index>
53

> <chembl_id>
CHEMBL2236793

> <chembl_pref_name>
None

> <i_lp_mmshare_version>
53161

> <i_f3d_flags>
0

> <r_lp_tautomer_probability>
0.999999999997686

> <s_lp_Force_Field>
OPLS_2005

> <r_lp_Energy>
52.573932

> <b_lp_Chiralities_Consistent>
1

> <s_lp_Variant>
CHEMBL3045_lig358-1

> <s_i_glide_gridfile>
glide-grid_2i0e

> <i_i_glide_lignum>
522

> <i_i_glide_rotatable_bonds>
6

> <r_i_docking_score>
-8.83880791530334

> <r_i_glide_ligand_efficiency>
-0.294626930510111

> <r_i_glide_ligand_efficiency_sa>
-0.915474374572523

> <r_i_glide_ligand_efficiency_ln>
-2.0082734648827

> <r_i_glide_gscore>
-8.83880791530334

> <r_i_glide_lipo>
-2.69505274609996

> <r_i_glide_hbond>
-0.608

> <r_i_glide_metal>
0

> <r_i_glide_rewards>
-2.53453467856754

> <r_i_glide_evdw>
-48.8677062988281

> <r_i_glide_ecoul>
-6.57116079330444

> <r_i_glide_erotb>
0.427838943301242

> <r_i_glide_esite>
0

> <r_i_glide_emodel>
-83.594843937052

> <r_i_glide_energy>
-55.4388670921326

> <r_i_glide_einternal>
4.43682479858398

> <i_i_glide_confnum>
109

> <i_i_glide_posenum>
322

> <r_i_glide_eff_state_penalty>
0

> <s_user_duplicate_titles>
CHEMBL3045_lig358

> <s_m_subgroup_title>
dock_pv

> <s_m_subgroupid>
dock_pv

> <b_m_subgroup_collapsed>
1

$$$$
CHEMBL3045_lig239
                    3D
 Schrodinger Suite 2021-1.
 36 39  0  0  1  0            999 V2000
   37.2051   56.4321   37.0131 C   0  0  0  0  0  0
   36.4872   56.0231   35.9538 C   0  0  0  0  0  0
   38.6591   56.6115   37.1224 C   0  0  0  0  0  0
   36.3127   56.7016   38.1055 C   0  0  0  0  0  0
   35.1010   56.4061   37.6361 N   0  0  0  0  0  0
   35.1084   55.9718   36.3729 C   0  0  0  0  0  0
   39.4095   56.3714   38.2636 C   0  0  0  0  0  0
   39.6050   57.0066   36.1028 C   0  0  0  0  0  0
   40.7435   56.5267   37.9902 N   0  0  0  0  0  0
   36.9443   55.5965   34.7173 N   0  0  0  0  0  0
   40.9114   56.9056   36.6776 C   0  0  0  0  0  0
   36.5655   57.1162   39.2368 O   0  0  0  0  0  0
   34.1187   55.6124   35.7390 O   0  0  0  0  0  0
   36.4724   55.8862   33.4240 C   0  0  0  0  0  0
   35.3933   56.7431   33.1644 C   0  0  0  0  0  0
   34.9668   56.9694   31.8572 C   0  0  0  0  0  0
   33.5993   57.9776   31.5646 Cl  0  0  0  0  0  0
   39.5019   57.4374   34.7680 C   0  0  0  0  0  0
   36.7457   55.5663   31.0337 C   0  0  0  0  0  0
   37.1515   55.3134   32.3438 C   0  0  0  0  0  0
   42.0743   57.1700   35.9482 C   0  0  0  0  0  0
   35.6397   56.3768   30.7911 C   0  0  0  0  0  0
   40.6577   57.7052   34.0402 C   0  0  0  0  0  0
   41.9120   57.5627   34.6197 C   0  0  0  0  0  0
   34.2508   56.5120   38.1747 H   0  0  0  0  0  0
   39.0984   56.0525   39.2501 H   0  0  0  0  0  0
   41.4643   56.3595   38.6777 H   0  0  0  0  0  0
   37.8665   55.1816   34.6963 H   0  0  0  0  0  0
   34.8690   57.2381   33.9653 H   0  0  0  0  0  0
   38.5405   57.5713   34.3021 H   0  0  0  0  0  0
   37.2774   55.1177   30.2064 H   0  0  0  0  0  0
   38.0001   54.6660   32.5107 H   0  0  0  0  0  0
   43.0592   57.0848   36.3842 H   0  0  0  0  0  0
   35.3095   56.5421   29.7770 H   0  0  0  0  0  0
   40.5799   58.0284   33.0121 H   0  0  0  0  0  0
   42.7916   57.7816   34.0317 H   0  0  0  0  0  0
  1  2  2  0  0  0
  1  3  1  0  0  0
  1  4  1  0  0  0
  2  6  1  0  0  0
  2 10  1  0  0  0
  3  7  2  0  0  0
  3  8  1  0  0  0
  4  5  1  0  0  0
  4 12  2  0  0  0
  5  6  1  0  0  0
  5 25  1  0  0  0
  6 13  2  0  0  0
  7  9  1  0  0  0
  7 26  1  0  0  0
  8 11  2  0  0  0
  8 18  1  0  0  0
  9 11  1  0  0  0
  9 27  1  0  0  0
 10 14  1  0  0  0
 10 28  1  0  0  0
 11 21  1  0  0  0
 14 15  2  0  0  0
 14 20  1  0  0  0
 15 16  1  0  0  0
 15 29  1  0  0  0
 16 17  1  0  0  0
 16 22  2  0  0  0
 18 23  2  0  0  0
 18 30  1  0  0  0
 19 20  2  0  0  0
 19 22  1  0  0  0
 19 31  1  0  0  0
 20 32  1  0  0  0
 21 24  2  0  0  0
 21 33  1  0  0  0
 22 34  1  0  0  0
 23 24  1  0  0  0
 23 35  1  0  0  0
 24 36  1  0  0  0
M  END
> <s_m_entry_id>
3325

> <s_m_entry_name>
dock_pv.54

> <s_m_Source_Path>
/home/csk/Desktop/cluster/DUD-E-result/kpcb

> <s_m_Source_File>
dock_pv.maegz

> <i_m_Source_File_Index>
54

> <chembl_id>
CHEMBL187325

> <chembl_pref_name>
None

> <i_lp_mmshare_version>
53161

> <i_f3d_flags>
0

> <r_lp_tautomer_probability>
0.999999999997686

> <s_lp_Force_Field>
OPLS_2005

> <r_lp_Energy>
28.505624

> <b_lp_Chiralities_Consistent>
1

> <s_lp_Variant>
CHEMBL3045_lig239-1

> <s_i_glide_gridfile>
glide-grid_2i0e

> <i_i_glide_lignum>
397

> <i_i_glide_rotatable_bonds>
3

> <r_i_docking_score>
-8.78984447042493

> <r_i_glide_ligand_efficiency>
-0.366243519601039

> <r_i_glide_ligand_efficiency_sa>
-1.05642911642581

> <r_i_glide_ligand_efficiency_ln>
-2.10381312145347

> <r_i_glide_gscore>
-8.78984447042493

> <r_i_glide_lipo>
-2.68597276812687

> <r_i_glide_hbond>
-0.608

> <r_i_glide_metal>
0

> <r_i_glide_rewards>
-2.91644048755341

> <r_i_glide_evdw>
-42.0810966491699

> <r_i_glide_ecoul>
-5.48897838592529

> <r_i_glide_erotb>
0.347970375602639

> <r_i_glide_esite>
0

> <r_i_glide_emodel>
-70.2130054061653

> <r_i_glide_energy>
-47.5700750350952

> <r_i_glide_einternal>
6.29962348937988

> <i_i_glide_confnum>
37

> <i_i_glide_posenum>
136

> <r_i_glide_eff_state_penalty>
0

> <s_user_duplicate_titles>
CHEMBL3045_lig239,309058

> <s_m_subgroup_title>
dock_pv

> <s_m_subgroupid>
dock_pv

> <b_m_subgroup_collapsed>
1

$$$$
CHEMBL3045_lig335
                    3D
 Schrodinger Suite 2021-1.
 55 60  0  0  1  0            999 V2000
   35.2970   56.4370   37.5936 N   0  0  0  0  0  0
   35.3508   55.9903   36.3363 C   0  0  0  0  0  0
   36.7517   55.9752   36.0025 C   0  0  0  0  0  0
   37.4433   56.4089   37.0714 C   0  0  0  0  0  0
   36.4969   56.7242   38.1091 C   0  0  0  0  0  0
   34.3837   55.6716   35.6465 O   0  0  0  0  0  0
   36.7001   57.1707   39.2367 O   0  0  0  0  0  0
   40.9250   56.3574   38.2131 N   0  0  0  0  0  0
   39.5733   56.3148   38.4324 C   0  0  0  0  0  0
   38.8927   56.5740   37.2521 C   0  0  0  0  0  0
   39.9072   56.9139   36.2790 C   0  0  0  0  0  0
   39.8950   57.3512   34.9417 C   0  0  0  0  0  0
   41.0968   57.4661   34.2473 C   0  0  0  0  0  0
   42.3089   57.1720   34.8629 C   0  0  0  0  0  0
   42.3842   56.7978   36.2042 C   0  0  0  0  0  0
   41.1762   56.6865   36.9002 C   0  0  0  0  0  0
   37.9751   55.0540   32.0304 N   0  0  0  0  0  0
   37.0358   55.9626   32.3911 C   0  0  0  0  0  0
   36.6740   56.2533   33.6639 N   0  0  0  0  0  0
   37.2509   55.5524   34.6639 C   0  0  0  0  0  0
   38.2839   54.5997   34.4100 C   0  0  0  0  0  0
   39.0038   53.8867   35.3976 C   0  0  0  0  0  0
   40.0848   53.0886   35.0427 C   0  0  0  0  0  0
   40.4460   52.9478   33.7061 C   0  0  0  0  0  0
   39.7100   53.5627   32.6980 C   0  0  0  0  0  0
   38.6282   54.4072   33.0339 C   0  0  0  0  0  0
   36.4350   56.7022   31.3806 N   0  0  0  0  0  0
   35.5292   57.8173   31.6837 C   0  0  0  0  0  0
   34.0746   57.3563   31.8862 C   0  0  0  0  0  0
   33.5980   56.6596   30.6963 N   0  0  0  0  0  0
   34.4862   55.5466   30.3604 C   0  0  0  0  0  0
   35.9346   56.0403   30.1612 C   0  0  0  0  0  0
   32.2519   56.1564   30.9150 C   0  0  0  0  0  0
   40.7984   52.4703   36.0106 F   0  0  0  0  0  0
   34.4284   56.5703   38.0931 H   0  0  0  0  0  0
   41.6029   56.1346   38.9285 H   0  0  0  0  0  0
   39.1994   56.0225   39.4056 H   0  0  0  0  0  0
   38.9655   57.5632   34.4390 H   0  0  0  0  0  0
   41.0876   57.7728   33.2112 H   0  0  0  0  0  0
   43.2215   57.2600   34.2902 H   0  0  0  0  0  0
   43.3376   56.6007   36.6732 H   0  0  0  0  0  0
   38.7578   54.0163   36.4361 H   0  0  0  0  0  0
   41.3181   52.3721   33.4418 H   0  0  0  0  0  0
   39.9882   53.4322   31.6610 H   0  0  0  0  0  0
   35.8806   58.3900   32.5425 H   0  0  0  0  0  0
   35.5959   58.4834   30.8381 H   0  0  0  0  0  0
   33.9935   56.7285   32.7763 H   0  0  0  0  0  0
   33.4524   58.2384   32.0366 H   0  0  0  0  0  0
   34.1394   55.1031   29.4261 H   0  0  0  0  0  0
   34.4533   54.7738   31.1303 H   0  0  0  0  0  0
   35.9263   56.7519   29.3352 H   0  0  0  0  0  0
   36.5812   55.2162   29.8556 H   0  0  0  0  0  0
   31.9068   55.6160   30.0347 H   0  0  0  0  0  0
   32.2111   55.4717   31.7623 H   0  0  0  0  0  0
   31.5559   56.9754   31.0980 H   0  0  0  0  0  0
  1  2  1  0  0  0
  1  5  1  0  0  0
  1 35  1  0  0  0
  2  3  1  0  0  0
  2  6  2  0  0  0
  3  4  2  0  0  0
  3 20  1  0  0  0
  4  5  1  0  0  0
  4 10  1  0  0  0
  5  7  2  0  0  0
  8  9  1  0  0  0
  8 16  1  0  0  0
  8 36  1  0  0  0
  9 10  2  0  0  0
  9 37  1  0  0  0
 10 11  1  0  0  0
 11 12  1  0  0  0
 11 16  2  0  0  0
 12 13  2  0  0  0
 12 38  1  0  0  0
 13 14  1  0  0  0
 13 39  1  0  0  0
 14 15  2  0  0  0
 14 40  1  0  0  0
 15 16  1  0  0  0
 15 41  1  0  0  0
 17 18  1  0  0  0
 17 26  2  0  0  0
 18 19  2  0  0  0
 18 27  1  0  0  0
 19 20  1  0  0  0
 20 21  2  0  0  0
 21 22  1  0  0  0
 21 26  1  0  0  0
 22 23  2  0  0  0
 22 42  1  0  0  0
 23 24  1  0  0  0
 23 34  1  0  0  0
 24 25  2  0  0  0
 24 43  1  0  0  0
 25 26  1  0  0  0
 25 44  1  0  0  0
 27 28  1  0  0  0
 27 32  1  0  0  0
 28 29  1  0  0  0
 28 45  1  0  0  0
 28 46  1  0  0  0
 29 30  1  0  0  0
 29 47  1  0  0  0
 29 48  1  0  0  0
 30 31  1  0  0  0
 30 33  1  0  0  0
 31 32  1  0  0  0
 31 49  1  0  0  0
 31 50  1  0  0  0
 32 51  1  0  0  0
 32 52  1  0  0  0
 33 53  1  0  0  0
 33 54  1  0  0  0
 33 55  1  0  0  0
M  END
> <s_m_entry_id>
3326

> <s_m_entry_name>
dock_pv.55

> <s_m_Source_Path>
/home/csk/Desktop/cluster/DUD-E-result/kpcb

> <s_m_Source_File>
dock_pv.maegz

> <i_m_Source_File_Index>
55

> <chembl_id>
CHEMBL2153750

> <chembl_pref_name>
None

> <i_lp_mmshare_version>
53161

> <i_f3d_flags>
0

> <r_lp_tautomer_probability>
1

> <s_lp_Force_Field>
OPLS_2005

> <r_lp_Energy>
41.674793

> <b_lp_Chiralities_Consistent>
1

> <s_lp_Variant>
CHEMBL3045_lig335-1

> <s_i_glide_gridfile>
glide-grid_2i0e

> <i_i_glide_lignum>
499

> <i_i_glide_rotatable_bonds>
3

> <r_i_docking_score>
-8.78739846194117

> <r_i_glide_ligand_efficiency>
-0.258452895939446

> <r_i_glide_ligand_efficiency_sa>
-0.837287050775579

> <r_i_glide_ligand_efficiency_ln>
-1.94138279842089

> <r_i_glide_gscore>
-8.78739846194117

> <r_i_glide_lipo>
-2.51014046412051

> <r_i_glide_hbond>
-0.591085434828901

> <r_i_glide_metal>
0

> <r_i_glide_rewards>
-2.49377957722608

> <r_i_glide_evdw>
-53.6539840698242

> <r_i_glide_ecoul>
-4.48736047744751

> <r_i_glide_erotb>
0.202548269691389

> <r_i_glide_esite>
-0.0391379803487341

> <r_i_glide_emodel>
-79.6544361403196

> <r_i_glide_energy>
-58.1413445472717

> <r_i_glide_einternal>
6.59751605987549

> <i_i_glide_confnum>
45

> <i_i_glide_posenum>
13

> <r_i_glide_eff_state_penalty>
0

> <s_user_duplicate_titles>
CHEMBL3045_lig335

> <s_m_subgroup_title>
dock_pv

> <s_m_subgroupid>
dock_pv

> <b_m_subgroup_collapsed>
1

$$$$
CHEMBL3045_lig38
                    3D
 Schrodinger Suite 2021-1.
 49 53  0  0  1  0            999 V2000
   36.9913   56.5018   36.6172 C   0  0  0  0  0  0
   36.2747   56.1032   35.5519 C   0  0  0  0  0  0
   38.4434   56.7373   36.7111 C   0  0  0  0  0  0
   36.0749   56.7173   37.7027 C   0  0  0  0  0  0
   34.8904   56.0313   35.9292 C   0  0  0  0  0  0
   34.8732   56.3736   37.2224 N   0  0  0  0  0  0
   39.2506   57.1078   35.6472 C   0  0  0  0  0  0
   40.5697   57.1890   36.0195 N   0  0  0  0  0  0
   40.6526   56.9258   37.3731 C   0  0  0  0  0  0
   36.7613   55.7765   34.1818 C   0  0  0  0  0  0
   39.3380   56.6324   37.8431 C   0  0  0  0  0  0
   37.7540   54.7713   33.9184 C   0  0  0  0  0  0
   41.7664   56.9415   38.1186 N   0  0  0  0  0  0
   36.2882   57.1344   38.8371 O   0  0  0  0  0  0
   33.9120   55.7414   35.2434 O   0  0  0  0  0  0
   38.1860   54.5532   32.5700 C   0  0  0  0  0  0
   41.6705   57.5170   35.1249 C   0  0  0  0  0  0
   36.2358   56.4994   33.1045 C   0  0  0  0  0  0
   39.2197   56.3129   39.2071 C   0  0  0  0  0  0
   42.1965   56.2583   34.4076 C   0  0  0  0  0  0
   38.3271   53.9528   34.9368 C   0  0  0  0  0  0
   44.4268   57.1715   34.0401 O   0  0  0  0  0  0
   36.6670   56.2895   31.8032 C   0  0  0  0  0  0
   41.5886   56.6533   39.4330 C   0  0  0  0  0  0
   37.6346   55.3329   31.5274 C   0  0  0  0  0  0
   43.3269   56.5431   33.4036 C   0  0  0  0  0  0
   39.1555   53.5531   32.2958 C   0  0  0  0  0  0
   40.3604   56.3339   40.0082 C   0  0  0  0  0  0
   39.2827   52.9865   34.6329 C   0  0  0  0  0  0
   39.6938   52.7890   33.3234 C   0  0  0  0  0  0
   34.0278   56.4300   37.7724 H   0  0  0  0  0  0
   38.9893   57.2934   34.6154 H   0  0  0  0  0  0
   41.3364   58.2693   34.4079 H   0  0  0  0  0  0
   42.4645   57.9718   35.7145 H   0  0  0  0  0  0
   35.4831   57.2572   33.2838 H   0  0  0  0  0  0
   38.2712   56.0337   39.6336 H   0  0  0  0  0  0
   42.5460   55.5261   35.1398 H   0  0  0  0  0  0
   41.3797   55.7715   33.8715 H   0  0  0  0  0  0
   38.0131   54.0693   35.9645 H   0  0  0  0  0  0
   44.1558   58.0215   34.4094 H   0  0  0  0  0  0
   36.2480   56.8757   30.9989 H   0  0  0  0  0  0
   42.4799   56.6631   40.0408 H   0  0  0  0  0  0
   37.9615   55.1670   30.5109 H   0  0  0  0  0  0
   43.6598   55.6261   32.9176 H   0  0  0  0  0  0
   42.9726   57.2196   32.6276 H   0  0  0  0  0  0
   39.4711   53.3796   31.2749 H   0  0  0  0  0  0
   40.2916   56.1012   41.0629 H   0  0  0  0  0  0
   39.7070   52.3790   35.4203 H   0  0  0  0  0  0
   40.4311   52.0295   33.1004 H   0  0  0  0  0  0
  1  2  2  0  0  0
  1  3  1  0  0  0
  1  4  1  0  0  0
  2  5  1  0  0  0
  2 10  1  0  0  0
  3  7  2  0  0  0
  3 11  1  0  0  0
  4  6  1  0  0  0
  4 14  2  0  0  0
  5 15  2  0  0  0
  5  6  1  0  0  0
  6 31  1  0  0  0
  7  8  1  0  0  0
  7 32  1  0  0  0
  8 17  1  0  0  0
  8  9  1  0  0  0
  9 11  2  0  0  0
  9 13  1  0  0  0
 10 12  1  0  0  0
 10 18  2  0  0  0
 11 19  1  0  0  0
 12 16  1  0  0  0
 12 21  2  0  0  0
 13 24  2  0  0  0
 16 27  2  0  0  0
 16 25  1  0  0  0
 17 20  1  0  0  0
 17 33  1  0  0  0
 17 34  1  0  0  0
 18 23  1  0  0  0
 18 35  1  0  0  0
 19 28  2  0  0  0
 19 36  1  0  0  0
 20 26  1  0  0  0
 20 37  1  0  0  0
 20 38  1  0  0  0
 21 29  1  0  0  0
 21 39  1  0  0  0
 22 26  1  0  0  0
 22 40  1  0  0  0
 23 25  2  0  0  0
 23 41  1  0  0  0
 24 28  1  0  0  0
 24 42  1  0  0  0
 25 43  1  0  0  0
 26 44  1  0  0  0
 26 45  1  0  0  0
 27 30  1  0  0  0
 27 46  1  0  0  0
 28 47  1  0  0  0
 29 30  2  0  0  0
 29 48  1  0  0  0
 30 49  1  0  0  0
M  END
> <s_m_entry_id>
3327

> <s_m_entry_name>
dock_pv.56

> <s_m_Source_Path>
/home/csk/Desktop/cluster/DUD-E-result/kpcb

> <s_m_Source_File>
dock_pv.maegz

> <i_m_Source_File_Index>
56

> <chembl_id>
CHEMBL430694

> <chembl_pref_name>
None

> <i_lp_mmshare_version>
53161

> <i_f3d_flags>
0

> <r_lp_tautomer_probability>
1

> <s_lp_Force_Field>
OPLS_2005

> <r_lp_Energy>
30.134633

> <b_lp_Chiralities_Consistent>
1

> <s_lp_Variant>
CHEMBL3045_lig38-1

> <s_i_glide_gridfile>
glide-grid_2i0e

> <i_i_glide_lignum>
40

> <i_i_glide_rotatable_bonds>
6

> <r_i_docking_score>
-8.78426010712888

> <r_i_glide_ligand_efficiency>
-0.292808670237629

> <r_i_glide_ligand_efficiency_sa>
-0.909824617155988

> <r_i_glide_ligand_efficiency_ln>
-1.99587960851949

> <r_i_glide_gscore>
-8.78426010712888

> <r_i_glide_lipo>
-2.02641733168657

> <r_i_glide_hbond>
-0.848131278582893

> <r_i_glide_metal>
0

> <r_i_glide_rewards>
-2.6296059757712

> <r_i_glide_evdw>
-47.988410949707

> <r_i_glide_ecoul>
-8.76296615600586

> <r_i_glide_erotb>
0.433759949798013

> <r_i_glide_esite>
0

> <r_i_glide_emodel>
-87.4018775615163

> <r_i_glide_energy>
-56.7513771057129

> <r_i_glide_einternal>
1.94807648658752

> <i_i_glide_confnum>
67

> <i_i_glide_posenum>
390

> <r_i_glide_eff_state_penalty>
0

> <s_user_duplicate_titles>
CHEMBL3045_lig38,181661

> <s_m_subgroup_title>
dock_pv

> <s_m_subgroupid>
dock_pv

> <b_m_subgroup_collapsed>
1

$$$$
CHEMBL3045_lig272
                    3D
 Schrodinger Suite 2021-1.
 37 39  0  0  1  0            999 V2000
   38.0700   56.6828   34.3793 O   0  0  0  0  0  0
   36.9975   56.4438   33.5951 C   0  0  0  0  0  0
   35.7083   56.6309   34.3712 C   0  0  1  0  0  0
   34.6171   55.6583   33.8675 C   0  0  0  0  0  0
   34.6251   55.4098   32.4028 C   0  0  0  0  0  0
   35.7718   55.5992   31.6735 C   0  0  0  0  0  0
   37.0141   55.9822   32.3322 C   0  0  0  0  0  0
   36.2562   56.4861   35.7739 C   0  0  0  0  0  0
   37.6366   56.5944   35.6835 C   0  0  0  0  0  0
   38.4724   56.6102   36.8067 C   0  0  0  0  0  0
   37.8559   56.4859   38.0715 C   0  0  0  0  0  0
   36.4654   56.3737   38.1768 C   0  0  0  0  0  0
   35.6638   56.3888   37.0354 C   0  0  0  0  0  0
   35.1268   58.0428   34.1499 C   0  0  0  0  0  0
   33.7907   55.1731   34.6291 O   0  0  0  0  0  0
   33.3720   55.0650   31.7272 C   0  0  0  0  0  0
   32.7999   53.9844   31.8978 O   0  0  0  0  0  0
   32.7265   56.1181   30.8370 C   0  0  0  0  0  0
   35.8091   55.4855   30.3177 O   0  0  0  0  0  0
   39.9622   56.7716   36.6292 C   0  0  0  0  0  0
   40.4293   57.5061   35.7623 O   0  0  0  0  0  0
   40.7497   56.0446   37.4197 N   0  0  0  0  0  0
   38.5793   56.4921   39.2370 O   0  0  0  0  0  0
   34.3018   56.3699   37.1561 O   0  0  0  0  0  0
   37.9621   55.8108   31.8409 H   0  0  0  0  0  0
   36.0039   56.2918   39.1466 H   0  0  0  0  0  0
   35.8991   58.7723   34.3565 H   0  0  0  0  0  0
   34.7887   58.2255   33.1285 H   0  0  0  0  0  0
   34.3017   58.2535   34.8324 H   0  0  0  0  0  0
   33.4413   56.5110   30.1152 H   0  0  0  0  0  0
   32.3456   56.9412   31.4401 H   0  0  0  0  0  0
   31.9024   55.6803   30.2763 H   0  0  0  0  0  0
   36.7224   55.5027   30.0218 H   0  0  0  0  0  0
   41.7494   56.0869   37.3013 H   0  0  0  0  0  0
   40.3437   55.5194   38.1796 H   0  0  0  0  0  0
   38.0707   56.2844   40.0273 H   0  0  0  0  0  0
   33.9505   56.6073   38.0231 H   0  0  0  0  0  0
  1  2  1  0  0  0
  1  9  1  0  0  0
  2  7  2  0  0  0
  2  3  1  0  0  0
  3  8  1  0  0  0
  3 14  1  0  0  0
  3  4  1  0  0  0
  4  5  1  0  0  0
  4 15  2  0  0  0
  5  6  2  0  0  0
  5 16  1  0  0  0
  6  7  1  0  0  0
  6 19  1  0  0  0
  7 25  1  0  0  0
  8 13  1  0  0  0
  8  9  2  0  0  0
  9 10  1  0  0  0
 10 20  1  0  0  0
 10 11  2  0  0  0
 11 12  1  0  0  0
 11 23  1  0  0  0
 12 13  2  0  0  0
 12 26  1  0  0  0
 13 24  1  0  0  0
 14 27  1  0  0  0
 14 28  1  0  0  0
 14 29  1  0  0  0
 16 17  2  0  0  0
 16 18  1  0  0  0
 18 30  1  0  0  0
 18 31  1  0  0  0
 18 32  1  0  0  0
 19 33  1  0  0  0
 20 21  2  0  0  0
 20 22  1  0  0  0
 22 34  1  0  0  0
 22 35  1  0  0  0
 23 36  1  0  0  0
 24 37  1  0  0  0
M  END
> <s_m_entry_id>
3328

> <s_m_entry_name>
dock_pv.57

> <s_m_Source_Path>
/home/csk/Desktop/cluster/DUD-E-result/kpcb

> <s_m_Source_File>
dock_pv.maegz

> <i_m_Source_File_Index>
57

> <chembl_id>
CHEMBL475816

> <chembl_pref_name>
None

> <i_lp_mmshare_version>
53161

> <i_f3d_flags>
0

> <r_lp_tautomer_probability>
1

> <s_lp_Force_Field>
OPLS_2005

> <r_lp_Energy>
44.262271

> <b_lp_Chiralities_Consistent>
1

> <s_lp_Variant>
CHEMBL3045_lig272-1

> <s_i_glide_gridfile>
glide-grid_2i0e

> <i_i_glide_lignum>
432

> <i_i_glide_rotatable_bonds>
5

> <r_i_docking_score>
-8.77902242559029

> <r_i_glide_ligand_efficiency>
-0.365792601066262

> <r_i_glide_ligand_efficiency_sa>
-1.05512844230114

> <r_i_glide_ligand_efficiency_ln>
-2.10122290953326

> <r_i_glide_gscore>
-8.77902242559029

> <r_i_glide_lipo>
-2.74911050552714

> <r_i_glide_hbond>
-0.576

> <r_i_glide_metal>
0

> <r_i_glide_rewards>
-2.10300440358366

> <r_i_glide_evdw>
-39.9163208007812

> <r_i_glide_ecoul>
-9.03394317626953

> <r_i_glide_erotb>
0

> <r_i_glide_esite>
0

> <r_i_glide_emodel>
-69.938713398024

> <r_i_glide_energy>
-48.9502639770508

> <r_i_glide_einternal>
3.60434794425964

> <i_i_glide_confnum>
1

> <i_i_glide_posenum>
366

> <r_i_glide_eff_state_penalty>
0

> <s_user_duplicate_titles>
CHEMBL3045_lig272,475975

> <s_m_subgroup_title>
dock_pv

> <s_m_subgroupid>
dock_pv

> <b_m_subgroup_collapsed>
1

$$$$
CHEMBL3045_lig368
                    3D
 Schrodinger Suite 2021-1.
 50 54  0  0  1  0            999 V2000
   36.6226   55.9647   35.9283 C   0  0  0  0  0  0
   37.3616   56.4371   36.9526 C   0  0  0  0  0  0
   36.4536   56.7115   38.0362 C   0  0  0  0  0  0
   35.2374   56.3895   37.5856 N   0  0  0  0  0  0
   35.2412   55.9457   36.3294 C   0  0  0  0  0  0
   38.7162   56.6741   37.1353 N   0  0  0  0  0  0
   39.7438   56.9114   36.2080 C   0  0  0  0  0  0
   37.0252   55.4991   34.5927 C   0  0  0  0  0  0
   37.1403   55.3130   32.3015 C   0  0  0  0  0  0
   36.4710   55.9887   33.3587 C   0  0  0  0  0  0
   35.4843   56.9384   33.0345 C   0  0  0  0  0  0
   35.1766   57.1748   31.6977 C   0  0  0  0  0  0
   35.8450   56.5000   30.6834 C   0  0  0  0  0  0
   36.8455   55.5706   30.9545 C   0  0  0  0  0  0
   37.9929   54.5445   34.2695 C   0  0  0  0  0  0
   38.0403   54.4368   32.8840 N   0  0  0  0  0  0
   38.9177   53.5094   32.1681 C   0  0  0  0  0  0
   40.2555   53.5092   32.9197 C   0  0  0  0  0  0
   40.0880   53.0142   34.3740 C   0  0  2  0  0  0
   38.9022   53.6802   35.1526 C   0  0  0  0  0  0
   36.7009   57.1606   39.1560 O   0  0  0  0  0  0
   34.2490   55.6034   35.6894 O   0  0  0  0  0  0
   41.0571   56.6723   36.6203 C   0  0  0  0  0  0
   42.1165   56.8768   35.7403 C   0  0  0  0  0  0
   41.8627   57.3249   34.4473 C   0  0  0  0  0  0
   40.5609   57.5886   34.0308 C   0  0  0  0  0  0
   39.5053   57.3919   34.9158 C   0  0  0  0  0  0
   41.4410   53.0811   35.1166 C   0  0  0  0  0  0
   41.3410   52.5900   36.4374 O   0  0  0  0  0  0
   34.3938   56.5009   38.1284 H   0  0  0  0  0  0
   39.0545   56.6598   38.0868 H   0  0  0  0  0  0
   34.9570   57.4718   33.8101 H   0  0  0  0  0  0
   34.4074   57.8906   31.4422 H   0  0  0  0  0  0
   35.5795   56.6972   29.6550 H   0  0  0  0  0  0
   37.3517   55.0586   30.1480 H   0  0  0  0  0  0
   39.0566   53.8190   31.1322 H   0  0  0  0  0  0
   38.4760   52.5118   32.1837 H   0  0  0  0  0  0
   40.6728   54.5179   32.9119 H   0  0  0  0  0  0
   40.9921   52.8944   32.3971 H   0  0  0  0  0  0
   39.8201   51.9588   34.2948 H   0  0  0  0  0  0
   38.3024   52.8961   35.6129 H   0  0  0  0  0  0
   39.2834   54.2598   35.9886 H   0  0  0  0  0  0
   41.2631   56.3070   37.6172 H   0  0  0  0  0  0
   43.1317   56.6818   36.0547 H   0  0  0  0  0  0
   42.6842   57.4785   33.7639 H   0  0  0  0  0  0
   40.3723   57.9411   33.0274 H   0  0  0  0  0  0
   38.5007   57.5974   34.5868 H   0  0  0  0  0  0
   41.8105   54.1055   35.1568 H   0  0  0  0  0  0
   42.1936   52.4924   34.5893 H   0  0  0  0  0  0
   42.2310   52.4233   36.7665 H   0  0  0  0  0  0
  1  2  2  0  0  0
  1  5  1  0  0  0
  1  8  1  0  0  0
  2  3  1  0  0  0
  2  6  1  0  0  0
  3  4  1  0  0  0
  3 21  2  0  0  0
  4  5  1  0  0  0
  4 30  1  0  0  0
  5 22  2  0  0  0
  6  7  1  0  0  0
  6 31  1  0  0  0
  7 23  2  0  0  0
  7 27  1  0  0  0
  8 10  1  0  0  0
  8 15  2  0  0  0
  9 16  1  0  0  0
  9 10  2  0  0  0
  9 14  1  0  0  0
 10 11  1  0  0  0
 11 12  2  0  0  0
 11 32  1  0  0  0
 12 13  1  0  0  0
 12 33  1  0  0  0
 13 14  2  0  0  0
 13 34  1  0  0  0
 14 35  1  0  0  0
 15 16  1  0  0  0
 15 20  1  0  0  0
 16 17  1  0  0  0
 17 18  1  0  0  0
 17 36  1  0  0  0
 17 37  1  0  0  0
 18 19  1  0  0  0
 18 38  1  0  0  0
 18 39  1  0  0  0
 19 20  1  0  0  0
 19 28  1  0  0  0
 19 40  1  0  0  0
 20 41  1  0  0  0
 20 42  1  0  0  0
 23 24  1  0  0  0
 23 43  1  0  0  0
 24 25  2  0  0  0
 24 44  1  0  0  0
 25 26  1  0  0  0
 25 45  1  0  0  0
 26 27  2  0  0  0
 26 46  1  0  0  0
 27 47  1  0  0  0
 28 29  1  0  0  0
 28 48  1  0  0  0
 28 49  1  0  0  0
 29 50  1  0  0  0
M  END
> <s_m_entry_id>
3329

> <s_m_entry_name>
dock_pv.58

> <s_m_Source_Path>
/home/csk/Desktop/cluster/DUD-E-result/kpcb

> <s_m_Source_File>
dock_pv.maegz

> <i_m_Source_File_Index>
58

> <chembl_id>
CHEMBL2236800

> <chembl_pref_name>
None

> <i_lp_mmshare_version>
53161

> <i_f3d_flags>
0

> <r_lp_tautomer_probability>
0.999999999997686

> <s_lp_Force_Field>
OPLS_2005

> <r_lp_Energy>
31.983791

> <b_lp_Chiralities_Consistent>
1

> <s_lp_Variant>
CHEMBL3045_lig368-1

> <s_i_glide_gridfile>
glide-grid_2i0e

> <i_i_glide_lignum>
532

> <i_i_glide_rotatable_bonds>
5

> <r_i_docking_score>
-8.77629615164522

> <r_i_glide_ligand_efficiency>
-0.302630901780869

> <r_i_glide_ligand_efficiency_sa>
-0.929778010470234

> <r_i_glide_ligand_efficiency_ln>
-2.00954927105829

> <r_i_glide_gscore>
-8.77629615164522

> <r_i_glide_lipo>
-2.6260563815624

> <r_i_glide_hbond>
-0.600837570869797

> <r_i_glide_metal>
0

> <r_i_glide_rewards>
-2.63973011922699

> <r_i_glide_evdw>
-49.1903533935547

> <r_i_glide_ecoul>
-5.4227557182312

> <r_i_glide_erotb>
0.363258947426382

> <r_i_glide_esite>
0

> <r_i_glide_emodel>
-83.4234229093573

> <r_i_glide_energy>
-54.6131091117859

> <r_i_glide_einternal>
1.94118094444275

> <i_i_glide_confnum>
3

> <i_i_glide_posenum>
8

> <r_i_glide_eff_state_penalty>
0

> <s_user_duplicate_titles>
CHEMBL3045_lig368

> <s_m_subgroup_title>
dock_pv

> <s_m_subgroupid>
dock_pv

> <b_m_subgroup_collapsed>
1

$$$$
CHEMBL3045_lig348
                    3D
 Schrodinger Suite 2021-1.
 58 63  0  0  1  0            999 V2000
   34.8312   56.3725   37.2923 N   0  0  0  0  0  0
   36.0448   56.7394   37.7179 C   0  0  0  0  0  0
   36.9162   56.5310   36.5935 C   0  0  0  0  0  0
   36.1625   56.0751   35.5711 C   0  0  0  0  0  0
   34.8099   55.9553   36.0256 C   0  0  0  0  0  0
   36.3003   57.1718   38.8391 O   0  0  0  0  0  0
   33.8189   55.5726   35.4084 O   0  0  0  0  0  0
   37.7581   54.7720   31.8715 N   0  0  0  0  0  0
   38.2094   54.3916   33.0941 C   0  0  0  0  0  0
   37.6629   54.7875   34.2702 N   0  0  0  0  0  0
   36.6141   55.6472   34.2199 C   0  0  0  0  0  0
   35.9979   56.0269   32.9830 C   0  0  0  0  0  0
   34.8411   56.8404   32.8275 C   0  0  0  0  0  0
   34.2519   56.9838   31.5725 C   0  0  0  0  0  0
   34.8073   56.3745   30.4502 C   0  0  0  0  0  0
   36.0056   55.6771   30.5491 C   0  0  0  0  0  0
   36.6163   55.4995   31.8106 C   0  0  0  0  0  0
   39.1901   53.3996   33.1404 N   0  0  0  0  0  0
   39.9397   53.0480   34.3630 C   0  0  0  0  0  0
   41.2714   53.8269   34.4687 C   0  0  0  0  0  0
   42.1062   53.5776   33.2952 N   0  0  0  0  0  0
   41.3846   53.9234   32.0697 C   0  0  0  0  0  0
   40.0727   53.1057   31.9945 C   0  0  0  0  0  0
   43.3890   54.2631   33.3749 C   0  0  0  0  0  0
   40.4471   57.1741   35.7833 N   0  0  0  0  0  0
   39.1049   57.1725   35.5112 C   0  0  0  0  0  0
   38.3712   56.7745   36.6131 C   0  0  0  0  0  0
   39.3336   56.6509   37.6888 C   0  0  0  0  0  0
   39.2672   56.3191   39.0560 C   0  0  0  0  0  0
   40.4319   56.2847   39.8148 C   0  0  0  0  0  0
   41.6701   56.5555   39.2433 C   0  0  0  0  0  0
   41.8006   56.8720   37.8940 C   0  0  0  0  0  0
   40.6282   56.9177   37.1290 C   0  0  0  0  0  0
   41.4949   57.4465   34.8146 C   0  0  0  0  0  0
   34.0055   56.4340   37.8714 H   0  0  0  0  0  0
   34.3830   57.3073   33.6832 H   0  0  0  0  0  0
   33.3437   57.5612   31.4706 H   0  0  0  0  0  0
   34.3194   56.4732   29.4918 H   0  0  0  0  0  0
   36.4545   55.2252   29.6747 H   0  0  0  0  0  0
   39.3440   53.2187   35.2594 H   0  0  0  0  0  0
   40.1482   51.9769   34.3541 H   0  0  0  0  0  0
   41.0633   54.8886   34.5689 H   0  0  0  0  0  0
   41.8024   53.5153   35.3707 H   0  0  0  0  0  0
   42.0028   53.6861   31.2016 H   0  0  0  0  0  0
   41.1730   54.9957   32.0276 H   0  0  0  0  0  0
   40.3073   52.0402   31.9969 H   0  0  0  0  0  0
   39.5786   53.2850   31.0400 H   0  0  0  0  0  0
   44.0225   53.9790   32.5322 H   0  0  0  0  0  0
   43.2774   55.3485   33.3672 H   0  0  0  0  0  0
   43.9196   53.9767   34.2851 H   0  0  0  0  0  0
   38.7769   57.3780   34.5028 H   0  0  0  0  0  0
   38.3297   56.0728   39.5312 H   0  0  0  0  0  0
   40.3715   56.0261   40.8632 H   0  0  0  0  0  0
   42.5554   56.5057   39.8583 H   0  0  0  0  0  0
   42.7722   57.0685   37.4607 H   0  0  0  0  0  0
   41.1044   57.3941   33.7975 H   0  0  0  0  0  0
   41.9050   58.4261   35.0010 H   0  0  0  0  0  0
   42.2942   56.7174   34.9286 H   0  0  0  0  0  0
  1  2  1  0  0  0
  1  5  1  0  0  0
  1 35  1  0  0  0
  2  3  1  0  0  0
  2  6  2  0  0  0
  3  4  2  0  0  0
  3 27  1  0  0  0
  4  5  1  0  0  0
  4 11  1  0  0  0
  5  7  2  0  0  0
  8  9  1  0  0  0
  8 17  2  0  0  0
  9 10  2  0  0  0
  9 18  1  0  0  0
 10 11  1  0  0  0
 11 12  2  0  0  0
 12 13  1  0  0  0
 12 17  1  0  0  0
 13 14  2  0  0  0
 13 36  1  0  0  0
 14 15  1  0  0  0
 14 37  1  0  0  0
 15 16  2  0  0  0
 15 38  1  0  0  0
 16 17  1  0  0  0
 16 39  1  0  0  0
 18 19  1  0  0  0
 18 23  1  0  0  0
 19 20  1  0  0  0
 19 40  1  0  0  0
 19 41  1  0  0  0
 20 21  1  0  0  0
 20 42  1  0  0  0
 20 43  1  0  0  0
 21 22  1  0  0  0
 21 24  1  0  0  0
 22 23  1  0  0  0
 22 44  1  0  0  0
 22 45  1  0  0  0
 23 46  1  0  0  0
 23 47  1  0  0  0
 24 48  1  0  0  0
 24 49  1  0  0  0
 24 50  1  0  0  0
 25 26  1  0  0  0
 25 33  1  0  0  0
 25 34  1  0  0  0
 26 27  2  0  0  0
 26 51  1  0  0  0
 27 28  1  0  0  0
 28 29  1  0  0  0
 28 33  2  0  0  0
 29 30  2  0  0  0
 29 52  1  0  0  0
 30 31  1  0  0  0
 30 53  1  0  0  0
 31 32  2  0  0  0
 31 54  1  0  0  0
 32 33  1  0  0  0
 32 55  1  0  0  0
 34 56  1  0  0  0
 34 57  1  0  0  0
 34 58  1  0  0  0
M  END
> <s_m_entry_id>
3330

> <s_m_entry_name>
dock_pv.59

> <s_m_Source_Path>
/home/csk/Desktop/cluster/DUD-E-result/kpcb

> <s_m_Source_File>
dock_pv.maegz

> <i_m_Source_File_Index>
59

> <chembl_id>
CHEMBL2151412

> <chembl_pref_name>
None

> <i_lp_mmshare_version>
53161

> <i_f3d_flags>
0

> <r_lp_tautomer_probability>
1

> <s_lp_Force_Field>
OPLS_2005

> <r_lp_Energy>
47.638949

> <b_lp_Chiralities_Consistent>
1

> <s_lp_Variant>
CHEMBL3045_lig348-1

> <s_i_glide_gridfile>
glide-grid_2i0e

> <i_i_glide_lignum>
512

> <i_i_glide_rotatable_bonds>
3

> <r_i_docking_score>
-8.77100581085496

> <r_i_glide_ligand_efficiency>
-0.257970759142793

> <r_i_glide_ligand_efficiency_sa>
-0.835725114721147

> <r_i_glide_ligand_efficiency_ln>
-1.93776120199766

> <r_i_glide_gscore>
-8.77100581085496

> <r_i_glide_lipo>
-2.71853039022142

> <r_i_glide_hbond>
-0.581247201495968

> <r_i_glide_metal>
0

> <r_i_glide_rewards>
-2.4717051298977

> <r_i_glide_evdw>
-52.6833152770996

> <r_i_glide_ecoul>
-3.80763840675354

> <r_i_glide_erotb>
0.205788435628134

> <r_i_glide_esite>
0

> <r_i_glide_emodel>
-83.0765090211915

> <r_i_glide_energy>
-56.4909536838531

> <r_i_glide_einternal>
4.33433151245117

> <i_i_glide_confnum>
43

> <i_i_glide_posenum>
280

> <r_i_glide_eff_state_penalty>
0

> <s_user_duplicate_titles>
CHEMBL3045_lig348

> <s_m_subgroup_title>
dock_pv

> <s_m_subgroupid>
dock_pv

> <b_m_subgroup_collapsed>
1

$$$$
CHEMBL3045_lig210
                    3D
 Schrodinger Suite 2021-1.
 58 62  0  0  1  0            999 V2000
   36.9863   56.4867   36.6130 C   0  0  0  0  0  0
   36.2497   56.0674   35.5653 C   0  0  0  0  0  0
   38.4387   56.7467   36.6729 C   0  0  0  0  0  0
   36.6624   55.7108   34.2064 C   0  0  0  0  0  0
   39.1059   57.0768   35.5924 N   0  0  0  0  0  0
   36.0808   56.7171   37.7092 C   0  0  0  0  0  0
   34.8789   55.9689   35.9782 C   0  0  0  0  0  0
   34.8736   56.3734   37.2482 N   0  0  0  0  0  0
   40.4010   57.2217   35.9132 N   0  0  0  0  0  0
   37.8517   54.7886   32.5053 N   0  0  0  0  0  0
   37.7471   54.9313   33.8689 C   0  0  0  0  0  0
   39.3429   56.6804   37.7977 C   0  0  0  0  0  0
   36.0233   56.0568   32.9649 C   0  0  0  0  0  0
   40.6176   57.0127   37.2604 C   0  0  0  0  0  0
   36.7811   55.4540   31.9094 C   0  0  0  0  0  0
   38.8864   54.0607   31.8953 C   0  0  0  0  0  0
   36.3009   57.1523   38.8370 O   0  0  0  0  0  0
   33.8992   55.6030   35.3336 O   0  0  0  0  0  0
   41.3704   57.5027   34.8546 C   0  0  0  0  0  0
   39.4333   54.3411   30.7017 C   0  0  0  0  0  0
   41.7988   56.2335   34.0739 C   0  0  0  0  0  0
   41.8453   54.3723   35.7797 N   0  0  0  0  0  0
   39.2577   56.3718   39.1672 C   0  0  0  0  0  0
   34.8841   56.8101   32.6324 C   0  0  0  0  0  0
   41.7787   57.0637   38.0434 C   0  0  0  0  0  0
   36.3837   55.5719   30.5663 C   0  0  0  0  0  0
   42.6417   55.2197   34.8874 C   0  0  0  0  0  0
   41.2091   53.2823   35.0387 C   0  0  0  0  0  0
   42.6992   53.7842   36.8105 C   0  0  0  0  0  0
   40.4096   56.4236   39.9508 C   0  0  0  0  0  0
   34.4825   56.8965   31.3034 C   0  0  0  0  0  0
   35.2140   56.2789   30.2979 C   0  0  0  0  0  0
   41.6405   56.7644   39.3981 C   0  0  0  0  0  0
   34.0324   56.4436   37.8047 H   0  0  0  0  0  0
   38.4829   54.4723   34.5144 H   0  0  0  0  0  0
   39.2330   53.2303   32.4929 H   0  0  0  0  0  0
   40.9410   58.2426   34.1777 H   0  0  0  0  0  0
   42.2432   57.9726   35.3098 H   0  0  0  0  0  0
   40.2275   53.7251   30.3058 H   0  0  0  0  0  0
   39.1094   55.1718   30.0953 H   0  0  0  0  0  0
   40.9067   55.7593   33.6659 H   0  0  0  0  0  0
   42.3898   56.5516   33.2140 H   0  0  0  0  0  0
   38.3259   56.0761   39.6229 H   0  0  0  0  0  0
   34.3013   57.2911   33.4021 H   0  0  0  0  0  0
   42.7423   57.3121   37.6228 H   0  0  0  0  0  0
   36.9264   55.1017   29.7601 H   0  0  0  0  0  0
   43.2743   54.6179   34.2301 H   0  0  0  0  0  0
   43.3283   55.8022   35.5042 H   0  0  0  0  0  0
   40.5944   52.6710   35.7016 H   0  0  0  0  0  0
   40.5558   53.6619   34.2555 H   0  0  0  0  0  0
   41.9459   52.6283   34.5666 H   0  0  0  0  0  0
   42.1125   53.1730   37.4974 H   0  0  0  0  0  0
   43.4851   53.1590   36.3789 H   0  0  0  0  0  0
   43.1836   54.5587   37.4079 H   0  0  0  0  0  0
   40.3443   56.1869   41.0032 H   0  0  0  0  0  0
   33.5840   57.4412   31.0483 H   0  0  0  0  0  0
   34.8616   56.3485   29.2774 H   0  0  0  0  0  0
   42.5114   56.7914   40.0357 H   0  0  0  0  0  0
  1  2  2  0  0  0
  1  3  1  0  0  0
  1  6  1  0  0  0
  2  4  1  0  0  0
  2  7  1  0  0  0
  3  5  2  0  0  0
  3 12  1  0  0  0
  4 11  2  0  0  0
  4 13  1  0  0  0
  5  9  1  0  0  0
  6  8  1  0  0  0
  6 17  2  0  0  0
  7 18  2  0  0  0
  7  8  1  0  0  0
  8 34  1  0  0  0
  9 19  1  0  0  0
  9 14  1  0  0  0
 10 11  1  0  0  0
 10 16  1  0  0  0
 10 15  1  0  0  0
 11 35  1  0  0  0
 12 14  2  0  0  0
 12 23  1  0  0  0
 13 15  2  0  0  0
 13 24  1  0  0  0
 14 25  1  0  0  0
 15 26  1  0  0  0
 16 20  2  0  0  0
 16 36  1  0  0  0
 19 21  1  0  0  0
 19 37  1  0  0  0
 19 38  1  0  0  0
 20 39  1  0  0  0
 20 40  1  0  0  0
 21 27  1  0  0  0
 21 41  1  0  0  0
 21 42  1  0  0  0
 22 27  1  0  0  0
 22 28  1  0  0  0
 22 29  1  0  0  0
 23 30  2  0  0  0
 23 43  1  0  0  0
 24 31  2  0  0  0
 24 44  1  0  0  0
 25 33  2  0  0  0
 25 45  1  0  0  0
 26 32  2  0  0  0
 26 46  1  0  0  0
 27 47  1  0  0  0
 27 48  1  0  0  0
 28 49  1  0  0  0
 28 50  1  0  0  0
 28 51  1  0  0  0
 29 52  1  0  0  0
 29 53  1  0  0  0
 29 54  1  0  0  0
 30 33  1  0  0  0
 30 55  1  0  0  0
 31 32  1  0  0  0
 31 56  1  0  0  0
 32 57  1  0  0  0
 33 58  1  0  0  0
M  END
> <s_m_entry_id>
3331

> <s_m_entry_name>
dock_pv.60

> <s_m_Source_Path>
/home/csk/Desktop/cluster/DUD-E-result/kpcb

> <s_m_Source_File>
dock_pv.maegz

> <i_m_Source_File_Index>
60

> <chembl_id>
CHEMBL368193

> <chembl_pref_name>
None

> <i_lp_mmshare_version>
53161

> <i_f3d_flags>
0

> <r_lp_tautomer_probability>
1

> <s_lp_Force_Field>
OPLS_2005

> <r_lp_Energy>
31.384585

> <b_lp_Chiralities_Consistent>
1

> <s_lp_Variant>
CHEMBL3045_lig210-1

> <s_i_glide_gridfile>
glide-grid_2i0e

> <i_i_glide_lignum>
367

> <i_i_glide_rotatable_bonds>
7

> <r_i_docking_score>
-8.76035991871655

> <r_i_glide_ligand_efficiency>
-0.26546545208232

> <r_i_glide_ligand_efficiency_sa>
-0.851489549989489

> <r_i_glide_ligand_efficiency_ln>
-1.94825868720645

> <r_i_glide_gscore>
-8.76035991871655

> <r_i_glide_lipo>
-2.61773984945115

> <r_i_glide_hbond>
-0.583644742588977

> <r_i_glide_metal>
0

> <r_i_glide_rewards>
-2.44745383058641

> <r_i_glide_evdw>
-50.1580467224121

> <r_i_glide_ecoul>
-6.91718912124634

> <r_i_glide_erotb>
0.433959208217551

> <r_i_glide_esite>
0

> <r_i_glide_emodel>
-89.0140409098863

> <r_i_glide_energy>
-57.0752358436584

> <r_i_glide_einternal>
0.177304536104202

> <i_i_glide_confnum>
19

> <i_i_glide_posenum>
385

> <r_i_glide_eff_state_penalty>
0

> <s_user_duplicate_titles>
CHEMBL3045_lig210,296872

> <s_m_subgroup_title>
dock_pv

> <s_m_subgroupid>
dock_pv

> <b_m_subgroup_collapsed>
1

$$$$
CHEMBL3045_lig367
                    3D
 Schrodinger Suite 2021-1.
 57 61  0  0  1  0            999 V2000
   36.4364   56.1134   35.7685 C   0  0  0  0  0  0
   37.1041   56.6249   36.8233 C   0  0  0  0  0  0
   36.1421   56.7702   37.8831 C   0  0  0  0  0  0
   34.9702   56.3799   37.3775 N   0  0  0  0  0  0
   35.0485   55.9761   36.1121 C   0  0  0  0  0  0
   38.4283   56.9638   37.0761 N   0  0  0  0  0  0
   39.5195   57.1895   36.2188 C   0  0  0  0  0  0
   36.9077   55.6519   34.4632 C   0  0  0  0  0  0
   37.1401   55.3285   32.2059 C   0  0  0  0  0  0
   36.4064   56.0560   33.1844 C   0  0  0  0  0  0
   35.4138   56.9580   32.7647 C   0  0  0  0  0  0
   35.1541   57.0945   31.4046 C   0  0  0  0  0  0
   35.8831   56.3753   30.4639 C   0  0  0  0  0  0
   36.9023   55.5017   30.8365 C   0  0  0  0  0  0
   37.8972   54.7054   34.2495 C   0  0  0  0  0  0
   38.0207   54.4952   32.8824 N   0  0  0  0  0  0
   38.8823   53.4713   32.2744 C   0  0  0  0  0  0
   40.0883   53.2384   33.2015 C   0  0  0  0  0  0
   39.6631   52.8823   34.6464 C   0  0  2  0  0  0
   38.7793   53.9899   35.2608 C   0  0  0  0  0  0
   36.3174   57.1715   39.0327 O   0  0  0  0  0  0
   34.1114   55.5730   35.4256 O   0  0  0  0  0  0
   40.7985   57.0167   36.7533 C   0  0  0  0  0  0
   41.9234   57.1716   35.9474 C   0  0  0  0  0  0
   41.7706   57.5136   34.6065 C   0  0  0  0  0  0
   40.5044   57.7191   34.0687 C   0  0  0  0  0  0
   39.3831   57.5667   34.8793 C   0  0  0  0  0  0
   40.8298   52.6020   35.6463 C   0  0  0  0  0  0
   41.9336   53.5737   35.5668 N   0  0  0  0  0  0
   42.9950   53.0876   34.6774 C   0  0  0  0  0  0
   42.5351   53.7965   36.8759 C   0  0  0  0  0  0
   34.1049   56.4073   37.8998 H   0  0  0  0  0  0
   38.7010   57.0060   38.0481 H   0  0  0  0  0  0
   34.8423   57.5201   33.4879 H   0  0  0  0  0  0
   34.3720   57.7639   31.0764 H   0  0  0  0  0  0
   35.6535   56.4932   29.4153 H   0  0  0  0  0  0
   37.4562   54.9529   30.0869 H   0  0  0  0  0  0
   39.2039   53.7847   31.2801 H   0  0  0  0  0  0
   38.3066   52.5503   32.1700 H   0  0  0  0  0  0
   40.7244   54.1253   33.2019 H   0  0  0  0  0  0
   40.7106   52.4389   32.7968 H   0  0  0  0  0  0
   39.0497   51.9795   34.6316 H   0  0  0  0  0  0
   38.1472   53.5725   36.0382 H   0  0  0  0  0  0
   39.4244   54.7150   35.7432 H   0  0  0  0  0  0
   40.9304   56.7304   37.7866 H   0  0  0  0  0  0
   42.9114   57.0198   36.3569 H   0  0  0  0  0  0
   42.6460   57.6262   33.9840 H   0  0  0  0  0  0
   40.3908   57.9885   33.0288 H   0  0  0  0  0  0
   38.4091   57.7223   34.4495 H   0  0  0  0  0  0
   41.1715   51.5722   35.6370 H   0  0  0  0  0  0
   40.3917   52.6702   36.6445 H   0  0  0  0  0  0
   43.7997   53.8198   34.6022 H   0  0  0  0  0  0
   43.4299   52.1526   35.0387 H   0  0  0  0  0  0
   42.6468   52.9042   33.6641 H   0  0  0  0  0  0
   43.3136   54.5586   36.8224 H   0  0  0  0  0  0
   41.7942   54.1329   37.6026 H   0  0  0  0  0  0
   42.9907   52.8801   37.2399 H   0  0  0  0  0  0
  1  2  2  0  0  0
  1  5  1  0  0  0
  1  8  1  0  0  0
  2  3  1  0  0  0
  2  6  1  0  0  0
  3  4  1  0  0  0
  3 21  2  0  0  0
  4  5  1  0  0  0
  4 32  1  0  0  0
  5 22  2  0  0  0
  6  7  1  0  0  0
  6 33  1  0  0  0
  7 23  2  0  0  0
  7 27  1  0  0  0
  8 10  1  0  0  0
  8 15  2  0  0  0
  9 16  1  0  0  0
  9 10  2  0  0  0
  9 14  1  0  0  0
 10 11  1  0  0  0
 11 12  2  0  0  0
 11 34  1  0  0  0
 12 13  1  0  0  0
 12 35  1  0  0  0
 13 14  2  0  0  0
 13 36  1  0  0  0
 14 37  1  0  0  0
 15 16  1  0  0  0
 15 20  1  0  0  0
 16 17  1  0  0  0
 17 18  1  0  0  0
 17 38  1  0  0  0
 17 39  1  0  0  0
 18 19  1  0  0  0
 18 40  1  0  0  0
 18 41  1  0  0  0
 19 20  1  0  0  0
 19 28  1  0  0  0
 19 42  1  0  0  0
 20 43  1  0  0  0
 20 44  1  0  0  0
 23 24  1  0  0  0
 23 45  1  0  0  0
 24 25  2  0  0  0
 24 46  1  0  0  0
 25 26  1  0  0  0
 25 47  1  0  0  0
 26 27  2  0  0  0
 26 48  1  0  0  0
 27 49  1  0  0  0
 28 29  1  0  0  0
 28 50  1  0  0  0
 28 51  1  0  0  0
 29 30  1  0  0  0
 29 31  1  0  0  0
 30 52  1  0  0  0
 30 53  1  0  0  0
 30 54  1  0  0  0
 31 55  1  0  0  0
 31 56  1  0  0  0
 31 57  1  0  0  0
M  END
> <s_m_entry_id>
3332

> <s_m_entry_name>
dock_pv.61

> <s_m_Source_Path>
/home/csk/Desktop/cluster/DUD-E-result/kpcb

> <s_m_Source_File>
dock_pv.maegz

> <i_m_Source_File_Index>
61

> <chembl_id>
CHEMBL2236801

> <chembl_pref_name>
None

> <i_lp_mmshare_version>
53161

> <i_f3d_flags>
0

> <r_lp_tautomer_probability>
0.999999999997686

> <s_lp_Force_Field>
OPLS_2005

> <r_lp_Energy>
47.069199

> <b_lp_Chiralities_Consistent>
1

> <s_lp_Variant>
CHEMBL3045_lig367-1

> <s_i_glide_gridfile>
glide-grid_2i0e

> <i_i_glide_lignum>
531

> <i_i_glide_rotatable_bonds>
5

> <r_i_docking_score>
-8.76023625621609

> <r_i_glide_ligand_efficiency>
-0.282588266329551

> <r_i_glide_ligand_efficiency_sa>
-0.887717311424342

> <r_i_glide_ligand_efficiency_ln>
-1.97570174477607

> <r_i_glide_gscore>
-8.76023625621609

> <r_i_glide_lipo>
-2.5961595508711

> <r_i_glide_hbond>
-0.608

> <r_i_glide_metal>
0

> <r_i_glide_rewards>
-2.43696142128638

> <r_i_glide_evdw>
-46.9420318603516

> <r_i_glide_ecoul>
-7.29124689102173

> <r_i_glide_erotb>
0.321673342612222

> <r_i_glide_esite>
0

> <r_i_glide_emodel>
-80.107259577322

> <r_i_glide_energy>
-54.2332787513733

> <r_i_glide_einternal>
7.43127298355103

> <i_i_glide_confnum>
34

> <i_i_glide_posenum>
163

> <r_i_glide_eff_state_penalty>
0

> <s_user_duplicate_titles>
CHEMBL3045_lig367

> <s_m_subgroup_title>
dock_pv

> <s_m_subgroupid>
dock_pv

> <b_m_subgroup_collapsed>
1

$$$$
CHEMBL3045_lig366
                    3D
 Schrodinger Suite 2021-1.
 57 61  0  0  1  0            999 V2000
   36.5640   55.8754   35.9236 C   0  0  0  0  0  0
   37.2578   56.1951   37.0316 C   0  0  0  0  0  0
   36.3013   56.4788   38.0654 C   0  0  0  0  0  0
   35.1010   56.3486   37.4999 N   0  0  0  0  0  0
   35.1587   55.9715   36.2225 C   0  0  0  0  0  0
   38.6097   56.2683   37.3192 N   0  0  0  0  0  0
   39.6773   56.7030   36.5180 C   0  0  0  0  0  0
   37.0406   55.4502   34.5966 C   0  0  0  0  0  0
   37.2748   55.2956   32.3113 C   0  0  0  0  0  0
   36.5770   55.9824   33.3431 C   0  0  0  0  0  0
   35.6464   56.9746   32.9843 C   0  0  0  0  0  0
   35.4042   57.2289   31.6373 C   0  0  0  0  0  0
   36.0930   56.5368   30.6496 C   0  0  0  0  0  0
   37.0500   55.5721   30.9560 C   0  0  0  0  0  0
   37.9876   54.4657   34.3077 C   0  0  0  0  0  0
   38.1179   54.3804   32.9218 N   0  0  0  0  0  0
   38.9295   53.3694   32.2169 C   0  0  0  0  0  0
   40.1164   52.9558   33.1152 C   0  0  2  0  0  0
   39.5204   52.4488   34.4427 C   0  0  0  0  0  0
   38.8474   53.5906   35.2310 C   0  0  0  0  0  0
   36.5028   56.7894   39.2369 O   0  0  0  0  0  0
   34.1903   55.7621   35.4947 O   0  0  0  0  0  0
   40.9743   56.4435   36.9701 C   0  0  0  0  0  0
   42.0719   56.8464   36.2174 C   0  0  0  0  0  0
   41.8700   57.5221   35.0182 C   0  0  0  0  0  0
   40.5840   57.8009   34.5628 C   0  0  0  0  0  0
   39.4895   57.3912   35.3159 C   0  0  0  0  0  0
   41.2037   54.0532   33.3003 C   0  0  0  0  0  0
   41.7591   54.5721   32.0402 N   0  0  0  0  0  0
   42.5216   53.5573   31.3166 C   0  0  0  0  0  0
   42.6511   55.6922   32.3195 C   0  0  0  0  0  0
   34.2271   56.5068   37.9881 H   0  0  0  0  0  0
   38.8870   56.0858   38.2746 H   0  0  0  0  0  0
   35.1035   57.5207   33.7401 H   0  0  0  0  0  0
   34.6680   57.9695   31.3553 H   0  0  0  0  0  0
   35.8790   56.7500   29.6127 H   0  0  0  0  0  0
   37.5793   55.0461   30.1706 H   0  0  0  0  0  0
   39.2617   53.7404   31.2468 H   0  0  0  0  0  0
   38.3009   52.4971   32.0371 H   0  0  0  0  0  0
   40.5989   52.0871   32.6614 H   0  0  0  0  0  0
   40.3021   52.0175   35.0669 H   0  0  0  0  0  0
   38.7941   51.6551   34.2570 H   0  0  0  0  0  0
   38.2538   53.1762   36.0363 H   0  0  0  0  0  0
   39.6178   54.1904   35.7069 H   0  0  0  0  0  0
   41.1373   55.9169   37.8985 H   0  0  0  0  0  0
   43.0743   56.6421   36.5631 H   0  0  0  0  0  0
   42.7228   57.8479   34.4359 H   0  0  0  0  0  0
   40.4368   58.3281   33.6308 H   0  0  0  0  0  0
   38.4967   57.6042   34.9569 H   0  0  0  0  0  0
   42.0149   53.6528   33.9145 H   0  0  0  0  0  0
   40.7812   54.8907   33.8564 H   0  0  0  0  0  0
   42.9379   53.9635   30.3926 H   0  0  0  0  0  0
   43.3493   53.1784   31.9188 H   0  0  0  0  0  0
   41.8963   52.7118   31.0285 H   0  0  0  0  0  0
   43.2473   55.9668   31.4452 H   0  0  0  0  0  0
   42.0609   56.5665   32.5791 H   0  0  0  0  0  0
   43.3464   55.4792   33.1372 H   0  0  0  0  0  0
  1  2  2  0  0  0
  1  5  1  0  0  0
  1  8  1  0  0  0
  2  3  1  0  0  0
  2  6  1  0  0  0
  3  4  1  0  0  0
  3 21  2  0  0  0
  4  5  1  0  0  0
  4 32  1  0  0  0
  5 22  2  0  0  0
  6  7  1  0  0  0
  6 33  1  0  0  0
  7 23  2  0  0  0
  7 27  1  0  0  0
  8 10  1  0  0  0
  8 15  2  0  0  0
  9 16  1  0  0  0
  9 10  2  0  0  0
  9 14  1  0  0  0
 10 11  1  0  0  0
 11 12  2  0  0  0
 11 34  1  0  0  0
 12 13  1  0  0  0
 12 35  1  0  0  0
 13 14  2  0  0  0
 13 36  1  0  0  0
 14 37  1  0  0  0
 15 16  1  0  0  0
 15 20  1  0  0  0
 16 17  1  0  0  0
 17 18  1  0  0  0
 17 38  1  0  0  0
 17 39  1  0  0  0
 18 19  1  0  0  0
 18 28  1  0  0  0
 18 40  1  0  0  0
 19 20  1  0  0  0
 19 41  1  0  0  0
 19 42  1  0  0  0
 20 43  1  0  0  0
 20 44  1  0  0  0
 23 24  1  0  0  0
 23 45  1  0  0  0
 24 25  2  0  0  0
 24 46  1  0  0  0
 25 26  1  0  0  0
 25 47  1  0  0  0
 26 27  2  0  0  0
 26 48  1  0  0  0
 27 49  1  0  0  0
 28 29  1  0  0  0
 28 50  1  0  0  0
 28 51  1  0  0  0
 29 30  1  0  0  0
 29 31  1  0  0  0
 30 52  1  0  0  0
 30 53  1  0  0  0
 30 54  1  0  0  0
 31 55  1  0  0  0
 31 56  1  0  0  0
 31 57  1  0  0  0
M  END
> <s_m_entry_id>
3333

> <s_m_entry_name>
dock_pv.62

> <s_m_Source_Path>
/home/csk/Desktop/cluster/DUD-E-result/kpcb

> <s_m_Source_File>
dock_pv.maegz

> <i_m_Source_File_Index>
62

> <chembl_id>
CHEMBL2236802

> <chembl_pref_name>
None

> <i_lp_mmshare_version>
53161

> <i_f3d_flags>
0

> <r_lp_tautomer_probability>
0.999999999997686

> <s_lp_Force_Field>
OPLS_2005

> <r_lp_Energy>
45.126487

> <b_lp_Chiralities_Consistent>
1

> <s_lp_Variant>
CHEMBL3045_lig366-1

> <s_i_glide_gridfile>
glide-grid_2i0e

> <i_i_glide_lignum>
530

> <i_i_glide_rotatable_bonds>
5

> <r_i_docking_score>
-8.68360042595896

> <r_i_glide_ligand_efficiency>
-0.28011614277287

> <r_i_glide_ligand_efficiency_sa>
-0.87995143032195

> <r_i_glide_ligand_efficiency_ln>
-1.95841801644695

> <r_i_glide_gscore>
-8.68360042595896

> <r_i_glide_lipo>
-2.51774314710088

> <r_i_glide_hbond>
-0.608

> <r_i_glide_metal>
0

> <r_i_glide_rewards>
-2.43955721944698

> <r_i_glide_evdw>
-47.8667678833008

> <r_i_glide_ecoul>
-6.97756671905518

> <r_i_glide_erotb>
0.321673342612222

> <r_i_glide_esite>
0

> <r_i_glide_emodel>
-83.9826873744707

> <r_i_glide_energy>
-54.844334602356

> <r_i_glide_einternal>
1.15039718151093

> <i_i_glide_confnum>
20

> <i_i_glide_posenum>
376

> <r_i_glide_eff_state_penalty>
0

> <s_user_duplicate_titles>
CHEMBL3045_lig366

> <s_m_subgroup_title>
dock_pv

> <s_m_subgroupid>
dock_pv

> <b_m_subgroup_collapsed>
1

$$$$
CHEMBL3045_lig28
                    3D
 Schrodinger Suite 2021-1.
 46 49  0  0  1  0            999 V2000
   36.6824   55.8700   36.0607 C   0  0  0  0  0  0
   37.4291   56.2737   37.1131 C   0  0  0  0  0  0
   37.0529   55.3279   34.7606 C   0  0  0  0  0  0
   35.2876   56.0054   36.3909 C   0  0  0  0  0  0
   36.4872   56.7073   38.1225 C   0  0  0  0  0  0
   35.2694   56.5034   37.6217 N   0  0  0  0  0  0
   37.9593   54.3245   34.4878 C   0  0  0  0  0  0
   38.0677   54.1228   33.1267 N   0  0  0  0  0  0
   37.2206   55.0198   32.4856 C   0  0  0  0  0  0
   38.9325   56.3245   37.3379 C   0  0  0  0  0  0
   36.5544   55.7790   33.4875 C   0  0  0  0  0  0
   39.7425   57.1875   34.9736 C   0  0  0  0  0  0
   39.9565   56.6571   36.3960 C   0  0  0  0  0  0
   37.0429   55.1720   31.1670 N   0  0  0  0  0  0
   36.7010   57.1720   39.2370 O   0  0  0  0  0  0
   34.2938   55.7354   35.7192 O   0  0  0  0  0  0
   40.5095   58.2563   34.7514 F   0  0  0  0  0  0
   40.0977   56.2611   34.0863 F   0  0  0  0  0  0
   38.5083   57.5720   34.7306 F   0  0  0  0  0  0
   38.9477   53.1297   32.5127 C   0  0  0  0  0  0
   39.3667   55.9720   38.6343 C   0  0  0  0  0  0
   35.6375   56.7585   33.0562 C   0  0  0  0  0  0
   39.9709   53.7886   31.5545 C   0  0  0  0  0  0
   41.3058   56.6026   36.7862 C   0  0  0  0  0  0
   41.9010   52.7720   32.5684 O   0  0  0  0  0  0
   36.1315   56.1070   30.7971 C   0  0  0  0  0  0
   41.2484   52.9635   31.3325 C   0  0  0  0  0  0
   35.4227   56.9102   31.6867 C   0  0  0  0  0  0
   40.7060   55.9285   39.0015 C   0  0  0  0  0  0
   41.6820   56.2394   38.0711 C   0  0  0  0  0  0
   34.4150   56.7205   38.1168 H   0  0  0  0  0  0
   38.5606   53.7350   35.1662 H   0  0  0  0  0  0
   39.4648   52.6049   33.3178 H   0  0  0  0  0  0
   38.3419   52.3749   32.0116 H   0  0  0  0  0  0
   38.6596   55.6772   39.3962 H   0  0  0  0  0  0
   35.1073   57.3752   33.7663 H   0  0  0  0  0  0
   39.4971   53.9675   30.5878 H   0  0  0  0  0  0
   40.2661   54.7723   31.9231 H   0  0  0  0  0  0
   42.0870   56.8548   36.0820 H   0  0  0  0  0  0
   42.6396   52.1534   32.4370 H   0  0  0  0  0  0
   35.9697   56.2034   29.7332 H   0  0  0  0  0  0
   41.0136   51.9729   30.9465 H   0  0  0  0  0  0
   41.9204   53.4475   30.6229 H   0  0  0  0  0  0
   34.7153   57.6394   31.3191 H   0  0  0  0  0  0
   40.9824   55.6380   40.0045 H   0  0  0  0  0  0
   42.7271   56.2008   38.3424 H   0  0  0  0  0  0
  1  2  2  0  0  0
  1  3  1  0  0  0
  1  4  1  0  0  0
  2  5  1  0  0  0
  2 10  1  0  0  0
  3  7  2  0  0  0
  3 11  1  0  0  0
  4  6  1  0  0  0
  4 16  2  0  0  0
  5 15  2  0  0  0
  5  6  1  0  0  0
  6 31  1  0  0  0
  7  8  1  0  0  0
  7 32  1  0  0  0
  8 20  1  0  0  0
  8  9  1  0  0  0
  9 11  2  0  0  0
  9 14  1  0  0  0
 10 13  1  0  0  0
 10 21  2  0  0  0
 11 22  1  0  0  0
 12 13  1  0  0  0
 12 17  1  0  0  0
 12 18  1  0  0  0
 12 19  1  0  0  0
 13 24  2  0  0  0
 14 26  2  0  0  0
 20 23  1  0  0  0
 20 33  1  0  0  0
 20 34  1  0  0  0
 21 29  1  0  0  0
 21 35  1  0  0  0
 22 28  2  0  0  0
 22 36  1  0  0  0
 23 27  1  0  0  0
 23 37  1  0  0  0
 23 38  1  0  0  0
 24 30  1  0  0  0
 24 39  1  0  0  0
 25 27  1  0  0  0
 25 40  1  0  0  0
 26 28  1  0  0  0
 26 41  1  0  0  0
 27 42  1  0  0  0
 27 43  1  0  0  0
 28 44  1  0  0  0
 29 30  2  0  0  0
 29 45  1  0  0  0
 30 46  1  0  0  0
M  END
> <s_m_entry_id>
3334

> <s_m_entry_name>
dock_pv.63

> <s_m_Source_Path>
/home/csk/Desktop/cluster/DUD-E-result/kpcb

> <s_m_Source_File>
dock_pv.maegz

> <i_m_Source_File_Index>
63

> <chembl_id>
CHEMBL325817

> <chembl_pref_name>
None

> <i_lp_mmshare_version>
53161

> <i_f3d_flags>
0

> <r_lp_tautomer_probability>
1

> <s_lp_Force_Field>
OPLS_2005

> <r_lp_Energy>
26.398692

> <b_lp_Chiralities_Consistent>
1

> <s_lp_Variant>
CHEMBL3045_lig28-1

> <s_i_glide_gridfile>
glide-grid_2i0e

> <i_i_glide_lignum>
30

> <i_i_glide_rotatable_bonds>
7

> <r_i_docking_score>
-8.65752854137962

> <r_i_glide_ligand_efficiency>
-0.288584284712654

> <r_i_glide_ligand_efficiency_sa>
-0.896698469149986

> <r_i_glide_ligand_efficiency_ln>
-1.96708481593026

> <r_i_glide_gscore>
-8.65752854137962

> <r_i_glide_lipo>
-2.01374143263878

> <r_i_glide_hbond>
-0.72

> <r_i_glide_metal>
0

> <r_i_glide_rewards>
-2.89583111380544

> <r_i_glide_evdw>
-42.0883369445801

> <r_i_glide_ecoul>
-8.82745838165283

> <r_i_glide_erotb>
0.400579609541533

> <r_i_glide_esite>
0

> <r_i_glide_emodel>
-73.2893565287511

> <r_i_glide_energy>
-50.9157953262329

> <r_i_glide_einternal>
6.80594348907471

> <i_i_glide_confnum>
46

> <i_i_glide_posenum>
298

> <r_i_glide_eff_state_penalty>
0

> <s_user_duplicate_titles>
CHEMBL3045_lig28

> <s_m_subgroup_title>
dock_pv

> <s_m_subgroupid>
dock_pv

> <b_m_subgroup_collapsed>
1

$$$$
CHEMBL3045_lig410
                    3D
 Schrodinger Suite 2021-1.
 58 63  0  0  1  0            999 V2000
   36.2558   56.4194   35.7663 C   0  0  0  0  0  0
   37.1202   56.6664   36.7702 C   0  0  0  0  0  0
   36.3542   56.7711   37.9884 C   0  0  0  0  0  0
   35.1010   56.4710   37.6330 N   0  0  0  0  0  0
   34.9493   56.2438   36.3277 C   0  0  0  0  0  0
   38.5823   56.8282   36.6908 C   0  0  0  0  0  0
   39.2549   57.2835   35.5715 C   0  0  0  0  0  0
   40.6122   57.1932   35.7377 N   0  0  0  0  0  0
   39.6167   56.5062   37.6555 C   0  0  0  0  0  0
   40.8783   56.7590   37.0237 C   0  0  0  0  0  0
   42.1013   56.5503   37.6768 C   0  0  0  0  0  0
   42.0531   56.0742   38.9874 C   0  0  0  0  0  0
   40.8480   55.8057   39.6231 C   0  0  0  0  0  0
   39.6317   56.0078   38.9732 C   0  0  0  0  0  0
   36.5054   56.3044   34.2953 C   0  0  0  0  0  0
   35.8993   57.2173   33.4068 C   0  0  0  0  0  0
   36.0950   57.1287   32.0342 C   0  0  0  0  0  0
   36.9590   56.1863   31.5012 C   0  0  0  0  0  0
   37.4059   55.3199   33.7536 C   0  0  0  0  0  0
   37.6472   55.2924   32.3434 C   0  0  0  0  0  0
   38.5776   54.3721   31.8045 C   0  0  0  0  0  0
   39.2327   53.4676   32.6292 C   0  0  0  0  0  0
   39.0215   53.4833   34.0038 C   0  0  0  0  0  0
   38.1049   54.3757   34.5590 C   0  0  0  0  0  0
   36.7038   57.0715   39.1275 O   0  0  0  0  0  0
   33.8985   55.9631   35.7602 O   0  0  0  0  0  0
   34.9133   58.5310   33.9627 Cl  0  0  0  0  0  0
   41.5989   57.5294   34.7263 C   0  0  0  0  0  0
   39.8282   52.5745   34.9208 C   0  0  0  0  0  0
   41.1121   53.1798   35.3056 N   0  0  1  0  0  0
   41.5982   52.5551   36.5315 C   0  0  0  0  0  0
   42.1412   53.0277   34.2716 C   0  0  0  0  0  0
   42.2873   54.1099   33.2282 C   0  0  0  0  0  0
   43.3279   53.9594   34.3148 C   0  0  0  0  0  0
   34.3257   56.4661   38.2807 H   0  0  0  0  0  0
   38.8665   57.6114   34.6169 H   0  0  0  0  0  0
   43.0466   56.7384   37.1897 H   0  0  0  0  0  0
   42.9800   55.8956   39.5161 H   0  0  0  0  0  0
   40.8516   55.4251   40.6353 H   0  0  0  0  0  0
   38.7172   55.7633   39.4895 H   0  0  0  0  0  0
   35.6022   57.8275   31.3741 H   0  0  0  0  0  0
   37.1314   56.1490   30.4381 H   0  0  0  0  0  0
   38.7585   54.3547   30.7380 H   0  0  0  0  0  0
   39.9349   52.7655   32.1972 H   0  0  0  0  0  0
   37.9573   54.3708   35.6292 H   0  0  0  0  0  0
   42.1864   58.3720   35.0693 H   0  0  0  0  0  0
   42.2693   56.6854   34.5844 H   0  0  0  0  0  0
   41.1167   57.7721   33.7801 H   0  0  0  0  0  0
   39.9390   51.5791   34.4857 H   0  0  0  0  0  0
   39.2223   52.4247   35.8175 H   0  0  0  0  0  0
   42.5608   52.9736   36.8299 H   0  0  0  0  0  0
   40.9050   52.7447   37.3511 H   0  0  0  0  0  0
   41.7187   51.4756   36.4349 H   0  0  0  0  0  0
   42.3401   52.0055   33.9451 H   0  0  0  0  0  0
   41.5966   54.9510   33.2518 H   0  0  0  0  0  0
   42.5300   53.8002   32.2104 H   0  0  0  0  0  0
   44.3044   53.5376   34.0716 H   0  0  0  0  0  0
   43.3811   54.6901   35.1220 H   0  0  0  0  0  0
  1  2  2  0  0  0
  1  5  1  0  0  0
  1 15  1  0  0  0
  2  3  1  0  0  0
  2  6  1  0  0  0
  3  4  1  0  0  0
  3 25  2  0  0  0
  4  5  1  0  0  0
  4 35  1  0  0  0
  5 26  2  0  0  0
  6  7  2  0  0  0
  6  9  1  0  0  0
  7  8  1  0  0  0
  7 36  1  0  0  0
  8 10  1  0  0  0
  8 28  1  0  0  0
  9 10  2  0  0  0
  9 14  1  0  0  0
 10 11  1  0  0  0
 11 12  2  0  0  0
 11 37  1  0  0  0
 12 13  1  0  0  0
 12 38  1  0  0  0
 13 14  2  0  0  0
 13 39  1  0  0  0
 14 40  1  0  0  0
 15 16  2  0  0  0
 15 19  1  0  0  0
 16 17  1  0  0  0
 16 27  1  0  0  0
 17 18  2  0  0  0
 17 41  1  0  0  0
 18 20  1  0  0  0
 18 42  1  0  0  0
 19 20  1  0  0  0
 19 24  2  0  0  0
 20 21  2  0  0  0
 21 22  1  0  0  0
 21 43  1  0  0  0
 22 23  2  0  0  0
 22 44  1  0  0  0
 23 24  1  0  0  0
 23 29  1  0  0  0
 24 45  1  0  0  0
 28 46  1  0  0  0
 28 47  1  0  0  0
 28 48  1  0  0  0
 29 30  1  0  0  0
 29 49  1  0  0  0
 29 50  1  0  0  0
 30 31  1  0  0  0
 30 32  1  0  0  0
 31 51  1  0  0  0
 31 52  1  0  0  0
 31 53  1  0  0  0
 32 33  1  0  0  0
 32 34  1  0  0  0
 32 54  1  0  0  0
 33 34  1  0  0  0
 33 55  1  0  0  0
 33 56  1  0  0  0
 34 57  1  0  0  0
 34 58  1  0  0  0
M  END
> <s_m_entry_id>
3335

> <s_m_entry_name>
dock_pv.64

> <s_m_Source_Path>
/home/csk/Desktop/cluster/DUD-E-result/kpcb

> <s_m_Source_File>
dock_pv.maegz

> <i_m_Source_File_Index>
64

> <chembl_id>
CHEMBL4073977

> <chembl_pref_name>
None

> <i_lp_mmshare_version>
53161

> <i_f3d_flags>
0

> <r_lp_tautomer_probability>
1

> <s_lp_Force_Field>
OPLS_2005

> <r_lp_Energy>
38.741147

> <b_lp_Chiralities_Consistent>
1

> <s_lp_Variant>
CHEMBL3045_lig410-1

> <s_i_glide_gridfile>
glide-grid_2i0e

> <i_i_glide_lignum>
576

> <i_i_glide_rotatable_bonds>
5

> <r_i_docking_score>
-8.65683561187147

> <r_i_glide_ligand_efficiency>
-0.254612812113867

> <r_i_glide_ligand_efficiency_sa>
-0.82484666991096

> <r_i_glide_ligand_efficiency_ln>
-1.91253780267659

> <r_i_glide_gscore>
-8.65683561187147

> <r_i_glide_lipo>
-2.74596481608114

> <r_i_glide_hbond>
-0.600398270263504

> <r_i_glide_metal>
0

> <r_i_glide_rewards>
-2.07262027063315

> <r_i_glide_evdw>
-51.1980590820312

> <r_i_glide_ecoul>
-6.65385961532593

> <r_i_glide_erotb>
0.320129641506779

> <r_i_glide_esite>
0

> <r_i_glide_emodel>
-87.0044561413334

> <r_i_glide_energy>
-57.8519186973572

> <r_i_glide_einternal>
3.68747520446777

> <i_i_glide_confnum>
170

> <i_i_glide_posenum>
353

> <r_i_glide_eff_state_penalty>
0

> <s_user_duplicate_titles>
CHEMBL3045_lig410

> <s_m_subgroup_title>
dock_pv

> <s_m_subgroupid>
dock_pv

> <b_m_subgroup_collapsed>
1

$$$$
CHEMBL3045_lig235
                    3D
 Schrodinger Suite 2021-1.
 39 42  0  0  1  0            999 V2000
   36.8523   56.3784   36.6254 C   0  0  0  0  0  0
   36.2103   56.0737   35.4845 C   0  0  0  0  0  0
   38.3001   56.5722   36.8705 C   0  0  0  0  0  0
   35.8733   56.4921   37.6730 C   0  0  0  0  0  0
   34.7015   56.2303   37.0983 N   0  0  0  0  0  0
   34.8094   55.9186   35.8078 C   0  0  0  0  0  0
   36.7526   55.8110   34.2386 N   0  0  0  0  0  0
   38.9229   56.3382   38.0905 C   0  0  0  0  0  0
   39.3687   56.9590   35.9656 C   0  0  0  0  0  0
   40.2778   56.4969   37.9793 N   0  0  0  0  0  0
   36.2367   56.0362   32.9470 C   0  0  0  0  0  0
   40.5999   56.8621   36.6935 C   0  0  0  0  0  0
   36.0317   56.7712   38.8568 O   0  0  0  0  0  0
   33.8756   55.5725   35.0867 O   0  0  0  0  0  0
   36.8462   55.4087   31.8445 C   0  0  0  0  0  0
   39.4412   57.3784   34.6235 C   0  0  0  0  0  0
   35.1477   56.8923   32.7230 C   0  0  0  0  0  0
   41.8466   57.1157   36.1111 C   0  0  0  0  0  0
   38.1016   54.5543   31.9974 C   0  0  0  0  0  0
   36.3012   55.5743   30.5670 C   0  0  0  0  0  0
   40.6809   57.6293   34.0397 C   0  0  0  0  0  0
   34.6022   57.0374   31.4505 C   0  0  0  0  0  0
   41.8554   57.4874   34.7679 C   0  0  0  0  0  0
   35.1684   56.3597   30.3762 C   0  0  0  0  0  0
   33.8251   56.2441   37.6004 H   0  0  0  0  0  0
   37.6895   55.4341   34.2155 H   0  0  0  0  0  0
   38.5071   56.0192   39.0380 H   0  0  0  0  0  0
   40.9122   56.3353   38.7486 H   0  0  0  0  0  0
   38.5505   57.5266   34.0376 H   0  0  0  0  0  0
   34.7034   57.4436   33.5363 H   0  0  0  0  0  0
   42.7685   57.0308   36.6678 H   0  0  0  0  0  0
   38.8395   55.0573   32.6230 H   0  0  0  0  0  0
   37.8625   53.5970   32.4616 H   0  0  0  0  0  0
   38.5879   54.3716   31.0370 H   0  0  0  0  0  0
   36.7523   55.0925   29.7115 H   0  0  0  0  0  0
   40.7320   57.9406   33.0056 H   0  0  0  0  0  0
   33.7407   57.6716   31.2978 H   0  0  0  0  0  0
   42.8015   57.6904   34.2866 H   0  0  0  0  0  0
   34.7403   56.4526   29.3887 H   0  0  0  0  0  0
  1  2  2  0  0  0
  1  3  1  0  0  0
  1  4  1  0  0  0
  2  6  1  0  0  0
  2  7  1  0  0  0
  3  8  2  0  0  0
  3  9  1  0  0  0
  4  5  1  0  0  0
  4 13  2  0  0  0
  5  6  1  0  0  0
  5 25  1  0  0  0
  6 14  2  0  0  0
  7 11  1  0  0  0
  7 26  1  0  0  0
  8 10  1  0  0  0
  8 27  1  0  0  0
  9 12  2  0  0  0
  9 16  1  0  0  0
 10 12  1  0  0  0
 10 28  1  0  0  0
 11 15  2  0  0  0
 11 17  1  0  0  0
 12 18  1  0  0  0
 15 19  1  0  0  0
 15 20  1  0  0  0
 16 21  2  0  0  0
 16 29  1  0  0  0
 17 22  2  0  0  0
 17 30  1  0  0  0
 18 23  2  0  0  0
 18 31  1  0  0  0
 19 32  1  0  0  0
 19 33  1  0  0  0
 19 34  1  0  0  0
 20 24  2  0  0  0
 20 35  1  0  0  0
 21 23  1  0  0  0
 21 36  1  0  0  0
 22 24  1  0  0  0
 22 37  1  0  0  0
 23 38  1  0  0  0
 24 39  1  0  0  0
M  END
> <s_m_entry_id>
3336

> <s_m_entry_name>
dock_pv.65

> <s_m_Source_Path>
/home/csk/Desktop/cluster/DUD-E-result/kpcb

> <s_m_Source_File>
dock_pv.maegz

> <i_m_Source_File_Index>
65

> <chembl_id>
CHEMBL435104

> <chembl_pref_name>
None

> <i_lp_mmshare_version>
53161

> <i_f3d_flags>
0

> <r_lp_tautomer_probability>
0.999999999997686

> <s_lp_Force_Field>
OPLS_2005

> <r_lp_Energy>
28.727175

> <b_lp_Chiralities_Consistent>
1

> <s_lp_Variant>
CHEMBL3045_lig235-1

> <s_i_glide_gridfile>
glide-grid_2i0e

> <i_i_glide_lignum>
393

> <i_i_glide_rotatable_bonds>
3

> <r_i_docking_score>
-8.64684916013364

> <r_i_glide_ligand_efficiency>
-0.360285381672235

> <r_i_glide_ligand_efficiency_sa>
-1.03924287270872

> <r_i_glide_ligand_efficiency_ln>
-2.06958778207353

> <r_i_glide_gscore>
-8.64684916013364

> <r_i_glide_lipo>
-2.58274317690528

> <r_i_glide_hbond>
-0.519313002024553

> <r_i_glide_metal>
0

> <r_i_glide_rewards>
-2.95272634497895

> <r_i_glide_evdw>
-42.0700187683105

> <r_i_glide_ecoul>
-5.84696388244629

> <r_i_glide_erotb>
0.38847888455762

> <r_i_glide_esite>
0

> <r_i_glide_emodel>
-72.8702182957506

> <r_i_glide_energy>
-47.9169826507568

> <r_i_glide_einternal>
1.76120471954346

> <i_i_glide_confnum>
8

> <i_i_glide_posenum>
64

> <r_i_glide_eff_state_penalty>
0

> <s_user_duplicate_titles>
CHEMBL3045_lig235

> <s_m_subgroup_title>
dock_pv

> <s_m_subgroupid>
dock_pv

> <b_m_subgroup_collapsed>
1

$$$$
CHEMBL3045_lig279
                    3D
 Schrodinger Suite 2021-1.
 55 59  0  0  1  0            999 V2000
   41.0834   52.3720   36.1841 C   0  0  0  0  0  0
   41.1028   53.5745   35.3463 N   0  0  0  0  0  0
   42.3056   54.3249   35.7014 C   0  0  0  0  0  0
   41.1533   53.2674   33.9105 C   0  0  0  0  0  0
   39.9079   52.5408   33.3435 C   0  0  0  0  0  0
   38.9834   53.3896   32.4315 C   0  0  0  0  0  0
   38.1568   54.4145   33.0905 N   0  0  0  0  0  0
   37.9710   54.5791   34.4464 C   0  0  0  0  0  0
   37.3210   55.3142   32.4293 C   0  0  0  0  0  0
   37.1190   55.5610   31.0634 C   0  0  0  0  0  0
   36.1226   56.4729   30.7131 C   0  0  0  0  0  0
   35.3921   57.1715   31.6659 C   0  0  0  0  0  0
   35.6263   56.9787   33.0227 C   0  0  0  0  0  0
   36.5835   56.0313   33.4215 C   0  0  0  0  0  0
   37.0459   55.5721   34.6920 C   0  0  0  0  0  0
   36.6002   56.0208   35.9981 C   0  0  0  0  0  0
   35.2331   55.9446   36.4160 C   0  0  0  0  0  0
   34.2491   55.5710   35.7828 O   0  0  0  0  0  0
   35.2439   56.3815   37.6775 N   0  0  0  0  0  0
   36.4590   56.7424   38.1124 C   0  0  0  0  0  0
   36.7018   57.1720   39.2367 O   0  0  0  0  0  0
   37.3385   56.5328   36.9911 C   0  0  0  0  0  0
   38.7869   56.8031   36.9584 C   0  0  0  0  0  0
   39.7905   56.7129   37.9948 C   0  0  0  0  0  0
   39.7776   56.3643   39.3516 C   0  0  0  0  0  0
   40.9605   56.3944   40.0866 C   0  0  0  0  0  0
   42.1638   56.7564   39.4894 C   0  0  0  0  0  0
   42.2411   57.0942   38.1381 C   0  0  0  0  0  0
   41.0486   57.0610   37.4078 C   0  0  0  0  0  0
   40.8100   57.3095   36.0763 N   0  0  0  0  0  0
   39.4749   57.1749   35.8127 C   0  0  0  0  0  0
   40.2145   51.7443   35.9948 H   0  0  0  0  0  0
   41.0430   52.6491   37.2390 H   0  0  0  0  0  0
   41.9742   51.7572   36.0369 H   0  0  0  0  0  0
   42.3683   55.2520   35.1327 H   0  0  0  0  0  0
   42.2985   54.5872   36.7608 H   0  0  0  0  0  0
   43.2181   53.7530   35.5086 H   0  0  0  0  0  0
   41.2826   54.2057   33.3676 H   0  0  0  0  0  0
   42.0439   52.6696   33.6983 H   0  0  0  0  0  0
   40.2643   51.6797   32.7762 H   0  0  0  0  0  0
   39.2864   52.1198   34.1306 H   0  0  0  0  0  0
   39.5672   53.8762   31.6488 H   0  0  0  0  0  0
   38.3015   52.7028   31.9349 H   0  0  0  0  0  0
   38.5161   53.9715   35.1518 H   0  0  0  0  0  0
   37.6842   55.0419   30.3037 H   0  0  0  0  0  0
   35.9012   56.6341   29.6692 H   0  0  0  0  0  0
   34.6284   57.8680   31.3484 H   0  0  0  0  0  0
   35.0598   57.5275   33.7595 H   0  0  0  0  0  0
   34.4087   56.4505   38.2398 H   0  0  0  0  0  0
   38.8577   56.0634   39.8151 H   0  0  0  0  0  0
   40.9401   56.1275   41.1336 H   0  0  0  0  0  0
   43.0638   56.7655   40.0880 H   0  0  0  0  0  0
   43.1827   57.3624   37.6811 H   0  0  0  0  0  0
   41.4875   57.5622   35.3699 H   0  0  0  0  0  0
   39.1165   57.3436   34.8064 H   0  0  0  0  0  0
  1  2  1  0  0  0
  1 32  1  0  0  0
  1 33  1  0  0  0
  1 34  1  0  0  0
  2  3  1  0  0  0
  2  4  1  0  0  0
  3 35  1  0  0  0
  3 36  1  0  0  0
  3 37  1  0  0  0
  4  5  1  0  0  0
  4 38  1  0  0  0
  4 39  1  0  0  0
  5  6  1  0  0  0
  5 40  1  0  0  0
  5 41  1  0  0  0
  6  7  1  0  0  0
  6 42  1  0  0  0
  6 43  1  0  0  0
  7  8  1  0  0  0
  7  9  1  0  0  0
  8 15  2  0  0  0
  8 44  1  0  0  0
  9 10  1  0  0  0
  9 14  2  0  0  0
 10 11  2  0  0  0
 10 45  1  0  0  0
 11 12  1  0  0  0
 11 46  1  0  0  0
 12 13  2  0  0  0
 12 47  1  0  0  0
 13 14  1  0  0  0
 13 48  1  0  0  0
 14 15  1  0  0  0
 15 16  1  0  0  0
 16 17  1  0  0  0
 16 22  2  0  0  0
 17 18  2  0  0  0
 17 19  1  0  0  0
 19 20  1  0  0  0
 19 49  1  0  0  0
 20 21  2  0  0  0
 20 22  1  0  0  0
 22 23  1  0  0  0
 23 24  1  0  0  0
 23 31  2  0  0  0
 24 25  1  0  0  0
 24 29  2  0  0  0
 25 26  2  0  0  0
 25 50  1  0  0  0
 26 27  1  0  0  0
 26 51  1  0  0  0
 27 28  2  0  0  0
 27 52  1  0  0  0
 28 29  1  0  0  0
 28 53  1  0  0  0
 29 30  1  0  0  0
 30 31  1  0  0  0
 30 54  1  0  0  0
 31 55  1  0  0  0
M  END
> <s_m_entry_id>
3337

> <s_m_entry_name>
dock_pv.66

> <s_m_Source_Path>
/home/csk/Desktop/cluster/DUD-E-result/kpcb

> <s_m_Source_File>
dock_pv.maegz

> <i_m_Source_File_Index>
66

> <chembl_id>
CHEMBL7463

> <chembl_pref_name>
GF-109203

> <i_lp_mmshare_version>
53161

> <i_f3d_flags>
0

> <r_lp_tautomer_probability>
1

> <s_lp_Force_Field>
OPLS_2005

> <r_lp_Energy>
29.627125

> <b_lp_Chiralities_Consistent>
1

> <s_lp_Variant>
CHEMBL3045_lig279-1

> <s_i_glide_gridfile>
glide-grid_2i0e

> <i_i_glide_lignum>
439

> <i_i_glide_rotatable_bonds>
6

> <r_i_docking_score>
-8.6425860345071

> <r_i_glide_ligand_efficiency>
-0.278793097887326

> <r_i_glide_ligand_efficiency_sa>
-0.875795242721015

> <r_i_glide_ligand_efficiency_ln>
-1.94916801423441

> <r_i_glide_gscore>
-8.6425860345071

> <r_i_glide_lipo>
-2.53826598383787

> <r_i_glide_hbond>
-0.608

> <r_i_glide_metal>
0

> <r_i_glide_rewards>
-2.47990013027904

> <r_i_glide_evdw>
-49.91796875

> <r_i_glide_ecoul>
-6.17445087432861

> <r_i_glide_erotb>
0.405646148259108

> <r_i_glide_esite>
0

> <r_i_glide_emodel>
-78.7804793714419

> <r_i_glide_energy>
-56.0924196243286

> <r_i_glide_einternal>
12.2790946960449

> <i_i_glide_confnum>
191

> <i_i_glide_posenum>
364

> <r_i_glide_eff_state_penalty>
0

> <s_user_duplicate_titles>
CHEMBL3045_lig279

> <s_m_subgroup_title>
dock_pv

> <s_m_subgroupid>
dock_pv

> <b_m_subgroup_collapsed>
1

$$$$
CHEMBL3045_lig361
                    3D
 Schrodinger Suite 2021-1.
 57 61  0  0  1  0            999 V2000
   36.5531   56.3502   35.8888 C   0  0  0  0  0  0
   37.3211   56.5094   36.9803 C   0  0  0  0  0  0
   36.4278   56.7720   38.0717 C   0  0  0  0  0  0
   35.1933   56.7129   37.5713 N   0  0  0  0  0  0
   35.1711   56.4694   36.2642 C   0  0  0  0  0  0
   38.6892   56.4521   37.2054 N   0  0  0  0  0  0
   39.7641   56.7051   36.3368 C   0  0  0  0  0  0
   36.9472   55.9918   34.5331 C   0  0  0  0  0  0
   37.8941   54.9068   32.7321 C   0  0  0  0  0  0
   37.8047   54.8982   34.1567 C   0  0  0  0  0  0
   38.5047   53.9092   34.8700 C   0  0  0  0  0  0
   39.2859   52.9897   34.1727 C   0  0  0  0  0  0
   39.3815   53.0389   32.7861 C   0  0  0  0  0  0
   38.7010   53.9976   32.0355 C   0  0  0  0  0  0
   36.7010   57.0139   39.2407 O   0  0  0  0  0  0
   34.1568   56.3720   35.5811 O   0  0  0  0  0  0
   41.0039   56.1432   36.6490 C   0  0  0  0  0  0
   42.1043   56.3716   35.8257 C   0  0  0  0  0  0
   41.9657   57.1720   34.6938 C   0  0  0  0  0  0
   40.7386   57.7490   34.3796 C   0  0  0  0  0  0
   39.6435   57.5206   35.2072 C   0  0  0  0  0  0
   36.6021   56.6492   33.3634 C   0  0  0  0  0  0
   37.0809   55.9364   32.2906 N   0  0  0  0  0  0
   36.7891   56.5567   31.0141 C   0  0  0  0  0  0
   35.6604   57.5485   31.3538 C   0  0  2  0  0  0
   35.8033   57.8402   32.8624 C   0  0  0  0  0  0
   34.2283   57.1947   30.8370 C   0  0  0  0  0  0
   33.6433   55.9016   31.1661 N   0  0  1  0  0  0
   33.5010   55.6620   32.5799 C   0  0  0  0  0  0
   32.3010   55.7932   30.6030 C   0  0  0  0  0  0
   33.8135   54.2323   32.8370 C   0  0  0  0  0  0
   34.3556   56.8540   38.1197 H   0  0  0  0  0  0
   38.9945   56.1923   38.1330 H   0  0  0  0  0  0
   38.4513   53.8675   35.9477 H   0  0  0  0  0  0
   39.8349   52.2287   34.7111 H   0  0  0  0  0  0
   39.9982   52.3097   32.2769 H   0  0  0  0  0  0
   38.7793   54.0104   30.9569 H   0  0  0  0  0  0
   41.1199   55.5155   37.5210 H   0  0  0  0  0  0
   43.0602   55.9270   36.0622 H   0  0  0  0  0  0
   42.8208   57.3500   34.0580 H   0  0  0  0  0  0
   40.6377   58.3705   33.5022 H   0  0  0  0  0  0
   38.7003   57.9720   34.9615 H   0  0  0  0  0  0
   36.5435   55.8200   30.2474 H   0  0  0  0  0  0
   37.6685   57.1121   30.6844 H   0  0  0  0  0  0
   35.9010   58.4725   30.8370 H   0  0  0  0  0  0
   36.3010   58.7720   33.0642 H   0  0  0  0  0  0
   34.8459   58.0136   33.3513 H   0  0  0  0  0  0
   34.2749   57.1720   29.7512 H   0  0  0  0  0  0
   33.5418   58.0041   31.0938 H   0  0  0  0  0  0
   32.5494   55.9720   32.9917 H   0  0  0  0  0  0
   34.2101   56.1814   33.1756 H   0  0  0  0  0  0
   32.2414   56.2628   29.6370 H   0  0  0  0  0  0
   32.0007   54.7498   30.5010 H   0  0  0  0  0  0
   31.5487   56.3089   31.2053 H   0  0  0  0  0  0
   33.9011   54.2369   33.9118 H   0  0  0  0  0  0
   34.7852   53.9720   32.4206 H   0  0  0  0  0  0
   33.0365   53.5532   32.4855 H   0  0  0  0  0  0
  1  2  2  0  0  0
  1  5  1  0  0  0
  1  8  1  0  0  0
  2  3  1  0  0  0
  2  6  1  0  0  0
  3  4  1  0  0  0
  3 15  2  0  0  0
  4  5  1  0  0  0
  4 32  1  0  0  0
  5 16  2  0  0  0
  6  7  1  0  0  0
  6 33  1  0  0  0
  7 17  2  0  0  0
  7 21  1  0  0  0
  8 10  1  0  0  0
  8 22  2  0  0  0
  9 23  1  0  0  0
  9 10  2  0  0  0
  9 14  1  0  0  0
 10 11  1  0  0  0
 11 12  2  0  0  0
 11 34  1  0  0  0
 12 13  1  0  0  0
 12 35  1  0  0  0
 13 14  2  0  0  0
 13 36  1  0  0  0
 14 37  1  0  0  0
 17 18  1  0  0  0
 17 38  1  0  0  0
 18 19  2  0  0  0
 18 39  1  0  0  0
 19 20  1  0  0  0
 19 40  1  0  0  0
 20 21  2  0  0  0
 20 41  1  0  0  0
 21 42  1  0  0  0
 22 23  1  0  0  0
 22 26  1  0  0  0
 23 24  1  0  0  0
 24 25  1  0  0  0
 24 43  1  0  0  0
 24 44  1  0  0  0
 25 26  1  0  0  0
 25 27  1  0  0  0
 25 45  1  0  0  0
 26 46  1  0  0  0
 26 47  1  0  0  0
 27 28  1  0  0  0
 27 48  1  0  0  0
 27 49  1  0  0  0
 28 29  1  0  0  0
 28 30  1  0  0  0
 29 31  1  0  0  0
 29 50  1  0  0  0
 29 51  1  0  0  0
 30 52  1  0  0  0
 30 53  1  0  0  0
 30 54  1  0  0  0
 31 55  1  0  0  0
 31 56  1  0  0  0
 31 57  1  0  0  0
M  END
> <s_m_entry_id>
3338

> <s_m_entry_name>
dock_pv.67

> <s_m_Source_Path>
/home/csk/Desktop/cluster/DUD-E-result/kpcb

> <s_m_Source_File>
dock_pv.maegz

> <i_m_Source_File_Index>
67

> <chembl_id>
CHEMBL2236807

> <chembl_pref_name>
None

> <i_lp_mmshare_version>
53161

> <i_f3d_flags>
0

> <r_lp_tautomer_probability>
0.999999999997686

> <s_lp_Force_Field>
OPLS_2005

> <r_lp_Energy>
56.028256

> <b_lp_Chiralities_Consistent>
1

> <s_lp_Variant>
CHEMBL3045_lig361-1

> <s_i_glide_gridfile>
glide-grid_2i0e

> <i_i_glide_lignum>
525

> <i_i_glide_rotatable_bonds>
6

> <r_i_docking_score>
-8.6220226486355

> <r_i_glide_ligand_efficiency>
-0.27812976285921

> <r_i_glide_ligand_efficiency_sa>
-0.873711454900023

> <r_i_glide_ligand_efficiency_ln>
-1.94453034052827

> <r_i_glide_gscore>
-8.6220226486355

> <r_i_glide_lipo>
-2.92391826005501

> <r_i_glide_hbond>
-0.608

> <r_i_glide_metal>
0

> <r_i_glide_rewards>
-2.53994274901281

> <r_i_glide_evdw>
-42.3616561889648

> <r_i_glide_ecoul>
-5.5611367225647

> <r_i_glide_erotb>
0.402091678265277

> <r_i_glide_esite>
0

> <r_i_glide_emodel>
-62.610103800802

> <r_i_glide_energy>
-47.9227929115295

> <r_i_glide_einternal>
5.58556222915649

> <i_i_glide_confnum>
39

> <i_i_glide_posenum>
17

> <r_i_glide_eff_state_penalty>
0

> <s_user_duplicate_titles>
CHEMBL3045_lig361

> <s_m_subgroup_title>
dock_pv

> <s_m_subgroupid>
dock_pv

> <b_m_subgroup_collapsed>
1

$$$$
CHEMBL3045_lig37
                    3D
 Schrodinger Suite 2021-1.
 47 50  0  0  1  0            999 V2000
   35.9615   56.0133   35.3827 C   0  0  0  0  0  0
   36.5199   55.7604   34.0362 C   0  0  0  0  0  0
   36.5682   56.3710   36.5431 C   0  0  0  0  0  0
   34.5531   55.8639   35.6445 C   0  0  0  0  0  0
   35.5370   56.4530   37.5529 C   0  0  0  0  0  0
   34.4044   56.1200   36.9391 N   0  0  0  0  0  0
   37.7768   55.2273   33.7796 C   0  0  0  0  0  0
   38.0428   55.1540   32.4316 N   0  0  0  0  0  0
   36.8965   55.5496   31.7622 C   0  0  0  0  0  0
   35.9258   55.9524   32.7293 C   0  0  0  0  0  0
   38.0187   56.7276   36.7744 C   0  0  0  0  0  0
   36.7219   55.5721   30.4371 N   0  0  0  0  0  0
   35.6025   56.7722   38.7375 O   0  0  0  0  0  0
   33.6345   55.5719   34.8856 O   0  0  0  0  0  0
   38.7301   56.4787   37.9749 C   0  0  0  0  0  0
   39.3274   54.7732   31.8292 C   0  0  0  0  0  0
   38.1368   55.9720   39.0953 O   0  0  0  0  0  0
   34.6954   56.4229   32.2202 C   0  0  0  0  0  0
   39.5822   53.2480   31.7695 C   0  0  0  0  0  0
   38.7450   57.3150   35.7253 C   0  0  0  0  0  0
   39.0985   52.6111   34.0634 O   0  0  0  0  0  0
   35.5010   55.9722   30.0063 C   0  0  0  0  0  0
   40.0993   56.7305   38.0684 C   0  0  0  0  0  0
   40.1033   52.5970   33.0613 C   0  0  0  0  0  0
   39.4765   51.9773   35.2756 C   0  0  0  0  0  0
   34.4797   56.4047   30.8428 C   0  0  0  0  0  0
   40.1114   57.5632   35.8145 C   0  0  0  0  0  0
   40.7961   57.2435   36.9814 C   0  0  0  0  0  0
   33.5129   56.1056   37.4116 H   0  0  0  0  0  0
   38.5480   54.9328   34.4762 H   0  0  0  0  0  0
   40.1234   55.2739   32.3824 H   0  0  0  0  0  0
   39.3704   55.1878   30.8207 H   0  0  0  0  0  0
   38.7018   55.9329   39.8706 H   0  0  0  0  0  0
   33.9087   56.7725   32.8640 H   0  0  0  0  0  0
   40.3265   53.0647   30.9932 H   0  0  0  0  0  0
   38.7011   52.7116   31.4288 H   0  0  0  0  0  0
   38.2555   57.5721   34.7997 H   0  0  0  0  0  0
   35.3484   55.9324   28.9378 H   0  0  0  0  0  0
   40.6338   56.5150   38.9823 H   0  0  0  0  0  0
   40.9972   53.1179   33.4098 H   0  0  0  0  0  0
   40.3947   51.5724   32.8376 H   0  0  0  0  0  0
   38.7349   52.2086   36.0370 H   0  0  0  0  0  0
   40.4446   52.3238   35.6401 H   0  0  0  0  0  0
   39.5009   50.8929   35.1705 H   0  0  0  0  0  0
   33.5332   56.7214   30.4250 H   0  0  0  0  0  0
   40.6415   57.9888   34.9756 H   0  0  0  0  0  0
   41.8587   57.4254   37.0526 H   0  0  0  0  0  0
  1  2  1  0  0  0
  1  3  2  0  0  0
  1  4  1  0  0  0
  2  7  2  0  0  0
  2 10  1  0  0  0
  3  5  1  0  0  0
  3 11  1  0  0  0
  4  6  1  0  0  0
  4 14  2  0  0  0
  5 13  2  0  0  0
  5  6  1  0  0  0
  6 29  1  0  0  0
  7  8  1  0  0  0
  7 30  1  0  0  0
  8 16  1  0  0  0
  8  9  1  0  0  0
  9 10  2  0  0  0
  9 12  1  0  0  0
 10 18  1  0  0  0
 11 15  1  0  0  0
 11 20  2  0  0  0
 12 22  2  0  0  0
 15 17  1  0  0  0
 15 23  2  0  0  0
 16 19  1  0  0  0
 16 31  1  0  0  0
 16 32  1  0  0  0
 17 33  1  0  0  0
 18 26  2  0  0  0
 18 34  1  0  0  0
 19 24  1  0  0  0
 19 35  1  0  0  0
 19 36  1  0  0  0
 20 27  1  0  0  0
 20 37  1  0  0  0
 21 24  1  0  0  0
 21 25  1  0  0  0
 22 26  1  0  0  0
 22 38  1  0  0  0
 23 28  1  0  0  0
 23 39  1  0  0  0
 24 40  1  0  0  0
 24 41  1  0  0  0
 25 42  1  0  0  0
 25 43  1  0  0  0
 25 44  1  0  0  0
 26 45  1  0  0  0
 27 28  2  0  0  0
 27 46  1  0  0  0
 28 47  1  0  0  0
M  END
> <s_m_entry_id>
3339

> <s_m_entry_name>
dock_pv.68

> <s_m_Source_Path>
/home/csk/Desktop/cluster/DUD-E-result/kpcb

> <s_m_Source_File>
dock_pv.maegz

> <i_m_Source_File_Index>
68

> <chembl_id>
CHEMBL109944

> <chembl_pref_name>
None

> <i_lp_mmshare_version>
53161

> <i_f3d_flags>
0

> <r_lp_tautomer_probability>
1

> <s_lp_Force_Field>
OPLS_2005

> <r_lp_Energy>
24.750294

> <b_lp_Chiralities_Consistent>
1

> <s_lp_Variant>
CHEMBL3045_lig37-1

> <s_i_glide_gridfile>
glide-grid_2i0e

> <i_i_glide_lignum>
39

> <i_i_glide_rotatable_bonds>
7

> <r_i_docking_score>
-8.61975187951504

> <r_i_glide_ligand_efficiency>
-0.307848281411252

> <r_i_glide_ligand_efficiency_sa>
-0.934808695305958

> <r_i_glide_ligand_efficiency_ln>
-1.98969182070457

> <r_i_glide_gscore>
-8.61975187951504

> <r_i_glide_lipo>
-2.40577200086172

> <r_i_glide_hbond>
-0.426633946316154

> <r_i_glide_metal>
0

> <r_i_glide_rewards>
-2.63944132272863

> <r_i_glide_evdw>
-47.2270545959473

> <r_i_glide_ecoul>
-8.41669654846191

> <r_i_glide_erotb>
0.475952602458116

> <r_i_glide_esite>
0

> <r_i_glide_emodel>
-82.1773666871673

> <r_i_glide_energy>
-55.6437511444092

> <r_i_glide_einternal>
5.71025800704956

> <i_i_glide_confnum>
87

> <i_i_glide_posenum>
400

> <r_i_glide_eff_state_penalty>
0

> <s_user_duplicate_titles>
CHEMBL3045_lig37

> <s_m_subgroup_title>
dock_pv

> <s_m_subgroupid>
dock_pv

> <b_m_subgroup_collapsed>
1

$$$$
CHEMBL3045_lig245
                    3D
 Schrodinger Suite 2021-1.
 53 56  0  0  1  0            999 V2000
   36.1720   56.2656   35.5108 C   0  0  0  0  0  0
   36.5973   56.0588   34.1081 C   0  0  0  0  0  0
   36.9198   56.7058   36.5416 C   0  0  0  0  0  0
   34.8463   55.9976   35.9938 C   0  0  0  0  0  0
   34.8728   56.3263   37.2829 N   0  0  0  0  0  0
   36.0585   56.7721   37.6980 C   0  0  0  0  0  0
   37.9095   55.8154   33.7494 C   0  0  0  0  0  0
   38.0467   55.6922   32.3913 N   0  0  0  0  0  0
   35.8533   56.0169   32.8585 C   0  0  0  0  0  0
   36.7922   55.7426   31.8109 C   0  0  0  0  0  0
   38.2400   57.1322   36.5186 N   0  0  0  0  0  0
   33.8651   55.5694   35.3995 O   0  0  0  0  0  0
   36.3012   57.1718   38.8360 O   0  0  0  0  0  0
   39.3152   55.4499   31.7137 C   0  0  0  0  0  0
   39.4814   53.9635   31.3402 C   0  0  0  0  0  0
   39.3309   56.8039   37.3456 C   0  0  0  0  0  0
   40.2499   53.2782   33.6253 N   0  0  0  0  0  0
   34.5021   56.1664   32.4906 C   0  0  0  0  0  0
   36.3983   55.5722   30.4760 C   0  0  0  0  0  0
   39.3286   52.9812   32.5226 C   0  0  0  0  0  0
   39.8774   52.5148   34.8134 C   0  0  0  0  0  0
   41.6337   52.9774   33.2521 C   0  0  0  0  0  0
   40.5971   57.1718   36.8843 C   0  0  0  0  0  0
   39.2211   56.1296   38.5680 C   0  0  0  0  0  0
   34.1186   56.0329   31.1584 C   0  0  0  0  0  0
   35.0490   55.7320   30.1757 C   0  0  0  0  0  0
   40.3562   55.8612   39.3293 C   0  0  0  0  0  0
   41.7354   56.8986   37.6372 C   0  0  0  0  0  0
   41.6087   56.2509   38.8624 C   0  0  0  0  0  0
   34.0601   56.2826   37.8803 H   0  0  0  0  0  0
   38.7955   55.7124   34.3604 H   0  0  0  0  0  0
   38.5630   57.5052   35.6385 H   0  0  0  0  0  0
   40.1274   55.7730   32.3680 H   0  0  0  0  0  0
   39.3560   56.0884   30.8368 H   0  0  0  0  0  0
   40.4253   53.7916   30.8230 H   0  0  0  0  0  0
   38.7288   53.7098   30.5935 H   0  0  0  0  0  0
   33.7455   56.3720   33.2213 H   0  0  0  0  0  0
   37.0997   55.2942   29.7033 H   0  0  0  0  0  0
   39.4747   51.9632   32.1700 H   0  0  0  0  0  0
   38.3015   53.0307   32.8904 H   0  0  0  0  0  0
   38.8710   52.7795   35.1406 H   0  0  0  0  0  0
   40.5540   52.7304   35.6428 H   0  0  0  0  0  0
   39.9009   51.4427   34.6287 H   0  0  0  0  0  0
   41.9923   53.6764   32.4969 H   0  0  0  0  0  0
   42.3046   53.0673   34.1087 H   0  0  0  0  0  0
   41.7433   51.9720   32.8416 H   0  0  0  0  0  0
   40.7109   57.6776   35.9367 H   0  0  0  0  0  0
   38.2752   55.7825   38.9499 H   0  0  0  0  0  0
   33.0780   56.1438   30.8836 H   0  0  0  0  0  0
   34.7104   55.6001   29.1564 H   0  0  0  0  0  0
   40.2609   55.3428   40.2714 H   0  0  0  0  0  0
   42.7087   57.1892   37.2718 H   0  0  0  0  0  0
   42.4913   56.0328   39.4482 H   0  0  0  0  0  0
  1  2  1  0  0  0
  1  3  2  0  0  0
  1  4  1  0  0  0
  2  7  2  0  0  0
  2  9  1  0  0  0
  3  6  1  0  0  0
  3 11  1  0  0  0
  4  5  1  0  0  0
  4 12  2  0  0  0
  5  6  1  0  0  0
  5 30  1  0  0  0
  6 13  2  0  0  0
  7  8  1  0  0  0
  7 31  1  0  0  0
  8 14  1  0  0  0
  8 10  1  0  0  0
  9 10  2  0  0  0
  9 18  1  0  0  0
 10 19  1  0  0  0
 11 16  1  0  0  0
 11 32  1  0  0  0
 14 15  1  0  0  0
 14 33  1  0  0  0
 14 34  1  0  0  0
 15 20  1  0  0  0
 15 35  1  0  0  0
 15 36  1  0  0  0
 16 23  1  0  0  0
 16 24  2  0  0  0
 17 20  1  0  0  0
 17 21  1  0  0  0
 17 22  1  0  0  0
 18 25  2  0  0  0
 18 37  1  0  0  0
 19 26  2  0  0  0
 19 38  1  0  0  0
 20 39  1  0  0  0
 20 40  1  0  0  0
 21 41  1  0  0  0
 21 42  1  0  0  0
 21 43  1  0  0  0
 22 44  1  0  0  0
 22 45  1  0  0  0
 22 46  1  0  0  0
 23 28  2  0  0  0
 23 47  1  0  0  0
 24 27  1  0  0  0
 24 48  1  0  0  0
 25 26  1  0  0  0
 25 49  1  0  0  0
 26 50  1  0  0  0
 27 29  2  0  0  0
 27 51  1  0  0  0
 28 29  1  0  0  0
 28 52  1  0  0  0
 29 53  1  0  0  0
M  END
> <s_m_entry_id>
3340

> <s_m_entry_name>
dock_pv.69

> <s_m_Source_Path>
/home/csk/Desktop/cluster/DUD-E-result/kpcb

> <s_m_Source_File>
dock_pv.maegz

> <i_m_Source_File_Index>
69

> <chembl_id>
CHEMBL365656

> <chembl_pref_name>
None

> <i_lp_mmshare_version>
53161

> <i_f3d_flags>
0

> <r_lp_tautomer_probability>
0.999999999997686

> <s_lp_Force_Field>
OPLS_2005

> <r_lp_Energy>
32.453617

> <b_lp_Chiralities_Consistent>
1

> <s_lp_Variant>
CHEMBL3045_lig245-1

> <s_i_glide_gridfile>
glide-grid_2i0e

> <i_i_glide_lignum>
403

> <i_i_glide_rotatable_bonds>
7

> <r_i_docking_score>
-8.6157107803095

> <r_i_glide_ligand_efficiency>
-0.297093475183086

> <r_i_glide_ligand_efficiency_sa>
-0.912765281581959

> <r_i_glide_ligand_efficiency_ln>
-1.97277929311607

> <r_i_glide_gscore>
-8.6157107803095

> <r_i_glide_lipo>
-2.56185806472043

> <r_i_glide_hbond>
-0.54462745734974

> <r_i_glide_metal>
0

> <r_i_glide_rewards>
-2.68075438636423

> <r_i_glide_evdw>
-47.4980926513672

> <r_i_glide_ecoul>
-6.63907432556152

> <r_i_glide_erotb>
0.542294909527497

> <r_i_glide_esite>
0

> <r_i_glide_emodel>
-81.9708210265723

> <r_i_glide_energy>
-54.1371669769287

> <r_i_glide_einternal>
3.34212708473206

> <i_i_glide_confnum>
66

> <i_i_glide_posenum>
279

> <r_i_glide_eff_state_penalty>
0

> <s_user_duplicate_titles>
CHEMBL3045_lig245,309191

> <s_m_subgroup_title>
dock_pv

> <s_m_subgroupid>
dock_pv

> <b_m_subgroup_collapsed>
1

$$$$
CHEMBL3045_lig353
                    3D
 Schrodinger Suite 2021-1.
 42 44  0  0  1  0            999 V2000
   35.6875   56.1906   38.3366 N   0  0  0  0  0  0
   37.0282   56.3900   38.4130 C   0  0  0  0  0  0
   37.8004   56.6965   37.2929 C   0  0  0  0  0  0
   37.1710   56.7846   36.0528 C   0  0  0  0  0  0
   35.7983   56.5586   35.9341 C   0  0  0  0  0  0
   35.0963   56.2689   37.1134 C   0  0  0  0  0  0
   39.5453   57.0194   37.4193 S   0  0  0  0  0  0
   40.3495   55.4459   37.3658 N   0  0  1  0  0  0
   39.7639   57.5705   38.7606 O   0  0  0  0  0  0
   39.9028   57.7892   36.2240 O   0  0  0  0  0  0
   35.1679   56.5741   34.5889 C   0  0  0  0  0  0
   34.3049   55.5363   34.2135 C   0  0  0  0  0  0
   35.0419   57.5062   32.3428 C   0  0  0  0  0  0
   35.5070   57.5653   33.6543 C   0  0  0  0  0  0
   34.2453   56.4541   31.9935 N   0  0  0  0  0  0
   33.8632   55.4534   32.8829 C   0  0  0  0  0  0
   33.1006   54.5564   32.2144 N   0  0  0  0  0  0
   33.0357   55.0953   31.0148 C   0  0  0  0  0  0
   33.7012   56.2091   30.7909 N   0  0  0  0  0  0
   32.3046   54.5121   30.0371 N   0  0  0  0  0  0
   40.8406   54.7905   36.1235 C   0  0  0  0  0  0
   39.7662   54.8003   35.0166 C   0  0  0  0  0  0
   41.1744   53.3254   36.4701 C   0  0  0  0  0  0
   42.1252   55.4965   35.6448 C   0  0  0  0  0  0
   37.4793   56.3131   39.3937 H   0  0  0  0  0  0
   37.7513   57.0146   35.1713 H   0  0  0  0  0  0
   34.0298   56.0895   37.0960 H   0  0  0  0  0  0
   40.8527   55.1896   38.2179 H   0  0  0  0  0  0
   34.0325   54.7716   34.9228 H   0  0  0  0  0  0
   35.2831   58.2231   31.5726 H   0  0  0  0  0  0
   36.1642   58.3722   33.9380 H   0  0  0  0  0  0
   31.6091   53.8161   30.2422 H   0  0  0  0  0  0
   32.3003   54.9561   29.1160 H   0  0  0  0  0  0
   40.0742   54.1922   34.1646 H   0  0  0  0  0  0
   39.5862   55.8011   34.6288 H   0  0  0  0  0  0
   38.8175   54.3975   35.3748 H   0  0  0  0  0  0
   41.9432   53.2568   37.2416 H   0  0  0  0  0  0
   40.3012   52.7851   36.8352 H   0  0  0  0  0  0
   41.5495   52.7811   35.6009 H   0  0  0  0  0  0
   42.8951   55.4929   36.4180 H   0  0  0  0  0  0
   42.5453   54.9999   34.7689 H   0  0  0  0  0  0
   41.9479   56.5354   35.3678 H   0  0  0  0  0  0
  1  2  2  0  0  0
  1  6  1  0  0  0
  2  3  1  0  0  0
  2 25  1  0  0  0
  3  4  2  0  0  0
  3  7  1  0  0  0
  4  5  1  0  0  0
  4 26  1  0  0  0
  5  6  2  0  0  0
  5 11  1  0  0  0
  6 27  1  0  0  0
  7  8  1  0  0  0
  7  9  2  0  0  0
  7 10  2  0  0  0
  8 21  1  0  0  0
  8 28  1  0  0  0
 11 12  2  0  0  0
 11 14  1  0  0  0
 12 16  1  0  0  0
 12 29  1  0  0  0
 13 15  1  0  0  0
 13 14  2  0  0  0
 13 30  1  0  0  0
 14 31  1  0  0  0
 15 16  1  0  0  0
 15 19  1  0  0  0
 16 17  2  0  0  0
 17 18  1  0  0  0
 18 19  2  0  0  0
 18 20  1  0  0  0
 20 32  1  0  0  0
 20 33  1  0  0  0
 21 22  1  0  0  0
 21 23  1  0  0  0
 21 24  1  0  0  0
 22 34  1  0  0  0
 22 35  1  0  0  0
 22 36  1  0  0  0
 23 37  1  0  0  0
 23 38  1  0  0  0
 23 39  1  0  0  0
 24 40  1  0  0  0
 24 41  1  0  0  0
 24 42  1  0  0  0
M  END
> <s_m_entry_id>
3341

> <s_m_entry_name>
dock_pv.70

> <s_m_Source_Path>
/home/csk/Desktop/cluster/DUD-E-result/kpcb

> <s_m_Source_File>
dock_pv.maegz

> <i_m_Source_File_Index>
70

> <chembl_id>
CHEMBL2205766

> <chembl_pref_name>
None

> <i_lp_mmshare_version>
53161

> <i_f3d_flags>
0

> <r_lp_tautomer_probability>
1

> <s_lp_Force_Field>
OPLS_2005

> <r_lp_Energy>
5.953032

> <b_lp_Chiralities_Consistent>
1

> <s_lp_Variant>
CHEMBL3045_lig353-1

> <s_i_glide_gridfile>
glide-grid_2i0e

> <i_i_glide_lignum>
517

> <i_i_glide_rotatable_bonds>
4

> <r_i_docking_score>
-8.57442870818491

> <r_i_glide_ligand_efficiency>
-0.357267862841038

> <r_i_glide_ligand_efficiency_sa>
-1.03053884224256

> <r_i_glide_ligand_efficiency_ln>
-2.0522542447642

> <r_i_glide_gscore>
-8.57442870818491

> <r_i_glide_lipo>
-2.32673780049762

> <r_i_glide_hbond>
-0.362167012615674

> <r_i_glide_metal>
0

> <r_i_glide_rewards>
-3.15856346124773

> <r_i_glide_evdw>
-42.9075126647949

> <r_i_glide_ecoul>
-6.45950269699097

> <r_i_glide_erotb>
0.475298585563725

> <r_i_glide_esite>
-0.0879579815992235

> <r_i_glide_emodel>
-73.5550327543687

> <r_i_glide_energy>
-49.3670153617859

> <r_i_glide_einternal>
2.93845415115356

> <i_i_glide_confnum>
23

> <i_i_glide_posenum>
388

> <r_i_glide_eff_state_penalty>
0

> <s_user_duplicate_titles>
CHEMBL3045_lig353

> <s_m_subgroup_title>
dock_pv

> <s_m_subgroupid>
dock_pv

> <b_m_subgroup_collapsed>
1

$$$$
CHEMBL3045_lig233
                    3D
 Schrodinger Suite 2021-1.
 36 39  0  0  1  0            999 V2000
   36.4821   55.9656   35.8944 C   0  0  0  0  0  0
   37.2335   56.2004   36.9861 C   0  0  0  0  0  0
   36.9104   55.5704   34.5502 C   0  0  0  0  0  0
   35.0945   56.1057   36.2467 C   0  0  0  0  0  0
   35.1013   56.4223   37.5419 N   0  0  0  0  0  0
   36.3292   56.4967   38.0629 C   0  0  0  0  0  0
   37.9013   54.6476   34.2589 C   0  0  0  0  0  0
   36.4100   56.0396   33.2801 C   0  0  0  0  0  0
   38.0361   54.5229   32.8993 N   0  0  0  0  0  0
   38.6001   56.1744   37.2191 N   0  0  0  0  0  0
   37.1426   55.3555   32.2599 C   0  0  0  0  0  0
   34.0907   55.9671   35.5506 O   0  0  0  0  0  0
   36.5908   56.7725   39.2326 O   0  0  0  0  0  0
   39.6676   56.5209   36.3746 C   0  0  0  0  0  0
   35.4298   56.9691   32.8888 C   0  0  0  0  0  0
   36.9081   55.5714   30.8982 C   0  0  0  0  0  0
   40.9443   56.0733   36.7210 C   0  0  0  0  0  0
   39.5010   57.3148   35.2352 C   0  0  0  0  0  0
   35.1794   57.1653   31.5334 C   0  0  0  0  0  0
   35.9002   56.4735   30.5646 C   0  0  0  0  0  0
   42.0403   56.3962   35.9244 C   0  0  0  0  0  0
   40.5932   57.6353   34.4333 C   0  0  0  0  0  0
   41.8592   57.1722   34.7817 C   0  0  0  0  0  0
   34.2546   56.5972   38.0679 H   0  0  0  0  0  0
   38.5292   54.0637   34.9176 H   0  0  0  0  0  0
   38.7061   53.8980   32.4710 H   0  0  0  0  0  0
   38.9080   55.9175   38.1465 H   0  0  0  0  0  0
   34.8617   57.5148   33.6264 H   0  0  0  0  0  0
   37.4647   55.0489   30.1317 H   0  0  0  0  0  0
   41.0934   55.4657   37.6024 H   0  0  0  0  0  0
   38.5224   57.6721   34.9611 H   0  0  0  0  0  0
   34.4105   57.8615   31.2292 H   0  0  0  0  0  0
   35.6764   56.6428   29.5225 H   0  0  0  0  0  0
   43.0264   56.0426   36.1886 H   0  0  0  0  0  0
   40.4569   58.2394   33.5486 H   0  0  0  0  0  0
   42.7104   57.4227   34.1647 H   0  0  0  0  0  0
  1  2  2  0  0  0
  1  3  1  0  0  0
  1  4  1  0  0  0
  2  6  1  0  0  0
  2 10  1  0  0  0
  3  7  2  0  0  0
  3  8  1  0  0  0
  4  5  1  0  0  0
  4 12  2  0  0  0
  5  6  1  0  0  0
  5 24  1  0  0  0
  6 13  2  0  0  0
  7  9  1  0  0  0
  7 25  1  0  0  0
  8 11  2  0  0  0
  8 15  1  0  0  0
  9 11  1  0  0  0
  9 26  1  0  0  0
 10 14  1  0  0  0
 10 27  1  0  0  0
 11 16  1  0  0  0
 14 17  2  0  0  0
 14 18  1  0  0  0
 15 19  2  0  0  0
 15 28  1  0  0  0
 16 20  2  0  0  0
 16 29  1  0  0  0
 17 21  1  0  0  0
 17 30  1  0  0  0
 18 22  2  0  0  0
 18 31  1  0  0  0
 19 20  1  0  0  0
 19 32  1  0  0  0
 20 33  1  0  0  0
 21 23  2  0  0  0
 21 34  1  0  0  0
 22 23  1  0  0  0
 22 35  1  0  0  0
 23 36  1  0  0  0
M  END
> <s_m_entry_id>
3342

> <s_m_entry_name>
dock_pv.71

> <s_m_Source_Path>
/home/csk/Desktop/cluster/DUD-E-result/kpcb

> <s_m_Source_File>
dock_pv.maegz

> <i_m_Source_File_Index>
71

> <chembl_id>
CHEMBL183310

> <chembl_pref_name>
None

> <i_lp_mmshare_version>
53161

> <i_f3d_flags>
0

> <r_lp_tautomer_probability>
0.999999999997686

> <s_lp_Force_Field>
OPLS_2005

> <r_lp_Energy>
28.726234

> <b_lp_Chiralities_Consistent>
1

> <s_lp_Variant>
CHEMBL3045_lig233-1

> <s_i_glide_gridfile>
glide-grid_2i0e

> <i_i_glide_lignum>
391

> <i_i_glide_rotatable_bonds>
3

> <r_i_docking_score>
-8.5594468617704

> <r_i_glide_ligand_efficiency>
-0.372149863555235

> <r_i_glide_ligand_efficiency_sa>
-1.05834470741485

> <r_i_glide_ligand_efficiency_ln>
-2.06975186394918

> <r_i_glide_gscore>
-8.5594468617704

> <r_i_glide_lipo>
-2.40575885244504

> <r_i_glide_hbond>
-0.608

> <r_i_glide_metal>
0

> <r_i_glide_rewards>
-3.06416531460282

> <r_i_glide_evdw>
-40.0404319763184

> <r_i_glide_ecoul>
-6.00053548812866

> <r_i_glide_erotb>
0.420579227312671

> <r_i_glide_esite>
0

> <r_i_glide_emodel>
-69.082277399291

> <r_i_glide_energy>
-46.040967464447

> <r_i_glide_einternal>
3.49748969078064

> <i_i_glide_confnum>
6

> <i_i_glide_posenum>
222

> <r_i_glide_eff_state_penalty>
0

> <s_user_duplicate_titles>
CHEMBL3045_lig233,309043

> <s_m_subgroup_title>
dock_pv

> <s_m_subgroupid>
dock_pv

> <b_m_subgroup_collapsed>
1

$$$$
CHEMBL3045_lig230
                    3D
 Schrodinger Suite 2021-1.
 52 56  0  0  1  0            999 V2000
   36.9722   56.2431   36.5871 C   0  0  0  0  0  0
   38.4625   56.3284   36.7043 C   0  0  0  0  0  0
   36.2418   55.9657   35.4816 C   0  0  0  0  0  0
   36.0443   56.4572   37.6723 C   0  0  0  0  0  0
   34.8345   56.2366   37.1654 N   0  0  0  0  0  0
   34.8563   55.8888   35.8833 C   0  0  0  0  0  0
   39.3039   56.2262   35.6058 C   0  0  0  0  0  0
   40.6280   56.2300   35.9525 N   0  0  0  0  0  0
   39.3787   56.4843   37.8352 C   0  0  0  0  0  0
   40.7209   56.4404   37.3131 C   0  0  0  0  0  0
   36.6658   55.6851   34.1861 N   0  0  0  0  0  0
   38.7012   52.8650   33.3010 N   0  0  0  0  0  0
   40.6494   53.1734   34.3779 N   0  0  0  0  0  0
   39.2790   53.1006   34.4540 C   0  0  0  0  0  0
   36.2348   56.7782   38.8373 O   0  0  0  0  0  0
   33.8686   55.5754   35.2220 O   0  0  0  0  0  0
   39.6981   52.7726   32.4400 C   0  0  0  0  0  0
   40.9294   52.9516   33.0538 C   0  0  0  0  0  0
   41.7289   56.0042   35.0151 C   0  0  0  0  0  0
   42.4627   54.6595   35.2724 C   0  0  0  0  0  0
   36.0751   55.9964   32.9454 C   0  0  0  0  0  0
   41.5899   53.3915   35.4695 C   0  0  0  0  0  0
   39.2515   56.6404   39.2338 C   0  0  0  0  0  0
   41.8585   56.5752   38.1236 C   0  0  0  0  0  0
   36.5787   55.3654   31.8059 C   0  0  0  0  0  0
   35.0223   56.9094   32.8074 C   0  0  0  0  0  0
   40.3807   56.7653   40.0369 C   0  0  0  0  0  0
   41.6556   56.7422   39.4900 C   0  0  0  0  0  0
   34.3908   57.0745   31.5775 C   0  0  0  0  0  0
   35.9797   55.5685   30.5655 C   0  0  0  0  0  0
   34.8530   56.3727   30.4666 C   0  0  0  0  0  0
   33.9871   56.3118   37.7114 H   0  0  0  0  0  0
   39.0761   56.1015   34.5600 H   0  0  0  0  0  0
   37.5162   55.1519   34.0767 H   0  0  0  0  0  0
   38.7855   53.2211   35.4077 H   0  0  0  0  0  0
   39.5309   52.5456   31.3948 H   0  0  0  0  0  0
   41.9478   52.9055   32.6908 H   0  0  0  0  0  0
   42.4199   56.8445   35.0981 H   0  0  0  0  0  0
   41.3292   56.0205   33.9991 H   0  0  0  0  0  0
   43.1017   54.7647   36.1506 H   0  0  0  0  0  0
   43.1560   54.4820   34.4488 H   0  0  0  0  0  0
   41.0196   53.4661   36.3965 H   0  0  0  0  0  0
   42.2141   52.4988   35.5492 H   0  0  0  0  0  0
   38.3020   56.6492   39.7308 H   0  0  0  0  0  0
   42.8589   56.5438   37.7175 H   0  0  0  0  0  0
   37.4220   54.6947   31.8751 H   0  0  0  0  0  0
   34.6626   57.4690   33.6572 H   0  0  0  0  0  0
   40.2585   56.8761   41.1054 H   0  0  0  0  0  0
   42.5105   56.8383   40.1441 H   0  0  0  0  0  0
   33.5439   57.7380   31.4841 H   0  0  0  0  0  0
   36.3575   55.0592   29.6898 H   0  0  0  0  0  0
   34.3540   56.4820   29.5153 H   0  0  0  0  0  0
  1  2  1  0  0  0
  1  3  2  0  0  0
  1  4  1  0  0  0
  2  7  2  0  0  0
  2  9  1  0  0  0
  3  6  1  0  0  0
  3 11  1  0  0  0
  4  5  1  0  0  0
  4 15  2  0  0  0
  5  6  1  0  0  0
  5 32  1  0  0  0
  6 16  2  0  0  0
  7  8  1  0  0  0
  7 33  1  0  0  0
  8 19  1  0  0  0
  8 10  1  0  0  0
  9 10  2  0  0  0
  9 23  1  0  0  0
 10 24  1  0  0  0
 11 21  1  0  0  0
 11 34  1  0  0  0
 12 14  2  0  0  0
 12 17  1  0  0  0
 13 22  1  0  0  0
 13 14  1  0  0  0
 13 18  1  0  0  0
 14 35  1  0  0  0
 17 18  2  0  0  0
 17 36  1  0  0  0
 18 37  1  0  0  0
 19 20  1  0  0  0
 19 38  1  0  0  0
 19 39  1  0  0  0
 20 22  1  0  0  0
 20 40  1  0  0  0
 20 41  1  0  0  0
 21 25  1  0  0  0
 21 26  2  0  0  0
 22 42  1  0  0  0
 22 43  1  0  0  0
 23 27  2  0  0  0
 23 44  1  0  0  0
 24 28  2  0  0  0
 24 45  1  0  0  0
 25 30  2  0  0  0
 25 46  1  0  0  0
 26 29  1  0  0  0
 26 47  1  0  0  0
 27 28  1  0  0  0
 27 48  1  0  0  0
 28 49  1  0  0  0
 29 31  2  0  0  0
 29 50  1  0  0  0
 30 31  1  0  0  0
 30 51  1  0  0  0
 31 52  1  0  0  0
M  END
> <s_m_entry_id>
3343

> <s_m_entry_name>
dock_pv.72

> <s_m_Source_Path>
/home/csk/Desktop/cluster/DUD-E-result/kpcb

> <s_m_Source_File>
dock_pv.maegz

> <i_m_Source_File_Index>
72

> <chembl_id>
CHEMBL366266

> <chembl_pref_name>
None

> <i_lp_mmshare_version>
53161

> <i_f3d_flags>
0

> <r_lp_tautomer_probability>
0.999999999997686

> <s_lp_Force_Field>
OPLS_2005

> <r_lp_Energy>
35.770536

> <b_lp_Chiralities_Consistent>
1

> <s_lp_Variant>
CHEMBL3045_lig230-1

> <s_i_glide_gridfile>
glide-grid_2i0e

> <i_i_glide_lignum>
388

> <i_i_glide_rotatable_bonds>
7

> <r_i_docking_score>
-8.53874076049097

> <r_i_glide_ligand_efficiency>
-0.275443250338418

> <r_i_glide_ligand_efficiency_sa>
-0.865272096454462

> <r_i_glide_ligand_efficiency_ln>
-1.92574772246832

> <r_i_glide_gscore>
-8.53874076049097

> <r_i_glide_lipo>
-2.3354423089185

> <r_i_glide_hbond>
-0.575028382354157

> <r_i_glide_metal>
0

> <r_i_glide_rewards>
-2.54709248442024

> <r_i_glide_evdw>
-51.915885925293

> <r_i_glide_ecoul>
-6.17712783813477

> <r_i_glide_erotb>
0.488972012553142

> <r_i_glide_esite>
-0.0477861253663474

> <r_i_glide_emodel>
-86.2550242499299

> <r_i_glide_energy>
-58.0930137634277

> <r_i_glide_einternal>
5.83942890167236

> <i_i_glide_confnum>
17

> <i_i_glide_posenum>
358

> <r_i_glide_eff_state_penalty>
0

> <s_user_duplicate_titles>
CHEMBL3045_lig230,308995

> <s_m_subgroup_title>
dock_pv

> <s_m_subgroupid>
dock_pv

> <b_m_subgroup_collapsed>
1

$$$$
CHEMBL3045_lig27
                    3D
 Schrodinger Suite 2021-1.
 56 60  0  0  1  0            999 V2000
   37.3440   56.4799   36.8855 C   0  0  0  0  0  0
   36.6218   55.9560   35.8821 C   0  0  0  0  0  0
   38.7888   56.7524   36.8896 C   0  0  0  0  0  0
   36.4581   56.7282   37.9904 C   0  0  0  0  0  0
   35.2632   55.8343   36.3228 C   0  0  0  0  0  0
   35.2475   56.3583   37.5546 N   0  0  0  0  0  0
   39.5112   57.1293   35.7672 C   0  0  0  0  0  0
   40.8610   57.1687   36.0263 N   0  0  0  0  0  0
   41.0398   56.9451   37.3820 C   0  0  0  0  0  0
   37.1251   55.4179   34.5830 C   0  0  0  0  0  0
   39.7571   56.6721   37.9545 C   0  0  0  0  0  0
   36.6011   55.8034   33.2992 C   0  0  0  0  0  0
   42.2009   56.9613   38.0489 N   0  0  0  0  0  0
   36.7015   57.1746   39.1082 O   0  0  0  0  0  0
   34.3005   55.3680   35.7222 O   0  0  0  0  0  0
   37.1861   55.2469   32.1157 C   0  0  0  0  0  0
   41.8921   57.4094   35.0174 C   0  0  0  0  0  0
   41.8595   56.3554   33.8843 C   0  0  0  0  0  0
   38.1838   54.5033   34.6271 C   0  0  0  0  0  0
   43.3117   54.6220   34.9990 N   0  0  0  0  0  0
   39.7291   56.3741   39.3306 C   0  0  0  0  0  0
   35.5213   56.7226   33.1330 C   0  0  0  0  0  0
   42.0365   54.8842   34.3277 C   0  0  0  0  0  0
   38.7617   53.9922   33.4749 C   0  0  0  0  0  0
   42.1138   56.6884   39.3770 C   0  0  0  0  0  0
   38.2918   54.3721   32.2263 C   0  0  0  0  0  0
   43.3101   53.2601   35.5367 C   0  0  0  0  0  0
   44.4491   54.7466   34.0881 C   0  0  0  0  0  0
   36.6504   55.5761   30.8460 C   0  0  0  0  0  0
   40.9274   56.3945   40.0464 C   0  0  0  0  0  0
   35.0046   57.0057   31.8737 C   0  0  0  0  0  0
   35.5560   56.4253   30.7407 C   0  0  0  0  0  0
   34.4073   56.4327   38.1094 H   0  0  0  0  0  0
   39.1652   57.2980   34.7560 H   0  0  0  0  0  0
   42.8708   57.4079   35.5030 H   0  0  0  0  0  0
   41.7420   58.4010   34.6074 H   0  0  0  0  0  0
   42.5897   56.6091   33.1159 H   0  0  0  0  0  0
   40.9058   56.4333   33.3593 H   0  0  0  0  0  0
   38.5798   54.1828   35.5818 H   0  0  0  0  0  0
   38.8061   56.1301   39.8333 H   0  0  0  0  0  0
   35.0784   57.1986   33.9928 H   0  0  0  0  0  0
   41.9086   54.2154   33.4722 H   0  0  0  0  0  0
   41.2357   54.6456   35.0265 H   0  0  0  0  0  0
   39.5826   53.2930   33.5485 H   0  0  0  0  0  0
   43.0508   56.6976   39.9149 H   0  0  0  0  0  0
   38.7422   53.9573   31.3357 H   0  0  0  0  0  0
   42.5177   53.1324   36.2772 H   0  0  0  0  0  0
   44.2529   53.0380   36.0359 H   0  0  0  0  0  0
   43.1633   52.5109   34.7559 H   0  0  0  0  0  0
   44.5537   55.7658   33.7171 H   0  0  0  0  0  0
   45.3826   54.5050   34.5977 H   0  0  0  0  0  0
   44.3521   54.0778   33.2314 H   0  0  0  0  0  0
   37.0881   55.1516   29.9537 H   0  0  0  0  0  0
   40.9299   56.1751   41.1048 H   0  0  0  0  0  0
   34.1652   57.6793   31.7781 H   0  0  0  0  0  0
   35.1420   56.6458   29.7687 H   0  0  0  0  0  0
  1  2  2  0  0  0
  1  3  1  0  0  0
  1  4  1  0  0  0
  2  5  1  0  0  0
  2 10  1  0  0  0
  3  7  2  0  0  0
  3 11  1  0  0  0
  4  6  1  0  0  0
  4 14  2  0  0  0
  5 15  2  0  0  0
  5  6  1  0  0  0
  6 33  1  0  0  0
  7  8  1  0  0  0
  7 34  1  0  0  0
  8 17  1  0  0  0
  8  9  1  0  0  0
  9 11  2  0  0  0
  9 13  1  0  0  0
 10 12  1  0  0  0
 10 19  2  0  0  0
 11 21  1  0  0  0
 12 16  1  0  0  0
 12 22  2  0  0  0
 13 25  2  0  0  0
 16 29  2  0  0  0
 16 26  1  0  0  0
 17 18  1  0  0  0
 17 35  1  0  0  0
 17 36  1  0  0  0
 18 23  1  0  0  0
 18 37  1  0  0  0
 18 38  1  0  0  0
 19 24  1  0  0  0
 19 39  1  0  0  0
 20 23  1  0  0  0
 20 27  1  0  0  0
 20 28  1  0  0  0
 21 30  2  0  0  0
 21 40  1  0  0  0
 22 31  1  0  0  0
 22 41  1  0  0  0
 23 42  1  0  0  0
 23 43  1  0  0  0
 24 26  2  0  0  0
 24 44  1  0  0  0
 25 30  1  0  0  0
 25 45  1  0  0  0
 26 46  1  0  0  0
 27 47  1  0  0  0
 27 48  1  0  0  0
 27 49  1  0  0  0
 28 50  1  0  0  0
 28 51  1  0  0  0
 28 52  1  0  0  0
 29 32  1  0  0  0
 29 53  1  0  0  0
 30 54  1  0  0  0
 31 32  2  0  0  0
 31 55  1  0  0  0
 32 56  1  0  0  0
M  END
> <s_m_entry_id>
3344

> <s_m_entry_name>
dock_pv.73

> <s_m_Source_Path>
/home/csk/Desktop/cluster/DUD-E-result/kpcb

> <s_m_Source_File>
dock_pv.maegz

> <i_m_Source_File_Index>
73

> <chembl_id>
CHEMBL326688

> <chembl_pref_name>
None

> <i_lp_mmshare_version>
53161

> <i_f3d_flags>
0

> <r_lp_tautomer_probability>
1

> <s_lp_Force_Field>
OPLS_2005

> <r_lp_Energy>
35.932698

> <b_lp_Chiralities_Consistent>
1

> <s_lp_Variant>
CHEMBL3045_lig27-1

> <s_i_glide_gridfile>
glide-grid_2i0e

> <i_i_glide_lignum>
29

> <i_i_glide_rotatable_bonds>
6

> <r_i_docking_score>
-8.53561987814451

> <r_i_glide_ligand_efficiency>
-0.266738121192016

> <r_i_glide_ligand_efficiency_sa>
-0.846840747382146

> <r_i_glide_ligand_efficiency_ln>
-1.91135796292683

> <r_i_glide_gscore>
-8.53561987814451

> <r_i_glide_lipo>
-2.69592802152165

> <r_i_glide_hbond>
-0.566896358040853

> <r_i_glide_metal>
0

> <r_i_glide_rewards>
-2.42307511417706

> <r_i_glide_evdw>
-49.1713333129883

> <r_i_glide_ecoul>
-5.1753077507019

> <r_i_glide_erotb>
0.385142443849757

> <r_i_glide_esite>
0

> <r_i_glide_emodel>
-81.6435103179986

> <r_i_glide_energy>
-54.3466410636902

> <r_i_glide_einternal>
4.03721380233765

> <i_i_glide_confnum>
119

> <i_i_glide_posenum>
224

> <r_i_glide_eff_state_penalty>
0

> <s_user_duplicate_titles>
CHEMBL3045_lig27,181898

> <s_m_subgroup_title>
dock_pv

> <s_m_subgroupid>
dock_pv

> <b_m_subgroup_collapsed>
1

$$$$
CHEMBL3045_lig510
                    3D
 Schrodinger Suite 2021-1.
 56 59  0  0  1  0            999 V2000
   42.1313   53.4796   34.8543 C   0  0  0  0  0  0
   40.7462   53.3952   34.1963 C   0  0  1  0  0  0
   40.0343   54.7758   34.2186 C   0  0  0  0  0  0
   38.6939   54.6677   33.5579 N   0  0  0  0  0  0
   38.8218   54.1596   32.1654 C   0  0  1  0  0  0
   39.4916   55.1659   31.2175 C   0  0  0  0  0  0
   39.5469   52.7928   32.2163 C   0  0  0  0  0  0
   40.8634   52.8953   32.8316 N   0  0  2  0  0  0
   37.4954   55.2708   33.8978 C   0  0  0  0  0  0
   36.5986   55.3675   33.0498 O   0  0  0  0  0  0
   37.2090   55.6952   35.1709 N   0  0  0  0  0  0
   38.2045   55.8672   36.2377 C   0  0  0  0  0  0
   37.4414   56.3721   37.3989 C   0  0  0  0  0  0
   37.5615   56.7100   38.7498 C   0  0  0  0  0  0
   38.6723   56.6163   39.5685 N   0  0  0  0  0  0
   39.9549   56.7707   39.1769 C   0  0  0  0  0  0
   40.2990   57.1733   38.0638 O   0  0  0  0  0  0
   40.9876   56.4182   40.2220 C   0  0  0  0  0  0
   40.7912   56.6773   41.5870 C   0  0  0  0  0  0
   41.7664   56.2685   42.5004 C   0  0  0  0  0  0
   42.9104   55.6116   42.0390 C   0  0  0  0  0  0
   43.0408   55.3928   40.6677 C   0  0  0  0  0  0
   42.1072   55.7877   39.7673 N   0  0  0  0  0  0
   36.3715   56.9838   39.2369 N   0  0  0  0  0  0
   35.5018   56.8150   38.2265 N   0  0  0  0  0  0
   36.1402   56.4838   37.0676 C   0  0  0  0  0  0
   35.8441   56.1296   35.6380 C   0  0  0  0  0  0
   34.8000   54.9922   35.6166 C   0  0  0  0  0  0
   35.2903   57.3648   34.8841 C   0  0  0  0  0  0
   42.0582   53.7963   35.8954 H   0  0  0  0  0  0
   42.6354   52.5105   34.8432 H   0  0  0  0  0  0
   42.7784   54.1912   34.3397 H   0  0  0  0  0  0
   40.1607   52.6758   34.7735 H   0  0  0  0  0  0
   40.6443   55.4696   33.6376 H   0  0  0  0  0  0
   40.0945   55.1402   35.2278 H   0  0  0  0  0  0
   37.8430   53.9721   31.7340 H   0  0  0  0  0  0
   39.5032   54.7686   30.2023 H   0  0  0  0  0  0
   38.9592   56.1144   31.1922 H   0  0  0  0  0  0
   40.5341   55.3589   31.4689 H   0  0  0  0  0  0
   39.6328   52.3720   31.2135 H   0  0  0  0  0  0
   38.9547   52.0704   32.7792 H   0  0  0  0  0  0
   41.3120   51.9855   32.8484 H   0  0  0  0  0  0
   38.9666   56.5897   35.9405 H   0  0  0  0  0  0
   38.6571   54.9087   36.4990 H   0  0  0  0  0  0
   38.4858   56.4477   40.5530 H   0  0  0  0  0  0
   39.9014   57.1720   41.9469 H   0  0  0  0  0  0
   41.6348   56.4528   43.5570 H   0  0  0  0  0  0
   43.6748   55.2824   42.7272 H   0  0  0  0  0  0
   43.9057   54.8822   40.2652 H   0  0  0  0  0  0
   34.5014   56.9511   38.3344 H   0  0  0  0  0  0
   33.9021   55.2596   36.1759 H   0  0  0  0  0  0
   34.4753   54.7740   34.5957 H   0  0  0  0  0  0
   35.1939   54.0690   36.0371 H   0  0  0  0  0  0
   34.3974   57.7537   35.3757 H   0  0  0  0  0  0
   36.0170   58.1702   34.8352 H   0  0  0  0  0  0
   34.9958   57.1276   33.8620 H   0  0  0  0  0  0
  1  2  1  0  0  0
  1 30  1  0  0  0
  1 31  1  0  0  0
  1 32  1  0  0  0
  2  3  1  0  0  0
  2  8  1  0  0  0
  2 33  1  0  0  0
  3  4  1  0  0  0
  3 34  1  0  0  0
  3 35  1  0  0  0
  4  5  1  0  0  0
  4  9  1  0  0  0
  5  6  1  0  0  0
  5  7  1  0  0  0
  5 36  1  0  0  0
  6 37  1  0  0  0
  6 38  1  0  0  0
  6 39  1  0  0  0
  7  8  1  0  0  0
  7 40  1  0  0  0
  7 41  1  0  0  0
  8 42  1  0  0  0
  9 10  2  0  0  0
  9 11  1  0  0  0
 11 12  1  0  0  0
 11 27  1  0  0  0
 12 13  1  0  0  0
 12 43  1  0  0  0
 12 44  1  0  0  0
 13 14  1  0  0  0
 13 26  2  0  0  0
 14 15  1  0  0  0
 14 24  2  0  0  0
 15 16  1  0  0  0
 15 45  1  0  0  0
 16 17  2  0  0  0
 16 18  1  0  0  0
 18 19  2  0  0  0
 18 23  1  0  0  0
 19 20  1  0  0  0
 19 46  1  0  0  0
 20 21  2  0  0  0
 20 47  1  0  0  0
 21 22  1  0  0  0
 21 48  1  0  0  0
 22 23  2  0  0  0
 22 49  1  0  0  0
 24 25  1  0  0  0
 25 26  1  0  0  0
 25 50  1  0  0  0
 26 27  1  0  0  0
 27 28  1  0  0  0
 27 29  1  0  0  0
 28 51  1  0  0  0
 28 52  1  0  0  0
 28 53  1  0  0  0
 29 54  1  0  0  0
 29 55  1  0  0  0
 29 56  1  0  0  0
M  END
> <s_m_entry_id>
3345

> <s_m_entry_name>
dock_pv.74

> <s_m_Source_Path>
/home/csk/Desktop/cluster/DUD-E-result/kpcb

> <s_m_Source_File>
dock_pv.maegz

> <i_m_Source_File_Index>
74

> <chembl_id>
CHEMBL3662760

> <chembl_pref_name>
None

> <i_lp_mmshare_version>
53161

> <i_f3d_flags>
0

> <r_lp_tautomer_probability>
0.5

> <s_lp_Force_Field>
OPLS_2005

> <r_lp_Energy>
96.648602

> <b_lp_Chiralities_Consistent>
1

> <s_lp_Variant>
CHEMBL3045_lig510-4

> <s_i_glide_gridfile>
glide-grid_2i0e

> <i_i_glide_lignum>
753

> <i_i_glide_rotatable_bonds>
5

> <r_i_docking_score>
-8.52957727554333

> <r_i_glide_ligand_efficiency>
-0.29412335432908

> <r_i_glide_ligand_efficiency_sa>
-0.903640129318119

> <r_i_glide_ligand_efficiency_ln>
-1.95305690468185

> <r_i_glide_gscore>
-8.52957727554333

> <r_i_glide_lipo>
-2.29480562754005

> <r_i_glide_hbond>
-0.888089998026908

> <r_i_glide_metal>
0

> <r_i_glide_rewards>
-2.22898991846899

> <r_i_glide_evdw>
-40.4713096618652

> <r_i_glide_ecoul>
-9.96406936645508

> <r_i_glide_erotb>
0.433665484929194

> <r_i_glide_esite>
-0.0331813283750532

> <r_i_glide_emodel>
-72.1170207699743

> <r_i_glide_energy>
-50.4353790283203

> <r_i_glide_einternal>
7.12289667129517

> <i_i_glide_confnum>
38

> <i_i_glide_posenum>
273

> <r_i_glide_eff_state_penalty>
0

> <s_user_duplicate_titles>
CHEMBL3045_lig510

> <s_m_subgroup_title>
dock_pv

> <s_m_subgroupid>
dock_pv

> <b_m_subgroup_collapsed>
1

$$$$
CHEMBL3045_lig232
                    3D
 Schrodinger Suite 2021-1.
 42 45  0  0  1  0            999 V2000
   36.3604   55.9159   35.8784 C   0  0  0  0  0  0
   37.0921   56.1240   36.9821 C   0  0  0  0  0  0
   36.8417   55.5718   34.5350 C   0  0  0  0  0  0
   34.9696   56.0646   36.2047 C   0  0  0  0  0  0
   34.9586   56.3742   37.4995 N   0  0  0  0  0  0
   36.1738   56.4588   38.0432 C   0  0  0  0  0  0
   37.8999   54.7259   34.2436 C   0  0  0  0  0  0
   36.3236   56.0133   33.2612 C   0  0  0  0  0  0
   38.0563   54.6221   32.8838 N   0  0  0  0  0  0
   38.4600   56.0090   37.1236 N   0  0  0  0  0  0
   37.1045   55.3840   32.2431 C   0  0  0  0  0  0
   33.9756   55.9413   35.4932 O   0  0  0  0  0  0
   36.3881   56.7628   39.2153 O   0  0  0  0  0  0
   39.4394   57.0320   37.4805 C   0  0  0  0  0  0
   35.2872   56.8759   32.8648 C   0  0  0  0  0  0
   36.8542   55.5800   30.8822 C   0  0  0  0  0  0
   39.5748   57.1933   39.0137 C   0  0  0  0  0  0
   40.8059   56.5987   36.8984 C   0  0  0  0  0  0
   34.9949   57.0173   31.5111 C   0  0  0  0  0  0
   35.7582   56.3706   30.5457 C   0  0  0  0  0  0
   40.0786   55.9181   39.7097 C   0  0  0  0  0  0
   41.3451   55.3034   37.5543 C   0  0  0  0  0  0
   41.4049   55.4157   39.0938 C   0  0  0  0  0  0
   34.1068   56.5592   38.0148 H   0  0  0  0  0  0
   38.5556   54.1642   34.8942 H   0  0  0  0  0  0
   38.7633   54.0395   32.4563 H   0  0  0  0  0  0
   38.8873   55.4100   36.4339 H   0  0  0  0  0  0
   39.1287   57.9712   37.0223 H   0  0  0  0  0  0
   34.7012   57.4019   33.5991 H   0  0  0  0  0  0
   37.4635   55.1334   30.1119 H   0  0  0  0  0  0
   40.3015   57.9719   39.2199 H   0  0  0  0  0  0
   38.6553   57.5485   39.4695 H   0  0  0  0  0  0
   40.7305   56.4612   35.8189 H   0  0  0  0  0  0
   41.5283   57.4048   37.0394 H   0  0  0  0  0  0
   34.1634   57.6375   31.2115 H   0  0  0  0  0  0
   35.5006   56.4821   29.5038 H   0  0  0  0  0  0
   40.2073   56.1022   40.7770 H   0  0  0  0  0  0
   39.3071   55.1552   39.6336 H   0  0  0  0  0  0
   42.3373   55.0713   37.1636 H   0  0  0  0  0  0
   40.7128   54.4565   37.2801 H   0  0  0  0  0  0
   42.2061   56.1028   39.3674 H   0  0  0  0  0  0
   41.6740   54.4504   39.5263 H   0  0  0  0  0  0
  1  2  2  0  0  0
  1  3  1  0  0  0
  1  4  1  0  0  0
  2  6  1  0  0  0
  2 10  1  0  0  0
  3  7  2  0  0  0
  3  8  1  0  0  0
  4  5  1  0  0  0
  4 12  2  0  0  0
  5  6  1  0  0  0
  5 24  1  0  0  0
  6 13  2  0  0  0
  7  9  1  0  0  0
  7 25  1  0  0  0
  8 11  2  0  0  0
  8 15  1  0  0  0
  9 11  1  0  0  0
  9 26  1  0  0  0
 10 14  1  0  0  0
 10 27  1  0  0  0
 11 16  1  0  0  0
 14 17  1  0  0  0
 14 18  1  0  0  0
 14 28  1  0  0  0
 15 19  2  0  0  0
 15 29  1  0  0  0
 16 20  2  0  0  0
 16 30  1  0  0  0
 17 21  1  0  0  0
 17 31  1  0  0  0
 17 32  1  0  0  0
 18 22  1  0  0  0
 18 33  1  0  0  0
 18 34  1  0  0  0
 19 20  1  0  0  0
 19 35  1  0  0  0
 20 36  1  0  0  0
 21 23  1  0  0  0
 21 37  1  0  0  0
 21 38  1  0  0  0
 22 23  1  0  0  0
 22 39  1  0  0  0
 22 40  1  0  0  0
 23 41  1  0  0  0
 23 42  1  0  0  0
M  END
> <s_m_entry_id>
3346

> <s_m_entry_name>
dock_pv.75

> <s_m_Source_Path>
/home/csk/Desktop/cluster/DUD-E-result/kpcb

> <s_m_Source_File>
dock_pv.maegz

> <i_m_Source_File_Index>
75

> <chembl_id>
CHEMBL184826

> <chembl_pref_name>
None

> <i_lp_mmshare_version>
53161

> <i_f3d_flags>
0

> <r_lp_tautomer_probability>
0.999999999997686

> <s_lp_Force_Field>
OPLS_2005

> <r_lp_Energy>
22.704532

> <b_lp_Chiralities_Consistent>
1

> <s_lp_Variant>
CHEMBL3045_lig232-1

> <s_i_glide_gridfile>
glide-grid_2i0e

> <i_i_glide_lignum>
390

> <i_i_glide_rotatable_bonds>
3

> <r_i_docking_score>
-8.52785032387251

> <r_i_glide_ligand_efficiency>
-0.370776101037935

> <r_i_glide_ligand_efficiency_sa>
-1.05443790955783

> <r_i_glide_ligand_efficiency_ln>
-2.0621115345839

> <r_i_glide_gscore>
-8.52785032387251

> <r_i_glide_lipo>
-2.38149574459167

> <r_i_glide_hbond>
-0.608

> <r_i_glide_metal>
0

> <r_i_glide_rewards>
-3.03395004155402

> <r_i_glide_evdw>
-39.7906455993652

> <r_i_glide_ecoul>
-6.14091873168945

> <r_i_glide_erotb>
0.406265551994865

> <r_i_glide_esite>
0

> <r_i_glide_emodel>
-68.8646804812928

> <r_i_glide_energy>
-45.9315643310547

> <r_i_glide_einternal>
2.5453405380249

> <i_i_glide_confnum>
43

> <i_i_glide_posenum>
376

> <r_i_glide_eff_state_penalty>
0

> <s_user_duplicate_titles>
CHEMBL3045_lig232

> <s_m_subgroup_title>
dock_pv

> <s_m_subgroupid>
dock_pv

> <b_m_subgroup_collapsed>
1

$$$$
CHEMBL3045_lig567
                    3D
 Schrodinger Suite 2021-1.
 65 68  0  0  1  0            999 V2000
   43.2209   52.5659   29.3820 C   0  0  0  0  0  0
   42.5955   53.2963   30.5765 C   0  0  0  0  0  0
   41.2360   52.6998   30.9994 C   0  0  0  0  0  0
   40.4763   53.6146   31.8527 N   0  0  2  0  0  0
   39.3850   52.9087   32.5260 C   0  0  0  0  0  0
   38.6346   53.8484   33.5012 C   0  0  0  0  0  0
   38.2704   55.1290   32.8383 N   0  0  0  0  0  0
   39.2656   55.7850   31.9638 C   0  0  1  0  0  0
   40.3357   56.5645   32.7581 C   0  0  0  0  0  0
   39.8918   54.7019   31.0648 C   0  0  0  0  0  0
   37.1420   55.8284   33.1448 C   0  0  0  0  0  0
   36.5162   56.4096   32.2548 O   0  0  0  0  0  0
   36.7667   55.9102   34.4575 N   0  0  0  0  0  0
   37.7955   55.9578   35.5235 C   0  0  0  0  0  0
   37.0423   56.3345   36.7498 C   0  0  0  0  0  0
   37.1758   56.5322   38.1328 C   0  0  0  0  0  0
   38.3124   56.3648   38.9122 N   0  0  0  0  0  0
   39.5754   56.6054   38.4915 C   0  0  0  0  0  0
   39.8636   57.1721   37.4355 O   0  0  0  0  0  0
   40.6698   56.1366   39.4153 C   0  0  0  0  0  0
   40.6787   56.4293   40.7880 C   0  0  0  0  0  0
   41.7087   55.9206   41.5818 C   0  0  0  0  0  0
   42.7053   55.1367   40.9955 C   0  0  0  0  0  0
   42.6376   54.8924   39.6231 C   0  0  0  0  0  0
   41.6454   55.3824   38.8364 N   0  0  0  0  0  0
   35.9931   56.7702   38.6661 N   0  0  0  0  0  0
   35.1227   56.7543   37.6370 N   0  0  0  0  0  0
   35.7379   56.5032   36.4408 C   0  0  0  0  0  0
   35.4357   56.3842   34.9612 C   0  0  1  0  0  0
   35.0607   57.7949   34.4364 C   0  0  0  0  0  0
   34.2837   55.3588   34.7356 C   0  0  0  0  0  0
   33.8941   55.0530   33.2692 C   0  0  0  0  0  0
   44.1964   52.9871   29.1379 H   0  0  0  0  0  0
   42.5910   52.6459   28.4939 H   0  0  0  0  0  0
   43.3640   51.5101   29.6077 H   0  0  0  0  0  0
   43.2798   53.1720   31.4152 H   0  0  0  0  0  0
   42.5681   54.3729   30.4359 H   0  0  0  0  0  0
   40.6532   52.3718   30.1355 H   0  0  0  0  0  0
   41.4543   51.7921   31.5651 H   0  0  0  0  0  0
   38.6992   52.5368   31.7609 H   0  0  0  0  0  0
   39.7748   52.0454   33.0689 H   0  0  0  0  0  0
   37.7620   53.3227   33.8892 H   0  0  0  0  0  0
   39.3442   54.0488   34.3049 H   0  0  0  0  0  0
   38.7811   56.5111   31.3057 H   0  0  0  0  0  0
   41.0960   56.9689   32.0937 H   0  0  0  0  0  0
   39.9007   57.4055   33.2982 H   0  0  0  0  0  0
   40.8597   55.9224   33.4665 H   0  0  0  0  0  0
   40.6372   55.1719   30.4371 H   0  0  0  0  0  0
   39.1353   54.2955   30.3869 H   0  0  0  0  0  0
   38.2637   54.9914   35.6884 H   0  0  0  0  0  0
   38.5778   56.6785   35.2784 H   0  0  0  0  0  0
   38.1750   56.1641   39.8944 H   0  0  0  0  0  0
   39.9028   57.0303   41.2406 H   0  0  0  0  0  0
   41.7340   56.1315   42.6389 H   0  0  0  0  0  0
   43.5112   54.7308   41.5894 H   0  0  0  0  0  0
   43.3852   54.2860   39.1288 H   0  0  0  0  0  0
   34.1308   56.9294   37.7718 H   0  0  0  0  0  0
   34.2942   58.2545   35.0484 H   0  0  0  0  0  0
   35.9011   58.4772   34.4625 H   0  0  0  0  0  0
   34.7020   57.7870   33.4098 H   0  0  0  0  0  0
   34.5340   54.4226   35.2377 H   0  0  0  0  0  0
   33.3899   55.7190   35.2487 H   0  0  0  0  0  0
   33.0352   54.3842   33.2190 H   0  0  0  0  0  0
   33.6222   55.9561   32.7216 H   0  0  0  0  0  0
   34.6982   54.5616   32.7235 H   0  0  0  0  0  0
  1  2  1  0  0  0
  1 33  1  0  0  0
  1 34  1  0  0  0
  1 35  1  0  0  0
  2  3  1  0  0  0
  2 36  1  0  0  0
  2 37  1  0  0  0
  3  4  1  0  0  0
  3 38  1  0  0  0
  3 39  1  0  0  0
  4  5  1  0  0  0
  4 10  1  0  0  0
  5  6  1  0  0  0
  5 40  1  0  0  0
  5 41  1  0  0  0
  6  7  1  0  0  0
  6 42  1  0  0  0
  6 43  1  0  0  0
  7  8  1  0  0  0
  7 11  1  0  0  0
  8  9  1  0  0  0
  8 10  1  0  0  0
  8 44  1  0  0  0
  9 45  1  0  0  0
  9 46  1  0  0  0
  9 47  1  0  0  0
 10 48  1  0  0  0
 10 49  1  0  0  0
 11 12  2  0  0  0
 11 13  1  0  0  0
 13 14  1  0  0  0
 13 29  1  0  0  0
 14 15  1  0  0  0
 14 50  1  0  0  0
 14 51  1  0  0  0
 15 16  1  0  0  0
 15 28  2  0  0  0
 16 17  1  0  0  0
 16 26  2  0  0  0
 17 18  1  0  0  0
 17 52  1  0  0  0
 18 19  2  0  0  0
 18 20  1  0  0  0
 20 21  2  0  0  0
 20 25  1  0  0  0
 21 22  1  0  0  0
 21 53  1  0  0  0
 22 23  2  0  0  0
 22 54  1  0  0  0
 23 24  1  0  0  0
 23 55  1  0  0  0
 24 25  2  0  0  0
 24 56  1  0  0  0
 26 27  1  0  0  0
 27 28  1  0  0  0
 27 57  1  0  0  0
 28 29  1  0  0  0
 29 30  1  0  0  0
 29 31  1  0  0  0
 30 58  1  0  0  0
 30 59  1  0  0  0
 30 60  1  0  0  0
 31 32  1  0  0  0
 31 61  1  0  0  0
 31 62  1  0  0  0
 32 63  1  0  0  0
 32 64  1  0  0  0
 32 65  1  0  0  0
M  END
> <s_m_entry_id>
3347

> <s_m_entry_name>
dock_pv.76

> <s_m_Source_Path>
/home/csk/Desktop/cluster/DUD-E-result/kpcb

> <s_m_Source_File>
dock_pv.maegz

> <i_m_Source_File_Index>
76

> <chembl_id>
CHEMBL3933186

> <chembl_pref_name>
None

> <i_lp_mmshare_version>
53161

> <i_f3d_flags>
0

> <r_lp_tautomer_probability>
0.5

> <s_lp_Force_Field>
OPLS_2005

> <r_lp_Energy>
100.041702

> <b_lp_Chiralities_Consistent>
1

> <s_lp_Variant>
CHEMBL3045_lig567-2

> <s_i_glide_gridfile>
glide-grid_2i0e

> <i_i_glide_lignum>
887

> <i_i_glide_rotatable_bonds>
8

> <r_i_docking_score>
-8.52166142160959

> <r_i_glide_ligand_efficiency>
-0.2663019194253

> <r_i_glide_ligand_efficiency_sa>
-0.845455893097034

> <r_i_glide_ligand_efficiency_ln>
-1.90823228401551

> <r_i_glide_gscore>
-8.52166142160959

> <r_i_glide_lipo>
-2.7446071897516

> <r_i_glide_hbond>
-0.781816995100986

> <r_i_glide_metal>
0

> <r_i_glide_rewards>
-2.12150065598858

> <r_i_glide_evdw>
-47.2590370178223

> <r_i_glide_ecoul>
-6.29775762557983

> <r_i_glide_erotb>
0.433878913959672

> <r_i_glide_esite>
0

> <r_i_glide_emodel>
-68.9623027642969

> <r_i_glide_energy>
-53.5567946434021

> <r_i_glide_einternal>
19.6142082214355

> <i_i_glide_confnum>
29

> <i_i_glide_posenum>
288

> <r_i_glide_eff_state_penalty>
0

> <s_user_duplicate_titles>
CHEMBL3045_lig567

> <s_m_subgroup_title>
dock_pv

> <s_m_subgroupid>
dock_pv

> <b_m_subgroup_collapsed>
1

$$$$
CHEMBL3045_lig710 
                    3D
 Schrodinger Suite 2021-1.
 40 43  0  0  1  0            999 V2000
   39.9581   53.5544   32.6330 C   0  0  0  0  0  0
   39.7383   53.5915   31.0968 C   0  0  0  0  0  0
   41.1587   53.2403   30.8407 O   0  0  0  0  0  0
   41.3474   52.9500   32.2857 C   0  0  0  0  0  0
   38.7164   56.7741   37.6146 C   0  0  0  0  0  0
   37.9099   56.8708   38.7494 C   0  0  0  0  0  0
   36.5577   56.7516   38.7436 N   0  0  0  0  0  0
   38.1428   56.5312   36.3581 C   0  0  0  0  0  0
   36.7291   56.4263   36.3053 C   0  0  0  0  0  0
   36.0300   56.5321   37.5361 C   0  0  0  0  0  0
   34.7008   56.3742   37.2370 N   0  0  0  0  0  0
   34.5080   56.2187   35.9190 N   0  0  0  0  0  0
   35.6797   56.2629   35.3227 C   0  0  0  0  0  0
   39.0153   56.3542   35.1711 C   0  0  0  0  0  0
   39.0602   55.1186   34.5147 C   0  0  0  0  0  0
   39.8935   54.8980   33.4050 C   0  0  0  0  0  0
   40.6928   55.9639   32.9657 C   0  0  0  0  0  0
   40.6726   57.1972   33.6194 C   0  0  0  0  0  0
   39.8401   57.3908   34.7191 C   0  0  0  0  0  0
   39.0399   52.4503   33.2466 C   0  0  0  0  0  0
   39.5012   51.9804   34.5475 N   0  0  0  0  0  0
   35.7542   56.2039   33.7999 C   0  0  0  0  0  0
   36.4764   55.1721   33.3754 F   0  0  0  0  0  0
   34.5478   56.0828   33.2367 F   0  0  0  0  0  0
   36.3014   57.3136   33.3126 F   0  0  0  0  0  0
   39.5294   54.5706   30.6655 H   0  0  0  0  0  0
   39.1053   52.8126   30.6658 H   0  0  0  0  0  0
   41.4668   51.8707   32.4067 H   0  0  0  0  0  0
   42.2170   53.5004   32.6487 H   0  0  0  0  0  0
   39.7900   56.8536   37.7121 H   0  0  0  0  0  0
   38.3586   57.0334   39.7188 H   0  0  0  0  0  0
   33.9102   56.4320   37.8717 H   0  0  0  0  0  0
   38.4173   54.3367   34.8892 H   0  0  0  0  0  0
   41.3415   55.8364   32.1101 H   0  0  0  0  0  0
   41.3025   58.0026   33.2700 H   0  0  0  0  0  0
   39.8357   58.3484   35.2194 H   0  0  0  0  0  0
   38.0177   52.8204   33.3330 H   0  0  0  0  0  0
   38.9742   51.5870   32.5816 H   0  0  0  0  0  0
   40.3501   51.4220   34.4411 H   0  0  0  0  0  0
   39.7629   52.7675   35.1197 H   0  0  0  0  0  0
  1  2  1  0  0  0
  1  4  1  0  0  0
  1 16  1  0  0  0
  1 20  1  0  0  0
  2  3  1  0  0  0
  2 26  1  0  0  0
  2 27  1  0  0  0
  3  4  1  0  0  0
  4 28  1  0  0  0
  4 29  1  0  0  0
  5  6  2  0  0  0
  5  8  1  0  0  0
  5 30  1  0  0  0
  6  7  1  0  0  0
  6 31  1  0  0  0
  7 10  2  0  0  0
  8  9  2  0  0  0
  8 14  1  0  0  0
  9 10  1  0  0  0
  9 13  1  0  0  0
 10 11  1  0  0  0
 11 12  1  0  0  0
 11 32  1  0  0  0
 12 13  2  0  0  0
 13 22  1  0  0  0
 14 15  2  0  0  0
 14 19  1  0  0  0
 15 16  1  0  0  0
 15 33  1  0  0  0
 16 17  2  0  0  0
 17 18  1  0  0  0
 17 34  1  0  0  0
 18 19  2  0  0  0
 18 35  1  0  0  0
 19 36  1  0  0  0
 20 21  1  0  0  0
 20 37  1  0  0  0
 20 38  1  0  0  0
 21 39  1  0  0  0
 21 40  1  0  0  0
 22 23  1  0  0  0
 22 24  1  0  0  0
 22 25  1  0  0  0
M  END
> <s_m_entry_id>
3348

> <s_m_entry_name>
dock_pv.77

> <s_m_Source_Path>
/home/csk/Desktop/cluster/DUD-E-result/kpcb

> <s_m_Source_File>
dock_pv.maegz

> <i_m_Source_File_Index>
77

> <chembl_id>
CHEMBL4461649

> <chembl_pref_name>
None

> <i_lp_mmshare_version>
53161

> <i_f3d_flags>
0

> <r_lp_tautomer_probability>
0.960980075423508

> <s_lp_Force_Field>
OPLS_2005

> <r_lp_Energy>
29.172901

> <b_lp_Chiralities_Consistent>
1

> <s_lp_Variant>
CHEMBL3045_lig710 -1

> <s_i_glide_gridfile>
glide-grid_2i0e

> <i_i_glide_lignum>
1191

> <i_i_glide_rotatable_bonds>
4

> <r_i_docking_score>
-8.51765212391598

> <r_i_glide_ligand_efficiency>
-0.340706084956639

> <r_i_glide_ligand_efficiency_sa>
-0.996230634861358

> <r_i_glide_ligand_efficiency_ln>
-2.01893880680455

> <r_i_glide_gscore>
-8.51765212391598

> <r_i_glide_lipo>
-1.70256274250318

> <r_i_glide_hbond>
-0.77293713015209

> <r_i_glide_metal>
0

> <r_i_glide_rewards>
-3.09545656295968

> <r_i_glide_evdw>
-37.4018325805664

> <r_i_glide_ecoul>
-8.64166355133057

> <r_i_glide_erotb>
0.21964547342688

> <r_i_glide_esite>
0

> <r_i_glide_emodel>
-69.6677372674303

> <r_i_glide_energy>
-46.043496131897

> <r_i_glide_einternal>
1.56060039997101

> <i_i_glide_confnum>
20

> <i_i_glide_posenum>
102

> <r_i_glide_eff_state_penalty>
0

> <s_user_duplicate_titles>
CHEMBL3045_lig710 ,CHEMBL3045_lig710 

> <s_m_subgroup_title>
dock_pv

> <s_m_subgroupid>
dock_pv

> <b_m_subgroup_collapsed>
1

$$$$
CHEMBL3045_lig347
                    3D
 Schrodinger Suite 2021-1.
 58 63  0  0  1  0            999 V2000
   34.9332   56.3732   37.5013 N   0  0  0  0  0  0
   36.1182   56.7071   38.0232 C   0  0  0  0  0  0
   37.0743   56.4159   36.9907 C   0  0  0  0  0  0
   36.3975   55.9690   35.9165 C   0  0  0  0  0  0
   35.0004   55.9453   36.2380 C   0  0  0  0  0  0
   36.3027   57.1674   39.1490 O   0  0  0  0  0  0
   34.0472   55.6246   35.5321 O   0  0  0  0  0  0
   38.1834   54.3027   32.4520 N   0  0  0  0  0  0
   38.4973   53.9724   33.7333 C   0  0  0  0  0  0
   37.8832   54.4809   34.8318 N   0  0  0  0  0  0
   36.9443   55.4410   34.6415 C   0  0  0  0  0  0
   36.5450   55.8744   33.3407 C   0  0  0  0  0  0
   35.5751   56.8751   33.0568 C   0  0  0  0  0  0
   35.2523   57.1795   31.7373 C   0  0  0  0  0  0
   35.8838   56.5265   30.6839 C   0  0  0  0  0  0
   36.8661   55.5722   30.9253 C   0  0  0  0  0  0
   37.2127   55.2340   32.2524 C   0  0  0  0  0  0
   39.4662   52.9849   33.9302 N   0  0  0  0  0  0
   40.0522   52.6981   35.2576 C   0  0  0  0  0  0
   41.3393   53.5205   35.5016 C   0  0  0  0  0  0
   42.3380   53.1721   34.4947 N   0  0  0  0  0  0
   41.8083   53.4605   33.1584 C   0  0  0  0  0  0
   40.4951   52.6701   32.9126 C   0  0  0  0  0  0
   43.5982   53.8661   34.7272 C   0  0  0  0  0  0
   40.5485   56.5537   38.1671 N   0  0  0  0  0  0
   39.2043   56.3798   38.3637 C   0  0  0  0  0  0
   38.5190   56.6087   37.1806 C   0  0  0  0  0  0
   39.5197   56.9965   36.2112 C   0  0  0  0  0  0
   39.4881   57.4026   34.8659 C   0  0  0  0  0  0
   40.6811   57.6431   34.1941 C   0  0  0  0  0  0
   41.9009   57.5177   34.8460 C   0  0  0  0  0  0
   42.0035   57.1714   36.1974 C   0  0  0  0  0  0
   40.7939   56.9161   36.8594 C   0  0  0  0  0  0
   43.3793   57.0891   36.8348 C   0  0  0  0  0  0
   34.0617   56.4895   38.0012 H   0  0  0  0  0  0
   35.0757   57.3945   33.8599 H   0  0  0  0  0  0
   34.5011   57.9275   31.5274 H   0  0  0  0  0  0
   35.6194   56.7682   29.6652 H   0  0  0  0  0  0
   37.3680   55.0797   30.1024 H   0  0  0  0  0  0
   39.3388   52.8860   36.0579 H   0  0  0  0  0  0
   40.2807   51.6333   35.3239 H   0  0  0  0  0  0
   41.1164   54.5862   35.4646 H   0  0  0  0  0  0
   41.7292   53.3047   36.4976 H   0  0  0  0  0  0
   42.5474   53.1745   32.4085 H   0  0  0  0  0  0
   41.6324   54.5310   33.0358 H   0  0  0  0  0  0
   40.7000   51.5988   32.9211 H   0  0  0  0  0  0
   40.1387   52.8770   31.9035 H   0  0  0  0  0  0
   44.3464   53.5442   34.0005 H   0  0  0  0  0  0
   43.4861   54.9488   34.6504 H   0  0  0  0  0  0
   43.9870   53.6293   35.7194 H   0  0  0  0  0  0
   41.2313   56.4026   38.8951 H   0  0  0  0  0  0
   38.8418   56.0658   39.3341 H   0  0  0  0  0  0
   38.5519   57.5163   34.3450 H   0  0  0  0  0  0
   40.6613   57.9295   33.1521 H   0  0  0  0  0  0
   42.8020   57.7186   34.2832 H   0  0  0  0  0  0
   43.4560   57.8033   37.6543 H   0  0  0  0  0  0
   43.5483   56.0886   37.2341 H   0  0  0  0  0  0
   44.1793   57.3061   36.1253 H   0  0  0  0  0  0
  1  2  1  0  0  0
  1  5  1  0  0  0
  1 35  1  0  0  0
  2  3  1  0  0  0
  2  6  2  0  0  0
  3  4  2  0  0  0
  3 27  1  0  0  0
  4  5  1  0  0  0
  4 11  1  0  0  0
  5  7  2  0  0  0
  8  9  1  0  0  0
  8 17  2  0  0  0
  9 10  2  0  0  0
  9 18  1  0  0  0
 10 11  1  0  0  0
 11 12  2  0  0  0
 12 13  1  0  0  0
 12 17  1  0  0  0
 13 14  2  0  0  0
 13 36  1  0  0  0
 14 15  1  0  0  0
 14 37  1  0  0  0
 15 16  2  0  0  0
 15 38  1  0  0  0
 16 17  1  0  0  0
 16 39  1  0  0  0
 18 19  1  0  0  0
 18 23  1  0  0  0
 19 20  1  0  0  0
 19 40  1  0  0  0
 19 41  1  0  0  0
 20 21  1  0  0  0
 20 42  1  0  0  0
 20 43  1  0  0  0
 21 22  1  0  0  0
 21 24  1  0  0  0
 22 23  1  0  0  0
 22 44  1  0  0  0
 22 45  1  0  0  0
 23 46  1  0  0  0
 23 47  1  0  0  0
 24 48  1  0  0  0
 24 49  1  0  0  0
 24 50  1  0  0  0
 25 26  1  0  0  0
 25 33  1  0  0  0
 25 51  1  0  0  0
 26 27  2  0  0  0
 26 52  1  0  0  0
 27 28  1  0  0  0
 28 29  1  0  0  0
 28 33  2  0  0  0
 29 30  2  0  0  0
 29 53  1  0  0  0
 30 31  1  0  0  0
 30 54  1  0  0  0
 31 32  2  0  0  0
 31 55  1  0  0  0
 32 33  1  0  0  0
 32 34  1  0  0  0
 34 56  1  0  0  0
 34 57  1  0  0  0
 34 58  1  0  0  0
M  END
> <s_m_entry_id>
3349

> <s_m_entry_name>
dock_pv.78

> <s_m_Source_Path>
/home/csk/Desktop/cluster/DUD-E-result/kpcb

> <s_m_Source_File>
dock_pv.maegz

> <i_m_Source_File_Index>
78

> <chembl_id>
CHEMBL2151411

> <chembl_pref_name>
None

> <i_lp_mmshare_version>
53161

> <i_f3d_flags>
0

> <r_lp_tautomer_probability>
1

> <s_lp_Force_Field>
OPLS_2005

> <r_lp_Energy>
42.592355

> <b_lp_Chiralities_Consistent>
1

> <s_lp_Variant>
CHEMBL3045_lig347-1

> <s_i_glide_gridfile>
glide-grid_2i0e

> <i_i_glide_lignum>
511

> <i_i_glide_rotatable_bonds>
3

> <r_i_docking_score>
-8.50433981753574

> <r_i_glide_ligand_efficiency>
-0.250127641692228

> <r_i_glide_ligand_efficiency_sa>
-0.810316458899357

> <r_i_glide_ligand_efficiency_ln>
-1.87884720434568

> <r_i_glide_gscore>
-8.50433981753574

> <r_i_glide_lipo>
-2.6142405107558

> <r_i_glide_hbond>
-0.608

> <r_i_glide_metal>
0

> <r_i_glide_rewards>
-2.17662904624606

> <r_i_glide_evdw>
-52.1436309814453

> <r_i_glide_ecoul>
-4.68219137191772

> <r_i_glide_erotb>
0.205788435628134

> <r_i_glide_esite>
-0.00174844130208217

> <r_i_glide_emodel>
-84.6838838809557

> <r_i_glide_energy>
-56.825822353363

> <r_i_glide_einternal>
0.997879564762115

> <i_i_glide_confnum>
41

> <i_i_glide_posenum>
66

> <r_i_glide_eff_state_penalty>
0

> <s_user_duplicate_titles>
CHEMBL3045_lig347

> <s_m_subgroup_title>
dock_pv

> <s_m_subgroupid>
dock_pv

> <b_m_subgroup_collapsed>
1

$$$$
CHEMBL3045_lig226
                    3D
 Schrodinger Suite 2021-1.
 57 61  0  0  1  0            999 V2000
   36.1743   56.2731   35.5137 C   0  0  0  0  0  0
   36.6019   56.0696   34.1160 C   0  0  0  0  0  0
   36.9138   56.7346   36.5391 C   0  0  0  0  0  0
   34.8628   55.9570   36.0023 C   0  0  0  0  0  0
   34.8826   56.2906   37.2911 N   0  0  0  0  0  0
   36.0584   56.7720   37.7000 C   0  0  0  0  0  0
   37.9136   55.8240   33.7652 C   0  0  0  0  0  0
   38.0554   55.6662   32.4115 N   0  0  0  0  0  0
   35.8631   56.0212   32.8671 C   0  0  0  0  0  0
   36.8053   55.7375   31.8239 C   0  0  0  0  0  0
   38.2170   57.2038   36.5083 N   0  0  0  0  0  0
   33.9011   55.4837   35.4103 O   0  0  0  0  0  0
   40.0118   53.3079   33.8659 N   0  0  0  0  0  0
   36.2998   57.1715   38.8384 O   0  0  0  0  0  0
   39.3178   55.3558   31.7538 C   0  0  0  0  0  0
   39.4516   53.8409   31.4860 C   0  0  0  0  0  0
   39.3414   56.8152   37.2598 C   0  0  0  0  0  0
   39.2144   52.9133   32.7032 C   0  0  0  0  0  0
   34.5126   56.1697   32.4977 C   0  0  0  0  0  0
   36.4144   55.5719   30.4879 C   0  0  0  0  0  0
   41.4450   53.0877   33.7166 C   0  0  0  0  0  0
   39.6754   52.5655   35.0701 C   0  0  0  0  0  0
   40.5904   57.1719   36.7451 C   0  0  0  0  0  0
   39.2734   56.0959   38.4599 C   0  0  0  0  0  0
   34.1323   56.0396   31.1647 C   0  0  0  0  0  0
   35.0671   55.7384   30.1847 C   0  0  0  0  0  0
   42.0100   53.1711   35.1384 C   0  0  0  0  0  0
   40.8163   52.8558   36.0444 C   0  0  0  0  0  0
   40.4393   55.7544   39.1405 C   0  0  0  0  0  0
   41.7586   56.8210   37.4165 C   0  0  0  0  0  0
   41.6774   56.1148   38.6147 C   0  0  0  0  0  0
   34.0759   56.2178   37.8927 H   0  0  0  0  0  0
   38.7896   55.7189   34.3891 H   0  0  0  0  0  0
   38.5051   57.6207   35.6365 H   0  0  0  0  0  0
   40.1308   55.7061   32.3939 H   0  0  0  0  0  0
   39.3776   55.9375   30.8367 H   0  0  0  0  0  0
   40.4148   53.6109   31.0291 H   0  0  0  0  0  0
   38.7198   53.5723   30.7230 H   0  0  0  0  0  0
   39.4409   51.8797   32.4375 H   0  0  0  0  0  0
   38.1575   52.9406   32.9704 H   0  0  0  0  0  0
   33.7576   56.3710   33.2332 H   0  0  0  0  0  0
   37.1195   55.2864   29.7203 H   0  0  0  0  0  0
   41.8632   53.8528   33.0597 H   0  0  0  0  0  0
   41.6750   52.1371   33.2290 H   0  0  0  0  0  0
   39.5430   51.5005   34.8740 H   0  0  0  0  0  0
   38.7084   52.9110   35.4390 H   0  0  0  0  0  0
   40.6662   57.7152   35.8139 H   0  0  0  0  0  0
   38.3339   55.7763   38.8827 H   0  0  0  0  0  0
   33.0933   56.1501   30.8846 H   0  0  0  0  0  0
   34.7354   55.6052   29.1638 H   0  0  0  0  0  0
   42.4187   54.1614   35.3416 H   0  0  0  0  0  0
   42.8146   52.4463   35.2750 H   0  0  0  0  0  0
   41.0121   51.9961   36.6858 H   0  0  0  0  0  0
   40.5668   53.7014   36.6904 H   0  0  0  0  0  0
   40.3803   55.2007   40.0678 H   0  0  0  0  0  0
   42.7209   57.0920   37.0071 H   0  0  0  0  0  0
   42.5832   55.8354   39.1352 H   0  0  0  0  0  0
  1  2  1  0  0  0
  1  3  2  0  0  0
  1  4  1  0  0  0
  2  7  2  0  0  0
  2  9  1  0  0  0
  3  6  1  0  0  0
  3 11  1  0  0  0
  4  5  1  0  0  0
  4 12  2  0  0  0
  5  6  1  0  0  0
  5 32  1  0  0  0
  6 14  2  0  0  0
  7  8  1  0  0  0
  7 33  1  0  0  0
  8 15  1  0  0  0
  8 10  1  0  0  0
  9 10  2  0  0  0
  9 19  1  0  0  0
 10 20  1  0  0  0
 11 17  1  0  0  0
 11 34  1  0  0  0
 13 18  1  0  0  0
 13 21  1  0  0  0
 13 22  1  0  0  0
 15 16  1  0  0  0
 15 35  1  0  0  0
 15 36  1  0  0  0
 16 18  1  0  0  0
 16 37  1  0  0  0
 16 38  1  0  0  0
 17 23  1  0  0  0
 17 24  2  0  0  0
 18 39  1  0  0  0
 18 40  1  0  0  0
 19 25  2  0  0  0
 19 41  1  0  0  0
 20 26  2  0  0  0
 20 42  1  0  0  0
 21 27  1  0  0  0
 21 43  1  0  0  0
 21 44  1  0  0  0
 22 28  1  0  0  0
 22 45  1  0  0  0
 22 46  1  0  0  0
 23 30  2  0  0  0
 23 47  1  0  0  0
 24 29  1  0  0  0
 24 48  1  0  0  0
 25 26  1  0  0  0
 25 49  1  0  0  0
 26 50  1  0  0  0
 27 28  1  0  0  0
 27 51  1  0  0  0
 27 52  1  0  0  0
 28 53  1  0  0  0
 28 54  1  0  0  0
 29 31  2  0  0  0
 29 55  1  0  0  0
 30 31  1  0  0  0
 30 56  1  0  0  0
 31 57  1  0  0  0
M  END
> <s_m_entry_id>
3350

> <s_m_entry_name>
dock_pv.79

> <s_m_Source_Path>
/home/csk/Desktop/cluster/DUD-E-result/kpcb

> <s_m_Source_File>
dock_pv.maegz

> <i_m_Source_File_Index>
79

> <chembl_id>
CHEMBL184042

> <chembl_pref_name>
None

> <i_lp_mmshare_version>
53161

> <i_f3d_flags>
0

> <r_lp_tautomer_probability>
0.999999999997686

> <s_lp_Force_Field>
OPLS_2005

> <r_lp_Energy>
52.699375

> <b_lp_Chiralities_Consistent>
1

> <s_lp_Variant>
CHEMBL3045_lig226-1

> <s_i_glide_gridfile>
glide-grid_2i0e

> <i_i_glide_lignum>
384

> <i_i_glide_rotatable_bonds>
7

> <r_i_docking_score>
-8.49897097829058

> <r_i_glide_ligand_efficiency>
-0.274160354138406

> <r_i_glide_ligand_efficiency_sa>
-0.861242031157329

> <r_i_glide_ligand_efficiency_ln>
-1.91677841778468

> <r_i_glide_gscore>
-8.49897097829058

> <r_i_glide_lipo>
-2.5901288670557

> <r_i_glide_hbond>
-0.507813031164314

> <r_i_glide_metal>
0

> <r_i_glide_rewards>
-2.4999953642068

> <r_i_glide_evdw>
-49.9249076843262

> <r_i_glide_ecoul>
-5.91532230377197

> <r_i_glide_erotb>
0.482510013918333

> <r_i_glide_esite>
0

> <r_i_glide_emodel>
-85.7576538205205

> <r_i_glide_energy>
-55.8402299880981

> <r_i_glide_einternal>
1.77693867683411

> <i_i_glide_confnum>
16

> <i_i_glide_posenum>
392

> <r_i_glide_eff_state_penalty>
0

> <s_user_duplicate_titles>
CHEMBL3045_lig226,308898

> <s_m_subgroup_title>
dock_pv

> <s_m_subgroupid>
dock_pv

> <b_m_subgroup_collapsed>
1

$$$$
CHEMBL3045_lig360
                    3D
 Schrodinger Suite 2021-1.
 58 63  0  0  1  0            999 V2000
   36.6323   56.1490   35.9548 C   0  0  0  0  0  0
   37.3708   56.4097   37.0456 C   0  0  0  0  0  0
   36.4531   56.7708   38.0883 C   0  0  0  0  0  0
   35.2303   56.6612   37.5611 N   0  0  0  0  0  0
   35.2414   56.3146   36.2745 C   0  0  0  0  0  0
   38.7366   56.3940   37.2820 N   0  0  0  0  0  0
   39.7913   56.6689   36.3960 C   0  0  0  0  0  0
   37.0799   55.7164   34.6358 C   0  0  0  0  0  0
   38.1419   54.6476   32.8822 C   0  0  0  0  0  0
   37.9839   54.6421   34.3033 C   0  0  0  0  0  0
   38.6844   53.6784   35.0488 C   0  0  0  0  0  0
   39.5010   52.7644   34.3855 C   0  0  0  0  0  0
   39.6399   52.7965   33.0013 C   0  0  0  0  0  0
   38.9778   53.7410   32.2170 C   0  0  0  0  0  0
   36.7010   57.1230   39.2370 O   0  0  0  0  0  0
   34.2504   56.1755   35.5615 O   0  0  0  0  0  0
   41.0400   56.1030   36.6601 C   0  0  0  0  0  0
   42.1140   56.3498   35.8080 C   0  0  0  0  0  0
   41.9396   57.1720   34.6967 C   0  0  0  0  0  0
   40.7034   57.7550   34.4324 C   0  0  0  0  0  0
   39.6343   57.5104   35.2888 C   0  0  0  0  0  0
   36.7517   56.3349   33.4461 C   0  0  0  0  0  0
   37.3724   55.6899   32.4070 N   0  0  0  0  0  0
   37.2318   56.3781   31.1456 C   0  0  0  0  0  0
   36.0113   57.2819   31.3869 C   0  0  2  0  0  0
   35.9192   57.4763   32.9103 C   0  0  0  0  0  0
   34.7211   56.7860   30.7032 C   0  0  0  0  0  0
   34.2456   55.4576   31.0788 N   0  0  0  0  0  0
   33.4928   55.3854   32.3220 C   0  0  0  0  0  0
   32.7766   54.0470   32.2273 C   0  0  0  0  0  0
   32.4693   53.8970   30.7432 C   0  0  0  0  0  0
   33.2528   55.0342   30.1067 C   0  0  0  0  0  0
   34.3789   56.8498   38.0729 H   0  0  0  0  0  0
   39.0525   56.1555   38.2116 H   0  0  0  0  0  0
   38.5974   53.6480   36.1234 H   0  0  0  0  0  0
   40.0447   52.0180   34.9491 H   0  0  0  0  0  0
   40.2842   52.0697   32.5234 H   0  0  0  0  0  0
   39.1010   53.7527   31.1424 H   0  0  0  0  0  0
   41.1815   55.4563   37.5142 H   0  0  0  0  0  0
   43.0770   55.9012   36.0055 H   0  0  0  0  0  0
   42.7744   57.3627   34.0380 H   0  0  0  0  0  0
   40.5761   58.3937   33.5710 H   0  0  0  0  0  0
   38.6838   57.9720   35.0850 H   0  0  0  0  0  0
   37.1434   55.6782   30.3131 H   0  0  0  0  0  0
   38.1148   56.9954   30.9749 H   0  0  0  0  0  0
   36.2173   58.2507   30.9304 H   0  0  0  0  0  0
   36.3010   58.4408   33.2344 H   0  0  0  0  0  0
   34.8902   57.4644   33.2639 H   0  0  0  0  0  0
   34.9247   56.7720   29.6310 H   0  0  0  0  0  0
   33.9305   57.5294   30.8272 H   0  0  0  0  0  0
   32.8141   56.2315   32.4370 H   0  0  0  0  0  0
   34.1802   55.3987   33.1645 H   0  0  0  0  0  0
   31.8944   53.9720   32.8370 H   0  0  0  0  0  0
   33.4345   53.2780   32.6199 H   0  0  0  0  0  0
   32.7010   52.8874   30.4370 H   0  0  0  0  0  0
   31.4462   54.0525   30.4370 H   0  0  0  0  0  0
   33.7547   54.7720   29.1773 H   0  0  0  0  0  0
   32.5803   55.8551   29.8495 H   0  0  0  0  0  0
  1  2  2  0  0  0
  1  5  1  0  0  0
  1  8  1  0  0  0
  2  3  1  0  0  0
  2  6  1  0  0  0
  3  4  1  0  0  0
  3 15  2  0  0  0
  4  5  1  0  0  0
  4 33  1  0  0  0
  5 16  2  0  0  0
  6  7  1  0  0  0
  6 34  1  0  0  0
  7 17  2  0  0  0
  7 21  1  0  0  0
  8 10  1  0  0  0
  8 22  2  0  0  0
  9 23  1  0  0  0
  9 10  2  0  0  0
  9 14  1  0  0  0
 10 11  1  0  0  0
 11 12  2  0  0  0
 11 35  1  0  0  0
 12 13  1  0  0  0
 12 36  1  0  0  0
 13 14  2  0  0  0
 13 37  1  0  0  0
 14 38  1  0  0  0
 17 18  1  0  0  0
 17 39  1  0  0  0
 18 19  2  0  0  0
 18 40  1  0  0  0
 19 20  1  0  0  0
 19 41  1  0  0  0
 20 21  2  0  0  0
 20 42  1  0  0  0
 21 43  1  0  0  0
 22 23  1  0  0  0
 22 26  1  0  0  0
 23 24  1  0  0  0
 24 25  1  0  0  0
 24 44  1  0  0  0
 24 45  1  0  0  0
 25 26  1  0  0  0
 25 27  1  0  0  0
 25 46  1  0  0  0
 26 47  1  0  0  0
 26 48  1  0  0  0
 27 28  1  0  0  0
 27 49  1  0  0  0
 27 50  1  0  0  0
 28 29  1  0  0  0
 28 32  1  0  0  0
 29 30  1  0  0  0
 29 51  1  0  0  0
 29 52  1  0  0  0
 30 31  1  0  0  0
 30 53  1  0  0  0
 30 54  1  0  0  0
 31 32  1  0  0  0
 31 55  1  0  0  0
 31 56  1  0  0  0
 32 57  1  0  0  0
 32 58  1  0  0  0
M  END
> <s_m_entry_id>
3351

> <s_m_entry_name>
dock_pv.80

> <s_m_Source_Path>
/home/csk/Desktop/cluster/DUD-E-result/kpcb

> <s_m_Source_File>
dock_pv.maegz

> <i_m_Source_File_Index>
80

> <chembl_id>
CHEMBL2236808

> <chembl_pref_name>
None

> <i_lp_mmshare_version>
53161

> <i_f3d_flags>
0

> <r_lp_tautomer_probability>
0.999999999997686

> <s_lp_Force_Field>
OPLS_2005

> <r_lp_Energy>
65.830138

> <b_lp_Chiralities_Consistent>
1

> <s_lp_Variant>
CHEMBL3045_lig360-1

> <s_i_glide_gridfile>
glide-grid_2i0e

> <i_i_glide_lignum>
524

> <i_i_glide_rotatable_bonds>
5

> <r_i_docking_score>
-8.49885482351866

> <r_i_glide_ligand_efficiency>
-0.265589213234958

> <r_i_glide_ligand_efficiency_sa>
-0.843193191987063

> <r_i_glide_ligand_efficiency_ln>
-1.90312526501857

> <r_i_glide_gscore>
-8.49885482351866

> <r_i_glide_lipo>
-2.73308662820816

> <r_i_glide_hbond>
-0.608

> <r_i_glide_metal>
0

> <r_i_glide_rewards>
-2.32890254865573

> <r_i_glide_evdw>
-48.5207366943359

> <r_i_glide_ecoul>
-5.2312216758728

> <r_i_glide_erotb>
0.381854439442955

> <r_i_glide_esite>
0

> <r_i_glide_emodel>
-78.3285831839928

> <r_i_glide_energy>
-53.7519583702087

> <r_i_glide_einternal>
4.92119073867798

> <i_i_glide_confnum>
56

> <i_i_glide_posenum>
219

> <r_i_glide_eff_state_penalty>
0

> <s_user_duplicate_titles>
CHEMBL3045_lig360

> <s_m_subgroup_title>
dock_pv

> <s_m_subgroupid>
dock_pv

> <b_m_subgroup_collapsed>
1

$$$$
CHEMBL3045_lig390
                    3D
 Schrodinger Suite 2021-1.
 26 28  0  0  1  0            999 V2000
   37.3456   56.6989   38.6251 C   0  0  0  0  0  0
   38.5337   56.6128   39.2355 N   0  0  0  0  0  0
   39.6499   56.4113   38.5060 C   0  0  0  0  0  0
   39.2123   56.2804   36.8242 S   0  0  0  0  0  0
   37.4926   56.5125   37.1970 C   0  0  0  0  0  0
   36.3941   56.5030   36.3986 C   0  0  0  0  0  0
   35.0121   55.9725   34.4298 C   0  0  0  0  0  0
   36.2691   56.3275   34.9312 C   0  0  0  0  0  0
   37.3276   56.5052   34.0350 C   0  0  0  0  0  0
   37.1534   56.3495   32.6607 C   0  0  0  0  0  0
   41.2041   56.2958   39.0618 S   0  0  0  0  0  0
   36.3012   56.8988   39.2360 O   0  0  0  0  0  0
   34.7997   55.8101   33.0392 C   0  0  0  0  0  0
   35.8862   56.0126   32.1376 C   0  0  0  0  0  0
   35.7360   55.8951   30.7884 N   0  0  0  0  0  0
   34.5098   55.5732   30.3073 C   0  0  0  0  0  0
   33.3976   55.3458   31.1117 C   0  0  0  0  0  0
   33.5404   55.4589   32.4911 C   0  0  0  0  0  0
   38.5794   56.6595   40.2450 H   0  0  0  0  0  0
   35.4348   56.6544   36.8801 H   0  0  0  0  0  0
   34.1757   55.8249   35.0986 H   0  0  0  0  0  0
   38.3050   56.7967   34.3771 H   0  0  0  0  0  0
   37.9846   56.4944   31.9835 H   0  0  0  0  0  0
   34.4260   55.4887   29.2345 H   0  0  0  0  0  0
   32.4436   55.0942   30.6701 H   0  0  0  0  0  0
   32.7011   55.2936   33.1479 H   0  0  0  0  0  0
  1  2  1  0  0  0
  1  5  1  0  0  0
  1 12  2  0  0  0
  2  3  1  0  0  0
  2 19  1  0  0  0
  3  4  1  0  0  0
  3 11  2  0  0  0
  4  5  1  0  0  0
  5  6  2  0  0  0
  6  8  1  0  0  0
  6 20  1  0  0  0
  7  8  1  0  0  0
  7 13  2  0  0  0
  7 21  1  0  0  0
  8  9  2  0  0  0
  9 10  1  0  0  0
  9 22  1  0  0  0
 10 14  2  0  0  0
 10 23  1  0  0  0
 13 14  1  0  0  0
 13 18  1  0  0  0
 14 15  1  0  0  0
 15 16  2  0  0  0
 16 17  1  0  0  0
 16 24  1  0  0  0
 17 18  2  0  0  0
 17 25  1  0  0  0
 18 26  1  0  0  0
M  END
> <s_m_entry_id>
3352

> <s_m_entry_name>
dock_pv.81

> <s_m_Source_Path>
/home/csk/Desktop/cluster/DUD-E-result/kpcb

> <s_m_Source_File>
dock_pv.maegz

> <i_m_Source_File_Index>
81

> <chembl_id>
CHEMBL3774448

> <chembl_pref_name>
None

> <i_lp_mmshare_version>
53161

> <i_f3d_flags>
0

> <r_lp_tautomer_probability>
1

> <s_lp_Force_Field>
OPLS_2005

> <r_lp_Energy>
13.244716

> <b_lp_Chiralities_Consistent>
1

> <s_lp_Variant>
CHEMBL3045_lig390-1

> <s_i_glide_gridfile>
glide-grid_2i0e

> <i_i_glide_lignum>
555

> <i_i_glide_rotatable_bonds>
1

> <r_i_docking_score>
-8.48865869026628

> <r_i_glide_ligand_efficiency>
-0.471592149459238

> <r_i_glide_ligand_efficiency_sa>
-1.23592106608102

> <r_i_glide_ligand_efficiency_ln>
-2.18196594529485

> <r_i_glide_gscore>
-8.48865869026628

> <r_i_glide_lipo>
-2.30012329271465

> <r_i_glide_hbond>
-0.571617904588889

> <r_i_glide_metal>
0

> <r_i_glide_rewards>
-2.99627890787211

> <r_i_glide_evdw>
-33.1908073425293

> <r_i_glide_ecoul>
-6.40732145309448

> <r_i_glide_erotb>
0

> <r_i_glide_esite>
0

> <r_i_glide_emodel>
-58.4435681595072

> <r_i_glide_energy>
-39.5981287956238

> <r_i_glide_einternal>
1.38105356693268

> <i_i_glide_confnum>
1

> <i_i_glide_posenum>
361

> <r_i_glide_eff_state_penalty>
0

> <s_user_duplicate_titles>
CHEMBL3045_lig390

> <s_m_subgroup_title>
dock_pv

> <s_m_subgroupid>
dock_pv

> <b_m_subgroup_collapsed>
1

$$$$
CHEMBL3045_lig247
                    3D
 Schrodinger Suite 2021-1.
 59 62  0  0  1  0            999 V2000
   36.9563   56.5651   36.5739 C   0  0  0  0  0  0
   38.4189   56.7731   36.6408 C   0  0  0  0  0  0
   36.2243   56.2122   35.4963 C   0  0  0  0  0  0
   36.0692   56.7287   37.6946 C   0  0  0  0  0  0
   34.8676   56.3715   37.2375 N   0  0  0  0  0  0
   34.8720   56.0072   35.9551 C   0  0  0  0  0  0
   39.1991   57.1538   35.5617 C   0  0  0  0  0  0
   40.5331   57.1789   35.8885 N   0  0  0  0  0  0
   39.3500   56.6137   37.7441 C   0  0  0  0  0  0
   40.6656   56.8677   37.2304 C   0  0  0  0  0  0
   36.6566   55.9621   34.1988 N   0  0  0  0  0  0
   36.3011   57.1173   38.8371 O   0  0  0  0  0  0
   33.8970   55.5895   35.3360 O   0  0  0  0  0  0
   36.0053   56.1283   32.9566 C   0  0  0  0  0  0
   41.6230   57.3969   34.9394 C   0  0  0  0  0  0
   39.4217   53.2474   32.3471 N   0  0  0  0  0  0
   39.2398   56.2535   39.1023 C   0  0  0  0  0  0
   41.8169   56.7716   38.0272 C   0  0  0  0  0  0
   40.6426   52.7298   32.9744 C   0  0  0  0  0  0
   39.6266   53.5227   30.9217 C   0  0  0  0  0  0
   38.3011   52.3295   32.5348 C   0  0  0  0  0  0
   36.6208   55.5684   31.8367 C   0  0  0  0  0  0
   34.8079   56.8379   32.7833 C   0  0  0  0  0  0
   42.2107   56.0612   34.4186 C   0  0  0  0  0  0
   41.7058   53.8334   33.1731 C   0  0  0  0  0  0
   41.1494   55.0739   33.9020 C   0  0  0  0  0  0
   40.3828   56.1660   39.8926 C   0  0  0  0  0  0
   41.6418   56.4209   39.3643 C   0  0  0  0  0  0
   34.2027   56.9109   31.5311 C   0  0  0  0  0  0
   36.0204   55.6377   30.5823 C   0  0  0  0  0  0
   34.8037   56.2959   30.4388 C   0  0  0  0  0  0
   34.0347   56.3873   37.8084 H   0  0  0  0  0  0
   38.9097   57.3720   34.5451 H   0  0  0  0  0  0
   37.6062   55.6298   34.0940 H   0  0  0  0  0  0
   42.3994   57.9727   35.4388 H   0  0  0  0  0  0
   41.2451   58.0036   34.1166 H   0  0  0  0  0  0
   38.2898   56.0123   39.5496 H   0  0  0  0  0  0
   42.8044   56.9520   37.6269 H   0  0  0  0  0  0
   40.4004   52.3254   33.9593 H   0  0  0  0  0  0
   41.0501   51.8994   32.3920 H   0  0  0  0  0  0
   40.4078   54.2675   30.7726 H   0  0  0  0  0  0
   38.7234   53.9191   30.4574 H   0  0  0  0  0  0
   39.9113   52.6193   30.3783 H   0  0  0  0  0  0
   38.3014   51.8834   33.5323 H   0  0  0  0  0  0
   37.3569   52.8620   32.4367 H   0  0  0  0  0  0
   38.3016   51.5263   31.8017 H   0  0  0  0  0  0
   37.5636   55.0599   31.9402 H   0  0  0  0  0  0
   34.3208   57.3287   33.6103 H   0  0  0  0  0  0
   42.7900   55.5820   35.2102 H   0  0  0  0  0  0
   42.9239   56.2781   33.6236 H   0  0  0  0  0  0
   42.5180   53.4008   33.7595 H   0  0  0  0  0  0
   42.1693   54.0985   32.2229 H   0  0  0  0  0  0
   40.4718   55.6011   33.2283 H   0  0  0  0  0  0
   40.5428   54.7338   34.7443 H   0  0  0  0  0  0
   40.2871   55.8839   40.9315 H   0  0  0  0  0  0
   42.5085   56.3316   40.0026 H   0  0  0  0  0  0
   33.2622   57.4335   31.4153 H   0  0  0  0  0  0
   36.4930   55.1724   29.7281 H   0  0  0  0  0  0
   34.3233   56.3349   29.4701 H   0  0  0  0  0  0
  1  2  1  0  0  0
  1  3  2  0  0  0
  1  4  1  0  0  0
  2  7  2  0  0  0
  2  9  1  0  0  0
  3  6  1  0  0  0
  3 11  1  0  0  0
  4  5  1  0  0  0
  4 12  2  0  0  0
  5  6  1  0  0  0
  5 32  1  0  0  0
  6 13  2  0  0  0
  7  8  1  0  0  0
  7 33  1  0  0  0
  8 15  1  0  0  0
  8 10  1  0  0  0
  9 10  2  0  0  0
  9 17  1  0  0  0
 10 18  1  0  0  0
 11 14  1  0  0  0
 11 34  1  0  0  0
 14 22  2  0  0  0
 14 23  1  0  0  0
 15 24  1  0  0  0
 15 35  1  0  0  0
 15 36  1  0  0  0
 16 19  1  0  0  0
 16 20  1  0  0  0
 16 21  1  0  0  0
 17 27  2  0  0  0
 17 37  1  0  0  0
 18 28  2  0  0  0
 18 38  1  0  0  0
 19 25  1  0  0  0
 19 39  1  0  0  0
 19 40  1  0  0  0
 20 41  1  0  0  0
 20 42  1  0  0  0
 20 43  1  0  0  0
 21 44  1  0  0  0
 21 45  1  0  0  0
 21 46  1  0  0  0
 22 30  1  0  0  0
 22 47  1  0  0  0
 23 29  2  0  0  0
 23 48  1  0  0  0
 24 26  1  0  0  0
 24 49  1  0  0  0
 24 50  1  0  0  0
 25 26  1  0  0  0
 25 51  1  0  0  0
 25 52  1  0  0  0
 26 53  1  0  0  0
 26 54  1  0  0  0
 27 28  1  0  0  0
 27 55  1  0  0  0
 28 56  1  0  0  0
 29 31  1  0  0  0
 29 57  1  0  0  0
 30 31  2  0  0  0
 30 58  1  0  0  0
 31 59  1  0  0  0
M  END
> <s_m_entry_id>
3353

> <s_m_entry_name>
dock_pv.82

> <s_m_Source_Path>
/home/csk/Desktop/cluster/DUD-E-result/kpcb

> <s_m_Source_File>
dock_pv.maegz

> <i_m_Source_File_Index>
82

> <chembl_id>
CHEMBL184647

> <chembl_pref_name>
None

> <i_lp_mmshare_version>
53161

> <i_f3d_flags>
0

> <r_lp_tautomer_probability>
0.999999999997686

> <s_lp_Force_Field>
OPLS_2005

> <r_lp_Energy>
31.881145

> <b_lp_Chiralities_Consistent>
1

> <s_lp_Variant>
CHEMBL3045_lig247-1

> <s_i_glide_gridfile>
glide-grid_2i0e

> <i_i_glide_lignum>
405

> <i_i_glide_rotatable_bonds>
9

> <r_i_docking_score>
-8.47699748440991

> <r_i_glide_ligand_efficiency>
-0.273451531755159

> <r_i_glide_ligand_efficiency_sa>
-0.859015350239163

> <r_i_glide_ligand_efficiency_ln>
-1.91182272150788

> <r_i_glide_gscore>
-8.47699748440991

> <r_i_glide_lipo>
-2.53525746936068

> <r_i_glide_hbond>
-0.588456310942173

> <r_i_glide_metal>
0

> <r_i_glide_rewards>
-2.47325602335996

> <r_i_glide_evdw>
-51.0355186462402

> <r_i_glide_ecoul>
-6.43990659713745

> <r_i_glide_erotb>
0.637734241135528

> <r_i_glide_esite>
0

> <r_i_glide_emodel>
-84.9414091463517

> <r_i_glide_energy>
-57.4754252433777

> <r_i_glide_einternal>
5.04148149490356

> <i_i_glide_confnum>
126

> <i_i_glide_posenum>
386

> <r_i_glide_eff_state_penalty>
0

> <s_user_duplicate_titles>
CHEMBL3045_lig247,309157

> <s_m_subgroup_title>
dock_pv

> <s_m_subgroupid>
dock_pv

> <b_m_subgroup_collapsed>
1

$$$$
CHEMBL3045_lig574
                    3D
 Schrodinger Suite 2021-1.
 59 62  0  0  1  0            999 V2000
   41.0525   56.5541   32.8877 C   0  0  0  0  0  0
   40.5778   55.3632   32.0204 C   0  0  2  0  0  0
   39.0478   55.4099   31.7739 C   0  0  0  0  0  0
   38.3744   55.0366   33.0380 N   0  0  0  0  0  0
   38.7104   53.6931   33.5720 C   0  0  1  0  0  0
   38.1982   52.5360   32.6869 C   0  0  0  0  0  0
   40.2569   53.6546   33.7297 C   0  0  0  0  0  0
   40.9429   54.0144   32.4829 N   0  0  2  0  0  0
   42.3843   53.8088   32.5900 C   0  0  0  0  0  0
   37.2056   55.6423   33.3689 C   0  0  0  0  0  0
   36.4078   55.9953   32.4955 O   0  0  0  0  0  0
   36.9679   55.8625   34.6989 N   0  0  0  0  0  0
   38.0530   55.9679   35.7113 C   0  0  0  0  0  0
   37.3363   56.3262   36.9780 C   0  0  0  0  0  0
   37.4748   56.5207   38.3722 C   0  0  0  0  0  0
   38.5691   56.3718   39.2118 N   0  0  0  0  0  0
   39.8622   56.4327   38.8267 C   0  0  0  0  0  0
   40.2400   56.7204   37.6875 O   0  0  0  0  0  0
   40.8689   56.1251   39.9075 C   0  0  0  0  0  0
   40.7037   56.5723   41.2284 C   0  0  0  0  0  0
   41.6613   56.2249   42.1832 C   0  0  0  0  0  0
   42.7600   55.4517   41.8058 C   0  0  0  0  0  0
   42.8639   55.0477   40.4741 C   0  0  0  0  0  0
   41.9427   55.3746   39.5327 N   0  0  0  0  0  0
   36.3009   56.7880   38.8988 N   0  0  0  0  0  0
   35.4211   56.7700   37.8912 N   0  0  0  0  0  0
   36.0195   56.4846   36.7022 C   0  0  0  0  0  0
   35.6508   56.2843   35.2601 C   0  0  0  0  0  0
   34.5820   55.1770   35.1481 C   0  0  0  0  0  0
   35.1251   57.6118   34.6650 C   0  0  0  0  0  0
   40.7579   57.5015   32.4377 H   0  0  0  0  0  0
   40.6265   56.5290   33.8901 H   0  0  0  0  0  0
   42.1374   56.5714   32.9900 H   0  0  0  0  0  0
   41.0510   55.4775   31.0452 H   0  0  0  0  0  0
   38.7887   54.6469   31.0386 H   0  0  0  0  0  0
   38.7322   56.3787   31.3846 H   0  0  0  0  0  0
   38.2503   53.5318   34.5469 H   0  0  0  0  0  0
   38.3060   51.5761   33.1892 H   0  0  0  0  0  0
   37.1454   52.6598   32.4371 H   0  0  0  0  0  0
   38.7486   52.4564   31.7487 H   0  0  0  0  0  0
   40.5687   52.6661   34.0696 H   0  0  0  0  0  0
   40.5630   54.3493   34.5125 H   0  0  0  0  0  0
   42.6026   52.7719   32.8422 H   0  0  0  0  0  0
   42.8790   54.0246   31.6415 H   0  0  0  0  0  0
   42.8319   54.4350   33.3630 H   0  0  0  0  0  0
   38.7650   56.7391   35.4161 H   0  0  0  0  0  0
   38.6078   55.0402   35.8324 H   0  0  0  0  0  0
   38.3723   56.2852   40.2021 H   0  0  0  0  0  0
   39.8557   57.1719   41.5231 H   0  0  0  0  0  0
   41.5510   56.5548   43.2056 H   0  0  0  0  0  0
   43.5144   55.1761   42.5282 H   0  0  0  0  0  0
   43.6977   54.4502   40.1358 H   0  0  0  0  0  0
   34.4301   56.9301   38.0307 H   0  0  0  0  0  0
   33.6507   55.4780   35.6296 H   0  0  0  0  0  0
   34.3455   54.9477   34.1085 H   0  0  0  0  0  0
   34.9088   54.2604   35.6375 H   0  0  0  0  0  0
   34.3009   58.0085   35.2522 H   0  0  0  0  0  0
   35.9012   58.3719   34.6374 H   0  0  0  0  0  0
   34.7498   57.4913   33.6485 H   0  0  0  0  0  0
  1  2  1  0  0  0
  1 31  1  0  0  0
  1 32  1  0  0  0
  1 33  1  0  0  0
  2  3  1  0  0  0
  2  8  1  0  0  0
  2 34  1  0  0  0
  3  4  1  0  0  0
  3 35  1  0  0  0
  3 36  1  0  0  0
  4  5  1  0  0  0
  4 10  1  0  0  0
  5  6  1  0  0  0
  5  7  1  0  0  0
  5 37  1  0  0  0
  6 38  1  0  0  0
  6 39  1  0  0  0
  6 40  1  0  0  0
  7  8  1  0  0  0
  7 41  1  0  0  0
  7 42  1  0  0  0
  8  9  1  0  0  0
  9 43  1  0  0  0
  9 44  1  0  0  0
  9 45  1  0  0  0
 10 11  2  0  0  0
 10 12  1  0  0  0
 12 13  1  0  0  0
 12 28  1  0  0  0
 13 14  1  0  0  0
 13 46  1  0  0  0
 13 47  1  0  0  0
 14 15  1  0  0  0
 14 27  2  0  0  0
 15 16  1  0  0  0
 15 25  2  0  0  0
 16 17  1  0  0  0
 16 48  1  0  0  0
 17 18  2  0  0  0
 17 19  1  0  0  0
 19 20  2  0  0  0
 19 24  1  0  0  0
 20 21  1  0  0  0
 20 49  1  0  0  0
 21 22  2  0  0  0
 21 50  1  0  0  0
 22 23  1  0  0  0
 22 51  1  0  0  0
 23 24  2  0  0  0
 23 52  1  0  0  0
 25 26  1  0  0  0
 26 27  1  0  0  0
 26 53  1  0  0  0
 27 28  1  0  0  0
 28 29  1  0  0  0
 28 30  1  0  0  0
 29 54  1  0  0  0
 29 55  1  0  0  0
 29 56  1  0  0  0
 30 57  1  0  0  0
 30 58  1  0  0  0
 30 59  1  0  0  0
M  END
> <s_m_entry_id>
3354

> <s_m_entry_name>
dock_pv.83

> <s_m_Source_Path>
/home/csk/Desktop/cluster/DUD-E-result/kpcb

> <s_m_Source_File>
dock_pv.maegz

> <i_m_Source_File_Index>
83

> <chembl_id>
CHEMBL3662823

> <chembl_pref_name>
None

> <i_lp_mmshare_version>
53161

> <i_f3d_flags>
0

> <r_lp_tautomer_probability>
0.5

> <s_lp_Force_Field>
OPLS_2005

> <r_lp_Energy>
96.017447

> <b_lp_Chiralities_Consistent>
1

> <s_lp_Variant>
CHEMBL3045_lig574-1

> <s_i_glide_gridfile>
glide-grid_2i0e

> <i_i_glide_lignum>
906

> <i_i_glide_rotatable_bonds>
5

> <r_i_docking_score>
-8.47124745373317

> <r_i_glide_ligand_efficiency>
-0.282374915124439

> <r_i_glide_ligand_efficiency_sa>
-0.877404514145877

> <r_i_glide_ligand_efficiency_ln>
-1.92475972312197

> <r_i_glide_gscore>
-8.47124745373317

> <r_i_glide_lipo>
-2.53564970931485

> <r_i_glide_hbond>
-0.864

> <r_i_glide_metal>
0

> <r_i_glide_rewards>
-2.25184556975139

> <r_i_glide_evdw>
-44.0805625915527

> <r_i_glide_ecoul>
-6.78261613845825

> <r_i_glide_erotb>
0.40739659435399

> <r_i_glide_esite>
-0.00572821867455267

> <r_i_glide_emodel>
-70.6077708402585

> <r_i_glide_energy>
-50.863178730011

> <r_i_glide_einternal>
7.96797800064087

> <i_i_glide_confnum>
10

> <i_i_glide_posenum>
112

> <r_i_glide_eff_state_penalty>
0

> <s_user_duplicate_titles>
CHEMBL3045_lig574

> <s_m_subgroup_title>
dock_pv

> <s_m_subgroupid>
dock_pv

> <b_m_subgroup_collapsed>
1

$$$$
CHEMBL3045_lig249
                    3D
 Schrodinger Suite 2021-1.
 56 59  0  0  1  0            999 V2000
   36.4889   56.0534   35.9965 C   0  0  0  0  0  0
   36.9103   55.6260   34.6645 C   0  0  0  0  0  0
   37.2893   56.4012   37.0127 C   0  0  0  0  0  0
   35.1167   56.1540   36.3979 C   0  0  0  0  0  0
   35.1752   56.5547   37.6673 N   0  0  0  0  0  0
   36.4229   56.7556   38.1137 C   0  0  0  0  0  0
   37.9005   54.6990   34.4081 C   0  0  0  0  0  0
   38.0233   54.4754   33.0584 N   0  0  0  0  0  0
   36.4129   56.0463   33.3843 C   0  0  0  0  0  0
   37.1400   55.3171   32.3872 C   0  0  0  0  0  0
   38.6718   56.4979   36.9518 N   0  0  0  0  0  0
   34.0926   55.9413   35.7504 O   0  0  0  0  0  0
   36.7006   57.1714   39.2356 O   0  0  0  0  0  0
   39.6796   56.5846   37.9237 C   0  0  0  0  0  0
   38.9308   53.4814   32.4817 C   0  0  0  0  0  0
   40.0482   54.1024   31.6132 C   0  0  0  0  0  0
   40.9137   57.0887   37.5007 C   0  0  0  0  0  0
   41.5016   54.7326   33.5821 N   0  0  0  0  0  0
   35.4319   56.9651   32.9748 C   0  0  0  0  0  0
   41.9956   57.1714   38.3794 C   0  0  0  0  0  0
   36.8903   55.5035   31.0193 C   0  0  0  0  0  0
   40.9251   55.1716   32.3060 C   0  0  0  0  0  0
   40.6185   56.2324   40.1317 C   0  0  0  0  0  0
   39.5458   56.1400   39.2440 C   0  0  0  0  0  0
   41.8398   56.7499   39.7013 C   0  0  0  0  0  0
   42.3943   53.5812   33.4336 C   0  0  0  0  0  0
   42.2404   55.8336   34.1936 C   0  0  0  0  0  0
   43.3305   57.7146   37.9041 C   0  0  0  0  0  0
   35.1788   57.1278   31.6163 C   0  0  0  0  0  0
   35.8917   56.4080   30.6647 C   0  0  0  0  0  0
   34.3499   56.7376   38.2220 H   0  0  0  0  0  0
   38.5182   54.1377   35.0982 H   0  0  0  0  0  0
   39.0622   56.5023   36.0202 H   0  0  0  0  0  0
   38.3444   52.7524   31.9267 H   0  0  0  0  0  0
   39.3855   52.9188   33.2994 H   0  0  0  0  0  0
   39.6042   54.5557   30.7260 H   0  0  0  0  0  0
   40.6793   53.3150   31.1984 H   0  0  0  0  0  0
   41.0380   57.4191   36.4794 H   0  0  0  0  0  0
   34.8702   57.5288   33.7036 H   0  0  0  0  0  0
   37.4252   54.9536   30.2589 H   0  0  0  0  0  0
   40.3128   56.0577   32.4833 H   0  0  0  0  0  0
   41.7265   55.4776   31.6311 H   0  0  0  0  0  0
   40.4982   55.8914   41.1517 H   0  0  0  0  0  0
   38.6298   55.6966   39.6036 H   0  0  0  0  0  0
   42.6682   56.8097   40.3924 H   0  0  0  0  0  0
   41.8591   52.7047   33.0676 H   0  0  0  0  0  0
   42.8271   53.2966   34.3936 H   0  0  0  0  0  0
   43.2111   53.7864   32.7402 H   0  0  0  0  0  0
   41.5961   56.7013   34.3337 H   0  0  0  0  0  0
   42.6139   55.5486   35.1774 H   0  0  0  0  0  0
   43.0899   56.1391   33.5818 H   0  0  0  0  0  0
   43.6015   58.6041   38.4758 H   0  0  0  0  0  0
   44.1144   56.9716   38.0611 H   0  0  0  0  0  0
   43.3192   57.9715   36.8439 H   0  0  0  0  0  0
   34.4126   57.8183   31.2928 H   0  0  0  0  0  0
   35.6659   56.5530   29.6183 H   0  0  0  0  0  0
  1  2  1  0  0  0
  1  3  2  0  0  0
  1  4  1  0  0  0
  2  7  2  0  0  0
  2  9  1  0  0  0
  3  6  1  0  0  0
  3 11  1  0  0  0
  4  5  1  0  0  0
  4 12  2  0  0  0
  5  6  1  0  0  0
  5 31  1  0  0  0
  6 13  2  0  0  0
  7  8  1  0  0  0
  7 32  1  0  0  0
  8 15  1  0  0  0
  8 10  1  0  0  0
  9 10  2  0  0  0
  9 19  1  0  0  0
 10 21  1  0  0  0
 11 14  1  0  0  0
 11 33  1  0  0  0
 14 17  2  0  0  0
 14 24  1  0  0  0
 15 16  1  0  0  0
 15 34  1  0  0  0
 15 35  1  0  0  0
 16 22  1  0  0  0
 16 36  1  0  0  0
 16 37  1  0  0  0
 17 20  1  0  0  0
 17 38  1  0  0  0
 18 22  1  0  0  0
 18 26  1  0  0  0
 18 27  1  0  0  0
 19 29  2  0  0  0
 19 39  1  0  0  0
 20 28  1  0  0  0
 20 25  2  0  0  0
 21 30  2  0  0  0
 21 40  1  0  0  0
 22 41  1  0  0  0
 22 42  1  0  0  0
 23 24  2  0  0  0
 23 25  1  0  0  0
 23 43  1  0  0  0
 24 44  1  0  0  0
 25 45  1  0  0  0
 26 46  1  0  0  0
 26 47  1  0  0  0
 26 48  1  0  0  0
 27 49  1  0  0  0
 27 50  1  0  0  0
 27 51  1  0  0  0
 28 52  1  0  0  0
 28 53  1  0  0  0
 28 54  1  0  0  0
 29 30  1  0  0  0
 29 55  1  0  0  0
 30 56  1  0  0  0
M  END
> <s_m_entry_id>
3355

> <s_m_entry_name>
dock_pv.84

> <s_m_Source_Path>
/home/csk/Desktop/cluster/DUD-E-result/kpcb

> <s_m_Source_File>
dock_pv.maegz

> <i_m_Source_File_Index>
84

> <chembl_id>
CHEMBL369114

> <chembl_pref_name>
None

> <i_lp_mmshare_version>
53161

> <i_f3d_flags>
0

> <r_lp_tautomer_probability>
0.999999999997686

> <s_lp_Force_Field>
OPLS_2005

> <r_lp_Energy>
36.46286

> <b_lp_Chiralities_Consistent>
1

> <s_lp_Variant>
CHEMBL3045_lig249-1

> <s_i_glide_gridfile>
glide-grid_2i0e

> <i_i_glide_lignum>
407

> <i_i_glide_rotatable_bonds>
7

> <r_i_docking_score>
-8.45182838060631

> <r_i_glide_ligand_efficiency>
-0.281727612686877

> <r_i_glide_ligand_efficiency_sa>
-0.875393194972981

> <r_i_glide_ligand_efficiency_ln>
-1.92034749811979

> <r_i_glide_gscore>
-8.45182838060631

> <r_i_glide_lipo>
-2.44284064250078

> <r_i_glide_hbond>
-0.608

> <r_i_glide_metal>
0

> <r_i_glide_rewards>
-2.54302058810789

> <r_i_glide_evdw>
-47.0615844726562

> <r_i_glide_ecoul>
-6.75782585144043

> <r_i_glide_erotb>
0.50878595135124

> <r_i_glide_esite>
0

> <r_i_glide_emodel>
-78.8855287589034

> <r_i_glide_energy>
-53.8194103240967

> <r_i_glide_einternal>
4.47857999801636

> <i_i_glide_confnum>
113

> <i_i_glide_posenum>
77

> <r_i_glide_eff_state_penalty>
0

> <s_user_duplicate_titles>
CHEMBL3045_lig249,309125

> <s_m_subgroup_title>
dock_pv

> <s_m_subgroupid>
dock_pv

> <b_m_subgroup_collapsed>
1

$$$$
CHEMBL3045_lig346
                    3D
 Schrodinger Suite 2021-1.
 55 60  0  0  1  0            999 V2000
   35.3799   56.3739   37.5796 N   0  0  0  0  0  0
   36.5830   56.7011   38.0662 C   0  0  0  0  0  0
   37.5122   56.3973   37.0070 C   0  0  0  0  0  0
   36.8071   55.9329   35.9633 C   0  0  0  0  0  0
   35.4139   55.9276   36.3211 C   0  0  0  0  0  0
   36.7865   57.1709   39.1842 O   0  0  0  0  0  0
   34.4406   55.5904   35.6494 O   0  0  0  0  0  0
   37.9228   55.0251   31.9654 N   0  0  0  0  0  0
   37.0354   55.9725   32.3522 C   0  0  0  0  0  0
   36.7298   56.2835   33.6354 N   0  0  0  0  0  0
   37.2954   55.5443   34.6135 C   0  0  0  0  0  0
   38.2693   54.5394   34.3328 C   0  0  0  0  0  0
   38.9566   53.7601   35.2971 C   0  0  0  0  0  0
   39.9251   52.8440   34.8909 C   0  0  0  0  0  0
   40.2200   52.6753   33.5409 C   0  0  0  0  0  0
   39.5338   53.3871   32.5666 C   0  0  0  0  0  0
   38.5563   54.3301   32.9463 C   0  0  0  0  0  0
   36.4195   56.7174   31.3537 N   0  0  0  0  0  0
   35.5033   57.8188   31.6766 C   0  0  0  0  0  0
   34.0537   57.3416   31.8810 C   0  0  0  0  0  0
   33.5776   56.6454   30.6904 N   0  0  0  0  0  0
   34.4783   55.5479   30.3389 C   0  0  0  0  0  0
   35.9177   56.0607   30.1308 C   0  0  0  0  0  0
   32.2424   56.1161   30.9156 C   0  0  0  0  0  0
   41.0490   57.1722   36.4180 N   0  0  0  0  0  0
   39.7380   57.0887   36.0297 C   0  0  0  0  0  0
   38.9592   56.6330   37.0810 C   0  0  0  0  0  0
   39.8648   56.4448   38.1930 C   0  0  0  0  0  0
   39.7255   55.9974   39.5176 C   0  0  0  0  0  0
   40.8422   55.9487   40.3501 C   0  0  0  0  0  0
   42.0971   56.3341   39.8894 C   0  0  0  0  0  0
   42.2935   56.7732   38.5806 C   0  0  0  0  0  0
   41.1722   56.8127   37.7421 C   0  0  0  0  0  0
   43.8584   57.2587   38.0348 Cl  0  0  0  0  0  0
   34.5192   56.4912   38.0946 H   0  0  0  0  0  0
   38.7473   53.8957   36.3473 H   0  0  0  0  0  0
   40.4634   52.2616   35.6257 H   0  0  0  0  0  0
   40.9834   51.9734   33.2364 H   0  0  0  0  0  0
   39.7543   53.2308   31.5196 H   0  0  0  0  0  0
   35.8515   58.3881   32.5393 H   0  0  0  0  0  0
   35.5598   58.4927   30.8372 H   0  0  0  0  0  0
   33.9809   56.7111   32.7697 H   0  0  0  0  0  0
   33.4238   58.2173   32.0369 H   0  0  0  0  0  0
   34.1293   55.1046   29.4051 H   0  0  0  0  0  0
   34.4626   54.7708   31.1048 H   0  0  0  0  0  0
   35.9011   56.7718   29.3051 H   0  0  0  0  0  0
   36.5669   55.2426   29.8148 H   0  0  0  0  0  0
   31.9048   55.5684   30.0359 H   0  0  0  0  0  0
   32.2181   55.4316   31.7642 H   0  0  0  0  0  0
   31.5317   56.9222   31.1012 H   0  0  0  0  0  0
   41.7902   57.4714   35.7987 H   0  0  0  0  0  0
   39.4642   57.3488   35.0161 H   0  0  0  0  0  0
   38.7631   55.6889   39.8967 H   0  0  0  0  0  0
   40.7291   55.6094   41.3701 H   0  0  0  0  0  0
   42.9415   56.2880   40.5617 H   0  0  0  0  0  0
  1  2  1  0  0  0
  1  5  1  0  0  0
  1 35  1  0  0  0
  2  3  1  0  0  0
  2  6  2  0  0  0
  3  4  2  0  0  0
  3 27  1  0  0  0
  4  5  1  0  0  0
  4 11  1  0  0  0
  5  7  2  0  0  0
  8  9  1  0  0  0
  8 17  2  0  0  0
  9 10  2  0  0  0
  9 18  1  0  0  0
 10 11  1  0  0  0
 11 12  2  0  0  0
 12 13  1  0  0  0
 12 17  1  0  0  0
 13 14  2  0  0  0
 13 36  1  0  0  0
 14 15  1  0  0  0
 14 37  1  0  0  0
 15 16  2  0  0  0
 15 38  1  0  0  0
 16 17  1  0  0  0
 16 39  1  0  0  0
 18 19  1  0  0  0
 18 23  1  0  0  0
 19 20  1  0  0  0
 19 40  1  0  0  0
 19 41  1  0  0  0
 20 21  1  0  0  0
 20 42  1  0  0  0
 20 43  1  0  0  0
 21 22  1  0  0  0
 21 24  1  0  0  0
 22 23  1  0  0  0
 22 44  1  0  0  0
 22 45  1  0  0  0
 23 46  1  0  0  0
 23 47  1  0  0  0
 24 48  1  0  0  0
 24 49  1  0  0  0
 24 50  1  0  0  0
 25 26  1  0  0  0
 25 33  1  0  0  0
 25 51  1  0  0  0
 26 27  2  0  0  0
 26 52  1  0  0  0
 27 28  1  0  0  0
 28 29  1  0  0  0
 28 33  2  0  0  0
 29 30  2  0  0  0
 29 53  1  0  0  0
 30 31  1  0  0  0
 30 54  1  0  0  0
 31 32  2  0  0  0
 31 55  1  0  0  0
 32 33  1  0  0  0
 32 34  1  0  0  0
M  END
> <s_m_entry_id>
3356

> <s_m_entry_name>
dock_pv.85

> <s_m_Source_Path>
/home/csk/Desktop/cluster/DUD-E-result/kpcb

> <s_m_Source_File>
dock_pv.maegz

> <i_m_Source_File_Index>
85

> <chembl_id>
CHEMBL2151410

> <chembl_pref_name>
None

> <i_lp_mmshare_version>
53161

> <i_f3d_flags>
0

> <r_lp_tautomer_probability>
1

> <s_lp_Force_Field>
OPLS_2005

> <r_lp_Energy>
47.418106

> <b_lp_Chiralities_Consistent>
1

> <s_lp_Variant>
CHEMBL3045_lig346-1

> <s_i_glide_gridfile>
glide-grid_2i0e

> <i_i_glide_lignum>
510

> <i_i_glide_rotatable_bonds>
3

> <r_i_docking_score>
-8.44767826391237

> <r_i_glide_ligand_efficiency>
-0.248461125409187

> <r_i_glide_ligand_efficiency_sa>
-0.804917593088145

> <r_i_glide_ligand_efficiency_ln>
-1.86632907784754

> <r_i_glide_gscore>
-8.44767826391237

> <r_i_glide_lipo>
-2.36810088145037

> <r_i_glide_hbond>
-0.518826696606476

> <r_i_glide_metal>
0

> <r_i_glide_rewards>
-2.42682348297196

> <r_i_glide_evdw>
-53.0330581665039

> <r_i_glide_ecoul>
-4.48107099533081

> <r_i_glide_erotb>
0.189886354741247

> <r_i_glide_esite>
0

> <r_i_glide_emodel>
-81.4921350134915

> <r_i_glide_energy>
-57.5141291618347

> <r_i_glide_einternal>
1.58943569660187

> <i_i_glide_confnum>
44

> <i_i_glide_posenum>
183

> <r_i_glide_eff_state_penalty>
0

> <s_user_duplicate_titles>
CHEMBL3045_lig346

> <s_m_subgroup_title>
dock_pv

> <s_m_subgroupid>
dock_pv

> <b_m_subgroup_collapsed>
1

$$$$
CHEMBL3045_lig34
                    3D
 Schrodinger Suite 2021-1.
 50 53  0  0  1  0            999 V2000
   35.9096   56.0615   35.4423 C   0  0  0  0  0  0
   36.2137   55.9536   33.9938 C   0  0  0  0  0  0
   36.7471   56.1485   36.5004 C   0  0  0  0  0  0
   34.5752   56.0940   35.9748 C   0  0  0  0  0  0
   35.9668   56.3712   37.6860 C   0  0  0  0  0  0
   34.7011   56.3019   37.2809 N   0  0  0  0  0  0
   37.4954   56.1219   33.4998 C   0  0  0  0  0  0
   37.5593   55.9500   32.1483 N   0  0  0  0  0  0
   36.2730   55.7976   31.6794 C   0  0  0  0  0  0
   35.3929   55.7412   32.8063 C   0  0  0  0  0  0
   38.2356   56.0802   36.5421 C   0  0  0  0  0  0
   35.9183   55.7202   30.3905 N   0  0  0  0  0  0
   36.3349   56.5885   38.8370 O   0  0  0  0  0  0
   33.5008   55.9720   35.4073 O   0  0  0  0  0  0
   38.9695   54.9678   36.0807 C   0  0  0  0  0  0
   38.7844   56.0027   31.3699 C   0  0  0  0  0  0
   39.1156   54.6548   30.7031 C   0  0  0  0  0  0
   40.5123   53.6288   32.5488 N   0  0  0  0  0  0
   38.1916   53.5726   35.4219 Cl  0  0  0  0  0  0
   34.0289   55.5197   32.4977 C   0  0  0  0  0  0
   38.9433   57.1419   37.1165 C   0  0  0  0  0  0
   39.3877   53.4480   31.6230 C   0  0  0  0  0  0
   34.5928   55.5730   30.1639 C   0  0  0  0  0  0
   40.3648   54.9655   36.1446 C   0  0  0  0  0  0
   41.7667   53.9527   31.8684 C   0  0  0  0  0  0
   40.7115   52.3727   33.2657 C   0  0  0  0  0  0
   33.6333   55.4546   31.1626 C   0  0  0  0  0  0
   40.3346   57.1360   37.1903 C   0  0  0  0  0  0
   41.0476   56.0485   36.6940 C   0  0  0  0  0  0
   33.9125   56.4226   37.9011 H   0  0  0  0  0  0
   38.4221   56.3356   34.0083 H   0  0  0  0  0  0
   39.6083   56.3235   32.0091 H   0  0  0  0  0  0
   38.6343   56.7722   30.6226 H   0  0  0  0  0  0
   39.9616   54.7720   30.0371 H   0  0  0  0  0  0
   38.3010   54.3856   30.0375 H   0  0  0  0  0  0
   33.2655   55.4137   33.2444 H   0  0  0  0  0  0
   38.3942   57.9723   37.5261 H   0  0  0  0  0  0
   39.5431   52.5624   31.0021 H   0  0  0  0  0  0
   38.4914   53.2592   32.2167 H   0  0  0  0  0  0
   34.3016   55.5167   29.1255 H   0  0  0  0  0  0
   40.9196   54.1154   35.7718 H   0  0  0  0  0  0
   42.5972   53.9893   32.5759 H   0  0  0  0  0  0
   41.7178   54.9335   31.3957 H   0  0  0  0  0  0
   42.0129   53.2152   31.1041 H   0  0  0  0  0  0
   41.4949   52.4731   34.0181 H   0  0  0  0  0  0
   39.8063   52.0523   33.7805 H   0  0  0  0  0  0
   41.0064   51.5722   32.5842 H   0  0  0  0  0  0
   32.5927   55.3176   30.9006 H   0  0  0  0  0  0
   40.8556   57.9701   37.6352 H   0  0  0  0  0  0
   42.1262   56.0343   36.7478 H   0  0  0  0  0  0
  1  2  1  0  0  0
  1  3  2  0  0  0
  1  4  1  0  0  0
  2  7  2  0  0  0
  2 10  1  0  0  0
  3  5  1  0  0  0
  3 11  1  0  0  0
  4  6  1  0  0  0
  4 14  2  0  0  0
  5 13  2  0  0  0
  5  6  1  0  0  0
  6 30  1  0  0  0
  7  8  1  0  0  0
  7 31  1  0  0  0
  8 16  1  0  0  0
  8  9  1  0  0  0
  9 10  2  0  0  0
  9 12  1  0  0  0
 10 20  1  0  0  0
 11 15  1  0  0  0
 11 21  2  0  0  0
 12 23  2  0  0  0
 15 19  1  0  0  0
 15 24  2  0  0  0
 16 17  1  0  0  0
 16 32  1  0  0  0
 16 33  1  0  0  0
 17 22  1  0  0  0
 17 34  1  0  0  0
 17 35  1  0  0  0
 18 22  1  0  0  0
 18 25  1  0  0  0
 18 26  1  0  0  0
 20 27  2  0  0  0
 20 36  1  0  0  0
 21 28  1  0  0  0
 21 37  1  0  0  0
 22 38  1  0  0  0
 22 39  1  0  0  0
 23 27  1  0  0  0
 23 40  1  0  0  0
 24 29  1  0  0  0
 24 41  1  0  0  0
 25 42  1  0  0  0
 25 43  1  0  0  0
 25 44  1  0  0  0
 26 45  1  0  0  0
 26 46  1  0  0  0
 26 47  1  0  0  0
 27 48  1  0  0  0
 28 29  2  0  0  0
 28 49  1  0  0  0
 29 50  1  0  0  0
M  END
> <s_m_entry_id>
3357

> <s_m_entry_name>
dock_pv.86

> <s_m_Source_Path>
/home/csk/Desktop/cluster/DUD-E-result/kpcb

> <s_m_Source_File>
dock_pv.maegz

> <i_m_Source_File_Index>
86

> <chembl_id>
CHEMBL109834

> <chembl_pref_name>
None

> <i_lp_mmshare_version>
53161

> <i_f3d_flags>
0

> <r_lp_tautomer_probability>
1

> <s_lp_Force_Field>
OPLS_2005

> <r_lp_Energy>
29.374463

> <b_lp_Chiralities_Consistent>
1

> <s_lp_Variant>
CHEMBL3045_lig34-1

> <s_i_glide_gridfile>
glide-grid_2i0e

> <i_i_glide_lignum>
36

> <i_i_glide_rotatable_bonds>
6

> <r_i_docking_score>
-8.43757158080396

> <r_i_glide_ligand_efficiency>
-0.290950744165654

> <r_i_glide_ligand_efficiency_sa>
-0.893892865742622

> <r_i_glide_ligand_efficiency_ln>
-1.93198993364965

> <r_i_glide_gscore>
-8.43757158080396

> <r_i_glide_lipo>
-2.05074134273452

> <r_i_glide_hbond>
-0.608

> <r_i_glide_metal>
0

> <r_i_glide_rewards>
-2.82921408580928

> <r_i_glide_evdw>
-46.6298789978027

> <r_i_glide_ecoul>
-6.86827087402344

> <r_i_glide_erotb>
0.412118428733496

> <r_i_glide_esite>
0

> <r_i_glide_emodel>
-79.6655452856722

> <r_i_glide_energy>
-53.4981498718262

> <r_i_glide_einternal>
2.13851428031921

> <i_i_glide_confnum>
185

> <i_i_glide_posenum>
125

> <r_i_glide_eff_state_penalty>
0

> <s_user_duplicate_titles>
CHEMBL3045_lig34

> <s_m_subgroup_title>
dock_pv

> <s_m_subgroupid>
dock_pv

> <b_m_subgroup_collapsed>
1

$$$$
CHEMBL3045_lig401
                    3D
 Schrodinger Suite 2021-1.
 51 55  0  0  1  0            999 V2000
   36.2828   56.2036   35.5243 C   0  0  0  0  0  0
   36.9927   56.6353   36.5816 C   0  0  0  0  0  0
   36.0862   56.7676   37.6927 C   0  0  0  0  0  0
   34.8976   56.3709   37.2222 N   0  0  0  0  0  0
   34.9243   55.9941   35.9396 C   0  0  0  0  0  0
   38.4294   56.9444   36.6464 C   0  0  0  0  0  0
   39.1740   57.4144   35.5758 C   0  0  0  0  0  0
   40.4861   57.5482   35.9332 N   0  0  0  0  0  0
   39.3626   56.8100   37.7473 C   0  0  0  0  0  0
   40.6491   57.1980   37.2560 C   0  0  0  0  0  0
   41.8035   57.1709   38.0474 C   0  0  0  0  0  0
   41.6513   56.7626   39.3727 C   0  0  0  0  0  0
   40.4203   56.3688   39.8803 C   0  0  0  0  0  0
   39.2764   56.3757   39.0858 C   0  0  0  0  0  0
   36.7488   55.9462   34.1264 C   0  0  0  0  0  0
   36.2685   56.7437   33.0710 C   0  0  0  0  0  0
   36.6678   56.5146   31.7590 C   0  0  0  0  0  0
   37.5868   55.5234   31.4549 C   0  0  0  0  0  0
   37.7220   54.9247   33.8324 C   0  0  0  0  0  0
   38.1386   54.7227   32.4771 C   0  0  0  0  0  0
   39.1001   53.7255   32.1736 C   0  0  0  0  0  0
   39.6525   52.9475   33.1835 C   0  0  0  0  0  0
   39.2737   53.1362   34.5086 C   0  0  0  0  0  0
   38.3108   54.0934   34.8314 C   0  0  0  0  0  0
   39.9045   52.2837   35.6092 C   0  0  0  0  0  0
   41.1880   52.7753   36.1381 N   0  0  0  0  0  0
   36.3008   57.1588   38.8380 O   0  0  0  0  0  0
   33.9734   55.5720   35.2868 O   0  0  0  0  0  0
   35.1859   58.0718   33.3402 Cl  0  0  0  0  0  0
   42.2728   52.9006   35.1631 C   0  0  0  0  0  0
   41.0559   54.0298   36.8596 C   0  0  0  0  0  0
   34.0587   56.3714   37.7851 H   0  0  0  0  0  0
   38.8780   57.6380   34.5607 H   0  0  0  0  0  0
   41.2055   57.8489   35.2890 H   0  0  0  0  0  0
   42.7701   57.4573   37.6602 H   0  0  0  0  0  0
   42.5187   56.7379   40.0180 H   0  0  0  0  0  0
   40.3443   56.0443   40.9094 H   0  0  0  0  0  0
   38.3450   56.0348   39.5067 H   0  0  0  0  0  0
   36.2746   57.1329   30.9651 H   0  0  0  0  0  0
   37.8948   55.3632   30.4308 H   0  0  0  0  0  0
   39.4035   53.5663   31.1465 H   0  0  0  0  0  0
   40.3867   52.1933   32.9313 H   0  0  0  0  0  0
   38.0223   54.2155   35.8652 H   0  0  0  0  0  0
   40.0034   51.2653   35.2400 H   0  0  0  0  0  0
   39.1968   52.2029   36.4311 H   0  0  0  0  0  0
   42.4778   51.9721   34.6367 H   0  0  0  0  0  0
   43.2042   53.1748   35.6661 H   0  0  0  0  0  0
   42.0628   53.6716   34.4184 H   0  0  0  0  0  0
   40.3019   53.9693   37.6402 H   0  0  0  0  0  0
   41.9954   54.3097   37.3389 H   0  0  0  0  0  0
   40.7704   54.8243   36.1707 H   0  0  0  0  0  0
  1  2  2  0  0  0
  1  5  1  0  0  0
  1 15  1  0  0  0
  2  3  1  0  0  0
  2  6  1  0  0  0
  3  4  1  0  0  0
  3 27  2  0  0  0
  4  5  1  0  0  0
  4 32  1  0  0  0
  5 28  2  0  0  0
  6  7  2  0  0  0
  6  9  1  0  0  0
  7  8  1  0  0  0
  7 33  1  0  0  0
  8 10  1  0  0  0
  8 34  1  0  0  0
  9 10  2  0  0  0
  9 14  1  0  0  0
 10 11  1  0  0  0
 11 12  2  0  0  0
 11 35  1  0  0  0
 12 13  1  0  0  0
 12 36  1  0  0  0
 13 14  2  0  0  0
 13 37  1  0  0  0
 14 38  1  0  0  0
 15 16  2  0  0  0
 15 19  1  0  0  0
 16 17  1  0  0  0
 16 29  1  0  0  0
 17 18  2  0  0  0
 17 39  1  0  0  0
 18 20  1  0  0  0
 18 40  1  0  0  0
 19 20  1  0  0  0
 19 24  2  0  0  0
 20 21  2  0  0  0
 21 22  1  0  0  0
 21 41  1  0  0  0
 22 23  2  0  0  0
 22 42  1  0  0  0
 23 24  1  0  0  0
 23 25  1  0  0  0
 24 43  1  0  0  0
 25 26  1  0  0  0
 25 44  1  0  0  0
 25 45  1  0  0  0
 26 30  1  0  0  0
 26 31  1  0  0  0
 30 46  1  0  0  0
 30 47  1  0  0  0
 30 48  1  0  0  0
 31 49  1  0  0  0
 31 50  1  0  0  0
 31 51  1  0  0  0
M  END
> <s_m_entry_id>
3358

> <s_m_entry_name>
dock_pv.87

> <s_m_Source_Path>
/home/csk/Desktop/cluster/DUD-E-result/kpcb

> <s_m_Source_File>
dock_pv.maegz

> <i_m_Source_File_Index>
87

> <chembl_id>
CHEMBL4102228

> <chembl_pref_name>
None

> <i_lp_mmshare_version>
53161

> <i_f3d_flags>
0

> <r_lp_tautomer_probability>
1

> <s_lp_Force_Field>
OPLS_2005

> <r_lp_Energy>
31.682665

> <b_lp_Chiralities_Consistent>
1

> <s_lp_Variant>
CHEMBL3045_lig401-1

> <s_i_glide_gridfile>
glide-grid_2i0e

> <i_i_glide_lignum>
567

> <i_i_glide_rotatable_bonds>
4

> <r_i_docking_score>
-8.43580223317308

> <r_i_glide_ligand_efficiency>
-0.272122652683002

> <r_i_glide_ligand_efficiency_sa>
-0.854840835237302

> <r_i_glide_ligand_efficiency_ln>
-1.90253192987114

> <r_i_glide_gscore>
-8.43580223317308

> <r_i_glide_lipo>
-2.4611190386319

> <r_i_glide_hbond>
-0.565987403383379

> <r_i_glide_metal>
0

> <r_i_glide_rewards>
-2.25510379815492

> <r_i_glide_evdw>
-48.9368019104004

> <r_i_glide_ecoul>
-6.21737289428711

> <r_i_glide_erotb>
0.225854036660211

> <r_i_glide_esite>
0

> <r_i_glide_emodel>
-81.9016316364447

> <r_i_glide_energy>
-55.1541748046875

> <r_i_glide_einternal>
3.92751336097717

> <i_i_glide_confnum>
27

> <i_i_glide_posenum>
320

> <r_i_glide_eff_state_penalty>
0

> <s_user_duplicate_titles>
CHEMBL3045_lig401

> <s_m_subgroup_title>
dock_pv

> <s_m_subgroupid>
dock_pv

> <b_m_subgroup_collapsed>
1

$$$$
CHEMBL3045_lig560
                    3D
 Schrodinger Suite 2021-1.
 66 69  0  0  1  0            999 V2000
   40.3839   53.3935   34.7023 C   0  0  0  0  0  0
   40.6610   54.2517   33.4461 C   0  0  2  0  0  0
   39.8034   55.5487   33.4173 C   0  0  0  0  0  0
   38.4006   55.2036   33.0501 N   0  0  0  0  0  0
   38.2955   54.4751   31.7643 C   0  0  1  0  0  0
   38.6385   55.3319   30.5377 C   0  0  0  0  0  0
   39.1859   53.2105   31.8526 C   0  0  0  0  0  0
   40.5732   53.5836   32.1366 N   0  0  2  0  0  0
   41.4951   52.4547   31.9905 C   0  0  0  0  0  0
   41.7966   52.1052   30.5074 C   0  0  0  0  0  0
   42.6167   53.1295   29.7186 C   0  0  0  0  0  0
   43.7516   53.5719   30.4371 O   0  0  0  0  0  0
   37.2805   55.8863   33.4545 C   0  0  0  0  0  0
   36.3676   56.1183   32.6521 O   0  0  0  0  0  0
   37.0806   56.1521   34.7786 N   0  0  0  0  0  0
   38.1369   56.1937   35.8056 C   0  0  0  0  0  0
   37.4083   56.4467   37.0750 C   0  0  0  0  0  0
   37.5632   56.5663   38.4611 C   0  0  0  0  0  0
   38.6866   56.3716   39.2368 N   0  0  0  0  0  0
   39.9668   56.5304   38.8417 C   0  0  0  0  0  0
   40.3144   56.9917   37.7509 O   0  0  0  0  0  0
   41.0008   56.0976   39.8517 C   0  0  0  0  0  0
   40.8377   56.3204   41.2282 C   0  0  0  0  0  0
   41.8186   55.8575   42.1091 C   0  0  0  0  0  0
   42.9335   55.1854   41.6052 C   0  0  0  0  0  0
   43.0309   54.9991   40.2246 C   0  0  0  0  0  0
   42.0904   55.4481   39.3537 N   0  0  0  0  0  0
   36.3946   56.7724   39.0303 N   0  0  0  0  0  0
   35.5009   56.7715   38.0348 N   0  0  0  0  0  0
   36.0922   56.5896   36.8193 C   0  0  0  0  0  0
   35.7368   56.4518   35.3659 C   0  0  0  0  0  0
   35.1438   57.7678   34.8286 C   0  0  0  0  0  0
   34.7317   55.2870   35.2046 C   0  0  0  0  0  0
   40.6248   53.9435   35.6114 H   0  0  0  0  0  0
   39.3390   53.0941   34.7703 H   0  0  0  0  0  0
   40.9820   52.4842   34.7112 H   0  0  0  0  0  0
   41.6974   54.5849   33.5224 H   0  0  0  0  0  0
   39.9569   56.1471   34.3071 H   0  0  0  0  0  0
   40.1783   56.1460   32.5854 H   0  0  0  0  0  0
   37.2655   54.1517   31.6380 H   0  0  0  0  0  0
   38.4376   54.7719   29.6368 H   0  0  0  0  0  0
   38.0540   56.2540   30.4791 H   0  0  0  0  0  0
   39.7020   55.5708   30.5061 H   0  0  0  0  0  0
   39.1014   52.6372   30.9286 H   0  0  0  0  0  0
   38.8161   52.5498   32.6367 H   0  0  0  0  0  0
   41.1482   51.5732   32.5312 H   0  0  0  0  0  0
   42.4283   52.7658   32.4661 H   0  0  0  0  0  0
   40.8680   51.9718   29.9570 H   0  0  0  0  0  0
   42.3011   51.1442   30.4488 H   0  0  0  0  0  0
   41.9784   53.9760   29.5098 H   0  0  0  0  0  0
   42.9525   52.7050   28.7719 H   0  0  0  0  0  0
   44.0517   52.8312   30.9873 H   0  0  0  0  0  0
   38.6956   55.2600   35.8487 H   0  0  0  0  0  0
   38.8196   57.0197   35.6063 H   0  0  0  0  0  0
   38.5200   56.1907   40.2196 H   0  0  0  0  0  0
   39.9738   56.8384   41.6225 H   0  0  0  0  0  0
   41.7137   56.0178   43.1728 H   0  0  0  0  0  0
   43.7031   54.8171   42.2683 H   0  0  0  0  0  0
   43.8750   54.4819   39.7907 H   0  0  0  0  0  0
   34.5090   56.9027   38.1922 H   0  0  0  0  0  0
   34.3011   58.0903   35.4328 H   0  0  0  0  0  0
   35.8955   58.5540   34.8295 H   0  0  0  0  0  0
   34.7728   57.6710   33.8077 H   0  0  0  0  0  0
   33.7900   55.4997   35.7138 H   0  0  0  0  0  0
   34.4926   55.0969   34.1582 H   0  0  0  0  0  0
   35.1293   54.3709   35.6352 H   0  0  0  0  0  0
  1  2  1  0  0  0
  1 34  1  0  0  0
  1 35  1  0  0  0
  1 36  1  0  0  0
  2  3  1  0  0  0
  2  8  1  0  0  0
  2 37  1  0  0  0
  3  4  1  0  0  0
  3 38  1  0  0  0
  3 39  1  0  0  0
  4  5  1  0  0  0
  4 13  1  0  0  0
  5  6  1  0  0  0
  5  7  1  0  0  0
  5 40  1  0  0  0
  6 41  1  0  0  0
  6 42  1  0  0  0
  6 43  1  0  0  0
  7  8  1  0  0  0
  7 44  1  0  0  0
  7 45  1  0  0  0
  8  9  1  0  0  0
  9 10  1  0  0  0
  9 46  1  0  0  0
  9 47  1  0  0  0
 10 11  1  0  0  0
 10 48  1  0  0  0
 10 49  1  0  0  0
 11 12  1  0  0  0
 11 50  1  0  0  0
 11 51  1  0  0  0
 12 52  1  0  0  0
 13 14  2  0  0  0
 13 15  1  0  0  0
 15 16  1  0  0  0
 15 31  1  0  0  0
 16 17  1  0  0  0
 16 53  1  0  0  0
 16 54  1  0  0  0
 17 18  1  0  0  0
 17 30  2  0  0  0
 18 19  1  0  0  0
 18 28  2  0  0  0
 19 20  1  0  0  0
 19 55  1  0  0  0
 20 21  2  0  0  0
 20 22  1  0  0  0
 22 23  2  0  0  0
 22 27  1  0  0  0
 23 24  1  0  0  0
 23 56  1  0  0  0
 24 25  2  0  0  0
 24 57  1  0  0  0
 25 26  1  0  0  0
 25 58  1  0  0  0
 26 27  2  0  0  0
 26 59  1  0  0  0
 28 29  1  0  0  0
 29 30  1  0  0  0
 29 60  1  0  0  0
 30 31  1  0  0  0
 31 32  1  0  0  0
 31 33  1  0  0  0
 32 61  1  0  0  0
 32 62  1  0  0  0
 32 63  1  0  0  0
 33 64  1  0  0  0
 33 65  1  0  0  0
 33 66  1  0  0  0
M  END
> <s_m_entry_id>
3359

> <s_m_entry_name>
dock_pv.88

> <s_m_Source_Path>
/home/csk/Desktop/cluster/DUD-E-result/kpcb

> <s_m_Source_File>
dock_pv.maegz

> <i_m_Source_File_Index>
88

> <chembl_id>
CHEMBL3662809

> <chembl_pref_name>
None

> <i_lp_mmshare_version>
53161

> <i_f3d_flags>
0

> <r_lp_tautomer_probability>
0.5

> <s_lp_Force_Field>
OPLS_2005

> <r_lp_Energy>
103.956314

> <b_lp_Chiralities_Consistent>
1

> <s_lp_Variant>
CHEMBL3045_lig560-3

> <s_i_glide_gridfile>
glide-grid_2i0e

> <i_i_glide_lignum>
866

> <i_i_glide_rotatable_bonds>
9

> <r_i_docking_score>
-8.4337868783239

> <r_i_glide_ligand_efficiency>
-0.255569299343148

> <r_i_glide_ligand_efficiency_sa>
-0.819747300380711

> <r_i_glide_ligand_efficiency_ln>
-1.87563053392783

> <r_i_glide_gscore>
-8.4337868783239

> <r_i_glide_lipo>
-2.14323622632783

> <r_i_glide_hbond>
-1.12

> <r_i_glide_metal>
0

> <r_i_glide_rewards>
-1.9688502665481

> <r_i_glide_evdw>
-42.1529083251953

> <r_i_glide_ecoul>
-10.853123664856

> <r_i_glide_erotb>
0.542112375419505

> <r_i_glide_esite>
-0.00819879487931357

> <r_i_glide_emodel>
-72.7979391680782

> <r_i_glide_energy>
-53.0060319900513

> <r_i_glide_einternal>
13.2138538360596

> <i_i_glide_confnum>
130

> <i_i_glide_posenum>
305

> <r_i_glide_eff_state_penalty>
0

> <s_user_duplicate_titles>
CHEMBL3045_lig560

> <s_m_subgroup_title>
dock_pv

> <s_m_subgroupid>
dock_pv

> <b_m_subgroup_collapsed>
1

$$$$
CHEMBL3045_lig237
                    3D
 Schrodinger Suite 2021-1.
 39 42  0  0  1  0            999 V2000
   36.2446   56.1295   35.5477 C   0  0  0  0  0  0
   37.0141   56.5760   36.5590 C   0  0  0  0  0  0
   36.6622   55.8343   34.1570 C   0  0  0  0  0  0
   34.9019   55.9696   36.0351 C   0  0  0  0  0  0
   34.9422   56.3707   37.3036 N   0  0  0  0  0  0
   36.1521   56.7553   37.7078 C   0  0  0  0  0  0
   37.9292   55.3916   33.8034 C   0  0  0  0  0  0
   35.9162   55.8954   32.9093 C   0  0  0  0  0  0
   38.0243   55.2485   32.4438 N   0  0  0  0  0  0
   38.3584   56.9124   36.5112 N   0  0  0  0  0  0
   36.8226   55.5662   31.8526 C   0  0  0  0  0  0
   33.9001   55.5659   35.4576 O   0  0  0  0  0  0
   36.4090   57.1721   38.8366 O   0  0  0  0  0  0
   39.4025   56.7226   37.4384 C   0  0  0  0  0  0
   41.5851   56.4028   39.1562 C   0  0  0  0  0  0
   40.6697   57.1721   37.0609 C   0  0  0  0  0  0
   39.2424   56.0890   38.6772 C   0  0  0  0  0  0
   41.7600   57.0153   37.9137 C   0  0  0  0  0  0
   40.3249   55.9424   39.5363 C   0  0  0  0  0  0
   34.5878   56.1876   32.5493 C   0  0  0  0  0  0
   36.4454   55.5681   30.5047 C   0  0  0  0  0  0
   42.7646   56.2379   40.0970 C   0  0  0  0  0  0
   34.2057   56.1902   31.2101 C   0  0  0  0  0  0
   35.1227   55.8933   30.2098 C   0  0  0  0  0  0
   34.1252   56.4023   37.9001 H   0  0  0  0  0  0
   38.7879   55.1667   34.4207 H   0  0  0  0  0  0
   38.8694   54.9396   31.9827 H   0  0  0  0  0  0
   38.7117   57.1828   35.6049 H   0  0  0  0  0  0
   40.8205   57.6433   36.1009 H   0  0  0  0  0  0
   38.2980   55.6784   38.9934 H   0  0  0  0  0  0
   42.7333   57.3690   37.6072 H   0  0  0  0  0  0
   40.1783   55.4547   40.4916 H   0  0  0  0  0  0
   33.8459   56.3754   33.2965 H   0  0  0  0  0  0
   37.1275   55.2594   29.7268 H   0  0  0  0  0  0
   42.4515   56.3675   41.1346 H   0  0  0  0  0  0
   43.5311   56.9893   39.9061 H   0  0  0  0  0  0
   43.2048   55.2457   39.9899 H   0  0  0  0  0  0
   33.1813   56.4068   30.9444 H   0  0  0  0  0  0
   34.7857   55.8711   29.1843 H   0  0  0  0  0  0
  1  2  2  0  0  0
  1  3  1  0  0  0
  1  4  1  0  0  0
  2  6  1  0  0  0
  2 10  1  0  0  0
  3  7  2  0  0  0
  3  8  1  0  0  0
  4  5  1  0  0  0
  4 12  2  0  0  0
  5  6  1  0  0  0
  5 25  1  0  0  0
  6 13  2  0  0  0
  7  9  1  0  0  0
  7 26  1  0  0  0
  8 11  2  0  0  0
  8 20  1  0  0  0
  9 11  1  0  0  0
  9 27  1  0  0  0
 10 14  1  0  0  0
 10 28  1  0  0  0
 11 21  1  0  0  0
 14 16  1  0  0  0
 14 17  2  0  0  0
 15 19  2  0  0  0
 15 22  1  0  0  0
 15 18  1  0  0  0
 16 18  2  0  0  0
 16 29  1  0  0  0
 17 19  1  0  0  0
 17 30  1  0  0  0
 18 31  1  0  0  0
 19 32  1  0  0  0
 20 23  2  0  0  0
 20 33  1  0  0  0
 21 24  2  0  0  0
 21 34  1  0  0  0
 22 35  1  0  0  0
 22 36  1  0  0  0
 22 37  1  0  0  0
 23 24  1  0  0  0
 23 38  1  0  0  0
 24 39  1  0  0  0
M  END
> <s_m_entry_id>
3360

> <s_m_entry_name>
dock_pv.89

> <s_m_Source_Path>
/home/csk/Desktop/cluster/DUD-E-result/kpcb

> <s_m_Source_File>
dock_pv.maegz

> <i_m_Source_File_Index>
89

> <chembl_id>
CHEMBL186980

> <chembl_pref_name>
None

> <i_lp_mmshare_version>
53161

> <i_f3d_flags>
0

> <r_lp_tautomer_probability>
0.999999999997686

> <s_lp_Force_Field>
OPLS_2005

> <r_lp_Energy>
28.389154

> <b_lp_Chiralities_Consistent>
1

> <s_lp_Variant>
CHEMBL3045_lig237-1

> <s_i_glide_gridfile>
glide-grid_2i0e

> <i_i_glide_lignum>
395

> <i_i_glide_rotatable_bonds>
3

> <r_i_docking_score>
-8.4214078269091

> <r_i_glide_ligand_efficiency>
-0.350891992787879

> <r_i_glide_ligand_efficiency_sa>
-1.01214765057304

> <r_i_glide_ligand_efficiency_ln>
-2.0156293262042

> <r_i_glide_gscore>
-8.4214078269091

> <r_i_glide_lipo>
-2.40338733877772

> <r_i_glide_hbond>
-0.552298467280204

> <r_i_glide_metal>
0

> <r_i_glide_rewards>
-3.02602271422379

> <r_i_glide_evdw>
-40.1709594726562

> <r_i_glide_ecoul>
-5.4642014503479

> <r_i_glide_erotb>
0.38847888455762

> <r_i_glide_esite>
0

> <r_i_glide_emodel>
-69.952138224806

> <r_i_glide_energy>
-45.6351609230042

> <r_i_glide_einternal>
0.65523624420166

> <i_i_glide_confnum>
22

> <i_i_glide_posenum>
374

> <r_i_glide_eff_state_penalty>
0

> <s_user_duplicate_titles>
CHEMBL3045_lig237,308963

> <s_m_subgroup_title>
dock_pv

> <s_m_subgroupid>
dock_pv

> <b_m_subgroup_collapsed>
1

$$$$
CHEMBL3045_lig246
                    3D
 Schrodinger Suite 2021-1.
 56 59  0  0  1  0            999 V2000
   36.1945   56.2739   35.7523 C   0  0  0  0  0  0
   36.4513   56.0953   34.2987 C   0  0  0  0  0  0
   37.0455   56.7268   36.6954 C   0  0  0  0  0  0
   34.9392   56.0002   36.3916 C   0  0  0  0  0  0
   35.1036   56.3257   37.6706 N   0  0  0  0  0  0
   36.3282   56.7720   37.9478 C   0  0  0  0  0  0
   37.7289   55.9867   33.7785 C   0  0  0  0  0  0
   37.7174   55.9298   32.4101 N   0  0  0  0  0  0
   35.5725   55.9737   33.1400 C   0  0  0  0  0  0
   36.4070   55.8959   31.9752 C   0  0  0  0  0  0
   38.3423   57.1875   36.5352 N   0  0  0  0  0  0
   33.9010   55.5719   35.9189 O   0  0  0  0  0  0
   36.7010   57.1699   39.0519 O   0  0  0  0  0  0
   39.5299   56.7724   37.1636 C   0  0  0  0  0  0
   38.9075   55.8864   31.5725 C   0  0  0  0  0  0
   41.5608   53.5228   32.2612 N   0  0  0  0  0  0
   34.1797   55.9327   32.9260 C   0  0  0  0  0  0
   35.8860   55.8040   30.6753 C   0  0  0  0  0  0
   40.2448   53.2495   32.8437 C   0  0  0  0  0  0
   42.5816   53.4647   33.3051 C   0  0  0  0  0  0
   41.9010   52.5626   31.2104 C   0  0  0  0  0  0
   40.7316   57.1719   36.5734 C   0  0  0  0  0  0
   39.5628   55.9720   38.3120 C   0  0  0  0  0  0
   39.0788   54.5235   30.8762 C   0  0  0  0  0  0
   39.1009   53.2889   31.8077 C   0  0  0  0  0  0
   33.6630   55.8421   31.6371 C   0  0  0  0  0  0
   34.5025   55.7834   30.5365 C   0  0  0  0  0  0
   41.9518   56.7893   37.1251 C   0  0  0  0  0  0
   40.7810   55.5893   38.8669 C   0  0  0  0  0  0
   41.9707   55.9996   38.2713 C   0  0  0  0  0  0
   34.3569   56.2774   38.3482 H   0  0  0  0  0  0
   38.6843   55.9772   34.2814 H   0  0  0  0  0  0
   38.5354   57.6692   35.6709 H   0  0  0  0  0  0
   39.7825   56.1181   32.1825 H   0  0  0  0  0  0
   38.8060   56.6817   30.8374 H   0  0  0  0  0  0
   33.4769   55.9720   33.7346 H   0  0  0  0  0  0
   36.5179   55.7306   29.8048 H   0  0  0  0  0  0
   40.2583   52.2687   33.3247 H   0  0  0  0  0  0
   40.0449   53.9823   33.6264 H   0  0  0  0  0  0
   42.3772   54.1904   34.0928 H   0  0  0  0  0  0
   43.5664   53.6951   32.8962 H   0  0  0  0  0  0
   42.6369   52.4742   33.7623 H   0  0  0  0  0  0
   41.2111   52.6101   30.3689 H   0  0  0  0  0  0
   42.8941   52.7723   30.8118 H   0  0  0  0  0  0
   41.8979   51.5384   31.5865 H   0  0  0  0  0  0
   40.7324   57.7784   35.6796 H   0  0  0  0  0  0
   38.6598   55.6193   38.7833 H   0  0  0  0  0  0
   39.9973   54.5516   30.2917 H   0  0  0  0  0  0
   38.3008   54.3896   30.1297 H   0  0  0  0  0  0
   39.1031   52.3720   31.2176 H   0  0  0  0  0  0
   38.1593   53.2316   32.3548 H   0  0  0  0  0  0
   32.5925   55.8188   31.4872 H   0  0  0  0  0  0
   34.0681   55.7048   29.5499 H   0  0  0  0  0  0
   42.8782   57.0994   36.6631 H   0  0  0  0  0  0
   40.8004   54.9667   39.7495 H   0  0  0  0  0  0
   42.9160   55.6947   38.6966 H   0  0  0  0  0  0
  1  2  1  0  0  0
  1  3  2  0  0  0
  1  4  1  0  0  0
  2  7  2  0  0  0
  2  9  1  0  0  0
  3  6  1  0  0  0
  3 11  1  0  0  0
  4  5  1  0  0  0
  4 12  2  0  0  0
  5  6  1  0  0  0
  5 31  1  0  0  0
  6 13  2  0  0  0
  7  8  1  0  0  0
  7 32  1  0  0  0
  8 15  1  0  0  0
  8 10  1  0  0  0
  9 10  2  0  0  0
  9 17  1  0  0  0
 10 18  1  0  0  0
 11 14  1  0  0  0
 11 33  1  0  0  0
 14 22  2  0  0  0
 14 23  1  0  0  0
 15 24  1  0  0  0
 15 34  1  0  0  0
 15 35  1  0  0  0
 16 19  1  0  0  0
 16 20  1  0  0  0
 16 21  1  0  0  0
 17 26  2  0  0  0
 17 36  1  0  0  0
 18 27  2  0  0  0
 18 37  1  0  0  0
 19 25  1  0  0  0
 19 38  1  0  0  0
 19 39  1  0  0  0
 20 40  1  0  0  0
 20 41  1  0  0  0
 20 42  1  0  0  0
 21 43  1  0  0  0
 21 44  1  0  0  0
 21 45  1  0  0  0
 22 28  1  0  0  0
 22 46  1  0  0  0
 23 29  2  0  0  0
 23 47  1  0  0  0
 24 25  1  0  0  0
 24 48  1  0  0  0
 24 49  1  0  0  0
 25 50  1  0  0  0
 25 51  1  0  0  0
 26 27  1  0  0  0
 26 52  1  0  0  0
 27 53  1  0  0  0
 28 30  2  0  0  0
 28 54  1  0  0  0
 29 30  1  0  0  0
 29 55  1  0  0  0
 30 56  1  0  0  0
M  END
> <s_m_entry_id>
3361

> <s_m_entry_name>
dock_pv.90

> <s_m_Source_Path>
/home/csk/Desktop/cluster/DUD-E-result/kpcb

> <s_m_Source_File>
dock_pv.maegz

> <i_m_Source_File_Index>
90

> <chembl_id>
CHEMBL184548

> <chembl_pref_name>
None

> <i_lp_mmshare_version>
53161

> <i_f3d_flags>
0

> <r_lp_tautomer_probability>
0.999999999997686

> <s_lp_Force_Field>
OPLS_2005

> <r_lp_Energy>
32.74108

> <b_lp_Chiralities_Consistent>
1

> <s_lp_Variant>
CHEMBL3045_lig246-1

> <s_i_glide_gridfile>
glide-grid_2i0e

> <i_i_glide_lignum>
404

> <i_i_glide_rotatable_bonds>
8

> <r_i_docking_score>
-8.41998792322152

> <r_i_glide_ligand_efficiency>
-0.280666264107384

> <r_i_glide_ligand_efficiency_sa>
-0.872095338170372

> <r_i_glide_ligand_efficiency_ln>
-1.9131129992724

> <r_i_glide_gscore>
-8.41998792322152

> <r_i_glide_lipo>
-2.57880980147438

> <r_i_glide_hbond>
-0.529191330580787

> <r_i_glide_metal>
0

> <r_i_glide_rewards>
-2.6561645163334

> <r_i_glide_evdw>
-48.3420753479004

> <r_i_glide_ecoul>
-5.54868078231812

> <r_i_glide_erotb>
0.593583609909781

> <r_i_glide_esite>
0

> <r_i_glide_emodel>
-80.8606673615153

> <r_i_glide_energy>
-53.8907561302185

> <r_i_glide_einternal>
4.75572633743286

> <i_i_glide_confnum>
31

> <i_i_glide_posenum>
188

> <r_i_glide_eff_state_penalty>
0

> <s_user_duplicate_titles>
CHEMBL3045_lig246,309204

> <s_m_subgroup_title>
dock_pv

> <s_m_subgroupid>
dock_pv

> <b_m_subgroup_collapsed>
1

$$$$
CHEMBL3045_lig356
                    3D
 Schrodinger Suite 2021-1.
 53 57  0  0  1  0            999 V2000
   36.5867   55.9940   35.8841 C   0  0  0  0  0  0
   37.2641   56.2410   37.0192 C   0  0  0  0  0  0
   36.2900   56.5017   38.0420 C   0  0  0  0  0  0
   35.1006   56.4029   37.4419 N   0  0  0  0  0  0
   35.1801   56.1125   36.1413 C   0  0  0  0  0  0
   38.6170   56.2650   37.3193 N   0  0  0  0  0  0
   39.7035   56.5737   36.4845 C   0  0  0  0  0  0
   37.1058   55.5955   34.5777 C   0  0  0  0  0  0
   38.2909   54.5477   32.8898 C   0  0  0  0  0  0
   38.0522   54.5426   34.2972 C   0  0  0  0  0  0
   38.7339   53.5996   35.0849 C   0  0  0  0  0  0
   39.6282   52.7227   34.4748 C   0  0  0  0  0  0
   39.8512   52.7629   33.1011 C   0  0  0  0  0  0
   39.1887   53.6681   32.2746 C   0  0  0  0  0  0
   36.4727   56.7727   39.2294 O   0  0  0  0  0  0
   34.2305   55.9790   35.3703 O   0  0  0  0  0  0
   40.9522   56.0367   36.8025 C   0  0  0  0  0  0
   42.0569   56.3121   35.9994 C   0  0  0  0  0  0
   41.9129   57.1289   34.8810 C   0  0  0  0  0  0
   40.6762   57.6826   34.5621 C   0  0  0  0  0  0
   39.5765   57.4136   35.3724 C   0  0  0  0  0  0
   36.8211   56.1921   33.3648 C   0  0  0  0  0  0
   37.5202   55.5630   32.3663 N   0  0  0  0  0  0
   37.4526   56.2557   31.1039 C   0  0  0  0  0  0
   36.1623   57.0729   31.2424 C   0  0  2  0  0  0
   35.9781   57.2905   32.7612 C   0  0  0  0  0  0
   34.9483   56.4319   30.5421 C   0  0  0  0  0  0
   34.3837   55.2744   31.2390 N   0  0  0  0  0  0
   33.0891   55.0841   31.5339 C   0  0  0  0  0  0
   32.0804   56.1931   31.2299 C   0  0  0  0  0  0
   32.7020   54.0253   32.0257 O   0  0  0  0  0  0
   34.2228   56.5532   37.9208 H   0  0  0  0  0  0
   38.8970   56.0163   38.2577 H   0  0  0  0  0  0
   38.5851   53.5712   36.1515 H   0  0  0  0  0  0
   40.1670   51.9989   35.0715 H   0  0  0  0  0  0
   40.5515   52.0594   32.6658 H   0  0  0  0  0  0
   39.3682   53.6776   31.2068 H   0  0  0  0  0  0
   41.0676   55.3889   37.6590 H   0  0  0  0  0  0
   43.0200   55.8851   36.2393 H   0  0  0  0  0  0
   42.7726   57.3413   34.2618 H   0  0  0  0  0  0
   40.5742   58.3156   33.6935 H   0  0  0  0  0  0
   38.6244   57.8532   35.1269 H   0  0  0  0  0  0
   37.5026   55.5677   30.2573 H   0  0  0  0  0  0
   38.3040   56.9335   31.0246 H   0  0  0  0  0  0
   36.3219   58.0387   30.7641 H   0  0  0  0  0  0
   36.3005   58.2786   33.0876 H   0  0  0  0  0  0
   34.9307   57.2157   33.0579 H   0  0  0  0  0  0
   35.2121   56.1162   29.5309 H   0  0  0  0  0  0
   34.2126   57.2241   30.4331 H   0  0  0  0  0  0
   35.0247   54.5238   31.4478 H   0  0  0  0  0  0
   32.3933   57.1512   31.6398 H   0  0  0  0  0  0
   31.1013   55.9704   31.6370 H   0  0  0  0  0  0
   31.9753   56.3081   30.1518 H   0  0  0  0  0  0
  1  2  2  0  0  0
  1  5  1  0  0  0
  1  8  1  0  0  0
  2  3  1  0  0  0
  2  6  1  0  0  0
  3  4  1  0  0  0
  3 15  2  0  0  0
  4  5  1  0  0  0
  4 32  1  0  0  0
  5 16  2  0  0  0
  6  7  1  0  0  0
  6 33  1  0  0  0
  7 17  2  0  0  0
  7 21  1  0  0  0
  8 10  1  0  0  0
  8 22  2  0  0  0
  9 23  1  0  0  0
  9 10  2  0  0  0
  9 14  1  0  0  0
 10 11  1  0  0  0
 11 12  2  0  0  0
 11 34  1  0  0  0
 12 13  1  0  0  0
 12 35  1  0  0  0
 13 14  2  0  0  0
 13 36  1  0  0  0
 14 37  1  0  0  0
 17 18  1  0  0  0
 17 38  1  0  0  0
 18 19  2  0  0  0
 18 39  1  0  0  0
 19 20  1  0  0  0
 19 40  1  0  0  0
 20 21  2  0  0  0
 20 41  1  0  0  0
 21 42  1  0  0  0
 22 23  1  0  0  0
 22 26  1  0  0  0
 23 24  1  0  0  0
 24 25  1  0  0  0
 24 43  1  0  0  0
 24 44  1  0  0  0
 25 26  1  0  0  0
 25 27  1  0  0  0
 25 45  1  0  0  0
 26 46  1  0  0  0
 26 47  1  0  0  0
 27 28  1  0  0  0
 27 48  1  0  0  0
 27 49  1  0  0  0
 28 29  1  0  0  0
 28 50  1  0  0  0
 29 30  1  0  0  0
 29 31  2  0  0  0
 30 51  1  0  0  0
 30 52  1  0  0  0
 30 53  1  0  0  0
M  END
> <s_m_entry_id>
3362

> <s_m_entry_name>
dock_pv.91

> <s_m_Source_Path>
/home/csk/Desktop/cluster/DUD-E-result/kpcb

> <s_m_Source_File>
dock_pv.maegz

> <i_m_Source_File_Index>
91

> <chembl_id>
CHEMBL2236795

> <chembl_pref_name>
None

> <i_lp_mmshare_version>
53161

> <i_f3d_flags>
0

> <r_lp_tautomer_probability>
0.999999999997686

> <s_lp_Force_Field>
OPLS_2005

> <r_lp_Energy>
43.351703

> <b_lp_Chiralities_Consistent>
1

> <s_lp_Variant>
CHEMBL3045_lig356-1

> <s_i_glide_gridfile>
glide-grid_2i0e

> <i_i_glide_lignum>
520

> <i_i_glide_rotatable_bonds>
6

> <r_i_docking_score>
-8.41306928882291

> <r_i_glide_ligand_efficiency>
-0.271389331897513

> <r_i_glide_ligand_efficiency_sa>
-0.852537195512407

> <r_i_glide_ligand_efficiency_ln>
-1.8974049542391

> <r_i_glide_gscore>
-8.41306928882291

> <r_i_glide_lipo>
-2.37549241649813

> <r_i_glide_hbond>
-0.864

> <r_i_glide_metal>
0

> <r_i_glide_rewards>
-1.39546310835231

> <r_i_glide_evdw>
-53.8328056335449

> <r_i_glide_ecoul>
-9.92427062988281

> <r_i_glide_erotb>
0.402167112187191

> <r_i_glide_esite>
0

> <r_i_glide_emodel>
-88.6038174812841

> <r_i_glide_energy>
-63.7570762634277

> <r_i_glide_einternal>
5.91418743133545

> <i_i_glide_confnum>
163

> <i_i_glide_posenum>
240

> <r_i_glide_eff_state_penalty>
0

> <s_user_duplicate_titles>
CHEMBL3045_lig356

> <s_m_subgroup_title>
dock_pv

> <s_m_subgroupid>
dock_pv

> <b_m_subgroup_collapsed>
1

$$$$
CHEMBL3045_lig227
                    3D
 Schrodinger Suite 2021-1.
 60 64  0  0  1  0            999 V2000
   36.3621   56.2406   35.7469 C   0  0  0  0  0  0
   36.7651   56.0180   34.3386 C   0  0  0  0  0  0
   37.1371   56.6865   36.7541 C   0  0  0  0  0  0
   35.0425   55.9969   36.2630 C   0  0  0  0  0  0
   35.1011   56.3475   37.5480 N   0  0  0  0  0  0
   36.3072   56.7720   37.9313 C   0  0  0  0  0  0
   38.0682   55.7497   33.9536 C   0  0  0  0  0  0
   38.1790   55.6160   32.5918 N   0  0  0  0  0  0
   35.9989   55.9904   33.1039 C   0  0  0  0  0  0
   36.9165   55.7074   32.0379 C   0  0  0  0  0  0
   38.4579   57.1046   36.6979 N   0  0  0  0  0  0
   34.0415   55.5714   35.6981 O   0  0  0  0  0  0
   40.4251   53.2822   33.9011 N   0  0  0  0  0  0
   36.5884   57.1708   39.0602 O   0  0  0  0  0  0
   39.4247   55.3369   31.8784 C   0  0  0  0  0  0
   39.6006   53.8289   31.5943 C   0  0  0  0  0  0
   39.5651   56.7330   37.4843 C   0  0  0  0  0  0
   39.5003   52.8997   32.8268 C   0  0  0  0  0  0
   34.6443   56.1652   32.7611 C   0  0  0  0  0  0
   36.5024   55.5721   30.7070 C   0  0  0  0  0  0
   40.0326   52.6559   35.1734 C   0  0  0  0  0  0
   41.8283   53.0180   33.5318 C   0  0  0  0  0  0
   40.8263   57.1290   37.0282 C   0  0  0  0  0  0
   39.4714   55.9729   38.6594 C   0  0  0  0  0  0
   34.2376   56.0527   31.4333 C   0  0  0  0  0  0
   35.1506   55.7578   30.4305 C   0  0  0  0  0  0
   40.9733   53.0502   36.3314 C   0  0  0  0  0  0
   42.8154   53.3950   34.6559 C   0  0  0  0  0  0
   40.6194   55.6337   39.3734 C   0  0  0  0  0  0
   41.9756   56.7846   37.7370 C   0  0  0  0  0  0
   41.8675   56.0398   38.9090 C   0  0  0  0  0  0
   42.4474   52.7727   36.0103 C   0  0  0  0  0  0
   34.2953   56.3257   38.1563 H   0  0  0  0  0  0
   38.9603   55.6330   34.5530 H   0  0  0  0  0  0
   38.7557   57.5060   35.8206 H   0  0  0  0  0  0
   40.2550   55.7109   32.4806 H   0  0  0  0  0  0
   39.4307   55.9108   30.9505 H   0  0  0  0  0  0
   40.5307   53.6442   31.0570 H   0  0  0  0  0  0
   38.8372   53.5239   30.8802 H   0  0  0  0  0  0
   39.6860   51.8672   32.5276 H   0  0  0  0  0  0
   38.4744   52.9364   33.1980 H   0  0  0  0  0  0
   33.9011   56.3742   33.5075 H   0  0  0  0  0  0
   37.1965   55.3112   29.9234 H   0  0  0  0  0  0
   39.9944   51.5723   35.0607 H   0  0  0  0  0  0
   39.0168   52.9680   35.4201 H   0  0  0  0  0  0
   41.9508   51.9736   33.2375 H   0  0  0  0  0  0
   42.0815   53.5969   32.6445 H   0  0  0  0  0  0
   40.9268   57.6934   36.1125 H   0  0  0  0  0  0
   38.5249   55.6161   39.0313 H   0  0  0  0  0  0
   33.1961   56.1837   31.1764 H   0  0  0  0  0  0
   34.7976   55.6534   29.4131 H   0  0  0  0  0  0
   40.7009   52.4927   37.2269 H   0  0  0  0  0  0
   40.8156   54.0973   36.5897 H   0  0  0  0  0  0
   42.8856   54.4816   34.7287 H   0  0  0  0  0  0
   43.8148   53.0631   34.3715 H   0  0  0  0  0  0
   40.5362   55.0473   40.2772 H   0  0  0  0  0  0
   42.9459   57.0893   37.3742 H   0  0  0  0  0  0
   42.7595   55.7662   39.4560 H   0  0  0  0  0  0
   43.0888   53.1719   36.7964 H   0  0  0  0  0  0
   42.6267   51.6966   35.9870 H   0  0  0  0  0  0
  1  2  1  0  0  0
  1  3  2  0  0  0
  1  4  1  0  0  0
  2  7  2  0  0  0
  2  9  1  0  0  0
  3  6  1  0  0  0
  3 11  1  0  0  0
  4  5  1  0  0  0
  4 12  2  0  0  0
  5  6  1  0  0  0
  5 33  1  0  0  0
  6 14  2  0  0  0
  7  8  1  0  0  0
  7 34  1  0  0  0
  8 15  1  0  0  0
  8 10  1  0  0  0
  9 10  2  0  0  0
  9 19  1  0  0  0
 10 20  1  0  0  0
 11 17  1  0  0  0
 11 35  1  0  0  0
 13 18  1  0  0  0
 13 21  1  0  0  0
 13 22  1  0  0  0
 15 16  1  0  0  0
 15 36  1  0  0  0
 15 37  1  0  0  0
 16 18  1  0  0  0
 16 38  1  0  0  0
 16 39  1  0  0  0
 17 23  1  0  0  0
 17 24  2  0  0  0
 18 40  1  0  0  0
 18 41  1  0  0  0
 19 25  2  0  0  0
 19 42  1  0  0  0
 20 26  2  0  0  0
 20 43  1  0  0  0
 21 27  1  0  0  0
 21 44  1  0  0  0
 21 45  1  0  0  0
 22 28  1  0  0  0
 22 46  1  0  0  0
 22 47  1  0  0  0
 23 30  2  0  0  0
 23 48  1  0  0  0
 24 29  1  0  0  0
 24 49  1  0  0  0
 25 26  1  0  0  0
 25 50  1  0  0  0
 26 51  1  0  0  0
 27 32  1  0  0  0
 27 52  1  0  0  0
 27 53  1  0  0  0
 28 32  1  0  0  0
 28 54  1  0  0  0
 28 55  1  0  0  0
 29 31  2  0  0  0
 29 56  1  0  0  0
 30 31  1  0  0  0
 30 57  1  0  0  0
 31 58  1  0  0  0
 32 59  1  0  0  0
 32 60  1  0  0  0
M  END
> <s_m_entry_id>
3363

> <s_m_entry_name>
dock_pv.92

> <s_m_Source_Path>
/home/csk/Desktop/cluster/DUD-E-result/kpcb

> <s_m_Source_File>
dock_pv.maegz

> <i_m_Source_File_Index>
92

> <chembl_id>
CHEMBL187235

> <chembl_pref_name>
None

> <i_lp_mmshare_version>
53161

> <i_f3d_flags>
0

> <r_lp_tautomer_probability>
0.999999999997686

> <s_lp_Force_Field>
OPLS_2005

> <r_lp_Energy>
45.674552

> <b_lp_Chiralities_Consistent>
1

> <s_lp_Variant>
CHEMBL3045_lig227-1

> <s_i_glide_gridfile>
glide-grid_2i0e

> <i_i_glide_lignum>
385

> <i_i_glide_rotatable_bonds>
7

> <r_i_docking_score>
-8.4075690312417

> <r_i_glide_ligand_efficiency>
-0.262736532226303

> <r_i_glide_ligand_efficiency_sa>
-0.834136494329389

> <r_i_glide_ligand_efficiency_ln>
-1.88268388777104

> <r_i_glide_gscore>
-8.4075690312417

> <r_i_glide_lipo>
-2.48545903818321

> <r_i_glide_hbond>
-0.586544414952928

> <r_i_glide_metal>
0

> <r_i_glide_rewards>
-2.43207826308487

> <r_i_glide_evdw>
-51.2218704223633

> <r_i_glide_ecoul>
-5.31149339675903

> <r_i_glide_erotb>
0.454330215611318

> <r_i_glide_esite>
0

> <r_i_glide_emodel>
-84.2013216240515

> <r_i_glide_energy>
-56.5333638191223

> <r_i_glide_einternal>
4.20532560348511

> <i_i_glide_confnum>
15

> <i_i_glide_posenum>
113

> <r_i_glide_eff_state_penalty>
0

> <s_user_duplicate_titles>
CHEMBL3045_lig227,308852

> <s_m_subgroup_title>
dock_pv

> <s_m_subgroupid>
dock_pv

> <b_m_subgroup_collapsed>
1

$$$$
CHEMBL3045_lig389
                    3D
 Schrodinger Suite 2021-1.
 23 25  0  0  1  0            999 V2000
   37.3779   56.6353   38.5545 C   0  0  0  0  0  0
   38.5414   56.5878   39.2155 N   0  0  0  0  0  0
   39.6983   56.4640   38.5326 C   0  0  0  0  0  0
   39.3446   56.4099   36.8269 S   0  0  0  0  0  0
   37.5971   56.4795   37.1293 C   0  0  0  0  0  0
   36.5418   56.4068   36.2761 C   0  0  0  0  0  0
   33.9029   56.6236   31.6369 S   0  0  0  0  0  0
   34.9013   55.9721   30.3645 C   0  0  0  0  0  0
   36.0940   55.5720   30.7018 N   0  0  0  0  0  0
   36.3119   55.7443   32.0334 C   0  0  0  0  0  0
   35.2328   56.3199   32.7525 C   0  0  0  0  0  0
   35.3235   56.5497   34.1337 C   0  0  0  0  0  0
   36.5000   56.1873   34.8063 C   0  0  0  0  0  0
   37.5573   55.6117   34.0854 C   0  0  0  0  0  0
   37.4857   55.3907   32.7080 C   0  0  0  0  0  0
   41.2270   56.3719   39.1601 S   0  0  0  0  0  0
   36.3006   56.7720   39.1283 O   0  0  0  0  0  0
   38.5407   56.6063   40.2277 H   0  0  0  0  0  0
   35.5552   56.4903   36.7168 H   0  0  0  0  0  0
   34.5173   55.8930   29.3551 H   0  0  0  0  0  0
   34.4905   56.9847   34.6681 H   0  0  0  0  0  0
   38.4549   55.2908   34.5876 H   0  0  0  0  0  0
   38.3104   54.9381   32.1766 H   0  0  0  0  0  0
  1  2  1  0  0  0
  1  5  1  0  0  0
  1 17  2  0  0  0
  2  3  1  0  0  0
  2 18  1  0  0  0
  3  4  1  0  0  0
  3 16  2  0  0  0
  4  5  1  0  0  0
  5  6  2  0  0  0
  6 13  1  0  0  0
  6 19  1  0  0  0
  7  8  1  0  0  0
  7 11  1  0  0  0
  8  9  2  0  0  0
  8 20  1  0  0  0
  9 10  1  0  0  0
 10 11  1  0  0  0
 10 15  2  0  0  0
 11 12  2  0  0  0
 12 13  1  0  0  0
 12 21  1  0  0  0
 13 14  2  0  0  0
 14 15  1  0  0  0
 14 22  1  0  0  0
 15 23  1  0  0  0
M  END
> <s_m_entry_id>
3364

> <s_m_entry_name>
dock_pv.93

> <s_m_Source_Path>
/home/csk/Desktop/cluster/DUD-E-result/kpcb

> <s_m_Source_File>
dock_pv.maegz

> <i_m_Source_File_Index>
93

> <chembl_id>
CHEMBL3775393

> <chembl_pref_name>
None

> <i_lp_mmshare_version>
53161

> <i_f3d_flags>
0

> <r_lp_tautomer_probability>
1

> <s_lp_Force_Field>
OPLS_2005

> <r_lp_Energy>
9.700921

> <b_lp_Chiralities_Consistent>
1

> <s_lp_Variant>
CHEMBL3045_lig389-1

> <s_i_glide_gridfile>
glide-grid_2i0e

> <i_i_glide_lignum>
554

> <i_i_glide_rotatable_bonds>
1

> <r_i_docking_score>
-8.40103779281457

> <r_i_glide_ligand_efficiency>
-0.494178693694975

> <r_i_glide_ligand_efficiency_sa>
-1.2706725763934

> <r_i_glide_ligand_efficiency_ln>
-2.1916436782318

> <r_i_glide_gscore>
-8.40103779281457

> <r_i_glide_lipo>
-2.09855586904212

> <r_i_glide_hbond>
-0.597517387429647

> <r_i_glide_metal>
0

> <r_i_glide_rewards>
-3.05982434144992

> <r_i_glide_evdw>
-33.8147239685059

> <r_i_glide_ecoul>
-6.36269330978394

> <r_i_glide_erotb>
0

> <r_i_glide_esite>
0

> <r_i_glide_emodel>
-59.5572767908026

> <r_i_glide_energy>
-40.1774172782898

> <r_i_glide_einternal>
1.41196548938751

> <i_i_glide_confnum>
1

> <i_i_glide_posenum>
193

> <r_i_glide_eff_state_penalty>
0

> <s_user_duplicate_titles>
CHEMBL3045_lig389

> <s_m_subgroup_title>
dock_pv

> <s_m_subgroupid>
dock_pv

> <b_m_subgroup_collapsed>
1

$$$$
CHEMBL3045_lig252
                    3D
 Schrodinger Suite 2021-1.
 66 72  0  0  1  0            999 V2000
   36.1302   56.4782   35.8872 C   0  0  0  0  0  0
   37.0637   56.6540   36.8422 C   0  0  0  0  0  0
   36.1954   56.5339   34.4316 C   0  0  0  0  0  0
   38.5089   56.9110   36.6824 C   0  0  0  0  0  0
   34.8662   56.2356   36.5121 C   0  0  0  0  0  0
   36.3670   56.6530   38.1042 C   0  0  0  0  0  0
   40.4330   57.4263   35.5645 N   0  0  0  0  0  0
   35.1009   56.3647   37.8139 N   0  0  0  0  0  0
   36.9819   55.8018   33.5681 N   0  0  0  0  0  0
   39.0702   57.3372   35.4982 C   0  0  0  0  0  0
   39.6260   56.7891   37.5991 C   0  0  0  0  0  0
   43.7344   55.1575   34.8313 C   0  0  0  0  0  0
   43.1860   56.3375   35.2170 N   0  0  0  0  0  0
   40.8196   57.0804   36.8515 C   0  0  0  0  0  0
   42.1087   56.9402   37.3940 C   0  0  0  0  0  0
   35.6703   57.2113   32.3240 N   0  0  0  0  0  0
   35.4348   57.3645   33.6033 C   0  0  0  0  0  0
   36.6363   56.2644   32.2844 C   0  0  0  0  0  0
   43.2034   54.0106   35.3405 N   0  0  0  0  0  0
   43.3699   56.9295   36.5482 C   0  0  0  0  0  0
   41.2818   57.9288   34.4803 C   0  0  0  0  0  0
   37.9200   54.8146   33.7499 C   0  0  0  0  0  0
   39.7734   56.4286   38.9504 C   0  0  0  0  0  0
   42.1691   56.6385   38.7570 C   0  0  0  0  0  0
   33.7856   55.9786   35.9896 O   0  0  0  0  0  0
   36.7682   56.8899   39.2359 O   0  0  0  0  0  0
   42.5867   57.1626   34.1546 C   0  0  0  0  0  0
   44.5594   55.1376   33.9152 O   0  0  0  0  0  0
   37.2899   55.7215   31.1774 C   0  0  0  0  0  0
   41.0372   56.3896   39.5263 C   0  0  0  0  0  0
   38.5790   54.2913   32.6356 C   0  0  0  0  0  0
   38.2945   54.7730   31.3591 C   0  0  0  0  0  0
   42.9946   52.8482   34.4610 C   0  0  0  0  0  0
   42.6608   53.8302   36.6981 C   0  0  0  0  0  0
   41.1732   56.0229   40.9928 C   0  0  0  0  0  0
   41.1231   53.6683   36.5864 C   0  0  0  0  0  0
   41.4641   52.7710   34.2475 C   0  0  0  0  0  0
   40.7215   52.5727   35.5899 C   0  0  0  0  0  0
   34.3664   56.3100   38.5052 H   0  0  0  0  0  0
   38.5988   57.5709   34.5595 H   0  0  0  0  0  0
   34.7053   58.0859   33.9459 H   0  0  0  0  0  0
   43.6432   57.9702   36.4125 H   0  0  0  0  0  0
   44.2311   56.4981   37.0618 H   0  0  0  0  0  0
   41.4998   58.9679   34.6956 H   0  0  0  0  0  0
   40.6801   57.9542   33.5710 H   0  0  0  0  0  0
   38.1061   54.4951   34.7643 H   0  0  0  0  0  0
   38.9299   56.1580   39.5624 H   0  0  0  0  0  0
   43.1395   56.5259   39.2189 H   0  0  0  0  0  0
   43.3305   57.9221   33.9085 H   0  0  0  0  0  0
   42.4199   56.5761   33.2482 H   0  0  0  0  0  0
   36.9735   56.0073   30.1972 H   0  0  0  0  0  0
   39.2978   53.4939   32.7456 H   0  0  0  0  0  0
   38.7882   54.3593   30.4833 H   0  0  0  0  0  0
   43.5844   52.8795   33.5437 H   0  0  0  0  0  0
   43.3469   51.9585   34.9847 H   0  0  0  0  0  0
   43.1001   52.8980   37.0450 H   0  0  0  0  0  0
   43.0275   54.5418   37.4331 H   0  0  0  0  0  0
   40.9553   54.9644   41.1378 H   0  0  0  0  0  0
   40.4603   56.5937   41.5885 H   0  0  0  0  0  0
   42.1706   56.2389   41.3831 H   0  0  0  0  0  0
   40.6976   53.4623   37.5725 H   0  0  0  0  0  0
   40.6706   54.5978   36.2557 H   0  0  0  0  0  0
   41.1444   53.6948   33.7719 H   0  0  0  0  0  0
   41.1968   51.9760   33.5481 H   0  0  0  0  0  0
   39.6413   52.5776   35.4401 H   0  0  0  0  0  0
   40.9695   51.6020   36.0228 H   0  0  0  0  0  0
  1  2  2  0  0  0
  1  3  1  0  0  0
  1  5  1  0  0  0
  2  4  1  0  0  0
  2  6  1  0  0  0
  3  9  1  0  0  0
  3 17  2  0  0  0
  4 10  2  0  0  0
  4 11  1  0  0  0
  5  8  1  0  0  0
  5 25  2  0  0  0
  6 26  2  0  0  0
  6  8  1  0  0  0
  7 10  1  0  0  0
  7 21  1  0  0  0
  7 14  1  0  0  0
  8 39  1  0  0  0
  9 18  1  0  0  0
  9 22  1  0  0  0
 10 40  1  0  0  0
 11 14  1  0  0  0
 11 23  2  0  0  0
 12 13  1  0  0  0
 12 19  1  0  0  0
 12 28  2  0  0  0
 13 20  1  0  0  0
 13 27  1  0  0  0
 14 15  2  0  0  0
 15 20  1  0  0  0
 15 24  1  0  0  0
 16 17  1  0  0  0
 16 18  2  0  0  0
 17 41  1  0  0  0
 18 29  1  0  0  0
 19 33  1  0  0  0
 19 34  1  0  0  0
 20 42  1  0  0  0
 20 43  1  0  0  0
 21 27  1  0  0  0
 21 44  1  0  0  0
 21 45  1  0  0  0
 22 31  2  0  0  0
 22 46  1  0  0  0
 23 30  1  0  0  0
 23 47  1  0  0  0
 24 30  2  0  0  0
 24 48  1  0  0  0
 27 49  1  0  0  0
 27 50  1  0  0  0
 29 32  2  0  0  0
 29 51  1  0  0  0
 30 35  1  0  0  0
 31 32  1  0  0  0
 31 52  1  0  0  0
 32 53  1  0  0  0
 33 37  1  0  0  0
 33 54  1  0  0  0
 33 55  1  0  0  0
 34 36  1  0  0  0
 34 56  1  0  0  0
 34 57  1  0  0  0
 35 58  1  0  0  0
 35 59  1  0  0  0
 35 60  1  0  0  0
 36 38  1  0  0  0
 36 61  1  0  0  0
 36 62  1  0  0  0
 37 38  1  0  0  0
 37 63  1  0  0  0
 37 64  1  0  0  0
 38 65  1  0  0  0
 38 66  1  0  0  0
M  END
> <s_m_entry_id>
3365

> <s_m_entry_name>
dock_pv.94

> <s_m_Source_Path>
/home/csk/Desktop/cluster/DUD-E-result/kpcb

> <s_m_Source_File>
dock_pv.maegz

> <i_m_Source_File_Index>
94

> <chembl_id>
CHEMBL186290

> <chembl_pref_name>
None

> <i_lp_mmshare_version>
53161

> <i_f3d_flags>
0

> <r_lp_tautomer_probability>
1

> <s_lp_Force_Field>
OPLS_2005

> <r_lp_Energy>
99.482598

> <b_lp_Chiralities_Consistent>
1

> <s_lp_Variant>
CHEMBL3045_lig252-1

> <s_i_glide_gridfile>
glide-grid_2i0e

> <i_i_glide_lignum>
410

> <i_i_glide_rotatable_bonds>
4

> <r_i_docking_score>
-8.39516539129454

> <r_i_glide_ligand_efficiency>
-0.220925405034067

> <r_i_glide_ligand_efficiency_sa>
-0.742745777561032

> <r_i_glide_ligand_efficiency_ln>
-1.81024461910802

> <r_i_glide_gscore>
-8.39516539129454

> <r_i_glide_lipo>
-2.35318154137782

> <r_i_glide_hbond>
-0.538271103689174

> <r_i_glide_metal>
0

> <r_i_glide_rewards>
-2.31308349053074

> <r_i_glide_evdw>
-51.4969253540039

> <r_i_glide_ecoul>
-5.25110387802124

> <r_i_glide_erotb>
0.221646684415428

> <r_i_glide_esite>
-0.0497640907088572

> <r_i_glide_emodel>
-75.3936365892561

> <r_i_glide_energy>
-56.7480292320251

> <r_i_glide_einternal>
18.3962669372559

> <i_i_glide_confnum>
54

> <i_i_glide_posenum>
17

> <r_i_glide_eff_state_penalty>
0

> <s_user_duplicate_titles>
CHEMBL3045_lig252,311711

> <s_m_subgroup_title>
dock_pv

> <s_m_subgroupid>
dock_pv

> <b_m_subgroup_collapsed>
1

$$$$
CHEMBL3045_lig234
                    3D
 Schrodinger Suite 2021-1.
 39 42  0  0  1  0            999 V2000
   37.2890   56.5439   36.7933 C   0  0  0  0  0  0
   38.5805   56.6284   36.3980 C   0  0  0  0  0  0
   36.0449   56.2598   36.0231 C   0  0  0  0  0  0
   37.2563   56.7725   38.2207 C   0  0  0  0  0  0
   39.3755   56.9173   37.5687 C   0  0  0  0  0  0
   38.5196   56.9716   38.5857 N   0  0  0  0  0  0
   34.8463   55.8415   36.5948 C   0  0  0  0  0  0
   39.1948   56.4514   35.1608 N   0  0  0  0  0  0
   35.7681   56.3047   34.5955 C   0  0  0  0  0  0
   33.9131   55.5595   35.6371 N   0  0  0  0  0  0
   34.4501   55.7775   34.3921 C   0  0  0  0  0  0
   36.3009   56.7936   38.9935 O   0  0  0  0  0  0
   40.5907   57.0855   37.6633 O   0  0  0  0  0  0
   39.2334   55.2186   34.4474 C   0  0  0  0  0  0
   39.9811   57.5434   34.5676 C   0  0  0  0  0  0
   36.4721   56.7190   33.4519 C   0  0  0  0  0  0
   33.9010   55.5720   33.1208 C   0  0  0  0  0  0
   39.0493   54.0045   35.1290 C   0  0  0  0  0  0
   39.4532   55.1735   33.0574 C   0  0  0  0  0  0
   35.9213   56.5391   32.1846 C   0  0  0  0  0  0
   34.6675   55.9622   32.0252 C   0  0  0  0  0  0
   39.1014   52.7881   34.4515 C   0  0  0  0  0  0
   39.4814   53.9605   32.3748 C   0  0  0  0  0  0
   39.3073   52.7731   33.0752 C   0  0  0  0  0  0
   38.7996   57.1416   39.5389 H   0  0  0  0  0  0
   34.5787   55.6768   37.6298 H   0  0  0  0  0  0
   32.9980   55.1862   35.8708 H   0  0  0  0  0  0
   40.9799   57.2001   34.2927 H   0  0  0  0  0  0
   39.5014   57.9496   33.6789 H   0  0  0  0  0  0
   40.1091   58.3730   35.2631 H   0  0  0  0  0  0
   37.4396   57.1720   33.5389 H   0  0  0  0  0  0
   32.9162   55.1527   32.9841 H   0  0  0  0  0  0
   38.8868   53.9929   36.1967 H   0  0  0  0  0  0
   39.5903   56.0753   32.4807 H   0  0  0  0  0  0
   36.4802   56.8443   31.3108 H   0  0  0  0  0  0
   34.2722   55.8315   31.0274 H   0  0  0  0  0  0
   38.9786   51.8594   34.9901 H   0  0  0  0  0  0
   39.6415   53.9373   31.3059 H   0  0  0  0  0  0
   39.3409   51.8362   32.5387 H   0  0  0  0  0  0
  1  2  2  0  0  0
  1  3  1  0  0  0
  1  4  1  0  0  0
  2  5  1  0  0  0
  2  8  1  0  0  0
  3  7  2  0  0  0
  3  9  1  0  0  0
  4  6  1  0  0  0
  4 12  2  0  0  0
  5 13  2  0  0  0
  5  6  1  0  0  0
  6 25  1  0  0  0
  7 10  1  0  0  0
  7 26  1  0  0  0
  8 14  1  0  0  0
  8 15  1  0  0  0
  9 11  2  0  0  0
  9 16  1  0  0  0
 10 11  1  0  0  0
 10 27  1  0  0  0
 11 17  1  0  0  0
 14 18  2  0  0  0
 14 19  1  0  0  0
 15 28  1  0  0  0
 15 29  1  0  0  0
 15 30  1  0  0  0
 16 20  2  0  0  0
 16 31  1  0  0  0
 17 21  2  0  0  0
 17 32  1  0  0  0
 18 22  1  0  0  0
 18 33  1  0  0  0
 19 23  2  0  0  0
 19 34  1  0  0  0
 20 21  1  0  0  0
 20 35  1  0  0  0
 21 36  1  0  0  0
 22 24  2  0  0  0
 22 37  1  0  0  0
 23 24  1  0  0  0
 23 38  1  0  0  0
 24 39  1  0  0  0
M  END
> <s_m_entry_id>
3366

> <s_m_entry_name>
dock_pv.95

> <s_m_Source_Path>
/home/csk/Desktop/cluster/DUD-E-result/kpcb

> <s_m_Source_File>
dock_pv.maegz

> <i_m_Source_File_Index>
95

> <chembl_id>
CHEMBL187024

> <chembl_pref_name>
None

> <i_lp_mmshare_version>
53161

> <i_f3d_flags>
0

> <r_lp_tautomer_probability>
1

> <s_lp_Force_Field>
OPLS_2005

> <r_lp_Energy>
29.519708

> <b_lp_Chiralities_Consistent>
1

> <s_lp_Variant>
CHEMBL3045_lig234-1

> <s_i_glide_gridfile>
glide-grid_2i0e

> <i_i_glide_lignum>
392

> <i_i_glide_rotatable_bonds>
3

> <r_i_docking_score>
-8.39450904920436

> <r_i_glide_ligand_efficiency>
-0.349771210383515

> <r_i_glide_ligand_efficiency_sa>
-1.00891475469426

> <r_i_glide_ligand_efficiency_ln>
-2.00919121439497

> <r_i_glide_gscore>
-8.39450904920436

> <r_i_glide_lipo>
-2.85239737818853

> <r_i_glide_hbond>
-0.608

> <r_i_glide_metal>
0

> <r_i_glide_rewards>
-2.42282526906811

> <r_i_glide_evdw>
-41.5666542053223

> <r_i_glide_ecoul>
-6.58615684509277

> <r_i_glide_erotb>
0.554969835082314

> <r_i_glide_esite>
0

> <r_i_glide_emodel>
-71.4237778488667

> <r_i_glide_energy>
-48.152811050415

> <r_i_glide_einternal>
3.45022082328796

> <i_i_glide_confnum>
12

> <i_i_glide_posenum>
31

> <r_i_glide_eff_state_penalty>
0

> <s_user_duplicate_titles>
CHEMBL3045_lig234,309044

> <s_m_subgroup_title>
dock_pv

> <s_m_subgroupid>
dock_pv

> <b_m_subgroup_collapsed>
1

$$$$
CHEMBL3045_lig345
                    3D
 Schrodinger Suite 2021-1.
 55 60  0  0  1  0            999 V2000
   34.9276   56.3730   37.5008 N   0  0  0  0  0  0
   36.1137   56.7260   38.0072 C   0  0  0  0  0  0
   37.0617   56.4832   36.9517 C   0  0  0  0  0  0
   36.3758   56.0036   35.8963 C   0  0  0  0  0  0
   34.9849   55.9465   36.2380 C   0  0  0  0  0  0
   36.3017   57.1615   39.1402 O   0  0  0  0  0  0
   34.0301   55.6086   35.5432 O   0  0  0  0  0  0
   38.1689   54.3321   32.4424 N   0  0  0  0  0  0
   38.4727   54.0013   33.7255 C   0  0  0  0  0  0
   37.8472   54.5028   34.8203 N   0  0  0  0  0  0
   36.9098   55.4612   34.6245 C   0  0  0  0  0  0
   36.5069   55.8846   33.3220 C   0  0  0  0  0  0
   35.5268   56.8729   33.0332 C   0  0  0  0  0  0
   35.2030   57.1714   31.7113 C   0  0  0  0  0  0
   35.8423   56.5200   30.6607 C   0  0  0  0  0  0
   36.8315   55.5739   30.9082 C   0  0  0  0  0  0
   37.1842   55.2491   32.2367 C   0  0  0  0  0  0
   39.4482   53.0239   33.9287 N   0  0  0  0  0  0
   40.5259   52.7672   32.9483 C   0  0  0  0  0  0
   41.8317   53.5298   33.3023 C   0  0  0  0  0  0
   42.2829   53.1682   34.6477 N   0  0  0  0  0  0
   41.2377   53.4502   35.6281 C   0  0  0  0  0  0
   39.9605   52.6581   35.2651 C   0  0  0  0  0  0
   43.5636   53.7639   34.9997 C   0  0  0  0  0  0
   40.5636   56.7022   38.0620 N   0  0  0  0  0  0
   39.2180   56.5811   38.2976 C   0  0  0  0  0  0
   38.5116   56.7098   37.1101 C   0  0  0  0  0  0
   39.5040   57.0126   36.0989 C   0  0  0  0  0  0
   39.4640   57.3243   34.7282 C   0  0  0  0  0  0
   40.6489   57.3920   34.0003 C   0  0  0  0  0  0
   41.8795   57.2075   34.6185 C   0  0  0  0  0  0
   41.9844   57.0323   35.9997 C   0  0  0  0  0  0
   40.7884   56.9251   36.7217 C   0  0  0  0  0  0
   43.3017   57.1718   33.6423 Cl  0  0  0  0  0  0
   34.0613   56.4656   38.0159 H   0  0  0  0  0  0
   35.0213   57.3895   33.8348 H   0  0  0  0  0  0
   34.4454   57.9114   31.4987 H   0  0  0  0  0  0
   35.5737   56.7552   29.6421 H   0  0  0  0  0  0
   37.3381   55.0852   30.0872 H   0  0  0  0  0  0
   40.7192   51.6947   32.8989 H   0  0  0  0  0  0
   40.2230   53.0421   31.9378 H   0  0  0  0  0  0
   42.6061   53.2653   32.5810 H   0  0  0  0  0  0
   41.6767   54.6062   33.2231 H   0  0  0  0  0  0
   41.0166   54.5146   35.6545 H   0  0  0  0  0  0
   41.5769   53.1621   36.6234 H   0  0  0  0  0  0
   39.2043   52.8140   36.0343 H   0  0  0  0  0  0
   40.1727   51.5875   35.2809 H   0  0  0  0  0  0
   43.9042   53.3854   35.9656 H   0  0  0  0  0  0
   44.3228   53.5001   34.2598 H   0  0  0  0  0  0
   43.5041   54.8481   35.0627 H   0  0  0  0  0  0
   41.2553   56.5862   38.7888 H   0  0  0  0  0  0
   38.8712   56.3498   39.2975 H   0  0  0  0  0  0
   38.5247   57.4613   34.2204 H   0  0  0  0  0  0
   40.6098   57.5563   32.9323 H   0  0  0  0  0  0
   42.9505   56.9233   36.4695 H   0  0  0  0  0  0
  1  2  1  0  0  0
  1  5  1  0  0  0
  1 35  1  0  0  0
  2  3  1  0  0  0
  2  6  2  0  0  0
  3  4  2  0  0  0
  3 27  1  0  0  0
  4  5  1  0  0  0
  4 11  1  0  0  0
  5  7  2  0  0  0
  8  9  1  0  0  0
  8 17  2  0  0  0
  9 10  2  0  0  0
  9 18  1  0  0  0
 10 11  1  0  0  0
 11 12  2  0  0  0
 12 13  1  0  0  0
 12 17  1  0  0  0
 13 14  2  0  0  0
 13 36  1  0  0  0
 14 15  1  0  0  0
 14 37  1  0  0  0
 15 16  2  0  0  0
 15 38  1  0  0  0
 16 17  1  0  0  0
 16 39  1  0  0  0
 18 19  1  0  0  0
 18 23  1  0  0  0
 19 20  1  0  0  0
 19 40  1  0  0  0
 19 41  1  0  0  0
 20 21  1  0  0  0
 20 42  1  0  0  0
 20 43  1  0  0  0
 21 22  1  0  0  0
 21 24  1  0  0  0
 22 23  1  0  0  0
 22 44  1  0  0  0
 22 45  1  0  0  0
 23 46  1  0  0  0
 23 47  1  0  0  0
 24 48  1  0  0  0
 24 49  1  0  0  0
 24 50  1  0  0  0
 25 26  1  0  0  0
 25 33  1  0  0  0
 25 51  1  0  0  0
 26 27  2  0  0  0
 26 52  1  0  0  0
 27 28  1  0  0  0
 28 29  1  0  0  0
 28 33  2  0  0  0
 29 30  2  0  0  0
 29 53  1  0  0  0
 30 31  1  0  0  0
 30 54  1  0  0  0
 31 32  2  0  0  0
 31 34  1  0  0  0
 32 33  1  0  0  0
 32 55  1  0  0  0
M  END
> <s_m_entry_id>
3367

> <s_m_entry_name>
dock_pv.96

> <s_m_Source_Path>
/home/csk/Desktop/cluster/DUD-E-result/kpcb

> <s_m_Source_File>
dock_pv.maegz

> <i_m_Source_File_Index>
96

> <chembl_id>
CHEMBL2151409

> <chembl_pref_name>
None

> <i_lp_mmshare_version>
53161

> <i_f3d_flags>
0

> <r_lp_tautomer_probability>
1

> <s_lp_Force_Field>
OPLS_2005

> <r_lp_Energy>
41.744691

> <b_lp_Chiralities_Consistent>
1

> <s_lp_Variant>
CHEMBL3045_lig345-1

> <s_i_glide_gridfile>
glide-grid_2i0e

> <i_i_glide_lignum>
509

> <i_i_glide_rotatable_bonds>
3

> <r_i_docking_score>
-8.38647182233386

> <r_i_glide_ligand_efficiency>
-0.246660935950996

> <r_i_glide_ligand_efficiency_sa>
-0.799085678081708

> <r_i_glide_ligand_efficiency_ln>
-1.85280685812031

> <r_i_glide_gscore>
-8.38647182233386

> <r_i_glide_lipo>
-2.65173553411144

> <r_i_glide_hbond>
-0.608

> <r_i_glide_metal>
0

> <r_i_glide_rewards>
-2.0340797605089

> <r_i_glide_evdw>
-52.80419921875

> <r_i_glide_ecoul>
-4.28036165237427

> <r_i_glide_erotb>
0.189886354741247

> <r_i_glide_esite>
-0.000278673661128956

> <r_i_glide_emodel>
-83.6900713561272

> <r_i_glide_energy>
-57.0845608711243

> <r_i_glide_einternal>
2.24116992950439

> <i_i_glide_confnum>
5

> <i_i_glide_posenum>
381

> <r_i_glide_eff_state_penalty>
0

> <s_user_duplicate_titles>
CHEMBL3045_lig345

> <s_m_subgroup_title>
dock_pv

> <s_m_subgroupid>
dock_pv

> <b_m_subgroup_collapsed>
1

$$$$
CHEMBL3045_lig388
                    3D
 Schrodinger Suite 2021-1.
 26 28  0  0  1  0            999 V2000
   38.7032   56.1740   36.3626 S   0  0  0  0  0  0
   39.4515   56.4369   37.9147 C   0  0  0  0  0  0
   38.4900   56.6936   38.8275 N   0  0  0  0  0  0
   37.2108   56.7531   38.4442 C   0  0  0  0  0  0
   37.0894   56.4854   37.0297 C   0  0  0  0  0  0
   36.3013   57.0009   39.2272 O   0  0  0  0  0  0
   41.0852   56.3655   38.1713 S   0  0  0  0  0  0
   35.8722   56.4608   36.4315 C   0  0  0  0  0  0
   34.6039   55.3375   31.0642 O   0  0  0  0  0  0
   35.6891   55.8951   30.3211 C   0  0  0  0  0  0
   36.7526   56.3604   31.3270 C   0  0  0  0  0  0
   36.0331   56.2316   32.6321 C   0  0  0  0  0  0
   34.8195   55.6227   32.3856 C   0  0  0  0  0  0
   36.4015   56.5307   33.9462 C   0  0  0  0  0  0
   35.5386   56.2061   35.0102 C   0  0  0  0  0  0
   34.3056   55.5945   34.7229 C   0  0  0  0  0  0
   33.9383   55.2988   33.4070 C   0  0  0  0  0  0
   38.7232   56.8208   39.8015 H   0  0  0  0  0  0
   35.0029   56.6643   37.0464 H   0  0  0  0  0  0
   36.0889   55.1860   29.5933 H   0  0  0  0  0  0
   35.3117   56.7608   29.7766 H   0  0  0  0  0  0
   37.0866   57.3715   31.0929 H   0  0  0  0  0  0
   37.6171   55.6966   31.2760 H   0  0  0  0  0  0
   37.3512   57.0089   34.1312 H   0  0  0  0  0  0
   33.6266   55.3262   35.5216 H   0  0  0  0  0  0
   32.9977   54.8149   33.1970 H   0  0  0  0  0  0
  1  2  1  0  0  0
  1  5  1  0  0  0
  2  3  1  0  0  0
  2  7  2  0  0  0
  3  4  1  0  0  0
  3 18  1  0  0  0
  4  5  1  0  0  0
  4  6  2  0  0  0
  5  8  2  0  0  0
  8 15  1  0  0  0
  8 19  1  0  0  0
  9 10  1  0  0  0
  9 13  1  0  0  0
 10 11  1  0  0  0
 10 20  1  0  0  0
 10 21  1  0  0  0
 11 12  1  0  0  0
 11 22  1  0  0  0
 11 23  1  0  0  0
 12 13  1  0  0  0
 12 14  2  0  0  0
 13 17  2  0  0  0
 14 15  1  0  0  0
 14 24  1  0  0  0
 15 16  2  0  0  0
 16 17  1  0  0  0
 16 25  1  0  0  0
 17 26  1  0  0  0
M  END
> <s_m_entry_id>
3368

> <s_m_entry_name>
dock_pv.97

> <s_m_Source_Path>
/home/csk/Desktop/cluster/DUD-E-result/kpcb

> <s_m_Source_File>
dock_pv.maegz

> <i_m_Source_File_Index>
97

> <chembl_id>
CHEMBL3774830

> <chembl_pref_name>
None

> <i_lp_mmshare_version>
53161

> <i_f3d_flags>
0

> <r_lp_tautomer_probability>
1

> <s_lp_Force_Field>
OPLS_2005

> <r_lp_Energy>
22.46721

> <b_lp_Chiralities_Consistent>
1

> <s_lp_Variant>
CHEMBL3045_lig388-1

> <s_i_glide_gridfile>
glide-grid_2i0e

> <i_i_glide_lignum>
553

> <i_i_glide_rotatable_bonds>
1

> <r_i_docking_score>
-8.38527595743496

> <r_i_glide_ligand_efficiency>
-0.493251526907939

> <r_i_glide_ligand_efficiency_sa>
-1.26828856950467

> <r_i_glide_ligand_efficiency_ln>
-2.18753176638007

> <r_i_glide_gscore>
-8.38527595743496

> <r_i_glide_lipo>
-2.50681404889934

> <r_i_glide_hbond>
-0.32

> <r_i_glide_metal>
0

> <r_i_glide_rewards>
-3.11787443561997

> <r_i_glide_evdw>
-32.8587341308594

> <r_i_glide_ecoul>
-5.31767177581787

> <r_i_glide_erotb>
0

> <r_i_glide_esite>
0

> <r_i_glide_emodel>
-57.0084256447058

> <r_i_glide_energy>
-38.1764059066772

> <r_i_glide_einternal>
0.558056116104126

> <i_i_glide_confnum>
1

> <i_i_glide_posenum>
1

> <r_i_glide_eff_state_penalty>
0

> <s_user_duplicate_titles>
CHEMBL3045_lig388

> <s_m_subgroup_title>
dock_pv

> <s_m_subgroupid>
dock_pv

> <b_m_subgroup_collapsed>
1

$$$$
CHEMBL3045_lig331
                    3D
 Schrodinger Suite 2021-1.
 44 46  0  0  1  0            999 V2000
   38.8354   52.6569   34.0007 C   0  0  0  0  0  0
   40.2411   53.2663   33.8434 C   0  0  0  0  0  0
   40.9016   52.7560   32.5478 C   0  0  0  0  0  0
   36.4595   56.9118   38.8369 N   0  0  0  0  0  0
   37.7913   56.6739   38.7886 C   0  0  0  0  0  0
   38.4642   56.2911   37.6286 C   0  0  0  0  0  0
   35.7604   56.7716   37.6891 C   0  0  0  0  0  0
   36.3220   56.3967   36.4491 C   0  0  0  0  0  0
   37.7233   56.1346   36.4189 C   0  0  0  0  0  0
   38.2714   55.7205   35.1728 C   0  0  0  0  0  0
   37.5117   55.5954   34.0545 N   0  0  0  0  0  0
   36.1804   55.8554   34.0733 C   0  0  0  0  0  0
   35.5603   56.2696   35.2623 C   0  0  0  0  0  0
   35.4114   55.6895   32.7773 C   0  0  0  0  0  0
   34.0046   55.5860   32.8340 C   0  0  0  0  0  0
   33.2472   55.5429   31.6657 C   0  0  0  0  0  0
   33.8003   55.5631   30.4374 N   0  0  0  0  0  0
   35.1483   55.5747   30.3606 C   0  0  0  0  0  0
   35.9910   55.6384   31.4760 C   0  0  0  0  0  0
   39.6454   55.4178   35.0802 N   0  0  0  0  0  0
   40.2399   54.8204   33.8781 C   0  0  0  0  0  0
   41.0404   52.7724   34.9484 N   0  0  0  0  0  0
   37.4894   55.6407   31.1906 C   0  0  0  0  0  0
   38.1723   52.9693   33.1945 H   0  0  0  0  0  0
   38.3746   52.9389   34.9474 H   0  0  0  0  0  0
   38.8637   51.5720   33.9973 H   0  0  0  0  0  0
   40.3590   53.0985   31.6656 H   0  0  0  0  0  0
   41.9335   53.0967   32.4539 H   0  0  0  0  0  0
   40.9279   51.6647   32.5015 H   0  0  0  0  0  0
   38.3275   56.7776   39.7216 H   0  0  0  0  0  0
   39.5267   56.1000   37.6545 H   0  0  0  0  0  0
   34.7015   56.9682   37.7564 H   0  0  0  0  0  0
   34.5093   56.5035   35.3109 H   0  0  0  0  0  0
   33.4694   55.5638   33.7702 H   0  0  0  0  0  0
   32.1692   55.5033   31.6979 H   0  0  0  0  0  0
   35.5498   55.5335   29.3578 H   0  0  0  0  0  0
   40.0963   55.1365   35.9399 H   0  0  0  0  0  0
   41.2619   55.1932   33.8054 H   0  0  0  0  0  0
   39.7507   55.2070   32.9854 H   0  0  0  0  0  0
   41.1212   51.7608   34.8416 H   0  0  0  0  0  0
   41.9852   53.1094   34.8457 H   0  0  0  0  0  0
   37.7144   55.5728   30.1258 H   0  0  0  0  0  0
   37.9634   56.5413   31.5828 H   0  0  0  0  0  0
   37.9604   54.7729   31.6539 H   0  0  0  0  0  0
  1  2  1  0  0  0
  1 24  1  0  0  0
  1 25  1  0  0  0
  1 26  1  0  0  0
  2  3  1  0  0  0
  2 21  1  0  0  0
  2 22  1  0  0  0
  3 27  1  0  0  0
  3 28  1  0  0  0
  3 29  1  0  0  0
  4  7  1  0  0  0
  4  5  2  0  0  0
  5  6  1  0  0  0
  5 30  1  0  0  0
  6  9  2  0  0  0
  6 31  1  0  0  0
  7  8  2  0  0  0
  7 32  1  0  0  0
  8 13  1  0  0  0
  8  9  1  0  0  0
  9 10  1  0  0  0
 10 20  1  0  0  0
 10 11  2  0  0  0
 11 12  1  0  0  0
 12 13  2  0  0  0
 12 14  1  0  0  0
 13 33  1  0  0  0
 14 15  2  0  0  0
 14 19  1  0  0  0
 15 16  1  0  0  0
 15 34  1  0  0  0
 16 17  2  0  0  0
 16 35  1  0  0  0
 17 18  1  0  0  0
 18 19  2  0  0  0
 18 36  1  0  0  0
 19 23  1  0  0  0
 20 21  1  0  0  0
 20 37  1  0  0  0
 21 38  1  0  0  0
 21 39  1  0  0  0
 22 40  1  0  0  0
 22 41  1  0  0  0
 23 42  1  0  0  0
 23 43  1  0  0  0
 23 44  1  0  0  0
M  END
> <s_m_entry_id>
3369

> <s_m_entry_name>
dock_pv.98

> <s_m_Source_Path>
/home/csk/Desktop/cluster/DUD-E-result/kpcb

> <s_m_Source_File>
dock_pv.maegz

> <i_m_Source_File_Index>
98

> <chembl_id>
CHEMBL2147552

> <chembl_pref_name>
None

> <i_lp_mmshare_version>
53161

> <i_f3d_flags>
0

> <r_lp_tautomer_probability>
1

> <s_lp_Force_Field>
OPLS_2005

> <r_lp_Energy>
18.252466

> <b_lp_Chiralities_Consistent>
1

> <s_lp_Variant>
CHEMBL3045_lig331-1

> <s_i_glide_gridfile>
glide-grid_2i0e

> <i_i_glide_lignum>
495

> <i_i_glide_rotatable_bonds>
4

> <r_i_docking_score>
-8.38311257323344

> <r_i_glide_ligand_efficiency>
-0.364483155357975

> <r_i_glide_ligand_efficiency_sa>
-1.0365416091513

> <r_i_glide_ligand_efficiency_ln>
-2.02711263407001

> <r_i_glide_gscore>
-8.38311257323344

> <r_i_glide_lipo>
-3.18021396556975

> <r_i_glide_hbond>
-0.578826918390139

> <r_i_glide_metal>
0

> <r_i_glide_rewards>
-2.27738108716734

> <r_i_glide_evdw>
-37.8507919311523

> <r_i_glide_ecoul>
-6.94048500061035

> <r_i_glide_erotb>
0.586921744542953

> <r_i_glide_esite>
0

> <r_i_glide_emodel>
-65.9318362270922

> <r_i_glide_energy>
-44.7912769317627

> <r_i_glide_einternal>
3.14973092079163

> <i_i_glide_confnum>
3

> <i_i_glide_posenum>
359

> <r_i_glide_eff_state_penalty>
0

> <s_user_duplicate_titles>
CHEMBL3045_lig331

> <s_m_subgroup_title>
dock_pv

> <s_m_subgroupid>
dock_pv

> <b_m_subgroup_collapsed>
1

$$$$
CHEMBL3045_lig706
                    3D
 Schrodinger Suite 2021-1.
 60 63  0  0  1  0            999 V2000
   40.9392   56.5502   32.6452 C   0  0  0  0  0  0
   40.4514   55.3228   31.8390 C   0  0  2  0  0  0
   38.9112   55.3473   31.6509 C   0  0  0  0  0  0
   38.2879   55.0116   32.9501 N   0  0  0  0  0  0
   38.6698   53.6947   33.5199 C   0  0  1  0  0  0
   38.1729   52.4981   32.6870 C   0  0  0  0  0  0
   40.2192   53.6884   33.6322 C   0  0  0  0  0  0
   40.8519   54.0006   32.3450 N   0  0  2  0  0  0
   42.2981   53.8010   32.3984 C   0  0  0  0  0  0
   37.1096   55.5966   33.2920 C   0  0  0  0  0  0
   36.2803   55.9011   32.4298 O   0  0  0  0  0  0
   36.8991   55.8573   34.6196 N   0  0  0  0  0  0
   38.0059   56.0083   35.6001 C   0  0  0  0  0  0
   37.3099   56.3458   36.8819 C   0  0  0  0  0  0
   37.4786   56.5225   38.2721 C   0  0  0  0  0  0
   38.6003   56.3720   39.0685 N   0  0  0  0  0  0
   39.8843   56.3995   38.6487 C   0  0  0  0  0  0
   40.2398   56.6428   37.4928 O   0  0  0  0  0  0
   40.9133   56.1149   39.7151 C   0  0  0  0  0  0
   40.7648   56.5766   41.0325 C   0  0  0  0  0  0
   41.7490   56.2668   41.9734 C   0  0  0  0  0  0
   42.8588   55.5088   41.5858 C   0  0  0  0  0  0
   42.9409   55.0828   40.2561 C   0  0  0  0  0  0
   41.9932   55.3783   39.3310 N   0  0  0  0  0  0
   43.9023   55.1724   42.5424 C   0  0  0  0  0  0
   44.7317   54.9034   43.3038 N   0  0  0  0  0  0
   36.3147   56.7745   38.8369 N   0  0  0  0  0  0
   35.4167   56.7712   37.8442 N   0  0  0  0  0  0
   35.9891   56.4986   36.6370 C   0  0  0  0  0  0
   35.5960   56.3026   35.1992 C   0  0  0  0  0  0
   34.5033   55.2165   35.1049 C   0  0  0  0  0  0
   35.0991   57.6418   34.6083 C   0  0  0  0  0  0
   40.5976   57.4740   32.1802 H   0  0  0  0  0  0
   40.5610   56.5499   33.6669 H   0  0  0  0  0  0
   42.0271   56.5942   32.6932 H   0  0  0  0  0  0
   40.8795   55.4014   30.8381 H   0  0  0  0  0  0
   38.6403   54.5553   30.9512 H   0  0  0  0  0  0
   38.5707   56.2994   31.2409 H   0  0  0  0  0  0
   38.2396   53.5537   34.5105 H   0  0  0  0  0  0
   38.3024   51.5723   33.2380 H   0  0  0  0  0  0
   37.1194   52.5967   32.4372 H   0  0  0  0  0  0
   38.7220   52.3815   31.7508 H   0  0  0  0  0  0
   40.5625   52.7204   34.0032 H   0  0  0  0  0  0
   40.5384   54.4222   34.3726 H   0  0  0  0  0  0
   42.5251   52.7723   32.6776 H   0  0  0  0  0  0
   42.7525   53.9830   31.4233 H   0  0  0  0  0  0
   42.7749   54.4547   33.1289 H   0  0  0  0  0  0
   38.6776   56.8071   35.2848 H   0  0  0  0  0  0
   38.6043   55.1070   35.7156 H   0  0  0  0  0  0
   38.4314   56.3016   40.0652 H   0  0  0  0  0  0
   39.9146   57.1706   41.3301 H   0  0  0  0  0  0
   41.6421   56.6194   42.9901 H   0  0  0  0  0  0
   43.7721   54.4894   39.8983 H   0  0  0  0  0  0
   34.4277   56.9248   38.0063 H   0  0  0  0  0  0
   33.5673   55.5539   35.5530 H   0  0  0  0  0  0
   34.2854   54.9480   34.0702 H   0  0  0  0  0  0
   34.8006   54.3116   35.6355 H   0  0  0  0  0  0
   34.3013   58.0705   35.2140 H   0  0  0  0  0  0
   35.9010   58.3730   34.5567 H   0  0  0  0  0  0
   34.7013   57.5225   33.6003 H   0  0  0  0  0  0
  1  2  1  0  0  0
  1 33  1  0  0  0
  1 34  1  0  0  0
  1 35  1  0  0  0
  2  3  1  0  0  0
  2  8  1  0  0  0
  2 36  1  0  0  0
  3  4  1  0  0  0
  3 37  1  0  0  0
  3 38  1  0  0  0
  4  5  1  0  0  0
  4 10  1  0  0  0
  5  6  1  0  0  0
  5  7  1  0  0  0
  5 39  1  0  0  0
  6 40  1  0  0  0
  6 41  1  0  0  0
  6 42  1  0  0  0
  7  8  1  0  0  0
  7 43  1  0  0  0
  7 44  1  0  0  0
  8  9  1  0  0  0
  9 45  1  0  0  0
  9 46  1  0  0  0
  9 47  1  0  0  0
 10 11  2  0  0  0
 10 12  1  0  0  0
 12 13  1  0  0  0
 12 30  1  0  0  0
 13 14  1  0  0  0
 13 48  1  0  0  0
 13 49  1  0  0  0
 14 15  1  0  0  0
 14 29  2  0  0  0
 15 16  1  0  0  0
 15 27  2  0  0  0
 16 17  1  0  0  0
 16 50  1  0  0  0
 17 18  2  0  0  0
 17 19  1  0  0  0
 19 20  2  0  0  0
 19 24  1  0  0  0
 20 21  1  0  0  0
 20 51  1  0  0  0
 21 22  2  0  0  0
 21 52  1  0  0  0
 22 23  1  0  0  0
 22 25  1  0  0  0
 23 24  2  0  0  0
 23 53  1  0  0  0
 25 26  3  0  0  0
 27 28  1  0  0  0
 28 29  1  0  0  0
 28 54  1  0  0  0
 29 30  1  0  0  0
 30 31  1  0  0  0
 30 32  1  0  0  0
 31 55  1  0  0  0
 31 56  1  0  0  0
 31 57  1  0  0  0
 32 58  1  0  0  0
 32 59  1  0  0  0
 32 60  1  0  0  0
M  END
> <s_m_entry_id>
3370

> <s_m_entry_name>
dock_pv.99

> <s_m_Source_Path>
/home/csk/Desktop/cluster/DUD-E-result/kpcb

> <s_m_Source_File>
dock_pv.maegz

> <i_m_Source_File_Index>
99

> <chembl_id>
CHEMBL3667493

> <chembl_pref_name>
None

> <i_lp_mmshare_version>
53161

> <i_f3d_flags>
0

> <r_lp_tautomer_probability>
0.5

> <s_lp_Force_Field>
OPLS_2005

> <r_lp_Energy>
96.197525

> <b_lp_Chiralities_Consistent>
1

> <s_lp_Variant>
CHEMBL3045_lig706-1

> <s_i_glide_gridfile>
glide-grid_2i0e

> <i_i_glide_lignum>
1186

> <i_i_glide_rotatable_bonds>
5

> <r_i_docking_score>
-8.3742586158349

> <r_i_glide_ligand_efficiency>
-0.261695581744841

> <r_i_glide_ligand_efficiency_sa>
-0.830831682554566

> <r_i_glide_ligand_efficiency_ln>
-1.87522477775383

> <r_i_glide_gscore>
-8.3742586158349

> <r_i_glide_lipo>
-2.46336305078514

> <r_i_glide_hbond>
-0.864

> <r_i_glide_metal>
0

> <r_i_glide_rewards>
-2.17261342095358

> <r_i_glide_evdw>
-46.840145111084

> <r_i_glide_ecoul>
-5.98951530456543

> <r_i_glide_erotb>
0.36615240714283

> <r_i_glide_esite>
0

> <r_i_glide_emodel>
-74.3015986265076

> <r_i_glide_energy>
-52.8296604156494

> <r_i_glide_einternal>
6.34458589553833

> <i_i_glide_confnum>
13

> <i_i_glide_posenum>
297

> <r_i_glide_eff_state_penalty>
0

> <s_user_duplicate_titles>
CHEMBL3045_lig706

> <s_m_subgroup_title>
dock_pv

> <s_m_subgroupid>
dock_pv

> <b_m_subgroup_collapsed>
1

$$$$
CHEMBL3045_lig652
                    3D
 Schrodinger Suite 2021-1.
 75 78  0  0  1  0            999 V2000
   44.3646   52.5764   29.2170 C   0  0  0  0  0  0
   43.0971   52.6422   28.5727 O   0  0  0  0  0  0
   42.0353   51.9746   29.2477 C   0  0  0  0  0  0
   41.1463   52.9154   30.0620 C   0  0  0  0  0  0
   41.7788   53.3693   31.3971 C   0  0  0  0  0  0
   40.9580   54.2435   32.2385 N   0  0  1  0  0  0
   40.3734   55.3727   31.5092 C   0  0  0  0  0  0
   39.8301   56.4680   32.4450 C   0  0  2  0  0  0
   40.9326   57.2880   33.1526 C   0  0  0  0  0  0
   38.9385   55.7995   33.4022 N   0  0  0  0  0  0
   39.4897   54.6413   34.1497 C   0  0  0  0  0  0
   40.0018   53.5845   33.1395 C   0  0  1  0  0  0
   38.8087   52.8585   32.4943 C   0  0  0  0  0  0
   37.6365   56.1666   33.4912 C   0  0  0  0  0  0
   36.9536   56.3715   32.4851 O   0  0  0  0  0  0
   37.1531   56.3481   34.7504 N   0  0  0  0  0  0
   38.0563   56.7050   35.8697 C   0  0  0  0  0  0
   37.1417   56.7772   37.0265 C   0  0  0  0  0  0
   37.1113   56.8237   38.4210 C   0  0  0  0  0  0
   38.1493   56.7794   39.3257 N   0  0  0  0  0  0
   39.4356   57.1204   39.1056 C   0  0  0  0  0  0
   39.8769   57.5719   38.0504 O   0  0  0  0  0  0
   40.3916   56.9275   40.2916 C   0  0  0  0  0  0
   41.2726   55.7068   40.1107 C   0  0  0  0  0  0
   41.1281   54.4566   40.6870 C   0  0  0  0  0  0
   40.1129   53.8420   41.6146 C   0  0  0  0  0  0
   42.1397   53.6521   40.2923 O   0  0  0  0  0  0
   42.9574   54.3721   39.4279 N   0  0  0  0  0  0
   42.4283   55.5684   39.3257 C   0  0  0  0  0  0
   43.0941   56.5889   38.4315 C   0  0  0  0  0  0
   35.8654   56.7720   38.8350 N   0  0  0  0  0  0
   35.1027   56.7335   37.7284 N   0  0  0  0  0  0
   35.8595   56.7103   36.5945 C   0  0  0  0  0  0
   35.7212   56.5628   35.1063 C   0  0  0  0  0  0
   34.8344   55.3416   34.7892 C   0  0  0  0  0  0
   35.1457   57.8539   34.4734 C   0  0  0  0  0  0
   45.1035   53.0823   28.5958 H   0  0  0  0  0  0
   44.3653   53.0655   30.1893 H   0  0  0  0  0  0
   44.6947   51.5446   29.3478 H   0  0  0  0  0  0
   42.3860   51.1519   29.8667 H   0  0  0  0  0  0
   41.4104   51.5440   28.4656 H   0  0  0  0  0  0
   40.2080   52.3960   30.2271 H   0  0  0  0  0  0
   40.9152   53.7683   29.4301 H   0  0  0  0  0  0
   42.6841   53.9304   31.1755 H   0  0  0  0  0  0
   42.1204   52.5066   31.9692 H   0  0  0  0  0  0
   41.1010   55.8044   30.8372 H   0  0  0  0  0  0
   39.5636   55.0082   30.8775 H   0  0  0  0  0  0
   39.2798   57.1721   31.8218 H   0  0  0  0  0  0
   41.5780   57.7957   32.4365 H   0  0  0  0  0  0
   40.5023   58.0556   33.7984 H   0  0  0  0  0  0
   41.5897   56.6565   33.7502 H   0  0  0  0  0  0
   40.3392   55.0172   34.7218 H   0  0  0  0  0  0
   38.7785   54.1987   34.8515 H   0  0  0  0  0  0
   40.5719   52.8508   33.7118 H   0  0  0  0  0  0
   38.0757   52.5467   33.2369 H   0  0  0  0  0  0
   38.3009   53.4959   31.7780 H   0  0  0  0  0  0
   39.1214   51.9589   31.9806 H   0  0  0  0  0  0
   38.5520   57.6575   35.6762 H   0  0  0  0  0  0
   38.8271   55.9637   36.0657 H   0  0  0  0  0  0
   37.9041   56.5160   40.2739 H   0  0  0  0  0  0
   39.8327   56.8556   41.2223 H   0  0  0  0  0  0
   40.9904   57.8329   40.4046 H   0  0  0  0  0  0
   39.1007   53.9715   41.2369 H   0  0  0  0  0  0
   40.1483   54.2963   42.6038 H   0  0  0  0  0  0
   40.2617   52.7677   41.7261 H   0  0  0  0  0  0
   42.7297   57.6007   38.6128 H   0  0  0  0  0  0
   44.1772   56.6108   38.5699 H   0  0  0  0  0  0
   42.9097   56.3687   37.3804 H   0  0  0  0  0  0
   34.0907   56.7063   37.7739 H   0  0  0  0  0  0
   33.8118   55.4961   35.1379 H   0  0  0  0  0  0
   34.7787   55.1590   33.7162 H   0  0  0  0  0  0
   35.2106   54.4366   35.2690 H   0  0  0  0  0  0
   34.3009   58.2287   35.0392 H   0  0  0  0  0  0
   35.8835   58.6526   34.4380 H   0  0  0  0  0  0
   34.8094   57.6910   33.4510 H   0  0  0  0  0  0
  1  2  1  0  0  0
  1 37  1  0  0  0
  1 38  1  0  0  0
  1 39  1  0  0  0
  2  3  1  0  0  0
  3  4  1  0  0  0
  3 40  1  0  0  0
  3 41  1  0  0  0
  4  5  1  0  0  0
  4 42  1  0  0  0
  4 43  1  0  0  0
  5  6  1  0  0  0
  5 44  1  0  0  0
  5 45  1  0  0  0
  6  7  1  0  0  0
  6 12  1  0  0  0
  7  8  1  0  0  0
  7 46  1  0  0  0
  7 47  1  0  0  0
  8  9  1  0  0  0
  8 10  1  0  0  0
  8 48  1  0  0  0
  9 49  1  0  0  0
  9 50  1  0  0  0
  9 51  1  0  0  0
 10 11  1  0  0  0
 10 14  1  0  0  0
 11 12  1  0  0  0
 11 52  1  0  0  0
 11 53  1  0  0  0
 12 13  1  0  0  0
 12 54  1  0  0  0
 13 55  1  0  0  0
 13 56  1  0  0  0
 13 57  1  0  0  0
 14 15  2  0  0  0
 14 16  1  0  0  0
 16 17  1  0  0  0
 16 34  1  0  0  0
 17 18  1  0  0  0
 17 58  1  0  0  0
 17 59  1  0  0  0
 18 19  1  0  0  0
 18 33  2  0  0  0
 19 20  1  0  0  0
 19 31  2  0  0  0
 20 21  1  0  0  0
 20 60  1  0  0  0
 21 22  2  0  0  0
 21 23  1  0  0  0
 23 24  1  0  0  0
 23 61  1  0  0  0
 23 62  1  0  0  0
 24 25  2  0  0  0
 24 29  1  0  0  0
 25 26  1  0  0  0
 25 27  1  0  0  0
 26 63  1  0  0  0
 26 64  1  0  0  0
 26 65  1  0  0  0
 27 28  1  0  0  0
 28 29  2  0  0  0
 29 30  1  0  0  0
 30 66  1  0  0  0
 30 67  1  0  0  0
 30 68  1  0  0  0
 31 32  1  0  0  0
 32 33  1  0  0  0
 32 69  1  0  0  0
 33 34  1  0  0  0
 34 35  1  0  0  0
 34 36  1  0  0  0
 35 70  1  0  0  0
 35 71  1  0  0  0
 35 72  1  0  0  0
 36 73  1  0  0  0
 36 74  1  0  0  0
 36 75  1  0  0  0
M  END
> <s_m_entry_id>
3371

> <s_m_entry_name>
dock_pv.100

> <s_m_Source_Path>
/home/csk/Desktop/cluster/DUD-E-result/kpcb

> <s_m_Source_File>
dock_pv.maegz

> <i_m_Source_File_Index>
100

> <chembl_id>
CHEMBL3662899

> <chembl_pref_name>
None

> <i_lp_mmshare_version>
53161

> <i_f3d_flags>
0

> <r_lp_tautomer_probability>
0.5

> <s_lp_Force_Field>
OPLS_2005

> <r_lp_Energy>
96.967806

> <b_lp_Chiralities_Consistent>
1

> <s_lp_Variant>
CHEMBL3045_lig652-1

> <s_i_glide_gridfile>
glide-grid_2i0e

> <i_i_glide_lignum>
1074

> <i_i_glide_rotatable_bonds>
10

> <r_i_docking_score>
-8.37076068057965

> <r_i_glide_ligand_efficiency>
-0.232521130016101

> <r_i_glide_ligand_efficiency_sa>
-0.767767854226832

> <r_i_glide_ligand_efficiency_ln>
-1.82627382868395

> <r_i_glide_gscore>
-8.37076068057965

> <r_i_glide_lipo>
-2.73859345486864

> <r_i_glide_hbond>
-0.785233798287896

> <r_i_glide_metal>
0

> <r_i_glide_rewards>
-1.5201185917714

> <r_i_glide_evdw>
-49.1203384399414

> <r_i_glide_ecoul>
-8.82831764221191

> <r_i_glide_erotb>
0.511454364644942

> <r_i_glide_esite>
-0.0580046319677963

> <r_i_glide_emodel>
-76.536360839407

> <r_i_glide_energy>
-57.9486560821533

> <r_i_glide_einternal>
19.8542137145996

> <i_i_glide_confnum>
15

> <i_i_glide_posenum>
382

> <r_i_glide_eff_state_penalty>
0

> <s_user_duplicate_titles>
CHEMBL3045_lig652

> <s_m_subgroup_title>
dock_pv

> <s_m_subgroupid>
dock_pv

> <b_m_subgroup_collapsed>
1

$$$$
CHEMBL3045_lig481
                    3D
 Schrodinger Suite 2021-1.
 58 62  0  0  1  0            999 V2000
   34.4426   55.2729   35.0840 C   0  0  0  0  0  0
   35.5619   56.3352   35.1663 C   0  0  0  0  0  0
   35.1091   57.6430   34.4800 C   0  0  0  0  0  0
   36.8977   55.8785   34.6646 N   0  0  0  0  0  0
   37.9349   56.0116   35.7131 C   0  0  0  0  0  0
   37.1867   56.3708   36.9399 C   0  0  0  0  0  0
   37.3160   56.5538   38.3258 C   0  0  0  0  0  0
   38.4329   56.3826   39.1384 N   0  0  0  0  0  0
   39.7154   56.5109   38.7281 C   0  0  0  0  0  0
   40.0586   56.9268   37.6196 O   0  0  0  0  0  0
   40.7714   56.0973   39.7220 C   0  0  0  0  0  0
   40.7010   56.4715   41.0716 C   0  0  0  0  0  0
   41.6810   56.0511   41.9686 C   0  0  0  0  0  0
   42.7390   55.2651   41.5180 C   0  0  0  0  0  0
   42.8300   54.8994   40.1778 C   0  0  0  0  0  0
   41.8522   55.3205   39.2814 C   0  0  0  0  0  0
   36.1240   56.7738   38.8373 N   0  0  0  0  0  0
   35.2607   56.7719   37.8105 N   0  0  0  0  0  0
   35.8862   56.5504   36.6212 C   0  0  0  0  0  0
   37.1258   55.2949   33.4457 C   0  0  0  0  0  0
   36.2213   55.1704   32.6158 O   0  0  0  0  0  0
   38.3470   54.7338   33.2193 N   0  0  0  0  0  0
   38.3904   53.3067   32.8253 C   0  0  0  0  0  0
   39.5018   53.0571   31.7753 C   0  0  0  0  0  0
   40.7548   53.6683   32.1971 N   0  0  1  0  0  0
   41.9290   53.5273   31.3565 C   0  0  0  0  0  0
   42.9230   54.5362   31.9332 C   0  0  0  0  0  0
   42.0412   55.6147   32.5763 C   0  0  0  0  0  0
   40.6142   55.1041   32.3438 C   0  0  2  0  0  0
   39.6225   55.4487   33.4678 C   0  0  0  0  0  0
   33.5257   55.6199   35.5650 H   0  0  0  0  0  0
   34.1780   55.0253   34.0568 H   0  0  0  0  0  0
   34.7357   54.3560   35.5902 H   0  0  0  0  0  0
   34.3007   58.1211   35.0265 H   0  0  0  0  0  0
   35.9150   58.3705   34.4306 H   0  0  0  0  0  0
   34.7699   57.4629   33.4589 H   0  0  0  0  0  0
   38.6449   56.7969   35.4530 H   0  0  0  0  0  0
   38.4794   55.0779   35.8585 H   0  0  0  0  0  0
   38.2693   56.2432   40.1293 H   0  0  0  0  0  0
   39.8923   57.0849   41.4376 H   0  0  0  0  0  0
   41.6230   56.3367   43.0092 H   0  0  0  0  0  0
   43.5019   54.9422   42.2120 H   0  0  0  0  0  0
   43.6510   54.2899   39.8265 H   0  0  0  0  0  0
   41.9343   55.0228   38.2440 H   0  0  0  0  0  0
   34.2615   56.9058   37.9399 H   0  0  0  0  0  0
   38.6493   52.7229   33.7094 H   0  0  0  0  0  0
   37.4408   52.9384   32.4368 H   0  0  0  0  0  0
   39.6507   51.9847   31.6438 H   0  0  0  0  0  0
   39.2142   53.4924   30.8154 H   0  0  0  0  0  0
   42.2948   52.5012   31.4216 H   0  0  0  0  0  0
   41.6994   53.6863   30.3009 H   0  0  0  0  0  0
   43.5688   54.0529   32.6689 H   0  0  0  0  0  0
   43.5685   54.9398   31.1540 H   0  0  0  0  0  0
   42.2002   56.5478   32.0387 H   0  0  0  0  0  0
   42.2798   55.7667   33.6296 H   0  0  0  0  0  0
   40.2217   55.5648   31.4327 H   0  0  0  0  0  0
   39.5197   56.5310   33.5318 H   0  0  0  0  0  0
   40.0473   55.0586   34.3935 H   0  0  0  0  0  0
  1  2  1  0  0  0
  1 31  1  0  0  0
  1 32  1  0  0  0
  1 33  1  0  0  0
  2  3  1  0  0  0
  2  4  1  0  0  0
  2 19  1  0  0  0
  3 34  1  0  0  0
  3 35  1  0  0  0
  3 36  1  0  0  0
  4  5  1  0  0  0
  4 20  1  0  0  0
  5  6  1  0  0  0
  5 37  1  0  0  0
  5 38  1  0  0  0
  6  7  1  0  0  0
  6 19  2  0  0  0
  7  8  1  0  0  0
  7 17  2  0  0  0
  8  9  1  0  0  0
  8 39  1  0  0  0
  9 10  2  0  0  0
  9 11  1  0  0  0
 11 12  2  0  0  0
 11 16  1  0  0  0
 12 13  1  0  0  0
 12 40  1  0  0  0
 13 14  2  0  0  0
 13 41  1  0  0  0
 14 15  1  0  0  0
 14 42  1  0  0  0
 15 16  2  0  0  0
 15 43  1  0  0  0
 16 44  1  0  0  0
 17 18  1  0  0  0
 18 19  1  0  0  0
 18 45  1  0  0  0
 20 21  2  0  0  0
 20 22  1  0  0  0
 22 23  1  0  0  0
 22 30  1  0  0  0
 23 24  1  0  0  0
 23 46  1  0  0  0
 23 47  1  0  0  0
 24 25  1  0  0  0
 24 48  1  0  0  0
 24 49  1  0  0  0
 25 26  1  0  0  0
 25 29  1  0  0  0
 26 27  1  0  0  0
 26 50  1  0  0  0
 26 51  1  0  0  0
 27 28  1  0  0  0
 27 52  1  0  0  0
 27 53  1  0  0  0
 28 29  1  0  0  0
 28 54  1  0  0  0
 28 55  1  0  0  0
 29 30  1  0  0  0
 29 56  1  0  0  0
 30 57  1  0  0  0
 30 58  1  0  0  0
M  END
> <s_m_entry_id>
3372

> <s_m_entry_name>
dock_pv.101

> <s_m_Source_Path>
/home/csk/Desktop/cluster/DUD-E-result/kpcb

> <s_m_Source_File>
dock_pv.maegz

> <i_m_Source_File_Index>
101

> <chembl_id>
CHEMBL3662731

> <chembl_pref_name>
None

> <i_lp_mmshare_version>
53161

> <i_f3d_flags>
0

> <r_lp_tautomer_probability>
0.5

> <s_lp_Force_Field>
OPLS_2005

> <r_lp_Energy>
116.440508

> <b_lp_Chiralities_Consistent>
1

> <s_lp_Variant>
CHEMBL3045_lig481-2

> <s_i_glide_gridfile>
glide-grid_2i0e

> <i_i_glide_lignum>
683

> <i_i_glide_rotatable_bonds>
5

> <r_i_docking_score>
-8.34996259546086

> <r_i_glide_ligand_efficiency>
-0.278332086515362

> <r_i_glide_ligand_efficiency_sa>
-0.864842505689994

> <r_i_glide_ligand_efficiency_ln>
-1.89720248181812

> <r_i_glide_gscore>
-8.34996259546086

> <r_i_glide_lipo>
-2.28934709244101

> <r_i_glide_hbond>
-0.864

> <r_i_glide_metal>
0

> <r_i_glide_rewards>
-2.20915858506326

> <r_i_glide_evdw>
-46.3501319885254

> <r_i_glide_ecoul>
-7.2184476852417

> <r_i_glide_erotb>
0.412816834255936

> <r_i_glide_esite>
0

> <r_i_glide_emodel>
-70.6086900410593

> <r_i_glide_energy>
-53.5685796737671

> <r_i_glide_einternal>
17.1083946228027

> <i_i_glide_confnum>
24

> <i_i_glide_posenum>
398

> <r_i_glide_eff_state_penalty>
0

> <s_user_duplicate_titles>
CHEMBL3045_lig481

> <s_m_subgroup_title>
dock_pv

> <s_m_subgroupid>
dock_pv

> <b_m_subgroup_collapsed>
1

$$$$
CHEMBL3045_lig241
                    3D
 Schrodinger Suite 2021-1.
 39 42  0  0  1  0            999 V2000
   36.4630   55.9643   35.8982 C   0  0  0  0  0  0
   37.2293   56.2238   36.9755 C   0  0  0  0  0  0
   36.8750   55.5712   34.5469 C   0  0  0  0  0  0
   35.0791   56.0762   36.2750 C   0  0  0  0  0  0
   35.1010   56.3884   37.5710 N   0  0  0  0  0  0
   36.3363   56.4932   38.0703 C   0  0  0  0  0  0
   37.8808   54.6673   34.2427 C   0  0  0  0  0  0
   43.4552   56.2100   36.2991 C   0  0  0  0  0  0
   36.3463   56.0241   33.2804 C   0  0  0  0  0  0
   38.0038   54.5457   32.8815 N   0  0  0  0  0  0
   38.6008   56.2406   37.1875 N   0  0  0  0  0  0
   42.0424   56.6098   35.8758 C   0  0  0  0  0  0
   37.0868   55.3600   32.2527 C   0  0  0  0  0  0
   34.0666   55.9204   35.5959 O   0  0  0  0  0  0
   36.6113   56.7725   39.2369 O   0  0  0  0  0  0
   39.6478   56.6115   36.3264 C   0  0  0  0  0  0
   40.9530   56.2635   36.6861 C   0  0  0  0  0  0
   44.3480   56.3978   35.3244 F   0  0  0  0  0  0
   43.4834   54.9222   36.6461 F   0  0  0  0  0  0
   43.8202   56.9468   37.3488 F   0  0  0  0  0  0
   35.3398   56.9283   32.8976 C   0  0  0  0  0  0
   41.8104   57.3159   34.6880 C   0  0  0  0  0  0
   40.5150   57.6795   34.3267 C   0  0  0  0  0  0
   39.4430   57.3385   35.1487 C   0  0  0  0  0  0
   36.8356   55.5717   30.8927 C   0  0  0  0  0  0
   35.0705   57.1165   31.5441 C   0  0  0  0  0  0
   35.8008   56.4470   30.5689 C   0  0  0  0  0  0
   34.2582   56.5452   38.1098 H   0  0  0  0  0  0
   38.5304   54.0973   34.8935 H   0  0  0  0  0  0
   38.6823   53.9357   32.4463 H   0  0  0  0  0  0
   38.9222   56.0258   38.1215 H   0  0  0  0  0  0
   41.1282   55.7126   37.5997 H   0  0  0  0  0  0
   34.7664   57.4619   33.6398 H   0  0  0  0  0  0
   42.6351   57.5944   34.0459 H   0  0  0  0  0  0
   40.3358   58.2253   33.4114 H   0  0  0  0  0  0
   38.4468   57.6291   34.8579 H   0  0  0  0  0  0
   37.3995   55.0668   30.1215 H   0  0  0  0  0  0
   34.2798   57.7898   31.2463 H   0  0  0  0  0  0
   35.5592   56.6059   29.5295 H   0  0  0  0  0  0
  1  2  2  0  0  0
  1  3  1  0  0  0
  1  4  1  0  0  0
  2  6  1  0  0  0
  2 11  1  0  0  0
  3  7  2  0  0  0
  3  9  1  0  0  0
  4  5  1  0  0  0
  4 14  2  0  0  0
  5  6  1  0  0  0
  5 28  1  0  0  0
  6 15  2  0  0  0
  7 10  1  0  0  0
  7 29  1  0  0  0
  8 12  1  0  0  0
  8 18  1  0  0  0
  8 19  1  0  0  0
  8 20  1  0  0  0
  9 13  2  0  0  0
  9 21  1  0  0  0
 10 13  1  0  0  0
 10 30  1  0  0  0
 11 16  1  0  0  0
 11 31  1  0  0  0
 12 17  1  0  0  0
 12 22  2  0  0  0
 13 25  1  0  0  0
 16 17  2  0  0  0
 16 24  1  0  0  0
 17 32  1  0  0  0
 21 26  2  0  0  0
 21 33  1  0  0  0
 22 23  1  0  0  0
 22 34  1  0  0  0
 23 24  2  0  0  0
 23 35  1  0  0  0
 24 36  1  0  0  0
 25 27  2  0  0  0
 25 37  1  0  0  0
 26 27  1  0  0  0
 26 38  1  0  0  0
 27 39  1  0  0  0
M  END
> <s_m_entry_id>
3373

> <s_m_entry_name>
dock_pv.102

> <s_m_Source_Path>
/home/csk/Desktop/cluster/DUD-E-result/kpcb

> <s_m_Source_File>
dock_pv.maegz

> <i_m_Source_File_Index>
102

> <chembl_id>
CHEMBL424809

> <chembl_pref_name>
None

> <i_lp_mmshare_version>
53161

> <i_f3d_flags>
0

> <r_lp_tautomer_probability>
0.999999999997686

> <s_lp_Force_Field>
OPLS_2005

> <r_lp_Energy>
29.008184

> <b_lp_Chiralities_Consistent>
1

> <s_lp_Variant>
CHEMBL3045_lig241-1

> <s_i_glide_gridfile>
glide-grid_2i0e

> <i_i_glide_lignum>
399

> <i_i_glide_rotatable_bonds>
4

> <r_i_docking_score>
-8.33211268000566

> <r_i_glide_ligand_efficiency>
-0.308596765926136

> <r_i_glide_ligand_efficiency_sa>
-0.925790296761323

> <r_i_glide_ligand_efficiency_ln>
-1.93957846629208

> <r_i_glide_gscore>
-8.33211268000566

> <r_i_glide_lipo>
-2.48167198741585

> <r_i_glide_hbond>
-0.608

> <r_i_glide_metal>
0

> <r_i_glide_rewards>
-2.64309084229136

> <r_i_glide_evdw>
-42.1130867004395

> <r_i_glide_ecoul>
-5.03305244445801

> <r_i_glide_erotb>
0.293992638571476

> <r_i_glide_esite>
-0.0327302871792492

> <r_i_glide_emodel>
-70.9648514795827

> <r_i_glide_energy>
-47.1461391448975

> <r_i_glide_einternal>
2.30181670188904

> <i_i_glide_confnum>
43

> <i_i_glide_posenum>
91

> <r_i_glide_eff_state_penalty>
0

> <s_user_duplicate_titles>
CHEMBL3045_lig241

> <s_m_subgroup_title>
dock_pv

> <s_m_subgroupid>
dock_pv

> <b_m_subgroup_collapsed>
1

$$$$
CHEMBL3045_lig66
                    3D
 Schrodinger Suite 2021-1.
 65 69  0  0  1  0            999 V2000
   42.2383   55.1514   34.5097 C   0  0  0  0  0  0
   43.5662   55.5616   35.0961 C   0  0  0  0  0  0
   44.8046   54.7475   34.8096 C   0  0  0  0  0  0
   35.2581   55.4670   33.0366 C   0  0  2  0  0  0
   35.9410   56.0397   34.1989 N   0  0  0  0  0  0
   36.2756   54.8356   32.0370 C   0  0  2  0  0  0
   41.2980   56.1253   34.1110 C   0  0  0  0  0  0
   41.8833   53.7918   34.3778 C   0  0  0  0  0  0
   38.4098   53.9495   32.8623 C   0  0  0  0  0  0
   37.6572   54.9783   32.4018 O   0  0  0  0  0  0
   35.4040   56.3696   35.3800 C   0  0  0  0  0  0
   45.2413   54.4467   33.4870 C   0  0  0  0  0  0
   39.7348   54.3918   33.4078 C   0  0  0  0  0  0
   34.5053   56.4601   32.1162 C   0  0  2  0  0  0
   36.0004   55.5959   30.7211 C   0  0  1  0  0  0
   44.5459   54.9535   32.2477 C   0  0  0  0  0  0
   40.0765   55.7440   33.5563 C   0  0  0  0  0  0
   40.6568   53.4281   33.8283 C   0  0  0  0  0  0
   34.4843   55.7254   30.7777 C   0  0  0  0  0  0
   36.4049   56.6141   36.4869 C   0  0  0  0  0  0
   43.6564   56.5892   35.7727 O   0  0  0  0  0  0
   45.5312   54.2187   35.8986 C   0  0  0  0  0  0
   38.0471   52.7727   32.8370 O   0  0  0  0  0  0
   34.1916   56.3719   35.5880 O   0  0  0  0  0  0
   35.3757   57.6705   31.7697 C   0  0  0  0  0  0
   36.4427   57.0726   30.8370 C   0  0  0  0  0  0
   44.3188   56.1486   32.0675 O   0  0  0  0  0  0
   37.7213   57.0296   36.2130 C   0  0  0  0  0  0
   36.0318   56.3731   37.8150 C   0  0  0  0  0  0
   41.5335   57.4747   34.2322 O   0  0  0  0  0  0
   42.6946   52.7720   34.8020 O   0  0  0  0  0  0
   44.1736   53.9720   31.3780 O   0  0  0  0  0  0
   38.2667   56.9026   38.5535 C   0  0  0  0  0  0
   38.6475   57.1720   37.2437 C   0  0  0  0  0  0
   36.9670   56.5069   38.8370 C   0  0  0  0  0  0
   45.1272   54.3720   37.2016 O   0  0  0  0  0  0
   46.3899   53.6640   33.3059 C   0  0  0  0  0  0
   39.1681   57.0171   39.5772 O   0  0  0  0  0  0
   47.1010   53.1720   34.3937 C   0  0  0  0  0  0
   46.6662   53.4406   35.6842 C   0  0  0  0  0  0
   34.5419   54.7062   33.3451 H   0  0  0  0  0  0
   36.9432   56.1020   34.1077 H   0  0  0  0  0  0
   36.0274   53.7806   31.9373 H   0  0  0  0  0  0
   33.5037   56.7271   32.4444 H   0  0  0  0  0  0
   36.3874   55.0926   29.8341 H   0  0  0  0  0  0
   39.3944   56.5233   33.2479 H   0  0  0  0  0  0
   40.4212   52.3749   33.7409 H   0  0  0  0  0  0
   34.0633   56.3120   29.9565 H   0  0  0  0  0  0
   33.9545   54.7720   30.8166 H   0  0  0  0  0  0
   35.7917   58.1834   32.6380 H   0  0  0  0  0  0
   34.7507   58.3720   31.2320 H   0  0  0  0  0  0
   37.4547   57.1720   31.2296 H   0  0  0  0  0  0
   36.4308   57.5720   29.8702 H   0  0  0  0  0  0
   38.0494   57.2361   35.2046 H   0  0  0  0  0  0
   35.0270   56.0520   38.0573 H   0  0  0  0  0  0
   42.3667   57.6506   34.6851 H   0  0  0  0  0  0
   42.3632   51.8879   34.5922 H   0  0  0  0  0  0
   44.3010   53.0747   31.7261 H   0  0  0  0  0  0
   39.6604   57.4780   37.0250 H   0  0  0  0  0  0
   36.7010   56.2850   39.8541 H   0  0  0  0  0  0
   45.1010   53.4979   37.6370 H   0  0  0  0  0  0
   46.7434   53.4170   32.3140 H   0  0  0  0  0  0
   38.8253   56.6633   40.4060 H   0  0  0  0  0  0
   47.9701   52.5514   34.2341 H   0  0  0  0  0  0
   47.2013   53.0210   36.5235 H   0  0  0  0  0  0
  1  2  1  0  0  0
  1  7  2  0  0  0
  1  8  1  0  0  0
  2  3  1  0  0  0
  2 21  2  0  0  0
  3 12  1  0  0  0
  3 22  2  0  0  0
  4  6  1  0  0  0
  4  5  1  0  0  0
  4 14  1  0  0  0
  4 41  1  0  0  0
  5 11  1  0  0  0
  5 42  1  0  0  0
  6 10  1  0  0  0
  6 15  1  0  0  0
  6 43  1  0  0  0
  7 17  1  0  0  0
  7 30  1  0  0  0
  8 18  2  0  0  0
  8 31  1  0  0  0
  9 13  1  0  0  0
  9 10  1  0  0  0
  9 23  2  0  0  0
 11 20  1  0  0  0
 11 24  2  0  0  0
 12 16  1  0  0  0
 12 37  2  0  0  0
 13 18  1  0  0  0
 13 17  2  0  0  0
 14 19  1  0  0  0
 14 25  1  0  0  0
 14 44  1  0  0  0
 15 19  1  0  0  0
 15 26  1  0  0  0
 15 45  1  0  0  0
 16 27  2  0  0  0
 16 32  1  0  0  0
 17 46  1  0  0  0
 18 47  1  0  0  0
 19 48  1  0  0  0
 19 49  1  0  0  0
 20 28  1  0  0  0
 20 29  2  0  0  0
 22 36  1  0  0  0
 22 40  1  0  0  0
 25 26  1  0  0  0
 25 50  1  0  0  0
 25 51  1  0  0  0
 26 52  1  0  0  0
 26 53  1  0  0  0
 28 34  2  0  0  0
 28 54  1  0  0  0
 29 35  1  0  0  0
 29 55  1  0  0  0
 30 56  1  0  0  0
 31 57  1  0  0  0
 32 58  1  0  0  0
 33 35  2  0  0  0
 33 38  1  0  0  0
 33 34  1  0  0  0
 34 59  1  0  0  0
 35 60  1  0  0  0
 36 61  1  0  0  0
 37 39  1  0  0  0
 37 62  1  0  0  0
 38 63  1  0  0  0
 39 40  2  0  0  0
 39 64  1  0  0  0
 40 65  1  0  0  0
M  END
> <s_m_entry_id>
3374

> <s_m_entry_name>
dock_pv.103

> <s_m_Source_Path>
/home/csk/Desktop/cluster/DUD-E-result/kpcb

> <s_m_Source_File>
dock_pv.maegz

> <i_m_Source_File_Index>
103

> <chembl_id>
CHEMBL305667

> <chembl_pref_name>
None

> <i_lp_mmshare_version>
53161

> <i_f3d_flags>
0

> <r_lp_tautomer_probability>
0.999999999997365

> <s_lp_Force_Field>
OPLS_2005

> <r_lp_Energy>
79.551172

> <b_lp_Chiralities_Consistent>
1

> <s_lp_Variant>
CHEMBL3045_lig66-6

> <s_i_glide_gridfile>
glide-grid_2i0e

> <i_i_glide_lignum>
79

> <i_i_glide_rotatable_bonds>
14

> <r_i_docking_score>
-8.31174908163267

> <r_i_glide_ligand_efficiency>
-0.207793727040817

> <r_i_glide_ligand_efficiency_sa>
-0.710644549346373

> <r_i_glide_ligand_efficiency_ln>
-1.77265147525601

> <r_i_glide_gscore>
-8.31174908163267

> <r_i_glide_lipo>
-3.01844307290044

> <r_i_glide_hbond>
-0.64

> <r_i_glide_metal>
0

> <r_i_glide_rewards>
-0.586273771158199

> <r_i_glide_evdw>
-51.6221504211426

> <r_i_glide_ecoul>
-13.7896461486816

> <r_i_glide_erotb>
0.621971937046108

> <r_i_glide_esite>
-0.0394497312607657

> <r_i_glide_emodel>
-94.1747823241341

> <r_i_glide_energy>
-65.4117965698242

> <r_i_glide_einternal>
11.3383197784424

> <i_i_glide_confnum>
34

> <i_i_glide_posenum>
374

> <r_i_glide_eff_state_penalty>
0

> <s_user_duplicate_titles>
CHEMBL3045_lig66,112897

> <s_m_subgroup_title>
dock_pv

> <s_m_subgroupid>
dock_pv

> <b_m_subgroup_collapsed>
1

$$$$
CHEMBL3045_lig591
                    3D
 Schrodinger Suite 2021-1.
 68 71  0  0  1  0            999 V2000
   41.1009   58.3412   33.1043 C   0  0  0  0  0  0
   40.3422   57.1697   33.7423 C   0  0  0  0  0  0
   41.3237   56.3673   34.6264 C   0  0  0  0  0  0
   39.5421   56.3677   32.6616 C   0  0  1  0  0  0
   40.4219   55.6507   31.6253 C   0  0  0  0  0  0
   41.0273   54.4125   32.1108 N   0  0  2  0  0  0
   42.0546   53.9557   31.1711 C   0  0  0  0  0  0
   40.0303   53.3918   32.5031 C   0  0  0  0  0  0
   39.2217   52.8586   31.3029 C   0  0  0  0  0  0
   40.7019   52.2260   33.2373 C   0  0  0  0  0  0
   39.0139   54.0046   33.5206 C   0  0  0  0  0  0
   38.5708   55.3645   33.1403 N   0  0  0  0  0  0
   37.3182   55.7811   33.4505 C   0  0  0  0  0  0
   36.5541   56.1345   32.5503 O   0  0  0  0  0  0
   36.9662   55.8193   34.7731 N   0  0  0  0  0  0
   37.9405   55.5939   35.8660 C   0  0  0  0  0  0
   37.2557   56.1130   37.0724 C   0  0  0  0  0  0
   37.4244   56.4022   38.4327 C   0  0  0  0  0  0
   38.5334   56.2450   39.2370 N   0  0  0  0  0  0
   39.8060   56.4577   38.8445 C   0  0  0  0  0  0
   40.1405   56.8913   37.7391 O   0  0  0  0  0  0
   40.8438   56.1343   39.8833 C   0  0  0  0  0  0
   40.7074   56.5534   41.2166 C   0  0  0  0  0  0
   41.6925   56.1915   42.1385 C   0  0  0  0  0  0
   42.7839   55.4287   41.7170 C   0  0  0  0  0  0
   42.8545   55.0535   40.3736 C   0  0  0  0  0  0
   41.9097   55.3983   39.4628 N   0  0  0  0  0  0
   36.2799   56.7762   38.9481 N   0  0  0  0  0  0
   35.3987   56.7720   37.9380 N   0  0  0  0  0  0
   35.9786   56.4151   36.7590 C   0  0  0  0  0  0
   35.6372   56.2510   35.3039 C   0  0  0  0  0  0
   35.1353   57.5987   34.7331 C   0  0  0  0  0  0
   34.5609   55.1640   35.1318 C   0  0  0  0  0  0
   41.9386   57.9719   32.5159 H   0  0  0  0  0  0
   40.4685   58.9236   32.4387 H   0  0  0  0  0  0
   41.4977   59.0177   33.8609 H   0  0  0  0  0  0
   39.6060   57.6333   34.3996 H   0  0  0  0  0  0
   42.1349   55.9370   34.0379 H   0  0  0  0  0  0
   41.7844   57.0107   35.3754 H   0  0  0  0  0  0
   40.8502   55.5557   35.1699 H   0  0  0  0  0  0
   38.9949   57.1281   32.1026 H   0  0  0  0  0  0
   41.1648   56.3375   31.2428 H   0  0  0  0  0  0
   39.8094   55.4113   30.7569 H   0  0  0  0  0  0
   42.5774   53.0752   31.5418 H   0  0  0  0  0  0
   42.8106   54.7293   31.0322 H   0  0  0  0  0  0
   41.6341   53.7219   30.1928 H   0  0  0  0  0  0
   38.4926   52.1185   31.6364 H   0  0  0  0  0  0
   38.7010   53.6527   30.7759 H   0  0  0  0  0  0
   39.8577   52.3720   30.5645 H   0  0  0  0  0  0
   39.9677   51.5797   33.7234 H   0  0  0  0  0  0
   41.2765   51.5953   32.5545 H   0  0  0  0  0  0
   41.3887   52.5779   34.0082 H   0  0  0  0  0  0
   39.5726   54.1078   34.4455 H   0  0  0  0  0  0
   38.1957   53.3107   33.7181 H   0  0  0  0  0  0
   38.1631   54.5322   35.9747 H   0  0  0  0  0  0
   38.8708   56.1231   35.6950 H   0  0  0  0  0  0
   38.3595   56.1115   40.2267 H   0  0  0  0  0  0
   39.8677   57.1514   41.5411 H   0  0  0  0  0  0
   41.6108   56.5024   43.1702 H   0  0  0  0  0  0
   43.5563   55.1388   42.4137 H   0  0  0  0  0  0
   43.6820   54.4646   40.0015 H   0  0  0  0  0  0
   34.4255   57.0269   38.0640 H   0  0  0  0  0  0
   34.3008   57.9720   35.3177 H   0  0  0  0  0  0
   35.9023   58.3700   34.7474 H   0  0  0  0  0  0
   34.7818   57.5058   33.7064 H   0  0  0  0  0  0
   33.6086   55.4756   35.5621 H   0  0  0  0  0  0
   34.3826   54.9362   34.0799 H   0  0  0  0  0  0
   34.8478   54.2419   35.6360 H   0  0  0  0  0  0
  1  2  1  0  0  0
  1 34  1  0  0  0
  1 35  1  0  0  0
  1 36  1  0  0  0
  2  3  1  0  0  0
  2  4  1  0  0  0
  2 37  1  0  0  0
  3 38  1  0  0  0
  3 39  1  0  0  0
  3 40  1  0  0  0
  4  5  1  0  0  0
  4 12  1  0  0  0
  4 41  1  0  0  0
  5  6  1  0  0  0
  5 42  1  0  0  0
  5 43  1  0  0  0
  6  7  1  0  0  0
  6  8  1  0  0  0
  7 44  1  0  0  0
  7 45  1  0  0  0
  7 46  1  0  0  0
  8  9  1  0  0  0
  8 10  1  0  0  0
  8 11  1  0  0  0
  9 47  1  0  0  0
  9 48  1  0  0  0
  9 49  1  0  0  0
 10 50  1  0  0  0
 10 51  1  0  0  0
 10 52  1  0  0  0
 11 12  1  0  0  0
 11 53  1  0  0  0
 11 54  1  0  0  0
 12 13  1  0  0  0
 13 14  2  0  0  0
 13 15  1  0  0  0
 15 16  1  0  0  0
 15 31  1  0  0  0
 16 17  1  0  0  0
 16 55  1  0  0  0
 16 56  1  0  0  0
 17 18  1  0  0  0
 17 30  2  0  0  0
 18 19  1  0  0  0
 18 28  2  0  0  0
 19 20  1  0  0  0
 19 57  1  0  0  0
 20 21  2  0  0  0
 20 22  1  0  0  0
 22 23  2  0  0  0
 22 27  1  0  0  0
 23 24  1  0  0  0
 23 58  1  0  0  0
 24 25  2  0  0  0
 24 59  1  0  0  0
 25 26  1  0  0  0
 25 60  1  0  0  0
 26 27  2  0  0  0
 26 61  1  0  0  0
 28 29  1  0  0  0
 29 30  1  0  0  0
 29 62  1  0  0  0
 30 31  1  0  0  0
 31 32  1  0  0  0
 31 33  1  0  0  0
 32 63  1  0  0  0
 32 64  1  0  0  0
 32 65  1  0  0  0
 33 66  1  0  0  0
 33 67  1  0  0  0
 33 68  1  0  0  0
M  END
> <s_m_entry_id>
3375

> <s_m_entry_name>
dock_pv.104

> <s_m_Source_Path>
/home/csk/Desktop/cluster/DUD-E-result/kpcb

> <s_m_Source_File>
dock_pv.maegz

> <i_m_Source_File_Index>
104

> <chembl_id>
CHEMBL3662840

> <chembl_pref_name>
None

> <i_lp_mmshare_version>
53161

> <i_f3d_flags>
0

> <r_lp_tautomer_probability>
0.5

> <s_lp_Force_Field>
OPLS_2005

> <r_lp_Energy>
112.018216

> <b_lp_Chiralities_Consistent>
1

> <s_lp_Variant>
CHEMBL3045_lig591-1

> <s_i_glide_gridfile>
glide-grid_2i0e

> <i_i_glide_lignum>
944

> <i_i_glide_rotatable_bonds>
6

> <r_i_docking_score>
-8.30387845696266

> <r_i_glide_ligand_efficiency>
-0.25163268051402

> <r_i_glide_ligand_efficiency_sa>
-0.80712046035689

> <r_i_glide_ligand_efficiency_ln>
-1.8467395736469

> <r_i_glide_gscore>
-8.30387845696266

> <r_i_glide_lipo>
-2.62878346783086

> <r_i_glide_hbond>
-0.864

> <r_i_glide_metal>
0

> <r_i_glide_rewards>
-1.91492174918707

> <r_i_glide_evdw>
-42.4309387207031

> <r_i_glide_ecoul>
-7.34724283218384

> <r_i_glide_erotb>
0.341506633477774

> <r_i_glide_esite>
-0.0140465125597751

> <r_i_glide_emodel>
-61.9460839961325

> <r_i_glide_energy>
-49.778181552887

> <r_i_glide_einternal>
25.6601638793945

> <i_i_glide_confnum>
23

> <i_i_glide_posenum>
371

> <r_i_glide_eff_state_penalty>
0

> <s_user_duplicate_titles>
CHEMBL3045_lig591

> <s_m_subgroup_title>
dock_pv

> <s_m_subgroupid>
dock_pv

> <b_m_subgroup_collapsed>
1

$$$$
CHEMBL3045_lig625
                    3D
 Schrodinger Suite 2021-1.
 62 65  0  0  1  0            999 V2000
   41.0037   56.5678   32.8823 C   0  0  0  0  0  0
   40.5538   55.3725   32.0065 C   0  0  2  0  0  0
   39.0245   55.4001   31.7350 C   0  0  0  0  0  0
   38.3367   55.0241   32.9900 N   0  0  0  0  0  0
   38.6935   53.6980   33.5543 C   0  0  1  0  0  0
   38.2164   52.5154   32.6861 C   0  0  0  0  0  0
   40.2387   53.6773   33.7232 C   0  0  0  0  0  0
   40.9249   54.0278   32.4747 N   0  0  2  0  0  0
   42.3661   53.8157   32.5831 C   0  0  0  0  0  0
   37.1539   55.6140   33.3038 C   0  0  0  0  0  0
   36.3482   55.9313   32.4247 O   0  0  0  0  0  0
   36.9185   55.8613   34.6288 N   0  0  0  0  0  0
   38.0178   56.0610   35.6069 C   0  0  0  0  0  0
   37.3069   56.3773   36.8853 C   0  0  0  0  0  0
   37.4717   56.6061   38.2668 C   0  0  0  0  0  0
   38.6124   56.5968   39.0482 N   0  0  0  0  0  0
   39.8631   56.8545   38.6134 C   0  0  0  0  0  0
   40.1683   57.1570   37.4589 O   0  0  0  0  0  0
   40.8709   56.7717   39.6417 C   0  0  0  0  0  0
   40.5199   56.5761   40.9392 O   0  0  0  0  0  0
   41.7024   56.5725   41.5984 C   0  0  0  0  0  0
   41.6791   56.3752   43.0943 C   0  0  0  0  0  0
   42.7508   56.7507   40.8319 N   0  0  0  0  0  0
   42.2618   56.8876   39.6084 C   0  0  0  0  0  0
   43.1940   57.1262   38.4393 C   0  0  0  0  0  0
   36.2973   56.7720   38.8373 N   0  0  0  0  0  0
   35.3935   56.6918   37.8513 N   0  0  0  0  0  0
   35.9799   56.4648   36.6411 C   0  0  0  0  0  0
   35.6031   56.2810   35.1981 C   0  0  0  0  0  0
   34.5231   55.1827   35.0841 C   0  0  0  0  0  0
   35.1041   57.6272   34.6188 C   0  0  0  0  0  0
   40.6991   57.5144   32.4383 H   0  0  0  0  0  0
   40.5710   56.5356   33.8813 H   0  0  0  0  0  0
   42.0869   56.6007   32.9923 H   0  0  0  0  0  0
   41.0386   55.4887   31.0363 H   0  0  0  0  0  0
   38.7914   54.6295   30.9989 H   0  0  0  0  0  0
   38.7023   56.3639   31.3384 H   0  0  0  0  0  0
   38.2295   53.5503   34.5295 H   0  0  0  0  0  0
   38.3652   51.5725   33.2067 H   0  0  0  0  0  0
   37.1597   52.5987   32.4371 H   0  0  0  0  0  0
   38.7742   52.4396   31.7519 H   0  0  0  0  0  0
   40.5585   52.6964   34.0797 H   0  0  0  0  0  0
   40.5324   54.3856   34.4999 H   0  0  0  0  0  0
   42.5761   52.7750   32.8353 H   0  0  0  0  0  0
   42.8650   54.0290   31.6373 H   0  0  0  0  0  0
   42.8137   54.4375   33.3582 H   0  0  0  0  0  0
   38.6628   56.8799   35.2852 H   0  0  0  0  0  0
   38.6441   55.1787   35.7228 H   0  0  0  0  0  0
   38.4823   56.4851   40.0470 H   0  0  0  0  0  0
   42.6797   56.3897   43.5272 H   0  0  0  0  0  0
   41.2306   55.4184   43.3594 H   0  0  0  0  0  0
   41.1014   57.1564   43.5904 H   0  0  0  0  0  0
   42.7681   57.8265   37.7195 H   0  0  0  0  0  0
   44.1582   57.5376   38.7461 H   0  0  0  0  0  0
   43.3967   56.1990   37.8995 H   0  0  0  0  0  0
   34.3986   56.7951   38.0145 H   0  0  0  0  0  0
   33.5785   55.5124   35.5182 H   0  0  0  0  0  0
   34.3227   54.9105   34.0477 H   0  0  0  0  0  0
   34.8163   54.2834   35.6253 H   0  0  0  0  0  0
   34.3009   58.0436   35.2268 H   0  0  0  0  0  0
   35.9009   58.3717   34.5822 H   0  0  0  0  0  0
   34.7142   57.5174   33.6063 H   0  0  0  0  0  0
  1  2  1  0  0  0
  1 32  1  0  0  0
  1 33  1  0  0  0
  1 34  1  0  0  0
  2  3  1  0  0  0
  2  8  1  0  0  0
  2 35  1  0  0  0
  3  4  1  0  0  0
  3 36  1  0  0  0
  3 37  1  0  0  0
  4  5  1  0  0  0
  4 10  1  0  0  0
  5  6  1  0  0  0
  5  7  1  0  0  0
  5 38  1  0  0  0
  6 39  1  0  0  0
  6 40  1  0  0  0
  6 41  1  0  0  0
  7  8  1  0  0  0
  7 42  1  0  0  0
  7 43  1  0  0  0
  8  9  1  0  0  0
  9 44  1  0  0  0
  9 45  1  0  0  0
  9 46  1  0  0  0
 10 11  2  0  0  0
 10 12  1  0  0  0
 12 13  1  0  0  0
 12 29  1  0  0  0
 13 14  1  0  0  0
 13 47  1  0  0  0
 13 48  1  0  0  0
 14 15  1  0  0  0
 14 28  2  0  0  0
 15 16  1  0  0  0
 15 26  2  0  0  0
 16 17  1  0  0  0
 16 49  1  0  0  0
 17 18  2  0  0  0
 17 19  1  0  0  0
 19 20  1  0  0  0
 19 24  2  0  0  0
 20 21  1  0  0  0
 21 22  1  0  0  0
 21 23  2  0  0  0
 22 50  1  0  0  0
 22 51  1  0  0  0
 22 52  1  0  0  0
 23 24  1  0  0  0
 24 25  1  0  0  0
 25 53  1  0  0  0
 25 54  1  0  0  0
 25 55  1  0  0  0
 26 27  1  0  0  0
 27 28  1  0  0  0
 27 56  1  0  0  0
 28 29  1  0  0  0
 29 30  1  0  0  0
 29 31  1  0  0  0
 30 57  1  0  0  0
 30 58  1  0  0  0
 30 59  1  0  0  0
 31 60  1  0  0  0
 31 61  1  0  0  0
 31 62  1  0  0  0
M  END
> <s_m_entry_id>
3376

> <s_m_entry_name>
dock_pv.105

> <s_m_Source_Path>
/home/csk/Desktop/cluster/DUD-E-result/kpcb

> <s_m_Source_File>
dock_pv.maegz

> <i_m_Source_File_Index>
105

> <chembl_id>
CHEMBL3662874

> <chembl_pref_name>
None

> <i_lp_mmshare_version>
53161

> <i_f3d_flags>
0

> <r_lp_tautomer_probability>
0.5

> <s_lp_Force_Field>
OPLS_2005

> <r_lp_Energy>
91.403984

> <b_lp_Chiralities_Consistent>
1

> <s_lp_Variant>
CHEMBL3045_lig625-1

> <s_i_glide_gridfile>
glide-grid_2i0e

> <i_i_glide_lignum>
1018

> <i_i_glide_rotatable_bonds>
5

> <r_i_docking_score>
-8.29125447447526

> <r_i_glide_ligand_efficiency>
-0.267459821757267

> <r_i_glide_ligand_efficiency_sa>
-0.84019310839859

> <r_i_glide_ligand_efficiency_ln>
-1.86993198042799

> <r_i_glide_gscore>
-8.29125447447526

> <r_i_glide_lipo>
-2.54940602322302

> <r_i_glide_hbond>
-0.82710783871788

> <r_i_glide_metal>
0

> <r_i_glide_rewards>
-2.1466989209388

> <r_i_glide_evdw>
-45.6933975219727

> <r_i_glide_ecoul>
-5.73601150512695

> <r_i_glide_erotb>
0.377029910272109

> <r_i_glide_esite>
0

> <r_i_glide_emodel>
-71.4519753307992

> <r_i_glide_energy>
-51.4294090270996

> <r_i_glide_einternal>
8.08193111419678

> <i_i_glide_confnum>
15

> <i_i_glide_posenum>
191

> <r_i_glide_eff_state_penalty>
0

> <s_user_duplicate_titles>
CHEMBL3045_lig625

> <s_m_subgroup_title>
dock_pv

> <s_m_subgroupid>
dock_pv

> <b_m_subgroup_collapsed>
1

$$$$
CHEMBL3045_lig325
                    3D
 Schrodinger Suite 2021-1.
 38 41  0  0  1  0            999 V2000
   40.5280   53.8013   31.8327 N   0  0  0  0  0  0
   39.6144   54.1765   30.9075 C   0  0  0  0  0  0
   38.4457   54.8783   31.2089 C   0  0  0  0  0  0
   40.2889   54.1541   33.1142 C   0  0  0  0  0  0
   39.1535   54.8813   33.5442 C   0  0  0  0  0  0
   38.1772   55.2350   32.5586 C   0  0  0  0  0  0
   37.0255   55.9584   33.0099 C   0  0  0  0  0  0
   36.8875   56.3493   34.2979 N   0  0  0  0  0  0
   37.8113   55.9914   35.2202 C   0  0  0  0  0  0
   38.9515   55.2578   34.8910 C   0  0  0  0  0  0
   37.4964   56.3871   36.6142 C   0  0  0  0  0  0
   38.5053   56.7827   37.5057 C   0  0  0  0  0  0
   38.1537   57.1679   38.8001 C   0  0  0  0  0  0
   36.8722   57.1708   39.2370 N   0  0  0  0  0  0
   35.9023   56.7714   38.3814 C   0  0  0  0  0  0
   36.1702   56.3749   37.0770 C   0  0  0  0  0  0
   35.9041   56.2350   32.2238 N   0  0  0  0  0  0
   35.1003   57.4641   32.4133 C   0  0  0  0  0  0
   33.8649   57.5194   31.4844 C   0  0  0  0  0  0
   33.0964   56.2856   31.6361 N   0  0  0  0  0  0
   33.7144   55.1000   31.7238 C   0  0  0  0  0  0
   35.2425   55.1718   31.4265 C   0  0  0  0  0  0
   33.1008   54.0815   32.0375 O   0  0  0  0  0  0
   39.8367   53.8967   29.8883 H   0  0  0  0  0  0
   37.7654   55.1452   30.4161 H   0  0  0  0  0  0
   41.0405   53.8544   33.8310 H   0  0  0  0  0  0
   39.6720   54.9645   35.6423 H   0  0  0  0  0  0
   39.5422   56.8054   37.2004 H   0  0  0  0  0  0
   38.9071   57.4707   39.5143 H   0  0  0  0  0  0
   34.8911   56.7675   38.7555 H   0  0  0  0  0  0
   35.3588   56.0621   36.4330 H   0  0  0  0  0  0
   34.7256   57.4736   33.4410 H   0  0  0  0  0  0
   35.7244   58.3395   32.2297 H   0  0  0  0  0  0
   33.2378   58.3913   31.6721 H   0  0  0  0  0  0
   34.1576   57.5741   30.4372 H   0  0  0  0  0  0
   32.1237   56.3233   31.9032 H   0  0  0  0  0  0
   35.4029   55.3343   30.3599 H   0  0  0  0  0  0
   35.6568   54.1924   31.6700 H   0  0  0  0  0  0
  1  2  2  0  0  0
  1  4  1  0  0  0
  2  3  1  0  0  0
  2 24  1  0  0  0
  3  6  2  0  0  0
  3 25  1  0  0  0
  4  5  2  0  0  0
  4 26  1  0  0  0
  5  6  1  0  0  0
  5 10  1  0  0  0
  6  7  1  0  0  0
  7  8  2  0  0  0
  7 17  1  0  0  0
  8  9  1  0  0  0
  9 11  1  0  0  0
  9 10  2  0  0  0
 10 27  1  0  0  0
 11 12  2  0  0  0
 11 16  1  0  0  0
 12 13  1  0  0  0
 12 28  1  0  0  0
 13 14  2  0  0  0
 13 29  1  0  0  0
 14 15  1  0  0  0
 15 16  2  0  0  0
 15 30  1  0  0  0
 16 31  1  0  0  0
 17 18  1  0  0  0
 17 22  1  0  0  0
 18 19  1  0  0  0
 18 32  1  0  0  0
 18 33  1  0  0  0
 19 20  1  0  0  0
 19 34  1  0  0  0
 19 35  1  0  0  0
 20 21  1  0  0  0
 20 36  1  0  0  0
 21 22  1  0  0  0
 21 23  2  0  0  0
 22 37  1  0  0  0
 22 38  1  0  0  0
M  END
> <s_m_entry_id>
3377

> <s_m_entry_name>
dock_pv.106

> <s_m_Source_Path>
/home/csk/Desktop/cluster/DUD-E-result/kpcb

> <s_m_Source_File>
dock_pv.maegz

> <i_m_Source_File_Index>
106

> <chembl_id>
CHEMBL2147546

> <chembl_pref_name>
None

> <i_lp_mmshare_version>
53161

> <i_f3d_flags>
0

> <r_lp_tautomer_probability>
1

> <s_lp_Force_Field>
OPLS_2005

> <r_lp_Energy>
25.571843

> <b_lp_Chiralities_Consistent>
1

> <s_lp_Variant>
CHEMBL3045_lig325-1

> <s_i_glide_gridfile>
glide-grid_2i0e

> <i_i_glide_lignum>
489

> <i_i_glide_rotatable_bonds>
2

> <r_i_docking_score>
-8.28242608752453

> <r_i_glide_ligand_efficiency>
-0.360105482066284

> <r_i_glide_ligand_efficiency_sa>
-1.02409208864149

> <r_i_glide_ligand_efficiency_ln>
-2.00276572885102

> <r_i_glide_gscore>
-8.28242608752453

> <r_i_glide_lipo>
-2.25671839012923

> <r_i_glide_hbond>
-0.608

> <r_i_glide_metal>
0

> <r_i_glide_rewards>
-2.93876632027563

> <r_i_glide_evdw>
-38.3104820251465

> <r_i_glide_ecoul>
-6.39558601379395

> <r_i_glide_erotb>
0.395920626206743

> <r_i_glide_esite>
0

> <r_i_glide_emodel>
-65.454135210999

> <r_i_glide_energy>
-44.7060680389404

> <r_i_glide_einternal>
2.61070394515991

> <i_i_glide_confnum>
33

> <i_i_glide_posenum>
185

> <r_i_glide_eff_state_penalty>
0

> <s_user_duplicate_titles>
CHEMBL3045_lig325

> <s_m_subgroup_title>
dock_pv

> <s_m_subgroupid>
dock_pv

> <b_m_subgroup_collapsed>
1

$$$$
CHEMBL3045_lig320
                    3D
 Schrodinger Suite 2021-1.
 39 42  0  0  1  0            999 V2000
   38.2266   56.2924   35.0249 C   0  0  0  0  0  0
   37.4387   56.1161   33.9305 N   0  0  0  0  0  0
   36.0885   56.0372   34.0553 C   0  0  0  0  0  0
   39.5970   56.2608   34.7473 N   0  0  0  0  0  0
   37.6695   56.4657   36.3384 C   0  0  0  0  0  0
   36.2486   56.3614   36.4497 C   0  0  0  0  0  0
   35.4660   56.1394   35.3012 C   0  0  0  0  0  0
   42.3967   57.1712   34.6257 N   0  0  0  0  0  0
   36.3679   56.7717   38.8456 N   0  0  0  0  0  0
   35.2995   55.8602   32.7945 C   0  0  0  0  0  0
   33.7819   55.5736   30.4367 N   0  0  0  0  0  0
   35.6699   56.5032   37.7259 C   0  0  0  0  0  0
   40.6565   55.7055   35.6080 C   0  0  0  0  0  0
   40.2245   56.7044   33.4874 C   0  0  0  0  0  0
   38.3939   56.7870   37.5275 C   0  0  0  0  0  0
   41.3750   57.7084   33.7327 C   0  0  0  0  0  0
   41.7851   56.7271   35.8734 C   0  0  0  0  0  0
   37.7061   56.9141   38.7341 C   0  0  0  0  0  0
   33.2436   55.2961   31.6417 C   0  0  0  0  0  0
   35.0752   55.9712   30.3883 C   0  0  0  0  0  0
   33.9625   55.4175   32.8289 C   0  0  0  0  0  0
   35.8555   56.1299   31.5312 C   0  0  0  0  0  0
   34.3934   56.0908   35.4141 H   0  0  0  0  0  0
   43.1020   57.8718   34.8231 H   0  0  0  0  0  0
   34.6000   56.4068   37.8443 H   0  0  0  0  0  0
   40.2609   55.3019   36.5373 H   0  0  0  0  0  0
   41.0603   54.8162   35.1203 H   0  0  0  0  0  0
   40.5749   55.8331   32.9336 H   0  0  0  0  0  0
   39.4968   57.1713   32.8281 H   0  0  0  0  0  0
   39.4555   56.9610   37.5147 H   0  0  0  0  0  0
   41.8459   57.9717   32.7851 H   0  0  0  0  0  0
   40.9838   58.6418   34.1431 H   0  0  0  0  0  0
   42.5573   56.2919   36.5090 H   0  0  0  0  0  0
   41.3998   57.5877   36.4221 H   0  0  0  0  0  0
   38.2397   57.1367   39.6477 H   0  0  0  0  0  0
   32.2147   54.9730   31.6434 H   0  0  0  0  0  0
   35.4820   56.1551   29.4065 H   0  0  0  0  0  0
   33.4672   55.1722   33.7539 H   0  0  0  0  0  0
   36.8787   56.4612   31.4273 H   0  0  0  0  0  0
  1  2  2  0  0  0
  1  4  1  0  0  0
  1  5  1  0  0  0
  2  3  1  0  0  0
  3  7  2  0  0  0
  3 10  1  0  0  0
  4 13  1  0  0  0
  4 14  1  0  0  0
  5  6  1  0  0  0
  5 15  2  0  0  0
  6 12  2  0  0  0
  6  7  1  0  0  0
  7 23  1  0  0  0
  8 16  1  0  0  0
  8 17  1  0  0  0
  8 24  1  0  0  0
  9 18  2  0  0  0
  9 12  1  0  0  0
 10 21  2  0  0  0
 10 22  1  0  0  0
 11 20  1  0  0  0
 11 19  2  0  0  0
 12 25  1  0  0  0
 13 17  1  0  0  0
 13 26  1  0  0  0
 13 27  1  0  0  0
 14 16  1  0  0  0
 14 28  1  0  0  0
 14 29  1  0  0  0
 15 18  1  0  0  0
 15 30  1  0  0  0
 16 31  1  0  0  0
 16 32  1  0  0  0
 17 33  1  0  0  0
 17 34  1  0  0  0
 18 35  1  0  0  0
 19 21  1  0  0  0
 19 36  1  0  0  0
 20 22  2  0  0  0
 20 37  1  0  0  0
 21 38  1  0  0  0
 22 39  1  0  0  0
M  END
> <s_m_entry_id>
3378

> <s_m_entry_name>
dock_pv.107

> <s_m_Source_Path>
/home/csk/Desktop/cluster/DUD-E-result/kpcb

> <s_m_Source_File>
dock_pv.maegz

> <i_m_Source_File_Index>
107

> <chembl_id>
CHEMBL1214932

> <chembl_pref_name>
None

> <i_lp_mmshare_version>
53161

> <i_f3d_flags>
0

> <r_lp_tautomer_probability>
1

> <s_lp_Force_Field>
OPLS_2005

> <r_lp_Energy>
40.340598

> <b_lp_Chiralities_Consistent>
1

> <s_lp_Variant>
CHEMBL3045_lig320-1

> <s_i_glide_gridfile>
glide-grid_2i0e

> <i_i_glide_lignum>
483

> <i_i_glide_rotatable_bonds>
2

> <r_i_docking_score>
-8.27697789489472

> <r_i_glide_ligand_efficiency>
-0.37622626794976

> <r_i_glide_ligand_efficiency_sa>
-1.05420079893473

> <r_i_glide_ligand_efficiency_ln>
-2.02319530761657

> <r_i_glide_gscore>
-8.27697789489472

> <r_i_glide_lipo>
-3.46135565741785

> <r_i_glide_hbond>
-0.580177061336217

> <r_i_glide_metal>
0

> <r_i_glide_rewards>
-2.22238172251916

> <r_i_glide_evdw>
-39.38818359375

> <r_i_glide_ecoul>
-3.15602087974548

> <r_i_glide_erotb>
0.429748858027828

> <r_i_glide_esite>
0

> <r_i_glide_emodel>
-63.0570027388314

> <r_i_glide_energy>
-42.5442044734955

> <r_i_glide_einternal>
0.573154866695404

> <i_i_glide_confnum>
4

> <i_i_glide_posenum>
319

> <r_i_glide_eff_state_penalty>
0

> <s_user_duplicate_titles>
CHEMBL3045_lig320

> <s_m_subgroup_title>
dock_pv

> <s_m_subgroupid>
dock_pv

> <b_m_subgroup_collapsed>
1

$$$$
CHEMBL3045_lig626
                    3D
 Schrodinger Suite 2021-1.
 59 62  0  0  1  0            999 V2000
   40.9003   56.5818   32.5842 C   0  0  0  0  0  0
   40.3865   55.3160   31.8592 C   0  0  2  0  0  0
   38.8402   55.3434   31.7403 C   0  0  0  0  0  0
   38.2732   55.0048   33.0622 N   0  0  0  0  0  0
   38.6746   53.6846   33.6014 C   0  0  1  0  0  0
   38.1941   52.4945   32.7437 C   0  0  0  0  0  0
   40.2240   53.7203   33.7003 C   0  0  0  0  0  0
   40.8281   54.0206   32.3974 N   0  0  2  0  0  0
   42.2787   53.8380   32.4147 C   0  0  0  0  0  0
   37.1000   55.5727   33.4443 C   0  0  0  0  0  0
   36.2444   55.8737   32.6056 O   0  0  0  0  0  0
   36.9243   55.8137   34.7794 N   0  0  0  0  0  0
   38.0526   55.9607   35.7389 C   0  0  0  0  0  0
   37.3814   56.3206   37.0323 C   0  0  0  0  0  0
   37.5734   56.5555   38.4110 C   0  0  0  0  0  0
   38.7194   56.5049   39.1854 N   0  0  0  0  0  0
   39.9694   56.7759   38.7440 C   0  0  0  0  0  0
   40.2367   57.1175   37.5889 O   0  0  0  0  0  0
   41.0320   56.6473   39.7294 C   0  0  0  0  0  0
   42.3939   56.7605   39.4318 C   0  0  0  0  0  0
   43.3298   56.5554   40.8765 S   0  0  0  0  0  0
   41.8512   56.3559   41.7577 C   0  0  0  0  0  0
   41.8033   56.1182   43.2472 C   0  0  0  0  0  0
   40.7730   56.4338   41.0142 N   0  0  0  0  0  0
   36.4177   56.7716   39.0003 N   0  0  0  0  0  0
   35.4959   56.7130   38.0327 N   0  0  0  0  0  0
   36.0504   56.4448   36.8175 C   0  0  0  0  0  0
   35.6293   56.2404   35.3855 C   0  0  0  0  0  0
   34.5508   55.1363   35.3138 C   0  0  0  0  0  0
   35.1029   57.5754   34.8060 C   0  0  0  0  0  0
   40.5576   57.4727   32.0571 H   0  0  0  0  0  0
   40.5374   56.6402   33.6098 H   0  0  0  0  0  0
   41.9886   56.6155   32.6131 H   0  0  0  0  0  0
   40.7536   55.3540   30.8369 H   0  0  0  0  0  0
   38.5419   54.5471   31.0579 H   0  0  0  0  0  0
   38.4783   56.2930   31.3434 H   0  0  0  0  0  0
   38.2552   53.5221   34.5954 H   0  0  0  0  0  0
   38.3022   51.5708   33.2993 H   0  0  0  0  0  0
   37.1525   52.5980   32.4421 H   0  0  0  0  0  0
   38.7775   52.3794   31.8295 H   0  0  0  0  0  0
   40.5902   52.7643   34.0854 H   0  0  0  0  0  0
   40.5347   54.4748   34.4233 H   0  0  0  0  0  0
   42.5283   52.8247   32.7261 H   0  0  0  0  0  0
   42.7004   53.9846   31.4206 H   0  0  0  0  0  0
   42.7688   54.5249   33.1050 H   0  0  0  0  0  0
   38.7398   56.7377   35.4000 H   0  0  0  0  0  0
   38.6281   55.0445   35.8579 H   0  0  0  0  0  0
   38.5841   56.3726   40.1802 H   0  0  0  0  0  0
   42.8650   56.9355   38.4742 H   0  0  0  0  0  0
   41.1488   56.8310   43.7520 H   0  0  0  0  0  0
   42.7853   56.2124   43.7161 H   0  0  0  0  0  0
   41.4385   55.1160   43.4835 H   0  0  0  0  0  0
   34.5066   56.8455   38.2107 H   0  0  0  0  0  0
   33.6174   55.4645   35.7747 H   0  0  0  0  0  0
   34.3139   54.8491   34.2890 H   0  0  0  0  0  0
   34.8667   54.2380   35.8443 H   0  0  0  0  0  0
   34.3013   57.9724   35.4232 H   0  0  0  0  0  0
   35.8840   58.3308   34.7606 H   0  0  0  0  0  0
   34.7005   57.4583   33.8007 H   0  0  0  0  0  0
  1  2  1  0  0  0
  1 31  1  0  0  0
  1 32  1  0  0  0
  1 33  1  0  0  0
  2  3  1  0  0  0
  2  8  1  0  0  0
  2 34  1  0  0  0
  3  4  1  0  0  0
  3 35  1  0  0  0
  3 36  1  0  0  0
  4  5  1  0  0  0
  4 10  1  0  0  0
  5  6  1  0  0  0
  5  7  1  0  0  0
  5 37  1  0  0  0
  6 38  1  0  0  0
  6 39  1  0  0  0
  6 40  1  0  0  0
  7  8  1  0  0  0
  7 41  1  0  0  0
  7 42  1  0  0  0
  8  9  1  0  0  0
  9 43  1  0  0  0
  9 44  1  0  0  0
  9 45  1  0  0  0
 10 11  2  0  0  0
 10 12  1  0  0  0
 12 13  1  0  0  0
 12 28  1  0  0  0
 13 14  1  0  0  0
 13 46  1  0  0  0
 13 47  1  0  0  0
 14 15  1  0  0  0
 14 27  2  0  0  0
 15 16  1  0  0  0
 15 25  2  0  0  0
 16 17  1  0  0  0
 16 48  1  0  0  0
 17 18  2  0  0  0
 17 19  1  0  0  0
 19 20  2  0  0  0
 19 24  1  0  0  0
 20 21  1  0  0  0
 20 49  1  0  0  0
 21 22  1  0  0  0
 22 23  1  0  0  0
 22 24  2  0  0  0
 23 50  1  0  0  0
 23 51  1  0  0  0
 23 52  1  0  0  0
 25 26  1  0  0  0
 26 27  1  0  0  0
 26 53  1  0  0  0
 27 28  1  0  0  0
 28 29  1  0  0  0
 28 30  1  0  0  0
 29 54  1  0  0  0
 29 55  1  0  0  0
 29 56  1  0  0  0
 30 57  1  0  0  0
 30 58  1  0  0  0
 30 59  1  0  0  0
M  END
> <s_m_entry_id>
3379

> <s_m_entry_name>
dock_pv.108

> <s_m_Source_Path>
/home/csk/Desktop/cluster/DUD-E-result/kpcb

> <s_m_Source_File>
dock_pv.maegz

> <i_m_Source_File_Index>
108

> <chembl_id>
CHEMBL3662875

> <chembl_pref_name>
None

> <i_lp_mmshare_version>
53161

> <i_f3d_flags>
0

> <r_lp_tautomer_probability>
0.5

> <s_lp_Force_Field>
OPLS_2005

> <r_lp_Energy>
91.762615

> <b_lp_Chiralities_Consistent>
1

> <s_lp_Variant>
CHEMBL3045_lig626-1

> <s_i_glide_gridfile>
glide-grid_2i0e

> <i_i_glide_lignum>
1020

> <i_i_glide_rotatable_bonds>
5

> <r_i_docking_score>
-8.27187914609642

> <r_i_glide_ligand_efficiency>
-0.275729304869881

> <r_i_glide_ligand_efficiency_sa>
-0.856755057964424

> <r_i_glide_ligand_efficiency_ln>
-1.8794610713352

> <r_i_glide_gscore>
-8.27187914609642

> <r_i_glide_lipo>
-2.52310777906186

> <r_i_glide_hbond>
-0.864

> <r_i_glide_metal>
0

> <r_i_glide_rewards>
-2.09620735700024

> <r_i_glide_evdw>
-44.8045997619629

> <r_i_glide_ecoul>
-6.14761018753052

> <r_i_glide_erotb>
0.373807506193407

> <r_i_glide_esite>
0

> <r_i_glide_emodel>
-71.4311683352883

> <r_i_glide_energy>
-50.9522099494934

> <r_i_glide_einternal>
6.19146394729614

> <i_i_glide_confnum>
15

> <i_i_glide_posenum>
195

> <r_i_glide_eff_state_penalty>
0

> <s_user_duplicate_titles>
CHEMBL3045_lig626

> <s_m_subgroup_title>
dock_pv

> <s_m_subgroupid>
dock_pv

> <b_m_subgroup_collapsed>
1

$$$$
CHEMBL3045_lig409
                    3D
 Schrodinger Suite 2021-1.
 56 60  0  0  1  0            999 V2000
   36.6251   56.1708   35.9276 C   0  0  0  0  0  0
   37.4009   56.6539   36.9221 C   0  0  0  0  0  0
   36.5541   56.7721   38.0891 C   0  0  0  0  0  0
   35.3403   56.3726   37.6997 N   0  0  0  0  0  0
   35.2944   55.9711   36.4310 C   0  0  0  0  0  0
   38.8541   56.9692   36.9471 C   0  0  0  0  0  0
   39.6466   57.0171   38.0890 C   0  0  0  0  0  0
   40.9792   57.1354   37.7691 N   0  0  0  0  0  0
   39.7779   57.2123   35.8562 C   0  0  0  0  0  0
   41.1023   57.1635   36.3944 C   0  0  0  0  0  0
   42.2425   57.1728   35.5793 C   0  0  0  0  0  0
   42.0469   57.3044   34.2065 C   0  0  0  0  0  0
   40.7799   57.4653   33.6632 C   0  0  0  0  0  0
   39.6504   57.4377   34.4756 C   0  0  0  0  0  0
   36.9719   55.7940   34.5257 C   0  0  0  0  0  0
   36.3852   56.4948   33.4500 C   0  0  0  0  0  0
   36.6841   56.1714   32.1329 C   0  0  0  0  0  0
   37.5850   55.1635   31.8316 C   0  0  0  0  0  0
   37.9390   54.7640   34.2316 C   0  0  0  0  0  0
   38.2279   54.4465   32.8650 C   0  0  0  0  0  0
   39.1663   53.4288   32.5616 C   0  0  0  0  0  0
   39.8626   52.7844   33.5774 C   0  0  0  0  0  0
   39.6559   53.1293   34.9101 C   0  0  0  0  0  0
   38.6658   54.0579   35.2388 C   0  0  0  0  0  0
   36.8264   57.1564   39.2255 O   0  0  0  0  0  0
   34.3012   55.5402   35.8488 O   0  0  0  0  0  0
   35.3194   57.8417   33.6983 Cl  0  0  0  0  0  0
   42.0829   57.1645   38.7194 C   0  0  0  0  0  0
   40.4863   52.4617   36.0059 C   0  0  0  0  0  0
   41.4980   53.3172   36.6420 N   0  0  0  0  0  0
   41.1016   53.8121   37.9593 C   0  0  0  0  0  0
   42.6876   53.6679   36.0846 C   0  0  0  0  0  0
   43.1178   53.0574   34.7495 C   0  0  0  0  0  0
   43.4559   54.4718   36.6149 O   0  0  0  0  0  0
   34.5293   56.3734   38.3019 H   0  0  0  0  0  0
   39.3697   56.9026   39.1286 H   0  0  0  0  0  0
   43.2395   57.1023   35.9898 H   0  0  0  0  0  0
   42.9077   57.3162   33.5535 H   0  0  0  0  0  0
   40.6710   57.5966   32.5956 H   0  0  0  0  0  0
   38.6824   57.5711   34.0340 H   0  0  0  0  0  0
   36.2213   56.7231   31.3277 H   0  0  0  0  0  0
   37.8131   54.9306   30.7999 H   0  0  0  0  0  0
   39.3631   53.1709   31.5295 H   0  0  0  0  0  0
   40.5939   52.0304   33.3165 H   0  0  0  0  0  0
   38.4879   54.2786   36.2801 H   0  0  0  0  0  0
   42.7009   58.0432   38.5319 H   0  0  0  0  0  0
   41.7088   57.1941   39.7440 H   0  0  0  0  0  0
   42.7091   56.2838   38.5832 H   0  0  0  0  0  0
   40.9803   51.5739   35.6369 H   0  0  0  0  0  0
   39.8005   52.0818   36.7599 H   0  0  0  0  0  0
   41.9062   54.3235   38.4845 H   0  0  0  0  0  0
   40.2573   54.4899   37.8675 H   0  0  0  0  0  0
   40.7995   52.9805   38.5942 H   0  0  0  0  0  0
   42.5198   53.4491   33.9288 H   0  0  0  0  0  0
   43.0444   51.9718   34.7661 H   0  0  0  0  0  0
   44.1604   53.2986   34.5416 H   0  0  0  0  0  0
  1  2  2  0  0  0
  1  5  1  0  0  0
  1 15  1  0  0  0
  2  3  1  0  0  0
  2  6  1  0  0  0
  3  4  1  0  0  0
  3 25  2  0  0  0
  4  5  1  0  0  0
  4 35  1  0  0  0
  5 26  2  0  0  0
  6  7  2  0  0  0
  6  9  1  0  0  0
  7  8  1  0  0  0
  7 36  1  0  0  0
  8 10  1  0  0  0
  8 28  1  0  0  0
  9 10  2  0  0  0
  9 14  1  0  0  0
 10 11  1  0  0  0
 11 12  2  0  0  0
 11 37  1  0  0  0
 12 13  1  0  0  0
 12 38  1  0  0  0
 13 14  2  0  0  0
 13 39  1  0  0  0
 14 40  1  0  0  0
 15 16  2  0  0  0
 15 19  1  0  0  0
 16 17  1  0  0  0
 16 27  1  0  0  0
 17 18  2  0  0  0
 17 41  1  0  0  0
 18 20  1  0  0  0
 18 42  1  0  0  0
 19 20  1  0  0  0
 19 24  2  0  0  0
 20 21  2  0  0  0
 21 22  1  0  0  0
 21 43  1  0  0  0
 22 23  2  0  0  0
 22 44  1  0  0  0
 23 24  1  0  0  0
 23 29  1  0  0  0
 24 45  1  0  0  0
 28 46  1  0  0  0
 28 47  1  0  0  0
 28 48  1  0  0  0
 29 30  1  0  0  0
 29 49  1  0  0  0
 29 50  1  0  0  0
 30 31  1  0  0  0
 30 32  1  0  0  0
 31 51  1  0  0  0
 31 52  1  0  0  0
 31 53  1  0  0  0
 32 33  1  0  0  0
 32 34  2  0  0  0
 33 54  1  0  0  0
 33 55  1  0  0  0
 33 56  1  0  0  0
M  END
> <s_m_entry_id>
3380

> <s_m_entry_name>
dock_pv.109

> <s_m_Source_Path>
/home/csk/Desktop/cluster/DUD-E-result/kpcb

> <s_m_Source_File>
dock_pv.maegz

> <i_m_Source_File_Index>
109

> <chembl_id>
CHEMBL4100747

> <chembl_pref_name>
None

> <i_lp_mmshare_version>
53161

> <i_f3d_flags>
0

> <r_lp_tautomer_probability>
1

> <s_lp_Force_Field>
OPLS_2005

> <r_lp_Energy>
31.237572

> <b_lp_Chiralities_Consistent>
1

> <s_lp_Variant>
CHEMBL3045_lig409-1

> <s_i_glide_gridfile>
glide-grid_2i0e

> <i_i_glide_lignum>
575

> <i_i_glide_rotatable_bonds>
5

> <r_i_docking_score>
-8.2536085833905

> <r_i_glide_ligand_efficiency>
-0.242753193629132

> <r_i_glide_ligand_efficiency_sa>
-0.786426109954328

> <r_i_glide_ligand_efficiency_ln>
-1.8234536419501

> <r_i_glide_gscore>
-8.2536085833905

> <r_i_glide_lipo>
-2.45323347920319

> <r_i_glide_hbond>
-0.52901997653049

> <r_i_glide_metal>
0

> <r_i_glide_rewards>
-2.01924458981889

> <r_i_glide_evdw>
-52.1468086242676

> <r_i_glide_ecoul>
-5.62011623382568

> <r_i_glide_erotb>
0.25415342096057

> <r_i_glide_esite>
-0.0559060925112702

> <r_i_glide_emodel>
-83.0686578504529

> <r_i_glide_energy>
-57.7669248580933

> <r_i_glide_einternal>
9.49687671661377

> <i_i_glide_confnum>
43

> <i_i_glide_posenum>
248

> <r_i_glide_eff_state_penalty>
0

> <s_user_duplicate_titles>
CHEMBL3045_lig409

> <s_m_subgroup_title>
dock_pv

> <s_m_subgroupid>
dock_pv

> <b_m_subgroup_collapsed>
1

$$$$
CHEMBL3045_lig538
                    3D
 Schrodinger Suite 2021-1.
 65 69  0  0  1  0            999 V2000
   38.6172   55.3091   30.6890 C   0  0  0  0  0  0
   38.3128   54.3774   31.8754 C   0  0  1  0  0  0
   39.2629   53.1499   31.9364 C   0  0  0  0  0  0
   40.6050   53.5679   32.3205 N   0  0  2  0  0  0
   41.6338   52.5548   32.4313 C   0  0  0  0  0  0
   42.7211   53.1864   33.3115 C   0  0  0  0  0  0
   42.0301   54.3520   34.0255 C   0  0  0  0  0  0
   40.5619   54.1741   33.6395 C   0  0  1  0  0  0
   39.7320   55.4702   33.5925 C   0  0  0  0  0  0
   38.3495   55.0826   33.1843 N   0  0  0  0  0  0
   37.1773   55.6424   33.6291 C   0  0  0  0  0  0
   36.2144   55.7420   32.8601 O   0  0  0  0  0  0
   37.0045   55.9625   34.9488 N   0  0  0  0  0  0
   38.0775   56.0842   35.9483 C   0  0  0  0  0  0
   37.3828   56.4057   37.2143 C   0  0  0  0  0  0
   37.5869   56.6186   38.5784 C   0  0  0  0  0  0
   38.7495   56.4866   39.3060 N   0  0  0  0  0  0
   40.0016   56.7138   38.8581 C   0  0  0  0  0  0
   40.2808   57.1747   37.7482 O   0  0  0  0  0  0
   41.0893   56.3512   39.8352 C   0  0  0  0  0  0
   40.9857   56.6290   41.2090 C   0  0  0  0  0  0
   42.0133   56.1590   42.0344 C   0  0  0  0  0  0
   41.9784   56.3612   43.5357 C   0  0  0  0  0  0
   43.0867   55.4792   41.5510 N   0  0  0  0  0  0
   43.1091   55.2837   40.2072 C   0  0  0  0  0  0
   44.3055   54.5408   39.6462 C   0  0  0  0  0  0
   42.1614   55.6851   39.3213 N   0  0  0  0  0  0
   36.4328   56.8247   39.1762 N   0  0  0  0  0  0
   35.5011   56.7719   38.2067 N   0  0  0  0  0  0
   36.0612   56.5235   36.9867 C   0  0  0  0  0  0
   35.6767   56.3021   35.5508 C   0  0  0  0  0  0
   34.6568   55.1416   35.4848 C   0  0  0  0  0  0
   35.0920   57.5927   34.9455 C   0  0  0  0  0  0
   38.6124   54.7719   29.7431 H   0  0  0  0  0  0
   37.8799   56.1071   30.6074 H   0  0  0  0  0  0
   39.6076   55.7509   30.7866 H   0  0  0  0  0  0
   37.3133   53.9821   31.7210 H   0  0  0  0  0  0
   38.8923   52.4341   32.6733 H   0  0  0  0  0  0
   39.2763   52.6231   30.9806 H   0  0  0  0  0  0
   41.2484   51.6189   32.8368 H   0  0  0  0  0  0
   41.9937   52.3138   31.4310 H   0  0  0  0  0  0
   43.1083   52.4536   34.0231 H   0  0  0  0  0  0
   43.5579   53.5449   32.7096 H   0  0  0  0  0  0
   42.4291   55.3236   33.7304 H   0  0  0  0  0  0
   42.1662   54.2304   35.1011 H   0  0  0  0  0  0
   40.0972   53.5357   34.3962 H   0  0  0  0  0  0
   40.1606   56.1146   32.8253 H   0  0  0  0  0  0
   39.8750   56.0194   34.5081 H   0  0  0  0  0  0
   38.7183   56.9299   35.7009 H   0  0  0  0  0  0
   38.6674   55.1701   36.0275 H   0  0  0  0  0  0
   38.6287   56.3172   40.2972 H   0  0  0  0  0  0
   40.1495   57.1720   41.6236 H   0  0  0  0  0  0
   41.1228   56.9629   43.8436 H   0  0  0  0  0  0
   41.9090   55.3975   44.0404 H   0  0  0  0  0  0
   42.8840   56.8625   43.8769 H   0  0  0  0  0  0
   45.2222   55.1006   39.8279 H   0  0  0  0  0  0
   44.2189   54.3715   38.5717 H   0  0  0  0  0  0
   44.4063   53.5655   40.1225 H   0  0  0  0  0  0
   34.5097   56.8973   38.3878 H   0  0  0  0  0  0
   33.7394   55.3979   36.0160 H   0  0  0  0  0  0
   34.3698   54.8994   34.4618 H   0  0  0  0  0  0
   35.0529   54.2361   35.9452 H   0  0  0  0  0  0
   34.3010   57.9729   35.5817 H   0  0  0  0  0  0
   35.8458   58.3721   34.8371 H   0  0  0  0  0  0
   34.6623   57.4259   33.9584 H   0  0  0  0  0  0
  1  2  1  0  0  0
  1 34  1  0  0  0
  1 35  1  0  0  0
  1 36  1  0  0  0
  2  3  1  0  0  0
  2 10  1  0  0  0
  2 37  1  0  0  0
  3  4  1  0  0  0
  3 38  1  0  0  0
  3 39  1  0  0  0
  4  5  1  0  0  0
  4  8  1  0  0  0
  5  6  1  0  0  0
  5 40  1  0  0  0
  5 41  1  0  0  0
  6  7  1  0  0  0
  6 42  1  0  0  0
  6 43  1  0  0  0
  7  8  1  0  0  0
  7 44  1  0  0  0
  7 45  1  0  0  0
  8  9  1  0  0  0
  8 46  1  0  0  0
  9 10  1  0  0  0
  9 47  1  0  0  0
  9 48  1  0  0  0
 10 11  1  0  0  0
 11 12  2  0  0  0
 11 13  1  0  0  0
 13 14  1  0  0  0
 13 31  1  0  0  0
 14 15  1  0  0  0
 14 49  1  0  0  0
 14 50  1  0  0  0
 15 16  1  0  0  0
 15 30  2  0  0  0
 16 17  1  0  0  0
 16 28  2  0  0  0
 17 18  1  0  0  0
 17 51  1  0  0  0
 18 19  2  0  0  0
 18 20  1  0  0  0
 20 21  2  0  0  0
 20 27  1  0  0  0
 21 22  1  0  0  0
 21 52  1  0  0  0
 22 23  1  0  0  0
 22 24  2  0  0  0
 23 53  1  0  0  0
 23 54  1  0  0  0
 23 55  1  0  0  0
 24 25  1  0  0  0
 25 26  1  0  0  0
 25 27  2  0  0  0
 26 56  1  0  0  0
 26 57  1  0  0  0
 26 58  1  0  0  0
 28 29  1  0  0  0
 29 30  1  0  0  0
 29 59  1  0  0  0
 30 31  1  0  0  0
 31 32  1  0  0  0
 31 33  1  0  0  0
 32 60  1  0  0  0
 32 61  1  0  0  0
 32 62  1  0  0  0
 33 63  1  0  0  0
 33 64  1  0  0  0
 33 65  1  0  0  0
M  END
> <s_m_entry_id>
3381

> <s_m_entry_name>
dock_pv.110

> <s_m_Source_Path>
/home/csk/Desktop/cluster/DUD-E-result/kpcb

> <s_m_Source_File>
dock_pv.maegz

> <i_m_Source_File_Index>
110

> <chembl_id>
CHEMBL3662787

> <chembl_pref_name>
None

> <i_lp_mmshare_version>
53161

> <i_f3d_flags>
0

> <r_lp_tautomer_probability>
0.5

> <s_lp_Force_Field>
OPLS_2005

> <r_lp_Energy>
111.702532

> <b_lp_Chiralities_Consistent>
1

> <s_lp_Variant>
CHEMBL3045_lig538-1

> <s_i_glide_gridfile>
glide-grid_2i0e

> <i_i_glide_lignum>
812

> <i_i_glide_rotatable_bonds>
5

> <r_i_docking_score>
-8.222128147172

> <r_i_glide_ligand_efficiency>
-0.249155398399152

> <r_i_glide_ligand_efficiency_sa>
-0.799174492937626

> <r_i_glide_ligand_efficiency_ln>
-1.82855872802991

> <r_i_glide_gscore>
-8.222128147172

> <r_i_glide_lipo>
-2.33067410473767

> <r_i_glide_hbond>
-0.864

> <r_i_glide_metal>
0

> <r_i_glide_rewards>
-1.94725525226802

> <r_i_glide_evdw>
-41.7683219909668

> <r_i_glide_ecoul>
-8.79849720001221

> <r_i_glide_erotb>
0.342918939909291

> <r_i_glide_esite>
-0.0149270505254241

> <r_i_glide_emodel>
-70.8812094253157

> <r_i_glide_energy>
-50.566819190979

> <r_i_glide_einternal>
7.34227800369263

> <i_i_glide_confnum>
32

> <i_i_glide_posenum>
375

> <r_i_glide_eff_state_penalty>
0

> <s_user_duplicate_titles>
CHEMBL3045_lig538

> <s_m_subgroup_title>
dock_pv

> <s_m_subgroupid>
dock_pv

> <b_m_subgroup_collapsed>
1

$$$$
CHEMBL3045_lig329
                    3D
 Schrodinger Suite 2021-1.
 41 43  0  0  1  0            999 V2000
   39.0984   52.6415   34.1706 C   0  0  0  0  0  0
   40.3563   53.4277   33.7510 C   0  0  0  0  0  0
   40.9068   52.8812   32.4207 C   0  0  0  0  0  0
   36.5081   56.7991   38.8363 N   0  0  0  0  0  0
   37.8409   56.6016   38.7190 C   0  0  0  0  0  0
   38.4729   56.2927   37.5140 C   0  0  0  0  0  0
   35.7609   56.6951   37.7153 C   0  0  0  0  0  0
   36.2757   56.3859   36.4345 C   0  0  0  0  0  0
   37.6837   56.1648   36.3296 C   0  0  0  0  0  0
   38.1904   55.8195   35.0410 C   0  0  0  0  0  0
   37.3877   55.7218   33.9503 N   0  0  0  0  0  0
   36.0559   55.9582   34.0521 C   0  0  0  0  0  0
   35.4666   56.2898   35.2762 C   0  0  0  0  0  0
   35.2587   55.8346   32.7879 C   0  0  0  0  0  0
   33.9168   55.4146   32.8363 C   0  0  0  0  0  0
   33.1812   55.3009   31.6549 C   0  0  0  0  0  0
   33.7034   55.5722   30.4375 N   0  0  0  0  0  0
   34.9951   55.9718   30.3828 C   0  0  0  0  0  0
   35.7970   56.1217   31.5144 C   0  0  0  0  0  0
   39.5707   55.5903   34.8655 N   0  0  0  0  0  0
   40.1227   54.9648   33.6548 C   0  0  0  0  0  0
   41.3679   53.1721   34.7582 N   0  0  0  0  0  0
   37.0679   56.5571   31.3520 F   0  0  0  0  0  0
   38.2955   52.7718   33.4443 H   0  0  0  0  0  0
   38.7230   52.9596   35.1438 H   0  0  0  0  0  0
   39.3002   51.5722   34.2515 H   0  0  0  0  0  0
   40.1956   53.0316   31.6073 H   0  0  0  0  0  0
   41.8390   53.3694   32.1332 H   0  0  0  0  0  0
   41.1149   51.8115   32.4717 H   0  0  0  0  0  0
   38.4127   56.6814   39.6338 H   0  0  0  0  0  0
   39.5406   56.1316   37.4841 H   0  0  0  0  0  0
   34.7010   56.8629   37.8374 H   0  0  0  0  0  0
   34.4068   56.4805   35.3610 H   0  0  0  0  0  0
   33.4416   55.1718   33.7760 H   0  0  0  0  0  0
   32.1470   54.9908   31.6665 H   0  0  0  0  0  0
   35.3884   56.1727   29.3986 H   0  0  0  0  0  0
   40.1050   55.3985   35.7029 H   0  0  0  0  0  0
   41.0704   55.4607   33.4381 H   0  0  0  0  0  0
   39.5004   55.1868   32.7872 H   0  0  0  0  0  0
   41.5010   52.1672   34.8111 H   0  0  0  0  0  0
   42.2535   53.5325   34.4358 H   0  0  0  0  0  0
  1  2  1  0  0  0
  1 24  1  0  0  0
  1 25  1  0  0  0
  1 26  1  0  0  0
  2  3  1  0  0  0
  2 21  1  0  0  0
  2 22  1  0  0  0
  3 27  1  0  0  0
  3 28  1  0  0  0
  3 29  1  0  0  0
  4  7  1  0  0  0
  4  5  2  0  0  0
  5  6  1  0  0  0
  5 30  1  0  0  0
  6  9  2  0  0  0
  6 31  1  0  0  0
  7  8  2  0  0  0
  7 32  1  0  0  0
  8 13  1  0  0  0
  8  9  1  0  0  0
  9 10  1  0  0  0
 10 20  1  0  0  0
 10 11  2  0  0  0
 11 12  1  0  0  0
 12 13  2  0  0  0
 12 14  1  0  0  0
 13 33  1  0  0  0
 14 15  2  0  0  0
 14 19  1  0  0  0
 15 16  1  0  0  0
 15 34  1  0  0  0
 16 17  2  0  0  0
 16 35  1  0  0  0
 17 18  1  0  0  0
 18 19  2  0  0  0
 18 36  1  0  0  0
 19 23  1  0  0  0
 20 21  1  0  0  0
 20 37  1  0  0  0
 21 38  1  0  0  0
 21 39  1  0  0  0
 22 40  1  0  0  0
 22 41  1  0  0  0
M  END
> <s_m_entry_id>
3382

> <s_m_entry_name>
dock_pv.111

> <s_m_Source_Path>
/home/csk/Desktop/cluster/DUD-E-result/kpcb

> <s_m_Source_File>
dock_pv.maegz

> <i_m_Source_File_Index>
111

> <chembl_id>
CHEMBL2147550

> <chembl_pref_name>
None

> <i_lp_mmshare_version>
53161

> <i_f3d_flags>
0

> <r_lp_tautomer_probability>
1

> <s_lp_Force_Field>
OPLS_2005

> <r_lp_Energy>
17.844002

> <b_lp_Chiralities_Consistent>
1

> <s_lp_Variant>
CHEMBL3045_lig329-1

> <s_i_glide_gridfile>
glide-grid_2i0e

> <i_i_glide_lignum>
493

> <i_i_glide_rotatable_bonds>
4

> <r_i_docking_score>
-8.22030323720112

> <r_i_glide_ligand_efficiency>
-0.357404488573962

> <r_i_glide_ligand_efficiency_sa>
-1.01641082244391

> <r_i_glide_ligand_efficiency_ln>
-1.98774386034396

> <r_i_glide_gscore>
-8.22030323720112

> <r_i_glide_lipo>
-3.05277495713706

> <r_i_glide_hbond>
-0.561050223698568

> <r_i_glide_metal>
0

> <r_i_glide_rewards>
-2.54123789803228

> <r_i_glide_evdw>
-39.2139892578125

> <r_i_glide_ecoul>
-4.52271127700806

> <r_i_glide_erotb>
0.573865996108634

> <r_i_glide_esite>
0

> <r_i_glide_emodel>
-64.1709925163972

> <r_i_glide_energy>
-43.7367005348206

> <r_i_glide_einternal>
2.16556143760681

> <i_i_glide_confnum>
16

> <i_i_glide_posenum>
36

> <r_i_glide_eff_state_penalty>
0

> <s_user_duplicate_titles>
CHEMBL3045_lig329

> <s_m_subgroup_title>
dock_pv

> <s_m_subgroupid>
dock_pv

> <b_m_subgroup_collapsed>
1

$$$$
CHEMBL3045_lig201
                    3D
 Schrodinger Suite 2021-1.
 57 62  0  0  1  0            999 V2000
   36.5054   56.2601   35.6316 C   0  0  0  0  0  0
   37.3469   55.9528   36.6378 C   0  0  0  0  0  0
   36.7076   56.1095   34.1899 C   0  0  0  0  0  0
   38.6506   55.2977   36.5350 C   0  0  0  0  0  0
   36.7279   56.3721   37.8708 C   0  0  0  0  0  0
   35.3080   56.7720   36.2197 C   0  0  0  0  0  0
   35.5054   56.7717   37.5339 N   0  0  0  0  0  0
   40.2143   53.7820   35.8389 N   0  0  0  0  0  0
   38.9284   54.2305   35.6987 C   0  0  0  0  0  0
   37.9397   56.1758   33.5820 C   0  0  0  0  0  0
   37.8670   55.9550   32.2405 N   0  0  0  0  0  0
   35.7752   55.8707   33.1020 C   0  0  0  0  0  0
   39.8915   55.5455   37.2337 C   0  0  0  0  0  0
   40.8475   54.5683   36.7882 C   0  0  0  0  0  0
   36.5362   55.8112   31.8876 C   0  0  0  0  0  0
   37.1699   56.3674   39.0173 O   0  0  0  0  0  0
   34.3010   57.1720   35.6566 O   0  0  0  0  0  0
   40.7873   52.7004   35.0438 C   0  0  0  0  0  0
   40.0601   53.7895   32.3409 O   0  0  0  0  0  0
   41.7644   53.2411   33.9788 C   0  0  0  0  0  0
   39.0264   55.8881   31.3744 C   0  0  0  0  0  0
   41.2045   54.3303   33.0243 C   0  0  1  0  0  0
   39.5315   54.4401   31.1779 C   0  0  0  0  0  0
   34.3802   55.6910   33.0097 C   0  0  0  0  0  0
   40.2972   56.4839   38.1995 C   0  0  0  0  0  0
   42.8940   53.9713   31.1899 N   0  0  0  0  0  0
   35.9322   55.6390   30.6332 C   0  0  0  0  0  0
   42.1531   54.5180   37.2971 C   0  0  0  0  0  0
   42.3333   54.9192   32.1381 C   0  0  0  0  0  0
   41.5974   56.4294   38.7007 C   0  0  0  0  0  0
   33.7783   55.5734   31.7597 C   0  0  0  0  0  0
   34.5397   55.5720   30.5975 C   0  0  0  0  0  0
   42.4988   55.4662   38.2593 C   0  0  0  0  0  0
   34.8118   57.0907   38.1935 H   0  0  0  0  0  0
   38.2772   53.7325   34.9941 H   0  0  0  0  0  0
   38.9084   56.3479   34.0276 H   0  0  0  0  0  0
   41.2700   51.9749   35.7061 H   0  0  0  0  0  0
   39.9731   52.1622   34.5550 H   0  0  0  0  0  0
   42.6487   53.6261   34.4856 H   0  0  0  0  0  0
   42.1199   52.3959   33.3878 H   0  0  0  0  0  0
   39.8076   56.5440   31.7559 H   0  0  0  0  0  0
   38.7014   56.3176   30.4371 H   0  0  0  0  0  0
   40.8463   55.1619   33.6296 H   0  0  0  0  0  0
   40.2763   54.4099   30.3834 H   0  0  0  0  0  0
   38.7043   53.8312   30.8107 H   0  0  0  0  0  0
   33.7602   55.6722   33.8917 H   0  0  0  0  0  0
   39.6082   57.2326   38.5604 H   0  0  0  0  0  0
   43.7743   54.3062   30.8297 H   0  0  0  0  0  0
   43.1085   53.0800   31.6370 H   0  0  0  0  0  0
   36.5067   55.5731   29.7218 H   0  0  0  0  0  0
   42.8698   53.7742   36.9740 H   0  0  0  0  0  0
   41.9718   55.7934   31.6004 H   0  0  0  0  0  0
   43.1406   55.2788   32.7764 H   0  0  0  0  0  0
   41.9084   57.1411   39.4526 H   0  0  0  0  0  0
   32.7033   55.4833   31.6877 H   0  0  0  0  0  0
   34.0394   55.4712   29.6434 H   0  0  0  0  0  0
   43.4975   55.4477   38.6751 H   0  0  0  0  0  0
  1  2  2  0  0  0
  1  3  1  0  0  0
  1  6  1  0  0  0
  2  4  1  0  0  0
  2  5  1  0  0  0
  3 10  2  0  0  0
  3 12  1  0  0  0
  4  9  2  0  0  0
  4 13  1  0  0  0
  5 16  2  0  0  0
  5  7  1  0  0  0
  6  7  1  0  0  0
  6 17  2  0  0  0
  7 34  1  0  0  0
  8  9  1  0  0  0
  8 18  1  0  0  0
  8 14  1  0  0  0
  9 35  1  0  0  0
 10 11  1  0  0  0
 10 36  1  0  0  0
 11 21  1  0  0  0
 11 15  1  0  0  0
 12 15  2  0  0  0
 12 24  1  0  0  0
 13 14  2  0  0  0
 13 25  1  0  0  0
 14 28  1  0  0  0
 15 27  1  0  0  0
 18 20  1  0  0  0
 18 37  1  0  0  0
 18 38  1  0  0  0
 19 23  1  0  0  0
 19 22  1  0  0  0
 20 22  1  0  0  0
 20 39  1  0  0  0
 20 40  1  0  0  0
 21 23  1  0  0  0
 21 41  1  0  0  0
 21 42  1  0  0  0
 22 29  1  0  0  0
 22 43  1  0  0  0
 23 44  1  0  0  0
 23 45  1  0  0  0
 24 31  2  0  0  0
 24 46  1  0  0  0
 25 30  2  0  0  0
 25 47  1  0  0  0
 26 29  1  0  0  0
 26 48  1  0  0  0
 26 49  1  0  0  0
 27 32  2  0  0  0
 27 50  1  0  0  0
 28 33  2  0  0  0
 28 51  1  0  0  0
 29 52  1  0  0  0
 29 53  1  0  0  0
 30 33  1  0  0  0
 30 54  1  0  0  0
 31 32  1  0  0  0
 31 55  1  0  0  0
 32 56  1  0  0  0
 33 57  1  0  0  0
M  END
> <s_m_entry_id>
3383

> <s_m_entry_name>
dock_pv.112

> <s_m_Source_Path>
/home/csk/Desktop/cluster/DUD-E-result/kpcb

> <s_m_Source_File>
dock_pv.maegz

> <i_m_Source_File_Index>
112

> <chembl_id>
CHEMBL316239

> <chembl_pref_name>
None

> <i_lp_mmshare_version>
53161

> <i_f3d_flags>
0

> <r_lp_tautomer_probability>
1

> <s_lp_Force_Field>
OPLS_2005

> <r_lp_Energy>
38.588762

> <b_lp_Chiralities_Consistent>
1

> <s_lp_Variant>
CHEMBL3045_lig201-1

> <s_i_glide_gridfile>
glide-grid_2i0e

> <i_i_glide_lignum>
358

> <i_i_glide_rotatable_bonds>
1

> <r_i_docking_score>
-8.18487105757588

> <r_i_glide_ligand_efficiency>
-0.248026395684118

> <r_i_glide_ligand_efficiency_sa>
-0.795553177974717

> <r_i_glide_ligand_efficiency_ln>
-1.82027294421062

> <r_i_glide_gscore>
-8.18487105757588

> <r_i_glide_lipo>
-2.37969972990246

> <r_i_glide_hbond>
-0.371620582628322

> <r_i_glide_metal>
0

> <r_i_glide_rewards>
-2.34564898589746

> <r_i_glide_evdw>
-45.9884414672852

> <r_i_glide_ecoul>
-5.25653123855591

> <r_i_glide_erotb>
0

> <r_i_glide_esite>
0

> <r_i_glide_emodel>
-72.6410233393925

> <r_i_glide_energy>
-51.2449727058411

> <r_i_glide_einternal>
0.0494416691362858

> <i_i_glide_confnum>
1

> <i_i_glide_posenum>
44

> <r_i_glide_eff_state_penalty>
0

> <s_user_duplicate_titles>
CHEMBL3045_lig201,145394

> <s_m_subgroup_title>
dock_pv

> <s_m_subgroupid>
dock_pv

> <b_m_subgroup_collapsed>
1

$$$$
CHEMBL3045_lig321
                    3D
 Schrodinger Suite 2021-1.
 42 45  0  0  1  0            999 V2000
   36.5128   56.8085   38.8368 N   0  0  0  0  0  0
   37.8527   56.6912   38.7067 C   0  0  0  0  0  0
   38.4879   56.4084   37.4973 C   0  0  0  0  0  0
   35.7654   56.6509   37.7247 C   0  0  0  0  0  0
   36.2850   56.3640   36.4429 C   0  0  0  0  0  0
   37.7021   56.2053   36.3196 C   0  0  0  0  0  0
   38.2113   55.8815   35.0136 C   0  0  0  0  0  0
   37.3856   55.7937   33.9364 N   0  0  0  0  0  0
   36.0464   55.9625   34.0650 C   0  0  0  0  0  0
   35.4614   56.2407   35.3013 C   0  0  0  0  0  0
   35.2452   55.8348   32.8083 C   0  0  0  0  0  0
   33.9013   55.4232   32.8397 C   0  0  0  0  0  0
   33.1864   55.3136   31.6456 C   0  0  0  0  0  0
   33.7333   55.5791   30.4371 N   0  0  0  0  0  0
   35.0292   55.9718   30.4011 C   0  0  0  0  0  0
   35.8077   56.1123   31.5495 C   0  0  0  0  0  0
   39.5800   55.6196   34.7500 N   0  0  0  0  0  0
   40.1321   55.7884   33.3950 C   0  0  0  0  0  0
   39.9097   54.6326   32.3916 C   0  0  0  0  0  0
   40.3096   54.7124   35.6555 C   0  0  0  0  0  0
   40.6572   53.3183   32.6755 C   0  0  0  0  0  0
   41.1423   53.5496   35.0737 C   0  0  0  0  0  0
   40.5121   52.7721   34.0169 N   0  0  2  0  0  0
   38.4300   56.8213   39.6113 H   0  0  0  0  0  0
   39.5635   56.3486   37.4688 H   0  0  0  0  0  0
   34.7008   56.7696   37.8575 H   0  0  0  0  0  0
   34.3957   56.3811   35.4041 H   0  0  0  0  0  0
   33.4111   55.1840   33.7713 H   0  0  0  0  0  0
   32.1508   55.0075   31.6381 H   0  0  0  0  0  0
   35.4438   56.1574   29.4221 H   0  0  0  0  0  0
   36.8370   56.4269   31.4557 H   0  0  0  0  0  0
   39.6828   56.6859   32.9669 H   0  0  0  0  0  0
   41.1817   56.0722   33.4775 H   0  0  0  0  0  0
   38.8532   54.4432   32.2051 H   0  0  0  0  0  0
   40.2697   54.9804   31.4228 H   0  0  0  0  0  0
   41.0308   55.3307   36.1884 H   0  0  0  0  0  0
   39.5839   54.2513   36.3268 H   0  0  0  0  0  0
   40.2726   52.5588   31.9932 H   0  0  0  0  0  0
   41.7174   53.4255   32.4391 H   0  0  0  0  0  0
   42.0894   53.9210   34.6808 H   0  0  0  0  0  0
   41.3677   52.8490   35.8792 H   0  0  0  0  0  0
   40.9057   51.8300   34.0359 H   0  0  0  0  0  0
  1  2  2  0  0  0
  1  4  1  0  0  0
  2  3  1  0  0  0
  2 24  1  0  0  0
  3  6  2  0  0  0
  3 25  1  0  0  0
  4  5  2  0  0  0
  4 26  1  0  0  0
  5  6  1  0  0  0
  5 10  1  0  0  0
  6  7  1  0  0  0
  7  8  2  0  0  0
  7 17  1  0  0  0
  8  9  1  0  0  0
  9 11  1  0  0  0
  9 10  2  0  0  0
 10 27  1  0  0  0
 11 12  2  0  0  0
 11 16  1  0  0  0
 12 13  1  0  0  0
 12 28  1  0  0  0
 13 14  2  0  0  0
 13 29  1  0  0  0
 14 15  1  0  0  0
 15 16  2  0  0  0
 15 30  1  0  0  0
 16 31  1  0  0  0
 17 18  1  0  0  0
 17 20  1  0  0  0
 18 19  1  0  0  0
 18 32  1  0  0  0
 18 33  1  0  0  0
 19 21  1  0  0  0
 19 34  1  0  0  0
 19 35  1  0  0  0
 20 22  1  0  0  0
 20 36  1  0  0  0
 20 37  1  0  0  0
 21 23  1  0  0  0
 21 38  1  0  0  0
 21 39  1  0  0  0
 22 23  1  0  0  0
 22 40  1  0  0  0
 22 41  1  0  0  0
 23 42  1  0  0  0
M  END
> <s_m_entry_id>
3384

> <s_m_entry_name>
dock_pv.113

> <s_m_Source_Path>
/home/csk/Desktop/cluster/DUD-E-result/kpcb

> <s_m_Source_File>
dock_pv.maegz

> <i_m_Source_File_Index>
113

> <chembl_id>
CHEMBL2147542

> <chembl_pref_name>
None

> <i_lp_mmshare_version>
53161

> <i_f3d_flags>
0

> <r_lp_tautomer_probability>
1

> <s_lp_Force_Field>
OPLS_2005

> <r_lp_Energy>
37.303192

> <b_lp_Chiralities_Consistent>
1

> <s_lp_Variant>
CHEMBL3045_lig321-1

> <s_i_glide_gridfile>
glide-grid_2i0e

> <i_i_glide_lignum>
484

> <i_i_glide_rotatable_bonds>
2

> <r_i_docking_score>
-8.18320367458741

> <r_i_glide_ligand_efficiency>
-0.355791464112496

> <r_i_glide_ligand_efficiency_sa>
-1.01182359544505

> <r_i_glide_ligand_efficiency_ln>
-1.97877284970373

> <r_i_glide_gscore>
-8.18320367458741

> <r_i_glide_lipo>
-3.02948492693393

> <r_i_glide_hbond>
-0.573100862145489

> <r_i_glide_metal>
0

> <r_i_glide_rewards>
-2.12380839843087

> <r_i_glide_evdw>
-40.1454582214355

> <r_i_glide_ecoul>
-5.63572883605957

> <r_i_glide_erotb>
0.395822749403595

> <r_i_glide_esite>
0

> <r_i_glide_emodel>
-67.6548573973511

> <r_i_glide_energy>
-45.7811870574951

> <r_i_glide_einternal>
0.158104285597801

> <i_i_glide_confnum>
127

> <i_i_glide_posenum>
188

> <r_i_glide_eff_state_penalty>
0

> <s_user_duplicate_titles>
CHEMBL3045_lig321

> <s_m_subgroup_title>
dock_pv

> <s_m_subgroupid>
dock_pv

> <b_m_subgroup_collapsed>
1

$$$$
CHEMBL3045_lig354
                    3D
 Schrodinger Suite 2021-1.
 54 58  0  0  1  0            999 V2000
   36.2677   55.9573   35.5207 C   0  0  0  0  0  0
   36.9838   56.5049   36.5198 C   0  0  0  0  0  0
   36.0935   56.6626   37.6479 C   0  0  0  0  0  0
   34.9281   56.1433   37.2556 N   0  0  0  0  0  0
   34.9430   55.6906   36.0022 C   0  0  0  0  0  0
   38.2890   56.9655   36.4782 N   0  0  0  0  0  0
   39.3601   56.7626   37.3703 C   0  0  0  0  0  0
   36.6913   55.6543   34.1366 C   0  0  0  0  0  0
   36.7977   55.4816   31.8185 C   0  0  0  0  0  0
   35.9349   55.8227   32.9072 C   0  0  0  0  0  0
   34.6203   56.2180   32.5934 C   0  0  0  0  0  0
   34.2125   56.2911   31.2631 C   0  0  0  0  0  0
   35.0848   55.9714   30.2312 C   0  0  0  0  0  0
   36.3919   55.5616   30.4813 C   0  0  0  0  0  0
   36.3005   57.1720   38.7507 O   0  0  0  0  0  0
   33.9968   55.1723   35.4207 O   0  0  0  0  0  0
   40.6238   57.1721   36.9373 C   0  0  0  0  0  0
   41.7431   56.9943   37.7457 C   0  0  0  0  0  0
   41.5996   56.4008   38.9969 C   0  0  0  0  0  0
   40.3499   55.9743   39.4378 C   0  0  0  0  0  0
   39.2348   56.1465   38.6226 C   0  0  0  0  0  0
   37.9122   55.1169   33.7439 C   0  0  0  0  0  0
   37.9818   55.0482   32.3734 N   0  0  0  0  0  0
   39.1819   54.3752   31.9037 C   0  0  0  0  0  0
   40.1456   54.6861   33.0525 C   0  0  1  0  0  0
   39.2344   54.6258   34.2903 C   0  0  0  0  0  0
   41.3898   53.7651   33.1308 C   0  0  0  0  0  0
   42.1980   54.0039   34.3359 N   0  0  0  0  0  0
   42.8404   55.3176   34.3424 C   0  0  0  0  0  0
   43.2286   52.9730   34.4628 C   0  0  0  0  0  0
   34.1051   56.1261   37.8404 H   0  0  0  0  0  0
   38.6289   57.2274   35.5648 H   0  0  0  0  0  0
   33.9028   56.4162   33.3699 H   0  0  0  0  0  0
   33.1972   56.5776   31.0267 H   0  0  0  0  0  0
   34.7249   56.0043   29.2126 H   0  0  0  0  0  0
   37.0410   55.2413   29.6790 H   0  0  0  0  0  0
   40.7508   57.6284   35.9662 H   0  0  0  0  0  0
   42.7166   57.3139   37.4025 H   0  0  0  0  0  0
   42.4667   56.2594   39.6252 H   0  0  0  0  0  0
   40.2418   55.5007   40.4025 H   0  0  0  0  0  0
   38.2916   55.7696   38.9813 H   0  0  0  0  0  0
   38.9983   53.2999   31.8426 H   0  0  0  0  0  0
   39.4944   54.7131   30.9122 H   0  0  0  0  0  0
   40.4854   55.7137   32.9089 H   0  0  0  0  0  0
   39.6581   55.2319   35.0843 H   0  0  0  0  0  0
   39.1462   53.6125   34.6849 H   0  0  0  0  0  0
   41.0670   52.7218   33.1008 H   0  0  0  0  0  0
   42.0182   53.9182   32.2509 H   0  0  0  0  0  0
   42.1057   56.1222   34.3478 H   0  0  0  0  0  0
   43.4490   55.4432   35.2393 H   0  0  0  0  0  0
   43.4873   55.4510   33.4730 H   0  0  0  0  0  0
   42.7929   51.9738   34.4807 H   0  0  0  0  0  0
   43.9424   53.0144   33.6389 H   0  0  0  0  0  0
   43.7846   53.0914   35.3944 H   0  0  0  0  0  0
  1  2  2  0  0  0
  1  5  1  0  0  0
  1  8  1  0  0  0
  2  3  1  0  0  0
  2  6  1  0  0  0
  3  4  1  0  0  0
  3 15  2  0  0  0
  4  5  1  0  0  0
  4 31  1  0  0  0
  5 16  2  0  0  0
  6  7  1  0  0  0
  6 32  1  0  0  0
  7 17  2  0  0  0
  7 21  1  0  0  0
  8 10  1  0  0  0
  8 22  2  0  0  0
  9 23  1  0  0  0
  9 10  2  0  0  0
  9 14  1  0  0  0
 10 11  1  0  0  0
 11 12  2  0  0  0
 11 33  1  0  0  0
 12 13  1  0  0  0
 12 34  1  0  0  0
 13 14  2  0  0  0
 13 35  1  0  0  0
 14 36  1  0  0  0
 17 18  1  0  0  0
 17 37  1  0  0  0
 18 19  2  0  0  0
 18 38  1  0  0  0
 19 20  1  0  0  0
 19 39  1  0  0  0
 20 21  2  0  0  0
 20 40  1  0  0  0
 21 41  1  0  0  0
 22 23  1  0  0  0
 22 26  1  0  0  0
 23 24  1  0  0  0
 24 25  1  0  0  0
 24 42  1  0  0  0
 24 43  1  0  0  0
 25 26  1  0  0  0
 25 27  1  0  0  0
 25 44  1  0  0  0
 26 45  1  0  0  0
 26 46  1  0  0  0
 27 28  1  0  0  0
 27 47  1  0  0  0
 27 48  1  0  0  0
 28 29  1  0  0  0
 28 30  1  0  0  0
 29 49  1  0  0  0
 29 50  1  0  0  0
 29 51  1  0  0  0
 30 52  1  0  0  0
 30 53  1  0  0  0
 30 54  1  0  0  0
M  END
> <s_m_entry_id>
3385

> <s_m_entry_name>
dock_pv.114

> <s_m_Source_Path>
/home/csk/Desktop/cluster/DUD-E-result/kpcb

> <s_m_Source_File>
dock_pv.maegz

> <i_m_Source_File_Index>
114

> <chembl_id>
CHEMBL2236797

> <chembl_pref_name>
None

> <i_lp_mmshare_version>
53161

> <i_f3d_flags>
0

> <r_lp_tautomer_probability>
0.999999999997686

> <s_lp_Force_Field>
OPLS_2005

> <r_lp_Energy>
55.102932

> <b_lp_Chiralities_Consistent>
1

> <s_lp_Variant>
CHEMBL3045_lig354-1

> <s_i_glide_gridfile>
glide-grid_2i0e

> <i_i_glide_lignum>
518

> <i_i_glide_rotatable_bonds>
5

> <r_i_docking_score>
-8.18019182954552

> <r_i_glide_ligand_efficiency>
-0.272673060984851

> <r_i_glide_ligand_efficiency_sa>
-0.847258597629503

> <r_i_glide_ligand_efficiency_ln>
-1.8586287140015

> <r_i_glide_gscore>
-8.18019182954552

> <r_i_glide_lipo>
-2.37749770630571

> <r_i_glide_hbond>
-0.402915288038678

> <r_i_glide_metal>
0

> <r_i_glide_rewards>
-2.58567851557608

> <r_i_glide_evdw>
-45.2914276123047

> <r_i_glide_ecoul>
-5.94533395767212

> <r_i_glide_erotb>
0.342271154640993

> <r_i_glide_esite>
0

> <r_i_glide_emodel>
-76.5417000736895

> <r_i_glide_energy>
-51.2367615699768

> <r_i_glide_einternal>
4.5971884727478

> <i_i_glide_confnum>
201

> <i_i_glide_posenum>
343

> <r_i_glide_eff_state_penalty>
0

> <s_user_duplicate_titles>
CHEMBL3045_lig354

> <s_m_subgroup_title>
dock_pv

> <s_m_subgroupid>
dock_pv

> <b_m_subgroup_collapsed>
1

$$$$
CHEMBL3045_lig383
                    3D
 Schrodinger Suite 2021-1.
 44 48  0  0  1  0            999 V2000
   39.9037   56.8800   40.0207 N   0  0  0  0  0  0
   37.6858   56.5451   35.7916 N   0  0  0  0  0  0
   37.7066   56.3634   34.4343 C   0  0  0  0  0  0
   38.9120   56.3365   33.7578 N   0  0  0  0  0  0
   40.1138   56.5469   34.4189 C   0  0  0  0  0  0
   40.1138   56.7521   35.8171 C   0  0  0  0  0  0
   41.2985   56.9464   36.5612 C   0  0  0  0  0  0
   41.2229   57.0453   37.9459 C   0  0  0  0  0  0
   40.0001   56.9283   38.6198 C   0  0  0  0  0  0
   38.8200   56.7908   37.8896 C   0  0  0  0  0  0
   38.8542   56.7067   36.4789 C   0  0  0  0  0  0
   39.2025   56.0794   32.4610 N   0  0  0  0  0  0
   40.5193   56.1703   32.4371 C   0  0  0  0  0  0
   41.1523   56.4709   33.5548 N   0  0  0  0  0  0
   32.8059   55.6413   31.7367 O   0  0  0  0  0  0
   33.2288   55.9552   30.4368 C   0  0  0  0  0  0
   34.5717   56.3607   30.4994 O   0  0  0  0  0  0
   34.9589   56.1899   31.7887 C   0  0  0  0  0  0
   33.8996   55.7684   32.5299 C   0  0  0  0  0  0
   36.2055   56.4129   32.3578 C   0  0  0  0  0  0
   36.3835   56.1740   33.7391 C   0  0  0  0  0  0
   35.2522   55.7707   34.4904 C   0  0  0  0  0  0
   33.9991   55.5707   33.8990 C   0  0  0  0  0  0
   41.0901   56.8985   40.8752 C   0  0  0  0  0  0
   41.8674   55.5570   40.8973 C   0  0  0  0  0  0
   41.0297   54.2830   41.0958 C   0  0  0  0  0  0
   40.3012   54.3719   42.2934 O   0  0  0  0  0  0
   39.0713   56.4503   40.4114 H   0  0  0  0  0  0
   42.2534   56.9893   36.0546 H   0  0  0  0  0  0
   42.1469   57.1696   38.4863 H   0  0  0  0  0  0
   37.8671   56.7066   38.3923 H   0  0  0  0  0  0
   41.0666   55.9951   31.5215 H   0  0  0  0  0  0
   33.1555   55.0678   29.8069 H   0  0  0  0  0  0
   32.6211   56.7669   30.0368 H   0  0  0  0  0  0
   36.9993   56.7759   31.7270 H   0  0  0  0  0  0
   35.3395   55.5956   35.5536 H   0  0  0  0  0  0
   33.1516   55.2635   34.4937 H   0  0  0  0  0  0
   40.7471   57.1542   41.8792 H   0  0  0  0  0  0
   41.7579   57.7007   40.5618 H   0  0  0  0  0  0
   42.6393   55.6052   41.6669 H   0  0  0  0  0  0
   42.4108   55.4381   39.9609 H   0  0  0  0  0  0
   41.6572   53.3923   41.1012 H   0  0  0  0  0  0
   40.3031   54.1733   40.2901 H   0  0  0  0  0  0
   39.5559   54.9662   42.1436 H   0  0  0  0  0  0
  1  9  1  0  0  0
  1 24  1  0  0  0
  1 28  1  0  0  0
  2  3  2  0  0  0
  2 11  1  0  0  0
  3  4  1  0  0  0
  3 21  1  0  0  0
  4  5  1  0  0  0
  4 12  1  0  0  0
  5  6  1  0  0  0
  5 14  2  0  0  0
  6  7  1  0  0  0
  6 11  2  0  0  0
  7  8  2  0  0  0
  7 29  1  0  0  0
  8  9  1  0  0  0
  8 30  1  0  0  0
  9 10  2  0  0  0
 10 11  1  0  0  0
 10 31  1  0  0  0
 12 13  2  0  0  0
 13 14  1  0  0  0
 13 32  1  0  0  0
 15 16  1  0  0  0
 15 19  1  0  0  0
 16 17  1  0  0  0
 16 33  1  0  0  0
 16 34  1  0  0  0
 17 18  1  0  0  0
 18 19  1  0  0  0
 18 20  2  0  0  0
 19 23  2  0  0  0
 20 21  1  0  0  0
 20 35  1  0  0  0
 21 22  2  0  0  0
 22 23  1  0  0  0
 22 36  1  0  0  0
 23 37  1  0  0  0
 24 25  1  0  0  0
 24 38  1  0  0  0
 24 39  1  0  0  0
 25 26  1  0  0  0
 25 40  1  0  0  0
 25 41  1  0  0  0
 26 27  1  0  0  0
 26 42  1  0  0  0
 26 43  1  0  0  0
 27 44  1  0  0  0
M  END
> <s_m_entry_id>
3386

> <s_m_entry_name>
dock_pv.115

> <s_m_Source_Path>
/home/csk/Desktop/cluster/DUD-E-result/kpcb

> <s_m_Source_File>
dock_pv.maegz

> <i_m_Source_File_Index>
115

> <chembl_id>
CHEMBL3309997

> <chembl_pref_name>
None

> <i_lp_mmshare_version>
53161

> <i_f3d_flags>
0

> <r_lp_tautomer_probability>
1

> <s_lp_Force_Field>
OPLS_2005

> <r_lp_Energy>
41.288062

> <b_lp_Chiralities_Consistent>
1

> <s_lp_Variant>
CHEMBL3045_lig383-1

> <s_i_glide_gridfile>
glide-grid_2i0e

> <i_i_glide_lignum>
548

> <i_i_glide_rotatable_bonds>
6

> <r_i_docking_score>
-8.16937559135201

> <r_i_glide_ligand_efficiency>
-0.302569466346371

> <r_i_glide_ligand_efficiency_sa>
-0.907708398041893

> <r_i_glide_ligand_efficiency_ln>
-1.9016959549841

> <r_i_glide_gscore>
-8.16937559135201

> <r_i_glide_lipo>
-2.43556872006827

> <r_i_glide_hbond>
-0.829468360430169

> <r_i_glide_metal>
0

> <r_i_glide_rewards>
-2.32054472067336

> <r_i_glide_evdw>
-38.9156799316406

> <r_i_glide_ecoul>
-9.0614070892334

> <r_i_glide_erotb>
0.727543809328529

> <r_i_glide_esite>
-0.00634253954169859

> <r_i_glide_emodel>
-67.6369337275321

> <r_i_glide_energy>
-47.977087020874

> <r_i_glide_einternal>
8.68780612945557

> <i_i_glide_confnum>
164

> <i_i_glide_posenum>
243

> <r_i_glide_eff_state_penalty>
0

> <s_user_duplicate_titles>
CHEMBL3045_lig383

> <s_m_subgroup_title>
dock_pv

> <s_m_subgroupid>
dock_pv

> <b_m_subgroup_collapsed>
1

$$$$
CHEMBL3045_lig513
                    3D
 Schrodinger Suite 2021-1.
 66 70  0  0  1  0            999 V2000
   45.1276   56.2167   43.0674 C   0  0  0  0  0  0
   44.0694   55.1353   42.8110 C   0  0  0  0  0  0
   42.9867   55.6004   41.8495 C   0  0  0  0  0  0
   41.8423   56.2509   42.3200 C   0  0  0  0  0  0
   40.8607   56.6602   41.4153 C   0  0  0  0  0  0
   41.0471   56.4042   40.0462 C   0  0  0  0  0  0
   42.1648   55.7831   39.5797 N   0  0  0  0  0  0
   43.1099   55.3898   40.4724 C   0  0  0  0  0  0
   39.9960   56.7526   39.0200 C   0  0  0  0  0  0
   40.3181   57.1733   37.9069 O   0  0  0  0  0  0
   38.7260   56.5597   39.4298 N   0  0  0  0  0  0
   37.5835   56.6797   38.6665 C   0  0  0  0  0  0
   36.4135   56.8527   39.2356 N   0  0  0  0  0  0
   35.5017   56.7718   38.2537 N   0  0  0  0  0  0
   36.0889   56.5510   37.0419 C   0  0  0  0  0  0
   37.4089   56.4696   37.2992 C   0  0  0  0  0  0
   38.1340   56.1567   36.0527 C   0  0  0  0  0  0
   37.0883   56.0481   35.0254 N   0  0  0  0  0  0
   37.3093   55.8165   33.6977 C   0  0  0  0  0  0
   36.3950   56.0356   32.8927 O   0  0  0  0  0  0
   38.4598   55.2017   33.2719 N   0  0  0  0  0  0
   39.8463   55.3874   33.7939 C   0  0  0  0  0  0
   40.4988   53.9951   33.8232 C   0  0  2  0  0  0
   41.9357   53.9594   34.3422 C   0  0  0  0  0  0
   42.5762   52.8162   33.5514 C   0  0  0  0  0  0
   41.4995   52.3749   32.5485 C   0  0  0  0  0  0
   40.5808   53.4908   32.4637 N   0  0  1  0  0  0
   39.2323   53.2532   31.9565 C   0  0  0  0  0  0
   38.4354   54.5882   31.9197 C   0  0  2  0  0  0
   38.9385   55.5344   30.8336 C   0  0  0  0  0  0
   35.7343   56.3240   35.6015 C   0  0  0  0  0  0
   34.7817   55.1136   35.4939 C   0  0  0  0  0  0
   35.0864   57.5864   34.9959 C   0  0  0  0  0  0
   45.8775   55.8663   43.7779 H   0  0  0  0  0  0
   44.6808   57.1215   43.4794 H   0  0  0  0  0  0
   45.6460   56.4881   42.1461 H   0  0  0  0  0  0
   44.5465   54.2372   42.4170 H   0  0  0  0  0  0
   43.6082   54.8408   43.7547 H   0  0  0  0  0  0
   41.7133   56.4411   43.3746 H   0  0  0  0  0  0
   39.9739   57.1558   41.7867 H   0  0  0  0  0  0
   43.9736   54.8896   40.0557 H   0  0  0  0  0  0
   38.5726   56.3729   40.4131 H   0  0  0  0  0  0
   34.5045   56.8721   38.4197 H   0  0  0  0  0  0
   38.8091   56.9790   35.8163 H   0  0  0  0  0  0
   38.6907   55.2255   36.1583 H   0  0  0  0  0  0
   40.4094   56.0126   33.1003 H   0  0  0  0  0  0
   39.9910   55.8772   34.7426 H   0  0  0  0  0  0
   39.8944   53.3698   34.4862 H   0  0  0  0  0  0
   42.4559   54.9090   34.2071 H   0  0  0  0  0  0
   41.9575   53.6911   35.3991 H   0  0  0  0  0  0
   42.8793   51.9763   34.1815 H   0  0  0  0  0  0
   43.4657   53.1724   33.0318 H   0  0  0  0  0  0
   40.9760   51.4662   32.8370 H   0  0  0  0  0  0
   41.9009   52.1714   31.5553 H   0  0  0  0  0  0
   38.7238   52.5393   32.6084 H   0  0  0  0  0  0
   39.2649   52.7901   30.9695 H   0  0  0  0  0  0
   37.4070   54.3709   31.6342 H   0  0  0  0  0  0
   38.9091   54.9978   29.8892 H   0  0  0  0  0  0
   38.3023   56.4141   30.7376 H   0  0  0  0  0  0
   39.9737   55.8410   30.9789 H   0  0  0  0  0  0
   33.8359   55.3111   36.0001 H   0  0  0  0  0  0
   34.5466   54.8724   34.4570 H   0  0  0  0  0  0
   35.2147   54.2278   35.9593 H   0  0  0  0  0  0
   34.3005   57.9723   35.6369 H   0  0  0  0  0  0
   35.8210   58.3727   34.8378 H   0  0  0  0  0  0
   34.6298   57.3854   34.0272 H   0  0  0  0  0  0
  1  2  1  0  0  0
  1 34  1  0  0  0
  1 35  1  0  0  0
  1 36  1  0  0  0
  2  3  1  0  0  0
  2 37  1  0  0  0
  2 38  1  0  0  0
  3  4  2  0  0  0
  3  8  1  0  0  0
  4  5  1  0  0  0
  4 39  1  0  0  0
  5  6  2  0  0  0
  5 40  1  0  0  0
  6  7  1  0  0  0
  6  9  1  0  0  0
  7  8  2  0  0  0
  8 41  1  0  0  0
  9 10  2  0  0  0
  9 11  1  0  0  0
 11 12  1  0  0  0
 11 42  1  0  0  0
 12 13  2  0  0  0
 12 16  1  0  0  0
 13 14  1  0  0  0
 14 15  1  0  0  0
 14 43  1  0  0  0
 15 16  2  0  0  0
 15 31  1  0  0  0
 16 17  1  0  0  0
 17 18  1  0  0  0
 17 44  1  0  0  0
 17 45  1  0  0  0
 18 19  1  0  0  0
 18 31  1  0  0  0
 19 20  2  0  0  0
 19 21  1  0  0  0
 21 22  1  0  0  0
 21 29  1  0  0  0
 22 23  1  0  0  0
 22 46  1  0  0  0
 22 47  1  0  0  0
 23 24  1  0  0  0
 23 27  1  0  0  0
 23 48  1  0  0  0
 24 25  1  0  0  0
 24 49  1  0  0  0
 24 50  1  0  0  0
 25 26  1  0  0  0
 25 51  1  0  0  0
 25 52  1  0  0  0
 26 27  1  0  0  0
 26 53  1  0  0  0
 26 54  1  0  0  0
 27 28  1  0  0  0
 28 29  1  0  0  0
 28 55  1  0  0  0
 28 56  1  0  0  0
 29 30  1  0  0  0
 29 57  1  0  0  0
 30 58  1  0  0  0
 30 59  1  0  0  0
 30 60  1  0  0  0
 31 32  1  0  0  0
 31 33  1  0  0  0
 32 61  1  0  0  0
 32 62  1  0  0  0
 32 63  1  0  0  0
 33 64  1  0  0  0
 33 65  1  0  0  0
 33 66  1  0  0  0
M  END
> <s_m_entry_id>
3387

> <s_m_entry_name>
dock_pv.116

> <s_m_Source_Path>
/home/csk/Desktop/cluster/DUD-E-result/kpcb

> <s_m_Source_File>
dock_pv.maegz

> <i_m_Source_File_Index>
116

> <chembl_id>
CHEMBL3662763

> <chembl_pref_name>
None

> <i_lp_mmshare_version>
53161

> <i_f3d_flags>
0

> <r_lp_tautomer_probability>
0.5

> <s_lp_Force_Field>
OPLS_2005

> <r_lp_Energy>
115.976566

> <b_lp_Chiralities_Consistent>
1

> <s_lp_Variant>
CHEMBL3045_lig513-1

> <s_i_glide_gridfile>
glide-grid_2i0e

> <i_i_glide_lignum>
762

> <i_i_glide_rotatable_bonds>
6

> <r_i_docking_score>
-8.13919137472479

> <r_i_glide_ligand_efficiency>
-0.246642162870448

> <r_i_glide_ligand_efficiency_sa>
-0.79111320370934

> <r_i_glide_ligand_efficiency_ln>
-1.81011401926127

> <r_i_glide_gscore>
-8.13919137472479

> <r_i_glide_lipo>
-2.36768733442169

> <r_i_glide_hbond>
-0.864

> <r_i_glide_metal>
0

> <r_i_glide_rewards>
-1.95267133621523

> <r_i_glide_evdw>
-39.6847190856934

> <r_i_glide_ecoul>
-8.63551616668701

> <r_i_glide_erotb>
0.344284915755771

> <r_i_glide_esite>
-0.0195542405559165

> <r_i_glide_emodel>
-67.6192688980629

> <r_i_glide_energy>
-48.3202352523804

> <r_i_glide_einternal>
7.15590476989746

> <i_i_glide_confnum>
5

> <i_i_glide_posenum>
291

> <r_i_glide_eff_state_penalty>
0

> <s_user_duplicate_titles>
CHEMBL3045_lig513

> <s_m_subgroup_title>
dock_pv

> <s_m_subgroupid>
dock_pv

> <b_m_subgroup_collapsed>
1

$$$$
CHEMBL3045_lig284
                    3D
 Schrodinger Suite 2021-1.
 57 61  0  0  1  0            999 V2000
   36.8077   55.6351   34.1490 C   0  0  0  0  0  0
   36.2350   55.9697   35.4855 C   0  0  0  0  0  0
   40.6922   57.6539   34.1108 C   0  0  0  0  0  0
   41.8538   57.5528   34.8620 C   0  0  0  0  0  0
   41.8282   57.2080   36.2116 C   0  0  0  0  0  0
   39.4513   57.3878   34.6801 C   0  0  0  0  0  0
   39.3659   56.9844   36.0265 C   0  0  0  0  0  0
   40.5802   56.9342   36.7877 C   0  0  0  0  0  0
   40.2377   56.6031   38.0891 N   0  0  0  0  0  0
   38.8869   56.3740   38.1385 C   0  0  0  0  0  0
   38.2906   56.5722   36.9040 C   0  0  0  0  0  0
   41.1360   56.4333   39.2293 C   0  0  0  0  0  0
   41.5876   54.9638   39.3993 C   0  0  0  0  0  0
   42.4700   54.3998   38.2634 C   0  0  0  0  0  0
   43.7028   55.1725   38.0659 N   0  0  0  0  0  0
   44.6433   55.0173   39.1744 C   0  0  0  0  0  0
   44.3503   54.7574   36.8228 C   0  0  0  0  0  0
   36.8606   56.3303   36.6244 C   0  0  0  0  0  0
   34.8242   55.8814   35.7504 C   0  0  0  0  0  0
   34.6965   56.1845   37.0438 N   0  0  0  0  0  0
   35.8526   56.4628   37.6484 C   0  0  0  0  0  0
   33.9044   55.6004   34.9831 O   0  0  0  0  0  0
   35.9734   56.7709   38.8351 O   0  0  0  0  0  0
   36.3016   56.3088   33.0291 C   0  0  0  0  0  0
   36.7993   56.0887   31.7522 C   0  0  0  0  0  0
   37.8242   55.1773   31.5449 C   0  0  0  0  0  0
   37.8505   54.6623   33.9508 C   0  0  0  0  0  0
   38.3593   54.4446   32.6283 C   0  0  0  0  0  0
   39.3886   53.4937   32.4174 C   0  0  0  0  0  0
   39.9089   52.7714   33.4843 C   0  0  0  0  0  0
   39.4195   52.9615   34.7693 C   0  0  0  0  0  0
   38.4044   53.8834   35.0084 C   0  0  0  0  0  0
   40.7537   57.9391   33.0701 H   0  0  0  0  0  0
   42.8038   57.7686   34.3941 H   0  0  0  0  0  0
   42.7431   57.1820   36.7826 H   0  0  0  0  0  0
   38.5701   57.4821   34.0688 H   0  0  0  0  0  0
   38.4493   56.0508   39.0740 H   0  0  0  0  0  0
   40.6200   56.7774   40.1271 H   0  0  0  0  0  0
   41.9917   57.0978   39.0993 H   0  0  0  0  0  0
   40.7008   54.3336   39.4782 H   0  0  0  0  0  0
   42.0872   54.8300   40.3585 H   0  0  0  0  0  0
   41.8899   54.4195   37.3387 H   0  0  0  0  0  0
   42.7008   53.3498   38.4534 H   0  0  0  0  0  0
   44.2259   55.3961   40.1068 H   0  0  0  0  0  0
   45.5566   55.5829   38.9843 H   0  0  0  0  0  0
   44.9218   53.9738   39.3250 H   0  0  0  0  0  0
   43.6897   54.9163   35.9698 H   0  0  0  0  0  0
   45.2542   55.3395   36.6408 H   0  0  0  0  0  0
   44.6252   53.7020   36.8345 H   0  0  0  0  0  0
   33.8073   56.2172   37.5214 H   0  0  0  0  0  0
   35.5118   57.0365   33.1502 H   0  0  0  0  0  0
   36.3895   56.6333   30.9143 H   0  0  0  0  0  0
   38.2080   55.0083   30.5475 H   0  0  0  0  0  0
   39.7669   53.3251   31.4183 H   0  0  0  0  0  0
   40.6929   52.0469   33.3099 H   0  0  0  0  0  0
   39.8295   52.3839   35.5854 H   0  0  0  0  0  0
   38.0371   53.9971   36.0161 H   0  0  0  0  0  0
  1  2  1  0  0  0
  1 24  2  0  0  0
  1 27  1  0  0  0
  2 18  2  0  0  0
  2 19  1  0  0  0
  3  6  1  0  0  0
  3  4  2  0  0  0
  3 33  1  0  0  0
  4  5  1  0  0  0
  4 34  1  0  0  0
  5  8  2  0  0  0
  5 35  1  0  0  0
  6  7  2  0  0  0
  6 36  1  0  0  0
  7 11  1  0  0  0
  7  8  1  0  0  0
  8  9  1  0  0  0
  9 10  1  0  0  0
  9 12  1  0  0  0
 10 11  2  0  0  0
 10 37  1  0  0  0
 11 18  1  0  0  0
 12 13  1  0  0  0
 12 38  1  0  0  0
 12 39  1  0  0  0
 13 14  1  0  0  0
 13 40  1  0  0  0
 13 41  1  0  0  0
 14 15  1  0  0  0
 14 42  1  0  0  0
 14 43  1  0  0  0
 15 16  1  0  0  0
 15 17  1  0  0  0
 16 44  1  0  0  0
 16 45  1  0  0  0
 16 46  1  0  0  0
 17 47  1  0  0  0
 17 48  1  0  0  0
 17 49  1  0  0  0
 18 21  1  0  0  0
 19 20  1  0  0  0
 19 22  2  0  0  0
 20 21  1  0  0  0
 20 50  1  0  0  0
 21 23  2  0  0  0
 24 25  1  0  0  0
 24 51  1  0  0  0
 25 26  2  0  0  0
 25 52  1  0  0  0
 26 28  1  0  0  0
 26 53  1  0  0  0
 27 28  1  0  0  0
 27 32  2  0  0  0
 28 29  2  0  0  0
 29 30  1  0  0  0
 29 54  1  0  0  0
 30 31  2  0  0  0
 30 55  1  0  0  0
 31 32  1  0  0  0
 31 56  1  0  0  0
 32 57  1  0  0  0
M  END
> <s_m_entry_id>
3388

> <s_m_entry_name>
dock_pv.117

> <s_m_Source_Path>
/home/csk/Desktop/cluster/DUD-E-result/kpcb

> <s_m_Source_File>
dock_pv.maegz

> <i_m_Source_File_Index>
117

> <chembl_id>
CHEMBL584483

> <chembl_pref_name>
None

> <i_lp_mmshare_version>
53161

> <i_f3d_flags>
0

> <r_lp_tautomer_probability>
1

> <s_lp_Force_Field>
OPLS_2005

> <r_lp_Energy>
35.544302

> <b_lp_Chiralities_Consistent>
1

> <s_lp_Variant>
CHEMBL3045_lig284-1

> <s_i_glide_gridfile>
glide-grid_2i0e

> <i_i_glide_lignum>
444

> <i_i_glide_rotatable_bonds>
6

> <r_i_docking_score>
-8.13358515370852

> <r_i_glide_ligand_efficiency>
-0.254174536053391

> <r_i_glide_ligand_efficiency_sa>
-0.806953850897135

> <r_i_glide_ligand_efficiency_ln>
-1.82133142907293

> <r_i_glide_gscore>
-8.13358515370852

> <r_i_glide_lipo>
-2.19989589678697

> <r_i_glide_hbond>
-0.480708243486896

> <r_i_glide_metal>
0

> <r_i_glide_rewards>
-2.37796106180799

> <r_i_glide_evdw>
-48.3541145324707

> <r_i_glide_ecoul>
-6.96055889129639

> <r_i_glide_erotb>
0.386769608691326

> <r_i_glide_esite>
0

> <r_i_glide_emodel>
-82.134661293059

> <r_i_glide_energy>
-55.3146734237671

> <r_i_glide_einternal>
1.47533118724823

> <i_i_glide_confnum>
66

> <i_i_glide_posenum>
139

> <r_i_glide_eff_state_penalty>
0

> <s_user_duplicate_titles>
CHEMBL3045_lig284

> <s_m_subgroup_title>
dock_pv

> <s_m_subgroupid>
dock_pv

> <b_m_subgroup_collapsed>
1

$$$$
CHEMBL3045_lig336
                    3D
 Schrodinger Suite 2021-1.
 55 60  0  0  1  0            999 V2000
   35.5571   56.4290   37.6434 N   0  0  0  0  0  0
   35.5123   55.9723   36.3906 C   0  0  0  0  0  0
   36.8794   55.9727   35.9459 C   0  0  0  0  0  0
   37.6539   56.4537   36.9330 C   0  0  0  0  0  0
   36.7932   56.7326   38.0562 C   0  0  0  0  0  0
   34.4984   55.6323   35.7844 O   0  0  0  0  0  0
   37.0772   57.1671   39.1707 O   0  0  0  0  0  0
   41.2368   56.5735   37.7283 N   0  0  0  0  0  0
   39.9137   56.4941   38.0766 C   0  0  0  0  0  0
   39.1150   56.6618   36.9555 C   0  0  0  0  0  0
   40.0292   56.9572   35.8650 C   0  0  0  0  0  0
   39.8890   57.2928   34.5032 C   0  0  0  0  0  0
   41.0151   57.3691   33.6837 C   0  0  0  0  0  0
   42.2870   57.1721   34.2112 C   0  0  0  0  0  0
   42.4926   56.9300   35.5708 C   0  0  0  0  0  0
   41.3566   56.8203   36.3795 C   0  0  0  0  0  0
   37.8552   54.9266   31.9482 N   0  0  0  0  0  0
   36.9669   55.8758   32.3330 C   0  0  0  0  0  0
   36.6616   56.1909   33.6144 N   0  0  0  0  0  0
   37.2768   55.5007   34.5961 C   0  0  0  0  0  0
   38.2743   54.5209   34.3162 C   0  0  0  0  0  0
   39.0479   53.8432   35.2858 C   0  0  0  0  0  0
   40.0882   53.0107   34.8944 C   0  0  0  0  0  0
   40.3314   52.7697   33.5430 C   0  0  0  0  0  0
   39.5474   53.3665   32.5606 C   0  0  0  0  0  0
   38.5300   54.2724   32.9313 C   0  0  0  0  0  0
   36.3904   56.6558   31.3384 N   0  0  0  0  0  0
   35.4993   57.7755   31.6717 C   0  0  0  0  0  0
   34.0380   57.3271   31.8577 C   0  0  0  0  0  0
   33.5674   56.6815   30.6386 N   0  0  0  0  0  0
   34.4399   55.5631   30.2750 C   0  0  0  0  0  0
   35.8937   56.0394   30.0947 C   0  0  0  0  0  0
   32.2151   56.1874   30.8222 C   0  0  0  0  0  0
   41.1023   52.3275   36.1096 Cl  0  0  0  0  0  0
   34.7321   56.5438   38.2130 H   0  0  0  0  0  0
   41.9862   56.4240   38.3891 H   0  0  0  0  0  0
   39.6439   56.2548   39.0970 H   0  0  0  0  0  0
   38.9148   57.4488   34.0750 H   0  0  0  0  0  0
   40.9020   57.5650   32.6209 H   0  0  0  0  0  0
   43.1427   57.2316   33.5547 H   0  0  0  0  0  0
   43.4901   56.8094   35.9664 H   0  0  0  0  0  0
   38.8862   54.0344   36.3340 H   0  0  0  0  0  0
   41.1450   52.1304   33.2360 H   0  0  0  0  0  0
   39.7428   53.1768   31.5131 H   0  0  0  0  0  0
   35.8568   58.3330   32.5381 H   0  0  0  0  0  0
   35.5703   58.4512   30.8367 H   0  0  0  0  0  0
   33.9424   56.6663   32.7223 H   0  0  0  0  0  0
   33.4237   58.2097   32.0379 H   0  0  0  0  0  0
   34.0941   55.1383   29.3316 H   0  0  0  0  0  0
   34.3956   54.7721   31.0258 H   0  0  0  0  0  0
   35.9006   56.7693   29.2845 H   0  0  0  0  0  0
   36.5297   55.2152   29.7696 H   0  0  0  0  0  0
   31.9012   55.6771   29.9129 H   0  0  0  0  0  0
   32.1438   55.4673   31.6369 H   0  0  0  0  0  0
   31.5189   57.0045   31.0134 H   0  0  0  0  0  0
  1  2  1  0  0  0
  1  5  1  0  0  0
  1 35  1  0  0  0
  2  3  1  0  0  0
  2  6  2  0  0  0
  3  4  2  0  0  0
  3 20  1  0  0  0
  4  5  1  0  0  0
  4 10  1  0  0  0
  5  7  2  0  0  0
  8  9  1  0  0  0
  8 16  1  0  0  0
  8 36  1  0  0  0
  9 10  2  0  0  0
  9 37  1  0  0  0
 10 11  1  0  0  0
 11 12  1  0  0  0
 11 16  2  0  0  0
 12 13  2  0  0  0
 12 38  1  0  0  0
 13 14  1  0  0  0
 13 39  1  0  0  0
 14 15  2  0  0  0
 14 40  1  0  0  0
 15 16  1  0  0  0
 15 41  1  0  0  0
 17 18  1  0  0  0
 17 26  2  0  0  0
 18 19  2  0  0  0
 18 27  1  0  0  0
 19 20  1  0  0  0
 20 21  2  0  0  0
 21 22  1  0  0  0
 21 26  1  0  0  0
 22 23  2  0  0  0
 22 42  1  0  0  0
 23 24  1  0  0  0
 23 34  1  0  0  0
 24 25  2  0  0  0
 24 43  1  0  0  0
 25 26  1  0  0  0
 25 44  1  0  0  0
 27 28  1  0  0  0
 27 32  1  0  0  0
 28 29  1  0  0  0
 28 45  1  0  0  0
 28 46  1  0  0  0
 29 30  1  0  0  0
 29 47  1  0  0  0
 29 48  1  0  0  0
 30 31  1  0  0  0
 30 33  1  0  0  0
 31 32  1  0  0  0
 31 49  1  0  0  0
 31 50  1  0  0  0
 32 51  1  0  0  0
 32 52  1  0  0  0
 33 53  1  0  0  0
 33 54  1  0  0  0
 33 55  1  0  0  0
M  END
> <s_m_entry_id>
3389

> <s_m_entry_name>
dock_pv.118

> <s_m_Source_Path>
/home/csk/Desktop/cluster/DUD-E-result/kpcb

> <s_m_Source_File>
dock_pv.maegz

> <i_m_Source_File_Index>
118

> <chembl_id>
CHEMBL2153751

> <chembl_pref_name>
None

> <i_lp_mmshare_version>
53161

> <i_f3d_flags>
0

> <r_lp_tautomer_probability>
1

> <s_lp_Force_Field>
OPLS_2005

> <r_lp_Energy>
42.224129

> <b_lp_Chiralities_Consistent>
1

> <s_lp_Variant>
CHEMBL3045_lig336-1

> <s_i_glide_gridfile>
glide-grid_2i0e

> <i_i_glide_lignum>
500

> <i_i_glide_rotatable_bonds>
3

> <r_i_docking_score>
-8.11834128396972

> <r_i_glide_ligand_efficiency>
-0.238774743646168

> <r_i_glide_ligand_efficiency_sa>
-0.773537476453875

> <r_i_glide_ligand_efficiency_ln>
-1.79356930138881

> <r_i_glide_gscore>
-8.11834128396972

> <r_i_glide_lipo>
-2.51465141000214

> <r_i_glide_hbond>
-0.314983546335539

> <r_i_glide_metal>
0

> <r_i_glide_rewards>
-2.37511520434594

> <r_i_glide_evdw>
-54.4748954772949

> <r_i_glide_ecoul>
-2.53155136108398

> <r_i_glide_erotb>
0.189886354741247

> <r_i_glide_esite>
0

> <r_i_glide_emodel>
-78.5881160421388

> <r_i_glide_energy>
-57.0064468383789

> <r_i_glide_einternal>
3.9198215007782

> <i_i_glide_confnum>
43

> <i_i_glide_posenum>
61

> <r_i_glide_eff_state_penalty>
0

> <s_user_duplicate_titles>
CHEMBL3045_lig336

> <s_m_subgroup_title>
dock_pv

> <s_m_subgroupid>
dock_pv

> <b_m_subgroup_collapsed>
1

$$$$
CHEMBL3045_lig573
                    3D
 Schrodinger Suite 2021-1.
 65 69  0  0  1  0            999 V2000
   38.7069   55.1088   30.8332 C   0  0  0  0  0  0
   38.4715   54.4015   32.1686 C   0  0  1  0  0  0
   39.5603   53.3452   32.5190 C   0  0  0  0  0  0
   40.8365   53.9974   32.7978 N   0  0  2  0  0  0
   41.9783   53.1807   33.1525 C   0  0  0  0  0  0
   42.9961   54.1741   33.7211 C   0  0  0  0  0  0
   42.1510   55.3669   34.1950 C   0  0  0  0  0  0
   40.7134   54.9181   33.9173 C   0  0  1  0  0  0
   39.7038   56.0353   33.5770 C   0  0  0  0  0  0
   38.4061   55.3591   33.2950 N   0  0  0  0  0  0
   37.1726   55.7814   33.7006 C   0  0  0  0  0  0
   36.2006   55.6824   32.9426 O   0  0  0  0  0  0
   36.9857   56.1541   35.0012 N   0  0  0  0  0  0
   38.0685   56.3949   35.9705 C   0  0  0  0  0  0
   37.3816   56.6080   37.2583 C   0  0  0  0  0  0
   37.6005   56.7946   38.6243 C   0  0  0  0  0  0
   38.7812   56.7701   39.3414 N   0  0  0  0  0  0
   40.0179   57.0105   38.8558 C   0  0  0  0  0  0
   40.2332   57.4338   37.7185 O   0  0  0  0  0  0
   41.2280   56.7893   39.8101 C   0  0  2  0  0  0
   42.3929   56.0275   39.1140 C   0  0  0  0  0  0
   42.1582   54.5072   39.0558 C   0  0  0  0  0  0
   41.7557   53.9711   40.4357 C   0  0  0  0  0  0
   40.5614   54.7495   41.0055 C   0  0  0  0  0  0
   40.8319   56.1548   41.0421 O   0  0  0  0  0  0
   36.4443   56.8971   39.2369 N   0  0  0  0  0  0
   35.5011   56.7718   38.2893 N   0  0  0  0  0  0
   36.0493   56.5977   37.0566 C   0  0  0  0  0  0
   35.6437   56.3006   35.6422 C   0  0  0  0  0  0
   34.8010   55.0134   35.6384 C   0  0  0  0  0  0
   34.8185   57.4404   35.0228 C   0  0  0  0  0  0
   38.7393   54.3691   30.0374 H   0  0  0  0  0  0
   37.9111   55.8130   30.5956 H   0  0  0  0  0  0
   39.6682   55.6177   30.7995 H   0  0  0  0  0  0
   37.5269   53.8685   32.0597 H   0  0  0  0  0  0
   39.2582   52.7780   33.4008 H   0  0  0  0  0  0
   39.6692   52.6184   31.7113 H   0  0  0  0  0  0
   41.7277   52.3742   33.8433 H   0  0  0  0  0  0
   42.3293   52.6898   32.2452 H   0  0  0  0  0  0
   43.5628   53.7216   34.5365 H   0  0  0  0  0  0
   43.7149   54.4753   32.9568 H   0  0  0  0  0  0
   42.4150   56.2951   33.6848 H   0  0  0  0  0  0
   42.3083   55.4942   35.2670 H   0  0  0  0  0  0
   40.3369   54.4318   34.8204 H   0  0  0  0  0  0
   40.0441   56.5319   32.6692 H   0  0  0  0  0  0
   39.7073   56.8365   34.2981 H   0  0  0  0  0  0
   38.5916   57.3203   35.7348 H   0  0  0  0  0  0
   38.7781   55.5707   36.0190 H   0  0  0  0  0  0
   38.7009   56.5894   40.3345 H   0  0  0  0  0  0
   41.5662   57.8013   40.0363 H   0  0  0  0  0  0
   43.3083   56.2162   39.6758 H   0  0  0  0  0  0
   42.5897   56.4154   38.1130 H   0  0  0  0  0  0
   43.0560   53.9979   38.6955 H   0  0  0  0  0  0
   41.3723   54.2853   38.3324 H   0  0  0  0  0  0
   42.5998   54.0478   41.1188 H   0  0  0  0  0  0
   41.5024   52.9127   40.3639 H   0  0  0  0  0  0
   40.3549   54.4132   42.0210 H   0  0  0  0  0  0
   39.6565   54.5358   40.4371 H   0  0  0  0  0  0
   34.5048   56.8044   38.4870 H   0  0  0  0  0  0
   33.9025   55.1214   36.2496 H   0  0  0  0  0  0
   34.4624   54.7701   34.6333 H   0  0  0  0  0  0
   35.3617   54.1661   36.0351 H   0  0  0  0  0  0
   33.9042   57.5819   35.5970 H   0  0  0  0  0  0
   35.3745   58.3723   34.9776 H   0  0  0  0  0  0
   34.5102   57.2109   34.0035 H   0  0  0  0  0  0
  1  2  1  0  0  0
  1 32  1  0  0  0
  1 33  1  0  0  0
  1 34  1  0  0  0
  2  3  1  0  0  0
  2 10  1  0  0  0
  2 35  1  0  0  0
  3  4  1  0  0  0
  3 36  1  0  0  0
  3 37  1  0  0  0
  4  5  1  0  0  0
  4  8  1  0  0  0
  5  6  1  0  0  0
  5 38  1  0  0  0
  5 39  1  0  0  0
  6  7  1  0  0  0
  6 40  1  0  0  0
  6 41  1  0  0  0
  7  8  1  0  0  0
  7 42  1  0  0  0
  7 43  1  0  0  0
  8  9  1  0  0  0
  8 44  1  0  0  0
  9 10  1  0  0  0
  9 45  1  0  0  0
  9 46  1  0  0  0
 10 11  1  0  0  0
 11 12  2  0  0  0
 11 13  1  0  0  0
 13 14  1  0  0  0
 13 29  1  0  0  0
 14 15  1  0  0  0
 14 47  1  0  0  0
 14 48  1  0  0  0
 15 16  1  0  0  0
 15 28  2  0  0  0
 16 17  1  0  0  0
 16 26  2  0  0  0
 17 18  1  0  0  0
 17 49  1  0  0  0
 18 19  2  0  0  0
 18 20  1  0  0  0
 20 21  1  0  0  0
 20 25  1  0  0  0
 20 50  1  0  0  0
 21 22  1  0  0  0
 21 51  1  0  0  0
 21 52  1  0  0  0
 22 23  1  0  0  0
 22 53  1  0  0  0
 22 54  1  0  0  0
 23 24  1  0  0  0
 23 55  1  0  0  0
 23 56  1  0  0  0
 24 25  1  0  0  0
 24 57  1  0  0  0
 24 58  1  0  0  0
 26 27  1  0  0  0
 27 28  1  0  0  0
 27 59  1  0  0  0
 28 29  1  0  0  0
 29 30  1  0  0  0
 29 31  1  0  0  0
 30 60  1  0  0  0
 30 61  1  0  0  0
 30 62  1  0  0  0
 31 63  1  0  0  0
 31 64  1  0  0  0
 31 65  1  0  0  0
M  END
> <s_m_entry_id>
3390

> <s_m_entry_name>
dock_pv.119

> <s_m_Source_Path>
/home/csk/Desktop/cluster/DUD-E-result/kpcb

> <s_m_Source_File>
dock_pv.maegz

> <i_m_Source_File_Index>
119

> <chembl_id>
CHEMBL3662822

> <chembl_pref_name>
None

> <i_lp_mmshare_version>
53161

> <i_f3d_flags>
0

> <r_lp_tautomer_probability>
0.5

> <s_lp_Force_Field>
OPLS_2005

> <r_lp_Energy>
116.203101

> <b_lp_Chiralities_Consistent>
1

> <s_lp_Variant>
CHEMBL3045_lig573-1

> <s_i_glide_gridfile>
glide-grid_2i0e

> <i_i_glide_lignum>
902

> <i_i_glide_rotatable_bonds>
5

> <r_i_docking_score>
-8.10028157324462

> <r_i_glide_ligand_efficiency>
-0.261299405588536

> <r_i_glide_ligand_efficiency_sa>
-0.820840896257613

> <r_i_glide_ligand_efficiency_ln>
-1.82686173858393

> <r_i_glide_gscore>
-8.10028157324462

> <r_i_glide_lipo>
-2.22731827774125

> <r_i_glide_hbond>
-0.864

> <r_i_glide_metal>
0

> <r_i_glide_rewards>
-2.11219610514243

> <r_i_glide_evdw>
-44.0719833374023

> <r_i_glide_ecoul>
-7.10654067993164

> <r_i_glide_erotb>
0.37540116713553

> <r_i_glide_esite>
-0.00258808863660038

> <r_i_glide_emodel>
-68.9781780641813

> <r_i_glide_energy>
-51.178524017334

> <r_i_glide_einternal>
10.8903112411499

> <i_i_glide_confnum>
69

> <i_i_glide_posenum>
271

> <r_i_glide_eff_state_penalty>
0

> <s_user_duplicate_titles>
CHEMBL3045_lig573

> <s_m_subgroup_title>
dock_pv

> <s_m_subgroupid>
dock_pv

> <b_m_subgroup_collapsed>
1

$$$$
CHEMBL3045_lig631
                    3D
 Schrodinger Suite 2021-1.
 63 67  0  0  1  0            999 V2000
   40.9118   56.5733   32.6866 C   0  0  0  0  0  0
   40.4409   55.3698   31.8330 C   0  0  2  0  0  0
   38.9023   55.3764   31.6290 C   0  0  0  0  0  0
   38.2770   55.0155   32.9200 N   0  0  0  0  0  0
   38.6709   53.7015   33.4874 C   0  0  1  0  0  0
   38.1670   52.5020   32.6594 C   0  0  0  0  0  0
   40.2225   53.6921   33.5813 C   0  0  0  0  0  0
   40.8426   54.0327   32.2954 N   0  0  2  0  0  0
   42.2884   53.8325   32.3349 C   0  0  0  0  0  0
   37.1026   55.5982   33.2752 C   0  0  0  0  0  0
   36.2612   55.8995   32.4234 O   0  0  0  0  0  0
   36.9159   55.8587   34.6063 N   0  0  0  0  0  0
   38.0458   56.0561   35.5489 C   0  0  0  0  0  0
   37.3752   56.3742   36.8488 C   0  0  0  0  0  0
   37.5844   56.5923   38.2266 C   0  0  0  0  0  0
   38.7579   56.5506   38.9609 N   0  0  0  0  0  0
   39.9907   56.8198   38.4810 C   0  0  0  0  0  0
   40.2340   57.1710   37.3232 O   0  0  0  0  0  0
   41.0646   56.6839   39.4386 C   0  0  0  0  0  0
   42.4169   56.7738   39.1188 C   0  0  0  0  0  0
   43.1342   56.6278   40.2548 O   0  0  0  0  0  0
   42.1858   56.4537   41.2050 C   0  0  0  0  0  0
   40.9514   56.4816   40.7492 N   0  0  0  0  0  0
   42.6658   56.2752   42.6343 C   0  0  0  0  0  0
   41.8913   56.8795   43.7800 C   0  0  0  0  0  0
   41.9265   55.3754   43.5952 C   0  0  0  0  0  0
   36.4302   56.7722   38.8370 N   0  0  0  0  0  0
   35.4997   56.7125   37.8749 N   0  0  0  0  0  0
   36.0424   56.4722   36.6461 C   0  0  0  0  0  0
   35.6199   56.2824   35.2144 C   0  0  0  0  0  0
   34.5359   55.1850   35.1305 C   0  0  0  0  0  0
   35.1064   57.6235   34.6368 C   0  0  0  0  0  0
   40.5492   57.5130   32.2704 H   0  0  0  0  0  0
   40.5437   56.5267   33.7106 H   0  0  0  0  0  0
   41.9982   56.6343   32.7288 H   0  0  0  0  0  0
   40.8788   55.4869   30.8399 H   0  0  0  0  0  0
   38.6439   54.5936   30.9130 H   0  0  0  0  0  0
   38.5534   56.3323   31.2347 H   0  0  0  0  0  0
   38.2506   53.5612   34.4828 H   0  0  0  0  0  0
   38.3306   51.5720   33.1972 H   0  0  0  0  0  0
   37.1041   52.5847   32.4370 H   0  0  0  0  0  0
   38.7012   52.4034   31.7118 H   0  0  0  0  0  0
   40.5656   52.7143   33.9296 H   0  0  0  0  0  0
   40.5491   54.4088   34.3358 H   0  0  0  0  0  0
   42.5173   52.7954   32.5889 H   0  0  0  0  0  0
   42.7364   54.0363   31.3614 H   0  0  0  0  0  0
   42.7670   54.4720   33.0775 H   0  0  0  0  0  0
   38.6768   56.8764   35.2040 H   0  0  0  0  0  0
   38.6782   55.1766   35.6449 H   0  0  0  0  0  0
   38.6637   56.4144   39.9588 H   0  0  0  0  0  0
   42.9677   56.9306   38.2030 H   0  0  0  0  0  0
   43.7514   56.2835   42.7323 H   0  0  0  0  0  0
   40.9780   57.4310   43.5540 H   0  0  0  0  0  0
   42.4496   57.3258   44.6037 H   0  0  0  0  0  0
   42.5028   54.7711   44.2955 H   0  0  0  0  0  0
   41.0380   54.8560   43.2354 H   0  0  0  0  0  0
   34.5109   56.8260   38.0664 H   0  0  0  0  0  0
   33.6081   55.5067   35.6078 H   0  0  0  0  0  0
   34.2976   54.9334   34.0970 H   0  0  0  0  0  0
   34.8543   54.2765   35.6371 H   0  0  0  0  0  0
   34.3031   58.0324   35.2456 H   0  0  0  0  0  0
   35.8962   58.3719   34.5870 H   0  0  0  0  0  0
   34.7021   57.5068   33.6303 H   0  0  0  0  0  0
  1  2  1  0  0  0
  1 33  1  0  0  0
  1 34  1  0  0  0
  1 35  1  0  0  0
  2  3  1  0  0  0
  2  8  1  0  0  0
  2 36  1  0  0  0
  3  4  1  0  0  0
  3 37  1  0  0  0
  3 38  1  0  0  0
  4  5  1  0  0  0
  4 10  1  0  0  0
  5  6  1  0  0  0
  5  7  1  0  0  0
  5 39  1  0  0  0
  6 40  1  0  0  0
  6 41  1  0  0  0
  6 42  1  0  0  0
  7  8  1  0  0  0
  7 43  1  0  0  0
  7 44  1  0  0  0
  8  9  1  0  0  0
  9 45  1  0  0  0
  9 46  1  0  0  0
  9 47  1  0  0  0
 10 11  2  0  0  0
 10 12  1  0  0  0
 12 13  1  0  0  0
 12 30  1  0  0  0
 13 14  1  0  0  0
 13 48  1  0  0  0
 13 49  1  0  0  0
 14 15  1  0  0  0
 14 29  2  0  0  0
 15 16  1  0  0  0
 15 27  2  0  0  0
 16 17  1  0  0  0
 16 50  1  0  0  0
 17 18  2  0  0  0
 17 19  1  0  0  0
 19 20  2  0  0  0
 19 23  1  0  0  0
 20 21  1  0  0  0
 20 51  1  0  0  0
 21 22  1  0  0  0
 22 23  2  0  0  0
 22 24  1  0  0  0
 24 25  1  0  0  0
 24 26  1  0  0  0
 24 52  1  0  0  0
 25 26  1  0  0  0
 25 53  1  0  0  0
 25 54  1  0  0  0
 26 55  1  0  0  0
 26 56  1  0  0  0
 27 28  1  0  0  0
 28 29  1  0  0  0
 28 57  1  0  0  0
 29 30  1  0  0  0
 30 31  1  0  0  0
 30 32  1  0  0  0
 31 58  1  0  0  0
 31 59  1  0  0  0
 31 60  1  0  0  0
 32 61  1  0  0  0
 32 62  1  0  0  0
 32 63  1  0  0  0
M  END
> <s_m_entry_id>
3391

> <s_m_entry_name>
dock_pv.120

> <s_m_Source_Path>
/home/csk/Desktop/cluster/DUD-E-result/kpcb

> <s_m_Source_File>
dock_pv.maegz

> <i_m_Source_File_Index>
120

> <chembl_id>
CHEMBL3662879

> <chembl_pref_name>
None

> <i_lp_mmshare_version>
53161

> <i_f3d_flags>
0

> <r_lp_tautomer_probability>
0.5

> <s_lp_Force_Field>
OPLS_2005

> <r_lp_Energy>
97.968878

> <b_lp_Chiralities_Consistent>
1

> <s_lp_Variant>
CHEMBL3045_lig631-1

> <s_i_glide_gridfile>
glide-grid_2i0e

> <i_i_glide_lignum>
1030

> <i_i_glide_rotatable_bonds>
6

> <r_i_docking_score>
-8.09126681170724

> <r_i_glide_ligand_efficiency>
-0.252852087865851

> <r_i_glide_ligand_efficiency_sa>
-0.802755339613836

> <r_i_glide_ligand_efficiency_ln>
-1.81185519874441

> <r_i_glide_gscore>
-8.09126681170724

> <r_i_glide_lipo>
-2.66614165041691

> <r_i_glide_hbond>
-0.734607803653418

> <r_i_glide_metal>
0

> <r_i_glide_rewards>
-2.02013666322835

> <r_i_glide_evdw>
-46.6305961608887

> <r_i_glide_ecoul>
-5.12811708450317

> <r_i_glide_erotb>
0.430366676311352

> <r_i_glide_esite>
0

> <r_i_glide_emodel>
-69.6455630087428

> <r_i_glide_energy>
-51.7587132453918

> <r_i_glide_einternal>
11.5608348846436

> <i_i_glide_confnum>
9

> <i_i_glide_posenum>
243

> <r_i_glide_eff_state_penalty>
0

> <s_user_duplicate_titles>
CHEMBL3045_lig631

> <s_m_subgroup_title>
dock_pv

> <s_m_subgroupid>
dock_pv

> <b_m_subgroup_collapsed>
1

$$$$
CHEMBL3045_lig327
                    3D
 Schrodinger Suite 2021-1.
 43 45  0  0  1  0            999 V2000
   39.1105   52.6975   34.1071 C   0  0  0  0  0  0
   40.5183   53.3206   34.0103 C   0  0  0  0  0  0
   41.2114   52.8662   32.7119 C   0  0  0  0  0  0
   36.3654   56.7802   38.8368 N   0  0  0  0  0  0
   37.7049   56.5854   38.8691 C   0  0  0  0  0  0
   38.4694   56.2601   37.7529 C   0  0  0  0  0  0
   35.7552   56.6803   37.6338 C   0  0  0  0  0  0
   36.4186   56.3822   36.4210 C   0  0  0  0  0  0
   37.8251   56.1406   36.4864 C   0  0  0  0  0  0
   38.4802   55.7895   35.2727 C   0  0  0  0  0  0
   37.8282   55.7628   34.0853 N   0  0  0  0  0  0
   36.4975   56.0223   34.0151 C   0  0  0  0  0  0
   35.7573   56.3132   35.1704 C   0  0  0  0  0  0
   35.8976   55.9683   32.6350 C   0  0  0  0  0  0
   34.5488   56.2894   32.3987 C   0  0  0  0  0  0
   34.0361   56.2441   31.0991 C   0  0  0  0  0  0
   34.7855   55.9002   30.0324 N   0  0  0  0  0  0
   36.0789   55.5720   30.2497 C   0  0  0  0  0  0
   36.6640   55.5947   31.5142 C   0  0  0  0  0  0
   39.8480   55.4460   35.2796 N   0  0  0  0  0  0
   40.5185   54.8763   34.1020 C   0  0  0  0  0  0
   41.2958   52.7721   35.1077 N   0  0  0  0  0  0
   32.7026   56.5390   30.8371 N   0  0  0  0  0  0
   38.4568   53.0596   33.3106 H   0  0  0  0  0  0
   38.6331   52.9287   35.0615 H   0  0  0  0  0  0
   39.1460   51.6100   34.0408 H   0  0  0  0  0  0
   40.7018   53.2629   31.8324 H   0  0  0  0  0  0
   42.2520   53.1942   32.6659 H   0  0  0  0  0  0
   41.2212   51.7785   32.6100 H   0  0  0  0  0  0
   38.1750   56.6803   39.8379 H   0  0  0  0  0  0
   39.5338   56.0992   37.8473 H   0  0  0  0  0  0
   34.6882   56.8559   37.6340 H   0  0  0  0  0  0
   34.6954   56.4968   35.1434 H   0  0  0  0  0  0
   33.9013   56.5684   33.2075 H   0  0  0  0  0  0
   36.6392   55.2265   29.3929 H   0  0  0  0  0  0
   37.7013   55.3068   31.6108 H   0  0  0  0  0  0
   40.2147   55.1138   36.1590 H   0  0  0  0  0  0
   41.5457   55.2404   34.1093 H   0  0  0  0  0  0
   40.0928   55.2915   33.1867 H   0  0  0  0  0  0
   41.3825   51.7690   34.9379 H   0  0  0  0  0  0
   42.2423   53.1212   35.0510 H   0  0  0  0  0  0
   32.0667   56.7726   31.5827 H   0  0  0  0  0  0
   32.3897   56.4246   29.8786 H   0  0  0  0  0  0
  1  2  1  0  0  0
  1 24  1  0  0  0
  1 25  1  0  0  0
  1 26  1  0  0  0
  2  3  1  0  0  0
  2 21  1  0  0  0
  2 22  1  0  0  0
  3 27  1  0  0  0
  3 28  1  0  0  0
  3 29  1  0  0  0
  4  7  1  0  0  0
  4  5  2  0  0  0
  5  6  1  0  0  0
  5 30  1  0  0  0
  6  9  2  0  0  0
  6 31  1  0  0  0
  7  8  2  0  0  0
  7 32  1  0  0  0
  8 13  1  0  0  0
  8  9  1  0  0  0
  9 10  1  0  0  0
 10 20  1  0  0  0
 10 11  2  0  0  0
 11 12  1  0  0  0
 12 13  2  0  0  0
 12 14  1  0  0  0
 13 33  1  0  0  0
 14 15  2  0  0  0
 14 19  1  0  0  0
 15 16  1  0  0  0
 15 34  1  0  0  0
 16 17  2  0  0  0
 16 23  1  0  0  0
 17 18  1  0  0  0
 18 19  2  0  0  0
 18 35  1  0  0  0
 19 36  1  0  0  0
 20 21  1  0  0  0
 20 37  1  0  0  0
 21 38  1  0  0  0
 21 39  1  0  0  0
 22 40  1  0  0  0
 22 41  1  0  0  0
 23 42  1  0  0  0
 23 43  1  0  0  0
M  END
> <s_m_entry_id>
3392

> <s_m_entry_name>
dock_pv.121

> <s_m_Source_Path>
/home/csk/Desktop/cluster/DUD-E-result/kpcb

> <s_m_Source_File>
dock_pv.maegz

> <i_m_Source_File_Index>
121

> <chembl_id>
CHEMBL2147548

> <chembl_pref_name>
None

> <i_lp_mmshare_version>
53161

> <i_f3d_flags>
0

> <r_lp_tautomer_probability>
0.999999772200052

> <s_lp_Force_Field>
OPLS_2005

> <r_lp_Energy>
15.806154

> <b_lp_Chiralities_Consistent>
1

> <s_lp_Variant>
CHEMBL3045_lig327-1

> <s_i_glide_gridfile>
glide-grid_2i0e

> <i_i_glide_lignum>
491

> <i_i_glide_rotatable_bonds>
4

> <r_i_docking_score>
-8.07629087266911

> <r_i_glide_ligand_efficiency>
-0.351143081420396

> <r_i_glide_ligand_efficiency_sa>
-0.998604213411088

> <r_i_glide_ligand_efficiency_ln>
-1.95292036476819

> <r_i_glide_gscore>
-8.07629087266911

> <r_i_glide_lipo>
-2.668500685457

> <r_i_glide_hbond>
-0.653565452655364

> <r_i_glide_metal>
0

> <r_i_glide_rewards>
-2.24749728248551

> <r_i_glide_evdw>
-36.9640235900879

> <r_i_glide_ecoul>
-8.28101348876953

> <r_i_glide_erotb>
0.583625750748594

> <r_i_glide_esite>
0

> <r_i_glide_emodel>
-66.4202980343369

> <r_i_glide_energy>
-45.2450370788574

> <r_i_glide_einternal>
2.11444664001465

> <i_i_glide_confnum>
28

> <i_i_glide_posenum>
320

> <r_i_glide_eff_state_penalty>
0

> <s_user_duplicate_titles>
CHEMBL3045_lig327

> <s_m_subgroup_title>
dock_pv

> <s_m_subgroupid>
dock_pv

> <b_m_subgroup_collapsed>
1

$$$$
CHEMBL3045_lig630
                    3D
 Schrodinger Suite 2021-1.
 62 65  0  0  1  0            999 V2000
   42.1113   53.9108   37.6900 C   0  0  0  0  0  0
   42.8743   55.0606   38.3652 C   0  0  0  0  0  0
   42.1088   55.6720   39.5251 C   0  0  0  0  0  0
   42.7228   55.6537   40.7316 O   0  0  0  0  0  0
   41.8167   56.2116   41.5680 C   0  0  0  0  0  0
   40.7011   56.5774   40.9865 N   0  0  0  0  0  0
   40.8449   56.2465   39.7070 C   0  0  0  0  0  0
   39.8769   56.4885   38.6635 C   0  0  0  0  0  0
   40.2377   56.6684   37.5000 O   0  0  0  0  0  0
   38.5938   56.4770   39.0867 N   0  0  0  0  0  0
   37.4725   56.5735   38.2785 C   0  0  0  0  0  0
   36.3013   56.8011   38.8370 N   0  0  0  0  0  0
   35.4036   56.7652   37.8435 N   0  0  0  0  0  0
   35.9859   56.4955   36.6407 C   0  0  0  0  0  0
   37.3097   56.3718   36.8901 C   0  0  0  0  0  0
   38.0109   56.0376   35.6071 C   0  0  0  0  0  0
   36.9066   55.8599   34.6293 N   0  0  0  0  0  0
   37.1193   55.5956   33.3024 C   0  0  0  0  0  0
   36.2965   55.9056   32.4356 O   0  0  0  0  0  0
   38.2924   54.9968   32.9647 N   0  0  0  0  0  0
   38.9175   55.3018   31.6568 C   0  0  0  0  0  0
   40.4582   55.2782   31.8395 C   0  0  1  0  0  0
   40.9406   56.5486   32.5747 C   0  0  0  0  0  0
   40.8697   53.9871   32.4171 N   0  0  1  0  0  0
   42.3176   53.8050   32.5005 C   0  0  0  0  0  0
   40.2176   53.7152   33.7012 C   0  0  0  0  0  0
   38.6700   53.6910   33.5576 C   0  0  2  0  0  0
   38.1938   52.4800   32.7296 C   0  0  0  0  0  0
   35.5991   56.2950   35.2034 C   0  0  0  0  0  0
   34.5127   55.2007   35.1073 C   0  0  0  0  0  0
   35.1008   57.6347   34.6150 C   0  0  0  0  0  0
   42.7400   53.3977   36.9613 H   0  0  0  0  0  0
   41.7913   53.1754   38.4255 H   0  0  0  0  0  0
   41.2196   54.2587   37.1675 H   0  0  0  0  0  0
   43.1182   55.8251   37.6280 H   0  0  0  0  0  0
   43.8341   54.6739   38.7089 H   0  0  0  0  0  0
   42.1065   56.2969   42.6046 H   0  0  0  0  0  0
   38.4325   56.4159   40.0834 H   0  0  0  0  0  0
   34.4118   56.9060   38.0023 H   0  0  0  0  0  0
   38.6681   56.8459   35.2842 H   0  0  0  0  0  0
   38.6240   55.1475   35.7275 H   0  0  0  0  0  0
   38.6445   54.4902   30.9830 H   0  0  0  0  0  0
   38.5698   56.2378   31.2171 H   0  0  0  0  0  0
   40.8870   55.2994   30.8373 H   0  0  0  0  0  0
   40.6115   57.4379   32.0388 H   0  0  0  0  0  0
   40.5423   56.6186   33.5860 H   0  0  0  0  0  0
   42.0265   56.5958   32.6383 H   0  0  0  0  0  0
   42.5541   52.7937   32.8293 H   0  0  0  0  0  0
   42.7815   53.9489   31.5226 H   0  0  0  0  0  0
   42.7764   54.4960   33.2106 H   0  0  0  0  0  0
   40.5610   52.7680   34.1184 H   0  0  0  0  0  0
   40.5094   54.4807   34.4212 H   0  0  0  0  0  0
   38.2224   53.5631   34.5427 H   0  0  0  0  0  0
   38.3020   51.5611   33.2988 H   0  0  0  0  0  0
   37.1487   52.5757   32.4384 H   0  0  0  0  0  0
   38.7736   52.3504   31.8153 H   0  0  0  0  0  0
   33.5765   55.5329   35.5603 H   0  0  0  0  0  0
   34.2933   54.9341   34.0728 H   0  0  0  0  0  0
   34.8148   54.2977   35.6357 H   0  0  0  0  0  0
   34.3013   58.0564   35.2251 H   0  0  0  0  0  0
   35.9004   58.3722   34.5657 H   0  0  0  0  0  0
   34.7039   57.5193   33.6070 H   0  0  0  0  0  0
  1  2  1  0  0  0
  1 32  1  0  0  0
  1 33  1  0  0  0
  1 34  1  0  0  0
  2  3  1  0  0  0
  2 35  1  0  0  0
  2 36  1  0  0  0
  3  4  1  0  0  0
  3  7  2  0  0  0
  4  5  1  0  0  0
  5  6  2  0  0  0
  5 37  1  0  0  0
  6  7  1  0  0  0
  7  8  1  0  0  0
  8  9  2  0  0  0
  8 10  1  0  0  0
 10 11  1  0  0  0
 10 38  1  0  0  0
 11 12  2  0  0  0
 11 15  1  0  0  0
 12 13  1  0  0  0
 13 14  1  0  0  0
 13 39  1  0  0  0
 14 15  2  0  0  0
 14 29  1  0  0  0
 15 16  1  0  0  0
 16 17  1  0  0  0
 16 40  1  0  0  0
 16 41  1  0  0  0
 17 18  1  0  0  0
 17 29  1  0  0  0
 18 19  2  0  0  0
 18 20  1  0  0  0
 20 21  1  0  0  0
 20 27  1  0  0  0
 21 22  1  0  0  0
 21 42  1  0  0  0
 21 43  1  0  0  0
 22 23  1  0  0  0
 22 24  1  0  0  0
 22 44  1  0  0  0
 23 45  1  0  0  0
 23 46  1  0  0  0
 23 47  1  0  0  0
 24 25  1  0  0  0
 24 26  1  0  0  0
 25 48  1  0  0  0
 25 49  1  0  0  0
 25 50  1  0  0  0
 26 27  1  0  0  0
 26 51  1  0  0  0
 26 52  1  0  0  0
 27 28  1  0  0  0
 27 53  1  0  0  0
 28 54  1  0  0  0
 28 55  1  0  0  0
 28 56  1  0  0  0
 29 30  1  0  0  0
 29 31  1  0  0  0
 30 57  1  0  0  0
 30 58  1  0  0  0
 30 59  1  0  0  0
 31 60  1  0  0  0
 31 61  1  0  0  0
 31 62  1  0  0  0
M  END
> <s_m_entry_id>
3393

> <s_m_entry_name>
dock_pv.122

> <s_m_Source_Path>
/home/csk/Desktop/cluster/DUD-E-result/kpcb

> <s_m_Source_File>
dock_pv.maegz

> <i_m_Source_File_Index>
122

> <chembl_id>
CHEMBL3662878

> <chembl_pref_name>
None

> <i_lp_mmshare_version>
53161

> <i_f3d_flags>
0

> <r_lp_tautomer_probability>
0.5

> <s_lp_Force_Field>
OPLS_2005

> <r_lp_Energy>
94.290726

> <b_lp_Chiralities_Consistent>
1

> <s_lp_Variant>
CHEMBL3045_lig630-1

> <s_i_glide_gridfile>
glide-grid_2i0e

> <i_i_glide_lignum>
1028

> <i_i_glide_rotatable_bonds>
6

> <r_i_docking_score>
-8.06689082126775

> <r_i_glide_ligand_efficiency>
-0.260222284557024

> <r_i_glide_ligand_efficiency_sa>
-0.81745724909281

> <r_i_glide_ligand_efficiency_ln>
-1.81933110070949

> <r_i_glide_gscore>
-8.06689082126775

> <r_i_glide_lipo>
-2.29037307226405

> <r_i_glide_hbond>
-0.864

> <r_i_glide_metal>
0

> <r_i_glide_rewards>
-2.14185426366118

> <r_i_glide_evdw>
-45.2340393066406

> <r_i_glide_ecoul>
-5.90660953521729

> <r_i_glide_erotb>
0.377029910272109

> <r_i_glide_esite>
0

> <r_i_glide_emodel>
-70.0411424266679

> <r_i_glide_energy>
-51.1406488418579

> <r_i_glide_einternal>
7.94603681564331

> <i_i_glide_confnum>
13

> <i_i_glide_posenum>
243

> <r_i_glide_eff_state_penalty>
0

> <s_user_duplicate_titles>
CHEMBL3045_lig630

> <s_m_subgroup_title>
dock_pv

> <s_m_subgroupid>
dock_pv

> <b_m_subgroup_collapsed>
1

$$$$
CHEMBL3045_lig322
                    3D
 Schrodinger Suite 2021-1.
 42 45  0  0  1  0            999 V2000
   36.4977   56.9854   38.8374 N   0  0  0  0  0  0
   37.8402   56.8958   38.7118 C   0  0  0  0  0  0
   38.4801   56.5782   37.5148 C   0  0  0  0  0  0
   35.7533   56.7713   37.7324 C   0  0  0  0  0  0
   36.2774   56.4436   36.4637 C   0  0  0  0  0  0
   37.6951   56.2976   36.3527 C   0  0  0  0  0  0
   38.2084   55.9208   35.0675 C   0  0  0  0  0  0
   37.4005   55.8077   33.9806 N   0  0  0  0  0  0
   36.0590   55.9793   34.0931 C   0  0  0  0  0  0
   35.4618   56.2777   35.3206 C   0  0  0  0  0  0
   35.2698   55.8498   32.8270 C   0  0  0  0  0  0
   35.8579   56.0848   31.5705 C   0  0  0  0  0  0
   35.0881   55.9605   30.4145 C   0  0  0  0  0  0
   33.7776   55.6199   30.4392 N   0  0  0  0  0  0
   33.2070   55.3899   31.6448 C   0  0  0  0  0  0
   33.9108   55.4887   32.8461 C   0  0  0  0  0  0
   39.5539   55.6109   34.8353 N   0  0  0  0  0  0
   40.1817   55.6313   33.5012 C   0  0  0  0  0  0
   40.0918   54.2447   32.8333 C   0  0  0  0  0  0
   40.7981   53.1737   33.6811 C   0  0  0  0  0  0
   40.3908   53.2646   35.1666 C   0  0  2  0  0  0
   40.3327   54.7112   35.7150 C   0  0  0  0  0  0
   41.1284   52.3721   36.0367 N   0  0  0  0  0  0
   38.4147   57.0864   39.6074 H   0  0  0  0  0  0
   39.5586   56.5578   37.4769 H   0  0  0  0  0  0
   34.6878   56.8777   37.8571 H   0  0  0  0  0  0
   34.3949   56.4181   35.4120 H   0  0  0  0  0  0
   36.9000   56.3580   31.4850 H   0  0  0  0  0  0
   35.5228   56.1199   29.4391 H   0  0  0  0  0  0
   32.1601   55.1250   31.6322 H   0  0  0  0  0  0
   33.3985   55.2813   33.7738 H   0  0  0  0  0  0
   39.7374   56.4056   32.8737 H   0  0  0  0  0  0
   41.2295   55.9148   33.6176 H   0  0  0  0  0  0
   39.0483   53.9745   32.6631 H   0  0  0  0  0  0
   40.5455   54.2845   31.8423 H   0  0  0  0  0  0
   40.5908   52.1826   33.2737 H   0  0  0  0  0  0
   41.8710   53.3561   33.5957 H   0  0  0  0  0  0
   39.3536   52.9259   35.2121 H   0  0  0  0  0  0
   41.3309   55.1417   35.8145 H   0  0  0  0  0  0
   39.8070   54.6620   36.6641 H   0  0  0  0  0  0
   40.5190   51.9742   36.7341 H   0  0  0  0  0  0
   41.4952   51.5989   35.4841 H   0  0  0  0  0  0
  1  2  2  0  0  0
  1  4  1  0  0  0
  2  3  1  0  0  0
  2 24  1  0  0  0
  3  6  2  0  0  0
  3 25  1  0  0  0
  4  5  2  0  0  0
  4 26  1  0  0  0
  5  6  1  0  0  0
  5 10  1  0  0  0
  6  7  1  0  0  0
  7  8  2  0  0  0
  7 17  1  0  0  0
  8  9  1  0  0  0
  9 11  1  0  0  0
  9 10  2  0  0  0
 10 27  1  0  0  0
 11 12  2  0  0  0
 11 16  1  0  0  0
 12 13  1  0  0  0
 12 28  1  0  0  0
 13 14  2  0  0  0
 13 29  1  0  0  0
 14 15  1  0  0  0
 15 16  2  0  0  0
 15 30  1  0  0  0
 16 31  1  0  0  0
 17 18  1  0  0  0
 17 22  1  0  0  0
 18 19  1  0  0  0
 18 32  1  0  0  0
 18 33  1  0  0  0
 19 20  1  0  0  0
 19 34  1  0  0  0
 19 35  1  0  0  0
 20 21  1  0  0  0
 20 36  1  0  0  0
 20 37  1  0  0  0
 21 22  1  0  0  0
 21 23  1  0  0  0
 21 38  1  0  0  0
 22 39  1  0  0  0
 22 40  1  0  0  0
 23 41  1  0  0  0
 23 42  1  0  0  0
M  END
> <s_m_entry_id>
3394

> <s_m_entry_name>
dock_pv.123

> <s_m_Source_Path>
/home/csk/Desktop/cluster/DUD-E-result/kpcb

> <s_m_Source_File>
dock_pv.maegz

> <i_m_Source_File_Index>
123

> <chembl_id>
CHEMBL2147543

> <chembl_pref_name>
None

> <i_lp_mmshare_version>
53161

> <i_f3d_flags>
0

> <r_lp_tautomer_probability>
1

> <s_lp_Force_Field>
OPLS_2005

> <r_lp_Energy>
27.115169

> <b_lp_Chiralities_Consistent>
1

> <s_lp_Variant>
CHEMBL3045_lig322-1

> <s_i_glide_gridfile>
glide-grid_2i0e

> <i_i_glide_lignum>
485

> <i_i_glide_rotatable_bonds>
2

> <r_i_docking_score>
-8.00709953332905

> <r_i_glide_ligand_efficiency>
-0.348134762318654

> <r_i_glide_ligand_efficiency_sa>
-0.99004895406173

> <r_i_glide_ligand_efficiency_ln>
-1.93618927152339

> <r_i_glide_gscore>
-8.00709953332905

> <r_i_glide_lipo>
-3.04644070365971

> <r_i_glide_hbond>
-0.558769285526695

> <r_i_glide_metal>
0

> <r_i_glide_rewards>
-2.08377768127206

> <r_i_glide_evdw>
-39.9129180908203

> <r_i_glide_ecoul>
-4.7885913848877

> <r_i_glide_erotb>
0.395822749403595

> <r_i_glide_esite>
0

> <r_i_glide_emodel>
-66.0093453327825

> <r_i_glide_energy>
-44.701509475708

> <r_i_glide_einternal>
0.137383192777634

> <i_i_glide_confnum>
12

> <i_i_glide_posenum>
354

> <r_i_glide_eff_state_penalty>
0

> <s_user_duplicate_titles>
CHEMBL3045_lig322

> <s_m_subgroup_title>
dock_pv

> <s_m_subgroupid>
dock_pv

> <b_m_subgroup_collapsed>
1

$$$$
CHEMBL3045_lig253
                    3D
 Schrodinger Suite 2021-1.
 61 67  0  0  1  0            999 V2000
   43.0807   54.3334   36.0028 C   0  0  0  0  0  0
   41.9799   56.2793   37.9924 C   0  0  0  0  0  0
   43.2165   56.5971   37.1022 C   0  0  0  0  0  0
   43.4316   55.7589   35.9095 N   0  0  0  0  0  0
   41.6017   54.1031   35.7574 C   0  0  0  0  0  0
   38.8340   53.7901   35.1175 C   0  0  0  0  0  0
   39.8080   53.0003   34.5152 C   0  0  0  0  0  0
   41.1534   53.1726   34.8197 C   0  0  0  0  0  0
   39.2242   54.7771   36.0361 C   0  0  0  0  0  0
   40.6113   54.8958   36.3581 C   0  0  0  0  0  0
   40.7395   55.9031   37.3049 N   0  0  0  0  0  0
   39.4870   56.4056   37.5669 C   0  0  0  0  0  0
   38.5233   55.7756   36.8002 C   0  0  0  0  0  0
   37.0898   56.0810   36.7987 C   0  0  0  0  0  0
   36.2280   56.1724   35.7677 C   0  0  0  0  0  0
   34.9486   56.5140   36.3223 C   0  0  0  0  0  0
   35.1116   56.5420   37.6421 N   0  0  0  0  0  0
   36.3773   56.3721   38.0176 C   0  0  0  0  0  0
   36.4932   56.1015   34.3120 C   0  0  0  0  0  0
   37.6964   56.4139   33.6697 C   0  0  0  0  0  0
   37.6538   56.3713   32.3597 N   0  0  0  0  0  0
   35.6299   55.8029   33.2603 N   0  0  0  0  0  0
   36.3760   56.0340   32.0837 C   0  0  0  0  0  0
   35.7455   55.9099   30.8346 C   0  0  0  0  0  0
   34.3953   55.5718   30.7848 C   0  0  0  0  0  0
   33.6883   55.2889   31.9473 C   0  0  0  0  0  0
   34.3165   55.3931   33.1855 C   0  0  0  0  0  0
   43.4710   56.3349   34.6820 C   0  0  0  0  0  0
   44.4445   55.8899   33.8355 N   0  0  0  0  0  0
   42.6275   57.1719   34.3448 O   0  0  0  0  0  0
   45.7486   55.3837   34.3079 C   0  0  0  0  0  0
   46.7370   56.5698   34.2190 C   0  0  0  0  0  0
   46.7731   57.0829   32.8857 O   0  0  0  0  0  0
   45.5028   57.5306   32.4112 C   0  0  0  0  0  0
   44.4797   56.3709   32.4452 C   0  0  0  0  0  0
   33.9011   56.7720   35.7528 O   0  0  0  0  0  0
   36.7896   56.4609   39.1726 O   0  0  0  0  0  0
   43.6867   53.7343   35.3201 H   0  0  0  0  0  0
   43.3465   53.9597   36.9933 H   0  0  0  0  0  0
   42.2196   55.4636   38.6774 H   0  0  0  0  0  0
   41.7691   57.1454   38.6221 H   0  0  0  0  0  0
   44.0652   56.3664   37.7483 H   0  0  0  0  0  0
   43.2952   57.6638   36.8763 H   0  0  0  0  0  0
   37.7957   53.6619   34.8606 H   0  0  0  0  0  0
   39.5253   52.2574   33.7833 H   0  0  0  0  0  0
   41.8823   52.5736   34.2923 H   0  0  0  0  0  0
   39.3740   57.1913   38.3004 H   0  0  0  0  0  0
   34.3576   56.7643   38.2786 H   0  0  0  0  0  0
   38.6094   56.7136   34.1655 H   0  0  0  0  0  0
   36.3008   56.0785   29.9280 H   0  0  0  0  0  0
   33.9007   55.4906   29.8270 H   0  0  0  0  0  0
   32.6508   54.9954   31.8829 H   0  0  0  0  0  0
   33.8038   55.1720   34.1041 H   0  0  0  0  0  0
   46.0259   54.6284   33.5714 H   0  0  0  0  0  0
   45.7348   54.8393   35.2531 H   0  0  0  0  0  0
   46.4645   57.3609   34.9209 H   0  0  0  0  0  0
   47.7352   56.2447   34.5103 H   0  0  0  0  0  0
   45.1543   58.3728   33.0119 H   0  0  0  0  0  0
   45.6082   57.9050   31.3929 H   0  0  0  0  0  0
   43.4907   56.5869   32.0373 H   0  0  0  0  0  0
   44.8561   55.5275   31.8636 H   0  0  0  0  0  0
  1  4  1  0  0  0
  1  5  1  0  0  0
  1 38  1  0  0  0
  1 39  1  0  0  0
  2 11  1  0  0  0
  2  3  1  0  0  0
  2 40  1  0  0  0
  2 41  1  0  0  0
  3  4  1  0  0  0
  3 42  1  0  0  0
  3 43  1  0  0  0
  4 28  1  0  0  0
  5  8  1  0  0  0
  5 10  2  0  0  0
  6  9  2  0  0  0
  6  7  1  0  0  0
  6 44  1  0  0  0
  7  8  2  0  0  0
  7 45  1  0  0  0
  8 46  1  0  0  0
  9 10  1  0  0  0
  9 13  1  0  0  0
 10 11  1  0  0  0
 11 12  1  0  0  0
 12 13  2  0  0  0
 12 47  1  0  0  0
 13 14  1  0  0  0
 14 18  1  0  0  0
 14 15  2  0  0  0
 15 19  1  0  0  0
 15 16  1  0  0  0
 16 17  1  0  0  0
 16 36  2  0  0  0
 17 18  1  0  0  0
 17 48  1  0  0  0
 18 37  2  0  0  0
 19 20  2  0  0  0
 19 22  1  0  0  0
 20 21  1  0  0  0
 20 49  1  0  0  0
 21 23  2  0  0  0
 22 23  1  0  0  0
 22 27  1  0  0  0
 23 24  1  0  0  0
 24 25  2  0  0  0
 24 50  1  0  0  0
 25 26  1  0  0  0
 25 51  1  0  0  0
 26 27  2  0  0  0
 26 52  1  0  0  0
 27 53  1  0  0  0
 28 29  1  0  0  0
 28 30  2  0  0  0
 29 31  1  0  0  0
 29 35  1  0  0  0
 31 32  1  0  0  0
 31 54  1  0  0  0
 31 55  1  0  0  0
 32 33  1  0  0  0
 32 56  1  0  0  0
 32 57  1  0  0  0
 33 34  1  0  0  0
 34 35  1  0  0  0
 34 58  1  0  0  0
 34 59  1  0  0  0
 35 60  1  0  0  0
 35 61  1  0  0  0
M  END
> <s_m_entry_id>
3395

> <s_m_entry_name>
dock_pv.124

> <s_m_Source_Path>
/home/csk/Desktop/cluster/DUD-E-result/kpcb

> <s_m_Source_File>
dock_pv.maegz

> <i_m_Source_File_Index>
124

> <chembl_id>
CHEMBL178737

> <chembl_pref_name>
None

> <i_lp_mmshare_version>
53161

> <i_f3d_flags>
0

> <r_lp_tautomer_probability>
1

> <s_lp_Force_Field>
OPLS_2005

> <r_lp_Energy>
99.512467

> <b_lp_Chiralities_Consistent>
1

> <s_lp_Variant>
CHEMBL3045_lig253-1

> <s_i_glide_gridfile>
glide-grid_2i0e

> <i_i_glide_lignum>
411

> <i_i_glide_rotatable_bonds>
4

> <r_i_docking_score>
-8.00588921295213

> <r_i_glide_ligand_efficiency>
-0.216375384133841

> <r_i_glide_ligand_efficiency_sa>
-0.721010782301236

> <r_i_glide_ligand_efficiency_ln>
-1.73628968561728

> <r_i_glide_gscore>
-8.00588921295213

> <r_i_glide_lipo>
-2.08706773351406

> <r_i_glide_hbond>
-0.608

> <r_i_glide_metal>
0

> <r_i_glide_rewards>
-2.29177467500841

> <r_i_glide_evdw>
-50.4654121398926

> <r_i_glide_ecoul>
-4.79929208755493

> <r_i_glide_erotb>
0.231615036932079

> <r_i_glide_esite>
-0.00749742123385955

> <r_i_glide_emodel>
-79.0059943851481

> <r_i_glide_energy>
-55.2647042274475

> <r_i_glide_einternal>
9.59735870361328

> <i_i_glide_confnum>
46

> <i_i_glide_posenum>
321

> <r_i_glide_eff_state_penalty>
0

> <s_user_duplicate_titles>
CHEMBL3045_lig253

> <s_m_subgroup_title>
dock_pv

> <s_m_subgroupid>
dock_pv

> <b_m_subgroup_collapsed>
1

$$$$
CHEMBL3045_lig242
                    3D
 Schrodinger Suite 2021-1.
 45 48  0  0  1  0            999 V2000
   36.2010   56.3272   35.4734 C   0  0  0  0  0  0
   37.0283   56.6671   36.4920 C   0  0  0  0  0  0
   36.4866   56.2071   34.0109 C   0  0  0  0  0  0
   34.9183   56.0271   36.0625 C   0  0  0  0  0  0
   35.0262   56.3467   37.3498 N   0  0  0  0  0  0
   36.2516   56.7222   37.7009 C   0  0  0  0  0  0
   37.7544   56.3590   33.4652 C   0  0  0  0  0  0
   35.6257   55.9879   32.8445 C   0  0  0  0  0  0
   37.7694   56.0543   32.1352 N   0  0  0  0  0  0
   38.3764   56.9767   36.5614 N   0  0  0  0  0  0
   36.4867   55.8542   31.7041 C   0  0  0  0  0  0
   33.9009   55.5742   35.5586 O   0  0  0  0  0  0
   36.5988   57.0416   38.8382 O   0  0  0  0  0  0
   40.4284   54.1131   35.3170 C   0  0  0  0  0  0
   39.4665   56.1379   36.2730 C   0  0  0  0  0  0
   39.3141   54.8641   35.7079 C   0  0  0  0  0  0
   40.2496   52.7759   34.5982 C   0  0  0  0  0  0
   34.2376   55.8831   32.5973 C   0  0  0  0  0  0
   41.7082   54.6133   35.5727 C   0  0  0  0  0  0
   41.8709   55.8564   36.1828 C   0  0  0  0  0  0
   40.7539   56.6188   36.5233 C   0  0  0  0  0  0
   36.0193   55.5914   30.4157 C   0  0  0  0  0  0
   39.5729   52.9375   33.2245 C   0  0  0  0  0  0
   39.5012   51.7589   35.4729 C   0  0  0  0  0  0
   33.7652   55.7028   31.2997 C   0  0  0  0  0  0
   34.6417   55.5721   30.2326 C   0  0  0  0  0  0
   34.2522   56.2921   37.9964 H   0  0  0  0  0  0
   38.6950   56.6176   33.9193 H   0  0  0  0  0  0
   38.6130   56.0494   31.5788 H   0  0  0  0  0  0
   38.6388   57.7254   37.1847 H   0  0  0  0  0  0
   38.3260   54.4732   35.5160 H   0  0  0  0  0  0
   41.2467   52.3722   34.4113 H   0  0  0  0  0  0
   33.5035   55.9724   33.3739 H   0  0  0  0  0  0
   42.5839   54.0436   35.2928 H   0  0  0  0  0  0
   42.8638   56.2368   36.3747 H   0  0  0  0  0  0
   40.8995   57.5899   36.9701 H   0  0  0  0  0  0
   36.6974   55.4488   29.5892 H   0  0  0  0  0  0
   40.1034   53.6617   32.6059 H   0  0  0  0  0  0
   38.5398   53.2728   33.3179 H   0  0  0  0  0  0
   39.5619   51.9915   32.6797 H   0  0  0  0  0  0
   39.9921   51.6578   36.4371 H   0  0  0  0  0  0
   38.4666   52.0524   35.6368 H   0  0  0  0  0  0
   39.4960   50.7722   35.0186 H   0  0  0  0  0  0
   32.7002   55.6592   31.1168 H   0  0  0  0  0  0
   34.2461   55.4125   29.2379 H   0  0  0  0  0  0
  1  2  2  0  0  0
  1  3  1  0  0  0
  1  4  1  0  0  0
  2  6  1  0  0  0
  2 10  1  0  0  0
  3  7  2  0  0  0
  3  8  1  0  0  0
  4  5  1  0  0  0
  4 12  2  0  0  0
  5  6  1  0  0  0
  5 27  1  0  0  0
  6 13  2  0  0  0
  7  9  1  0  0  0
  7 28  1  0  0  0
  8 11  2  0  0  0
  8 18  1  0  0  0
  9 11  1  0  0  0
  9 29  1  0  0  0
 10 15  1  0  0  0
 10 30  1  0  0  0
 11 22  1  0  0  0
 14 16  1  0  0  0
 14 17  1  0  0  0
 14 19  2  0  0  0
 15 16  2  0  0  0
 15 21  1  0  0  0
 16 31  1  0  0  0
 17 23  1  0  0  0
 17 24  1  0  0  0
 17 32  1  0  0  0
 18 25  2  0  0  0
 18 33  1  0  0  0
 19 20  1  0  0  0
 19 34  1  0  0  0
 20 21  2  0  0  0
 20 35  1  0  0  0
 21 36  1  0  0  0
 22 26  2  0  0  0
 22 37  1  0  0  0
 23 38  1  0  0  0
 23 39  1  0  0  0
 23 40  1  0  0  0
 24 41  1  0  0  0
 24 42  1  0  0  0
 24 43  1  0  0  0
 25 26  1  0  0  0
 25 44  1  0  0  0
 26 45  1  0  0  0
M  END
> <s_m_entry_id>
3396

> <s_m_entry_name>
dock_pv.125

> <s_m_Source_Path>
/home/csk/Desktop/cluster/DUD-E-result/kpcb

> <s_m_Source_File>
dock_pv.maegz

> <i_m_Source_File_Index>
125

> <chembl_id>
CHEMBL184269

> <chembl_pref_name>
None

> <i_lp_mmshare_version>
53161

> <i_f3d_flags>
0

> <r_lp_tautomer_probability>
0.999999999997686

> <s_lp_Force_Field>
OPLS_2005

> <r_lp_Energy>
29.31886

> <b_lp_Chiralities_Consistent>
1

> <s_lp_Variant>
CHEMBL3045_lig242-1

> <s_i_glide_gridfile>
glide-grid_2i0e

> <i_i_glide_lignum>
400

> <i_i_glide_rotatable_bonds>
4

> <r_i_docking_score>
-8.00567912505331

> <r_i_glide_ligand_efficiency>
-0.307910735578973

> <r_i_glide_ligand_efficiency_sa>
-0.912184342582468

> <r_i_glide_ligand_efficiency_ln>
-1.88010747374298

> <r_i_glide_gscore>
-8.00567912505331

> <r_i_glide_lipo>
-2.16610706107003

> <r_i_glide_hbond>
-0.458921053929163

> <r_i_glide_metal>
0

> <r_i_glide_rewards>
-2.86371141646185

> <r_i_glide_evdw>
-43.8193092346191

> <r_i_glide_ecoul>
-4.40279674530029

> <r_i_glide_erotb>
0.334445379933738

> <r_i_glide_esite>
0

> <r_i_glide_emodel>
-71.0726545724249

> <r_i_glide_energy>
-48.2221059799194

> <r_i_glide_einternal>
3.68568873405457

> <i_i_glide_confnum>
21

> <i_i_glide_posenum>
396

> <r_i_glide_eff_state_penalty>
0

> <s_user_duplicate_titles>
CHEMBL3045_lig242

> <s_m_subgroup_title>
dock_pv

> <s_m_subgroupid>
dock_pv

> <b_m_subgroup_collapsed>
1

$$$$
CHEMBL3045_lig391
                    3D
 Schrodinger Suite 2021-1.
 24 26  0  0  1  0            999 V2000
   37.1116   56.6936   38.3169 C   0  0  0  0  0  0
   38.4395   56.7636   38.3990 N   0  0  0  0  0  0
   39.1491   56.6752   37.2509 C   0  0  0  0  0  0
   38.1563   56.4811   36.3534 N   0  0  0  0  0  0
   36.9244   56.5140   36.9028 C   0  0  0  0  0  0
   35.6914   56.3887   36.3566 C   0  0  0  0  0  0
   36.4811   56.6769   31.0053 S   0  0  0  0  0  0
   35.0877   55.9684   30.2187 C   0  0  0  0  0  0
   34.1417   55.5283   30.9947 N   0  0  0  0  0  0
   34.4675   55.7052   32.3011 C   0  0  0  0  0  0
   35.7138   56.3329   32.5514 C   0  0  0  0  0  0
   36.1474   56.5894   33.8638 C   0  0  0  0  0  0
   35.3253   56.1961   34.9329 C   0  0  0  0  0  0
   34.1018   55.5710   34.6695 C   0  0  0  0  0  0
   33.6622   55.3128   33.3700 C   0  0  0  0  0  0
   40.7862   56.7707   37.0170 S   0  0  0  0  0  0
   36.3013   56.7756   39.2366 O   0  0  0  0  0  0
   38.9313   56.8774   39.2736 H   0  0  0  0  0  0
   38.3669   56.3191   35.3790 H   0  0  0  0  0  0
   34.8424   56.4408   37.0317 H   0  0  0  0  0  0
   35.0203   55.8831   29.1413 H   0  0  0  0  0  0
   37.0870   57.0922   34.0304 H   0  0  0  0  0  0
   33.4734   55.2590   35.4934 H   0  0  0  0  0  0
   32.7167   54.8288   33.1884 H   0  0  0  0  0  0
  1  2  1  0  0  0
  1  5  1  0  0  0
  1 17  2  0  0  0
  2  3  1  0  0  0
  2 18  1  0  0  0
  3  4  1  0  0  0
  3 16  2  0  0  0
  4  5  1  0  0  0
  4 19  1  0  0  0
  5  6  2  0  0  0
  6 13  1  0  0  0
  6 20  1  0  0  0
  7  8  1  0  0  0
  7 11  1  0  0  0
  8  9  2  0  0  0
  8 21  1  0  0  0
  9 10  1  0  0  0
 10 11  1  0  0  0
 10 15  2  0  0  0
 11 12  2  0  0  0
 12 13  1  0  0  0
 12 22  1  0  0  0
 13 14  2  0  0  0
 14 15  1  0  0  0
 14 23  1  0  0  0
 15 24  1  0  0  0
M  END
> <s_m_entry_id>
3397

> <s_m_entry_name>
dock_pv.126

> <s_m_Source_Path>
/home/csk/Desktop/cluster/DUD-E-result/kpcb

> <s_m_Source_File>
dock_pv.maegz

> <i_m_Source_File_Index>
126

> <chembl_id>
CHEMBL3775754

> <chembl_pref_name>
None

> <i_lp_mmshare_version>
53161

> <i_f3d_flags>
0

> <r_lp_tautomer_probability>
1

> <s_lp_Force_Field>
OPLS_2005

> <r_lp_Energy>
28.095852

> <b_lp_Chiralities_Consistent>
1

> <s_lp_Variant>
CHEMBL3045_lig391-1

> <s_i_glide_gridfile>
glide-grid_2i0e

> <i_i_glide_lignum>
556

> <i_i_glide_rotatable_bonds>
1

> <r_i_docking_score>
-7.99602116615752

> <r_i_glide_ligand_efficiency>
-0.47035418624456

> <r_i_glide_ligand_efficiency_sa>
-1.2094130590375

> <r_i_glide_ligand_efficiency_ln>
-2.0859838596138

> <r_i_glide_gscore>
-7.99602116615752

> <r_i_glide_lipo>
-2.53141916537352

> <r_i_glide_hbond>
-0.32

> <r_i_glide_metal>
0

> <r_i_glide_rewards>
-2.84919010407837

> <r_i_glide_evdw>
-32.5218849182129

> <r_i_glide_ecoul>
-4.46211767196655

> <r_i_glide_erotb>
0

> <r_i_glide_esite>
0

> <r_i_glide_emodel>
-55.4416473735473

> <r_i_glide_energy>
-36.9840025901794

> <r_i_glide_einternal>
0.461858570575714

> <i_i_glide_confnum>
1

> <i_i_glide_posenum>
136

> <r_i_glide_eff_state_penalty>
0

> <s_user_duplicate_titles>
CHEMBL3045_lig391

> <s_m_subgroup_title>
dock_pv

> <s_m_subgroupid>
dock_pv

> <b_m_subgroup_collapsed>
1

$$$$
CHEMBL3045_lig541
                    3D
 Schrodinger Suite 2021-1.
 61 65  0  0  1  0            999 V2000
   34.4687   55.1507   35.4640 C   0  0  0  0  0  0
   35.5856   56.2175   35.5102 C   0  0  0  0  0  0
   35.1075   57.5440   34.8824 C   0  0  0  0  0  0
   36.8775   55.7716   34.9157 N   0  0  0  0  0  0
   37.9109   55.5202   35.9442 C   0  0  0  0  0  0
   37.3006   56.0854   37.1748 C   0  0  0  0  0  0
   37.5507   56.3724   38.5200 C   0  0  0  0  0  0
   38.7055   56.1406   39.2370 N   0  0  0  0  0  0
   39.9563   56.3147   38.7596 C   0  0  0  0  0  0
   40.2238   56.8327   37.6713 O   0  0  0  0  0  0
   41.0588   55.8273   39.6644 C   0  0  0  0  0  0
   41.0374   56.0400   41.0529 C   0  0  0  0  0  0
   42.0773   55.5216   41.8284 C   0  0  0  0  0  0
   43.1058   54.8055   41.2120 C   0  0  0  0  0  0
   43.0607   54.6314   39.8284 C   0  0  0  0  0  0
   42.0628   55.1341   39.0587 N   0  0  0  0  0  0
   36.4428   56.7715   39.1069 N   0  0  0  0  0  0
   35.5010   56.7748   38.1472 N   0  0  0  0  0  0
   36.0151   56.4251   36.9338 C   0  0  0  0  0  0
   37.0533   55.4376   33.6088 C   0  0  0  0  0  0
   36.0932   55.1720   32.8788 O   0  0  0  0  0  0
   38.3309   55.3767   33.1457 N   0  0  0  0  0  0
   39.2548   56.5255   33.3411 C   0  0  0  0  0  0
   40.6811   55.9493   33.4792 C   0  0  2  0  0  0
   41.8139   56.9741   33.5814 C   0  0  0  0  0  0
   43.0203   56.2234   32.9969 C   0  0  0  0  0  0
   42.4514   54.8809   32.5210 C   0  0  0  0  0  0
   41.0342   55.1325   32.3284 N   0  0  1  0  0  0
   40.1199   53.9976   32.2151 C   0  0  0  0  0  0
   38.6545   54.4859   32.0057 C   0  0  2  0  0  0
   38.4405   55.1205   30.6168 C   0  0  0  0  0  0
   37.1081   55.5720   30.4374 O   0  0  0  0  0  0
   33.5928   55.4793   36.0248 H   0  0  0  0  0  0
   34.1299   54.9520   34.4481 H   0  0  0  0  0  0
   34.7962   54.2061   35.8966 H   0  0  0  0  0  0
   34.3010   57.9727   35.4681 H   0  0  0  0  0  0
   35.9013   58.2876   34.8352 H   0  0  0  0  0  0
   34.7353   57.3979   33.8674 H   0  0  0  0  0  0
   38.8655   55.9932   35.7373 H   0  0  0  0  0  0
   38.0943   54.4488   36.0364 H   0  0  0  0  0  0
   38.5900   55.9728   40.2301 H   0  0  0  0  0  0
   40.2397   56.5927   41.5286 H   0  0  0  0  0  0
   42.0836   55.6714   42.8983 H   0  0  0  0  0  0
   43.9175   54.3927   41.7922 H   0  0  0  0  0  0
   43.8305   54.0743   39.3106 H   0  0  0  0  0  0
   34.5346   57.0302   38.3261 H   0  0  0  0  0  0
   39.2468   57.1172   32.4254 H   0  0  0  0  0  0
   38.9928   57.2070   34.1498 H   0  0  0  0  0  0
   40.6723   55.3718   34.4080 H   0  0  0  0  0  0
   41.5916   57.8978   33.0449 H   0  0  0  0  0  0
   42.0233   57.2156   34.6248 H   0  0  0  0  0  0
   43.7994   56.0671   33.7443 H   0  0  0  0  0  0
   43.4678   56.7722   32.1684 H   0  0  0  0  0  0
   42.6327   54.0660   33.2253 H   0  0  0  0  0  0
   42.8843   54.5478   31.5765 H   0  0  0  0  0  0
   40.1830   53.4055   33.1310 H   0  0  0  0  0  0
   40.4243   53.3324   31.4051 H   0  0  0  0  0  0
   38.0147   53.6020   32.0468 H   0  0  0  0  0  0
   39.1043   55.9697   30.4783 H   0  0  0  0  0  0
   38.7036   54.3879   29.8600 H   0  0  0  0  0  0
   36.6255   55.4158   31.2650 H   0  0  0  0  0  0
  1  2  1  0  0  0
  1 33  1  0  0  0
  1 34  1  0  0  0
  1 35  1  0  0  0
  2  3  1  0  0  0
  2  4  1  0  0  0
  2 19  1  0  0  0
  3 36  1  0  0  0
  3 37  1  0  0  0
  3 38  1  0  0  0
  4  5  1  0  0  0
  4 20  1  0  0  0
  5  6  1  0  0  0
  5 39  1  0  0  0
  5 40  1  0  0  0
  6  7  1  0  0  0
  6 19  2  0  0  0
  7  8  1  0  0  0
  7 17  2  0  0  0
  8  9  1  0  0  0
  8 41  1  0  0  0
  9 10  2  0  0  0
  9 11  1  0  0  0
 11 12  2  0  0  0
 11 16  1  0  0  0
 12 13  1  0  0  0
 12 42  1  0  0  0
 13 14  2  0  0  0
 13 43  1  0  0  0
 14 15  1  0  0  0
 14 44  1  0  0  0
 15 16  2  0  0  0
 15 45  1  0  0  0
 17 18  1  0  0  0
 18 19  1  0  0  0
 18 46  1  0  0  0
 20 21  2  0  0  0
 20 22  1  0  0  0
 22 23  1  0  0  0
 22 30  1  0  0  0
 23 24  1  0  0  0
 23 47  1  0  0  0
 23 48  1  0  0  0
 24 25  1  0  0  0
 24 28  1  0  0  0
 24 49  1  0  0  0
 25 26  1  0  0  0
 25 50  1  0  0  0
 25 51  1  0  0  0
 26 27  1  0  0  0
 26 52  1  0  0  0
 26 53  1  0  0  0
 27 28  1  0  0  0
 27 54  1  0  0  0
 27 55  1  0  0  0
 28 29  1  0  0  0
 29 30  1  0  0  0
 29 56  1  0  0  0
 29 57  1  0  0  0
 30 31  1  0  0  0
 30 58  1  0  0  0
 31 32  1  0  0  0
 31 59  1  0  0  0
 31 60  1  0  0  0
 32 61  1  0  0  0
M  END
> <s_m_entry_id>
3398

> <s_m_entry_name>
dock_pv.127

> <s_m_Source_Path>
/home/csk/Desktop/cluster/DUD-E-result/kpcb

> <s_m_Source_File>
dock_pv.maegz

> <i_m_Source_File_Index>
127

> <chembl_id>
CHEMBL3662790

> <chembl_pref_name>
None

> <i_lp_mmshare_version>
53161

> <i_f3d_flags>
0

> <r_lp_tautomer_probability>
0.5

> <s_lp_Force_Field>
OPLS_2005

> <r_lp_Energy>
118.368383

> <b_lp_Chiralities_Consistent>
1

> <s_lp_Variant>
CHEMBL3045_lig541-1

> <s_i_glide_gridfile>
glide-grid_2i0e

> <i_i_glide_lignum>
818

> <i_i_glide_rotatable_bonds>
7

> <r_i_docking_score>
-7.96905548423212

> <r_i_glide_ligand_efficiency>
-0.249032983882254

> <r_i_glide_ligand_efficiency_sa>
-0.790630440265567

> <r_i_glide_ligand_efficiency_ln>
-1.78448875116776

> <r_i_glide_gscore>
-7.96905548423212

> <r_i_glide_lipo>
-2.2525308475096

> <r_i_glide_hbond>
-0.864

> <r_i_glide_metal>
0

> <r_i_glide_rewards>
-2.01434038827753

> <r_i_glide_evdw>
-40.4294853210449

> <r_i_glide_ecoul>
-8.21153736114502

> <r_i_glide_erotb>
0.433956054785983

> <r_i_glide_esite>
-0.0189354330069862

> <r_i_glide_emodel>
-66.4893253287781

> <r_i_glide_energy>
-48.6410226821899

> <r_i_glide_einternal>
9.83092403411865

> <i_i_glide_confnum>
96

> <i_i_glide_posenum>
220

> <r_i_glide_eff_state_penalty>
0

> <s_user_duplicate_titles>
CHEMBL3045_lig541

> <s_m_subgroup_title>
dock_pv

> <s_m_subgroupid>
dock_pv

> <b_m_subgroup_collapsed>
1

$$$$
CHEMBL3045_lig539
                    3D
 Schrodinger Suite 2021-1.
 64 69  0  0  1  0            999 V2000
   39.5366   52.6691   34.7948 C   0  0  0  0  0  0
   39.7544   54.1200   34.3183 C   0  0  1  0  0  0
   41.1416   54.3753   33.6868 C   0  0  0  0  0  0
   41.2471   53.6816   32.4260 N   0  0  2  0  0  0
   42.4814   53.7819   31.6771 C   0  0  0  0  0  0
   42.1249   53.2998   30.2703 C   0  0  0  0  0  0
   40.5994   53.4216   30.2176 C   0  0  0  0  0  0
   40.2589   54.1780   31.4966 C   0  0  1  0  0  0
   38.8063   54.0551   32.0070 C   0  0  0  0  0  0
   38.6928   54.6297   33.3871 N   0  0  0  0  0  0
   37.4472   55.1319   33.7341 C   0  0  0  0  0  0
   36.5458   55.1708   32.8876 O   0  0  0  0  0  0
   37.1674   55.6281   34.9878 N   0  0  0  0  0  0
   38.1477   55.7902   36.0654 C   0  0  0  0  0  0
   37.4269   56.3946   37.1983 C   0  0  0  0  0  0
   37.5747   56.7756   38.5352 C   0  0  0  0  0  0
   38.6809   56.6850   39.3710 N   0  0  0  0  0  0
   39.9574   56.4067   39.0105 C   0  0  0  0  0  0
   40.3391   56.2933   37.8456 O   0  0  0  0  0  0
   40.9616   56.2138   40.1307 C   0  0  0  0  0  0
   42.1235   55.4571   39.8974 C   0  0  0  0  0  0
   43.0320   55.2546   40.9509 C   0  0  0  0  0  0
   44.2566   54.5602   41.1211 C   0  0  0  0  0  0
   44.6690   54.7696   42.4302 C   0  0  0  0  0  0
   43.7249   55.5511   43.0893 C   0  0  0  0  0  0
   42.7251   55.8533   42.1954 N   0  0  0  0  0  0
   41.5809   56.5916   42.3506 C   0  0  0  0  0  0
   40.6994   56.7723   41.3416 N   0  0  0  0  0  0
   36.4008   57.1545   39.0019 N   0  0  0  0  0  0
   35.5205   56.9793   37.9969 N   0  0  0  0  0  0
   36.1386   56.5714   36.8491 C   0  0  0  0  0  0
   35.8432   56.1945   35.4194 C   0  0  0  0  0  0
   34.6907   55.1718   35.3997 C   0  0  0  0  0  0
   35.4568   57.4491   34.6065 C   0  0  0  0  0  0
   40.3710   52.3435   35.4164 H   0  0  0  0  0  0
   38.6306   52.5773   35.3928 H   0  0  0  0  0  0
   39.4849   51.9728   33.9602 H   0  0  0  0  0  0
   39.8989   54.7253   35.1951 H   0  0  0  0  0  0
   41.2879   55.4446   33.5243 H   0  0  0  0  0  0
   41.9362   54.0572   34.3632 H   0  0  0  0  0  0
   42.8823   54.7975   31.6804 H   0  0  0  0  0  0
   43.2457   53.1741   32.1606 H   0  0  0  0  0  0
   42.5865   53.9607   29.5350 H   0  0  0  0  0  0
   42.4579   52.2761   30.0900 H   0  0  0  0  0  0
   40.0962   52.4511   30.1765 H   0  0  0  0  0  0
   40.3000   53.9707   29.3275 H   0  0  0  0  0  0
   40.3839   55.2481   31.3054 H   0  0  0  0  0  0
   38.6113   52.9863   32.1034 H   0  0  0  0  0  0
   38.1328   54.4819   31.2637 H   0  0  0  0  0  0
   38.9853   56.4079   35.7405 H   0  0  0  0  0  0
   38.4906   54.8142   36.4086 H   0  0  0  0  0  0
   38.5008   56.7900   40.3610 H   0  0  0  0  0  0
   42.3137   55.0099   38.9318 H   0  0  0  0  0  0
   44.7801   53.9778   40.3742 H   0  0  0  0  0  0
   45.5726   54.3695   42.8706 H   0  0  0  0  0  0
   43.7039   55.9006   44.1110 H   0  0  0  0  0  0
   41.3950   57.0311   43.3196 H   0  0  0  0  0  0
   34.5286   57.1696   38.0960 H   0  0  0  0  0  0
   33.7759   55.5950   35.8186 H   0  0  0  0  0  0
   34.4538   54.8384   34.3903 H   0  0  0  0  0  0
   34.9350   54.2894   35.9925 H   0  0  0  0  0  0
   34.6362   57.9954   35.0731 H   0  0  0  0  0  0
   36.2984   58.1296   34.5076 H   0  0  0  0  0  0
   35.1312   57.1993   33.5972 H   0  0  0  0  0  0
  1  2  1  0  0  0
  1 35  1  0  0  0
  1 36  1  0  0  0
  1 37  1  0  0  0
  2  3  1  0  0  0
  2 10  1  0  0  0
  2 38  1  0  0  0
  3  4  1  0  0  0
  3 39  1  0  0  0
  3 40  1  0  0  0
  4  5  1  0  0  0
  4  8  1  0  0  0
  5  6  1  0  0  0
  5 41  1  0  0  0
  5 42  1  0  0  0
  6  7  1  0  0  0
  6 43  1  0  0  0
  6 44  1  0  0  0
  7  8  1  0  0  0
  7 45  1  0  0  0
  7 46  1  0  0  0
  8  9  1  0  0  0
  8 47  1  0  0  0
  9 10  1  0  0  0
  9 48  1  0  0  0
  9 49  1  0  0  0
 10 11  1  0  0  0
 11 12  2  0  0  0
 11 13  1  0  0  0
 13 14  1  0  0  0
 13 32  1  0  0  0
 14 15  1  0  0  0
 14 50  1  0  0  0
 14 51  1  0  0  0
 15 16  1  0  0  0
 15 31  2  0  0  0
 16 17  1  0  0  0
 16 29  2  0  0  0
 17 18  1  0  0  0
 17 52  1  0  0  0
 18 19  2  0  0  0
 18 20  1  0  0  0
 20 21  2  0  0  0
 20 28  1  0  0  0
 21 22  1  0  0  0
 21 53  1  0  0  0
 22 23  2  0  0  0
 22 26  1  0  0  0
 23 24  1  0  0  0
 23 54  1  0  0  0
 24 25  2  0  0  0
 24 55  1  0  0  0
 25 26  1  0  0  0
 25 56  1  0  0  0
 26 27  1  0  0  0
 27 28  2  0  0  0
 27 57  1  0  0  0
 29 30  1  0  0  0
 30 31  1  0  0  0
 30 58  1  0  0  0
 31 32  1  0  0  0
 32 33  1  0  0  0
 32 34  1  0  0  0
 33 59  1  0  0  0
 33 60  1  0  0  0
 33 61  1  0  0  0
 34 62  1  0  0  0
 34 63  1  0  0  0
 34 64  1  0  0  0
M  END
> <s_m_entry_id>
3399

> <s_m_entry_name>
dock_pv.128

> <s_m_Source_Path>
/home/csk/Desktop/cluster/DUD-E-result/kpcb

> <s_m_Source_File>
dock_pv.maegz

> <i_m_Source_File_Index>
128

> <chembl_id>
CHEMBL3662788

> <chembl_pref_name>
None

> <i_lp_mmshare_version>
53161

> <i_f3d_flags>
0

> <r_lp_tautomer_probability>
0.5

> <s_lp_Force_Field>
OPLS_2005

> <r_lp_Energy>
120.035839

> <b_lp_Chiralities_Consistent>
1

> <s_lp_Variant>
CHEMBL3045_lig539-1

> <s_i_glide_gridfile>
glide-grid_2i0e

> <i_i_glide_lignum>
814

> <i_i_glide_rotatable_bonds>
5

> <r_i_docking_score>
-7.9673467258755

> <r_i_glide_ligand_efficiency>
-0.234333727231632

> <r_i_glide_ligand_efficiency_sa>
-0.759150307284589

> <r_i_glide_ligand_efficiency_ln>
-1.76021036825191

> <r_i_glide_gscore>
-7.9673467258755

> <r_i_glide_lipo>
-1.96132928463834

> <r_i_glide_hbond>
-0.829819948284331

> <r_i_glide_metal>
0

> <r_i_glide_rewards>
-2.15965923301516

> <r_i_glide_evdw>
-48.0883903503418

> <r_i_glide_ecoul>
-6.2172908782959

> <r_i_glide_erotb>
0.329548062623758

> <r_i_glide_esite>
-0.00907317329995324

> <r_i_glide_emodel>
-76.2009440745442

> <r_i_glide_energy>
-54.3056812286377

> <r_i_glide_einternal>
7.66691207885742

> <i_i_glide_confnum>
35

> <i_i_glide_posenum>
370

> <r_i_glide_eff_state_penalty>
0

> <s_user_duplicate_titles>
CHEMBL3045_lig539

> <s_m_subgroup_title>
dock_pv

> <s_m_subgroupid>
dock_pv

> <b_m_subgroup_collapsed>
1

$$$$
CHEMBL3045_lig208
                    3D
 Schrodinger Suite 2021-1.
 66 69  0  0  1  0            999 V2000
   39.5852   56.9860   37.5252 C   0  0  0  0  0  0
   40.8256   56.7738   38.3741 C   0  0  0  0  0  0
   42.0826   56.1601   37.7815 C   0  0  0  0  0  0
   39.6454   57.1033   36.1175 C   0  0  0  0  0  0
   38.3097   57.1045   38.1289 C   0  0  0  0  0  0
   35.9502   57.1715   35.1543 C   0  0  0  0  0  0
   37.6696   55.1719   31.9116 C   0  0  0  0  0  0
   43.3795   56.7377   37.9362 C   0  0  0  0  0  0
   37.2370   56.3355   31.3831 N   0  0  0  0  0  0
   37.2130   57.1718   35.9642 C   0  0  0  0  0  0
   35.8543   56.8857   31.4293 C   0  0  2  0  0  0
   36.2018   57.1345   33.8279 O   0  0  0  0  0  0
   35.1919   57.0123   32.8286 C   0  0  2  0  0  0
   43.6650   57.9711   38.7602 C   0  0  0  0  0  0
   38.4791   57.1718   35.3636 C   0  0  0  0  0  0
   37.1518   57.1708   37.3581 C   0  0  0  0  0  0
   39.1483   54.8722   31.8812 C   0  0  0  0  0  0
   40.8163   57.1145   39.5592 O   0  0  0  0  0  0
   41.9763   54.9475   37.0553 C   0  0  0  0  0  0
   34.8297   56.0844   30.6011 C   0  0  0  0  0  0
   34.3108   55.7509   32.9923 C   0  0  0  0  0  0
   34.8146   57.1721   35.6374 O   0  0  0  0  0  0
   36.9124   54.3657   32.4372 O   0  0  0  0  0  0
   43.5062   58.0031   39.9781 O   0  0  0  0  0  0
   34.0596   55.1769   31.5884 C   0  0  1  0  0  0
   39.5857   53.5406   31.7870 C   0  0  0  0  0  0
   40.0967   55.8898   32.0383 C   0  0  0  0  0  0
   38.1229   57.1614   39.4846 O   0  0  0  0  0  0
   40.8173   57.1721   35.4030 O   0  0  0  0  0  0
   44.1385   59.0244   38.0370 O   0  0  0  0  0  0
   41.8732   54.2513   32.0321 C   0  0  0  0  0  0
   41.4500   55.5725   32.1330 C   0  0  0  0  0  0
   40.9435   53.2307   31.8539 C   0  0  0  0  0  0
   40.7862   54.2854   36.8900 O   0  0  0  0  0  0
   32.3010   54.3720   30.0370 N   0  0  0  0  0  0
   44.4815   56.1334   37.3152 C   0  0  0  0  0  0
   43.2126   53.9720   32.1043 O   0  0  0  0  0  0
   44.3395   54.9660   36.5763 C   0  0  0  0  0  0
   32.5508   55.0140   31.3098 C   0  0  0  0  0  0
   43.0928   54.3728   36.4535 C   0  0  0  0  0  0
   37.9080   56.8550   30.8384 H   0  0  0  0  0  0
   35.9506   57.8703   30.9703 H   0  0  0  0  0  0
   34.5880   57.9203   32.8657 H   0  0  0  0  0  0
   38.5801   57.2137   34.2885 H   0  0  0  0  0  0
   36.1951   57.2074   37.8610 H   0  0  0  0  0  0
   34.1218   56.7718   30.1358 H   0  0  0  0  0  0
   35.2964   55.5348   29.7814 H   0  0  0  0  0  0
   34.7975   55.0069   33.6231 H   0  0  0  0  0  0
   33.3762   55.9720   33.5026 H   0  0  0  0  0  0
   34.5125   54.1908   31.5638 H   0  0  0  0  0  0
   38.8790   52.7300   31.6688 H   0  0  0  0  0  0
   39.7974   56.9237   32.1312 H   0  0  0  0  0  0
   38.9462   57.0329   39.9709 H   0  0  0  0  0  0
   41.5927   56.9279   35.9138 H   0  0  0  0  0  0
   44.1479   58.8541   37.0896 H   0  0  0  0  0  0
   42.1779   56.3576   32.2738 H   0  0  0  0  0  0
   41.2639   52.2009   31.7771 H   0  0  0  0  0  0
   40.8845   53.4756   36.3820 H   0  0  0  0  0  0
   31.3039   54.3402   29.8776 H   0  0  0  0  0  0
   32.6554   54.9700   29.2899 H   0  0  0  0  0  0
   45.4753   56.5503   37.4168 H   0  0  0  0  0  0
   43.4221   53.0262   32.0377 H   0  0  0  0  0  0
   45.2015   54.5017   36.1188 H   0  0  0  0  0  0
   32.1025   54.3891   32.0825 H   0  0  0  0  0  0
   32.0443   55.9805   31.3358 H   0  0  0  0  0  0
   43.0066   53.4510   35.8955 H   0  0  0  0  0  0
  1  2  1  0  0  0
  1  4  2  0  0  0
  1  5  1  0  0  0
  2  3  1  0  0  0
  2 18  2  0  0  0
  3  8  2  0  0  0
  3 19  1  0  0  0
  4 15  1  0  0  0
  4 29  1  0  0  0
  5 16  2  0  0  0
  5 28  1  0  0  0
  6 10  1  0  0  0
  6 12  1  0  0  0
  6 22  2  0  0  0
  7  9  1  0  0  0
  7 17  1  0  0  0
  7 23  2  0  0  0
  8 14  1  0  0  0
  8 36  1  0  0  0
  9 11  1  0  0  0
  9 41  1  0  0  0
 10 16  1  0  0  0
 10 15  2  0  0  0
 11 13  1  0  0  0
 11 20  1  0  0  0
 11 42  1  0  0  0
 12 13  1  0  0  0
 13 21  1  0  0  0
 13 43  1  0  0  0
 14 24  2  0  0  0
 14 30  1  0  0  0
 15 44  1  0  0  0
 16 45  1  0  0  0
 17 26  2  0  0  0
 17 27  1  0  0  0
 19 34  1  0  0  0
 19 40  2  0  0  0
 20 25  1  0  0  0
 20 46  1  0  0  0
 20 47  1  0  0  0
 21 25  1  0  0  0
 21 48  1  0  0  0
 21 49  1  0  0  0
 25 39  1  0  0  0
 25 50  1  0  0  0
 26 33  1  0  0  0
 26 51  1  0  0  0
 27 32  2  0  0  0
 27 52  1  0  0  0
 28 53  1  0  0  0
 29 54  1  0  0  0
 30 55  1  0  0  0
 31 32  1  0  0  0
 31 37  1  0  0  0
 31 33  2  0  0  0
 32 56  1  0  0  0
 33 57  1  0  0  0
 34 58  1  0  0  0
 35 39  1  0  0  0
 35 59  1  0  0  0
 35 60  1  0  0  0
 36 38  2  0  0  0
 36 61  1  0  0  0
 37 62  1  0  0  0
 38 40  1  0  0  0
 38 63  1  0  0  0
 39 64  1  0  0  0
 39 65  1  0  0  0
 40 66  1  0  0  0
M  END
> <s_m_entry_id>
3400

> <s_m_entry_name>
dock_pv.129

> <s_m_Source_Path>
/home/csk/Desktop/cluster/DUD-E-result/kpcb

> <s_m_Source_File>
dock_pv.maegz

> <i_m_Source_File_Index>
129

> <chembl_id>
CHEMBL421866

> <chembl_pref_name>
None

> <i_lp_mmshare_version>
53161

> <i_f3d_flags>
0

> <r_lp_tautomer_probability>
0.999999999997365

> <s_lp_Force_Field>
OPLS_2005

> <r_lp_Energy>
58.879603

> <b_lp_Chiralities_Consistent>
1

> <s_lp_Variant>
CHEMBL3045_lig208-1

> <s_i_glide_gridfile>
glide-grid_2i0e

> <i_i_glide_lignum>
365

> <i_i_glide_rotatable_bonds>
15

> <r_i_docking_score>
-7.95859266937306

> <r_i_glide_ligand_efficiency>
-0.198964816734327

> <r_i_glide_ligand_efficiency_sa>
-0.680450100864572

> <r_i_glide_ligand_efficiency_ln>
-1.6973336054503

> <r_i_glide_gscore>
-7.95859266937306

> <r_i_glide_lipo>
-2.51789304106945

> <r_i_glide_hbond>
-0.445750710736289

> <r_i_glide_metal>
0

> <r_i_glide_rewards>
-0.806269539307294

> <r_i_glide_evdw>
-52.2971076965332

> <r_i_glide_ecoul>
-14.1361970901489

> <r_i_glide_erotb>
0.546605570088967

> <r_i_glide_esite>
0

> <r_i_glide_emodel>
-90.4863480350005

> <r_i_glide_energy>
-66.4333047866821

> <r_i_glide_einternal>
15.6708745956421

> <i_i_glide_confnum>
13

> <i_i_glide_posenum>
173

> <r_i_glide_eff_state_penalty>
0

> <s_user_duplicate_titles>
CHEMBL3045_lig208,107505

> <s_m_subgroup_title>
dock_pv

> <s_m_subgroupid>
dock_pv

> <b_m_subgroup_collapsed>
1

$$$$
CHEMBL3045_lig326
                    3D
 Schrodinger Suite 2021-1.
 41 43  0  0  1  0            999 V2000
   39.0866   52.6729   34.1509 C   0  0  0  0  0  0
   40.3550   53.4435   33.7367 C   0  0  0  0  0  0
   40.9025   52.8941   32.4068 C   0  0  0  0  0  0
   36.5519   56.8169   38.8372 N   0  0  0  0  0  0
   37.8855   56.6345   38.7082 C   0  0  0  0  0  0
   38.5108   56.3278   37.4997 C   0  0  0  0  0  0
   35.7942   56.6908   37.7258 C   0  0  0  0  0  0
   36.3013   56.3813   36.4427 C   0  0  0  0  0  0
   37.7113   56.1835   36.3243 C   0  0  0  0  0  0
   38.2116   55.8414   35.0334 C   0  0  0  0  0  0
   37.4027   55.7390   33.9468 N   0  0  0  0  0  0
   36.0663   55.9426   34.0675 C   0  0  0  0  0  0
   35.4800   56.2614   35.2964 C   0  0  0  0  0  0
   35.2683   55.8216   32.8095 C   0  0  0  0  0  0
   35.8282   56.0943   31.5490 C   0  0  0  0  0  0
   35.0604   55.9714   30.3921 C   0  0  0  0  0  0
   33.7322   55.5717   30.5176 C   0  0  0  0  0  0
   33.1579   55.2890   31.7125 N   0  0  0  0  0  0
   33.9226   55.4193   32.8259 C   0  0  0  0  0  0
   39.5911   55.6174   34.8491 N   0  0  0  0  0  0
   40.1350   54.9823   33.6400 C   0  0  0  0  0  0
   41.3653   53.1720   34.7436 N   0  0  0  0  0  0
   38.2840   52.8189   33.4284 H   0  0  0  0  0  0
   38.7151   52.9902   35.1259 H   0  0  0  0  0  0
   39.2722   51.6009   34.2289 H   0  0  0  0  0  0
   40.2000   53.0618   31.5897 H   0  0  0  0  0  0
   41.8463   53.3678   32.1304 H   0  0  0  0  0  0
   41.0922   51.8205   32.4510 H   0  0  0  0  0  0
   38.4645   56.7262   39.6173 H   0  0  0  0  0  0
   39.5808   56.1851   37.4606 H   0  0  0  0  0  0
   34.7334   56.8429   37.8563 H   0  0  0  0  0  0
   34.4165   56.4296   35.3889 H   0  0  0  0  0  0
   36.8628   56.3996   31.4609 H   0  0  0  0  0  0
   35.4862   56.1678   29.4188 H   0  0  0  0  0  0
   33.1116   55.4475   29.6389 H   0  0  0  0  0  0
   33.4243   55.1740   33.7533 H   0  0  0  0  0  0
   40.1314   55.4335   35.6843 H   0  0  0  0  0  0
   41.0849   55.4709   33.4176 H   0  0  0  0  0  0
   39.5100   55.2075   32.7742 H   0  0  0  0  0  0
   41.5007   52.1650   34.7876 H   0  0  0  0  0  0
   42.2526   53.5394   34.4301 H   0  0  0  0  0  0
  1  2  1  0  0  0
  1 23  1  0  0  0
  1 24  1  0  0  0
  1 25  1  0  0  0
  2  3  1  0  0  0
  2 21  1  0  0  0
  2 22  1  0  0  0
  3 26  1  0  0  0
  3 27  1  0  0  0
  3 28  1  0  0  0
  4  7  1  0  0  0
  4  5  2  0  0  0
  5  6  1  0  0  0
  5 29  1  0  0  0
  6  9  2  0  0  0
  6 30  1  0  0  0
  7  8  2  0  0  0
  7 31  1  0  0  0
  8 13  1  0  0  0
  8  9  1  0  0  0
  9 10  1  0  0  0
 10 20  1  0  0  0
 10 11  2  0  0  0
 11 12  1  0  0  0
 12 13  2  0  0  0
 12 14  1  0  0  0
 13 32  1  0  0  0
 14 15  2  0  0  0
 14 19  1  0  0  0
 15 16  1  0  0  0
 15 33  1  0  0  0
 16 17  2  0  0  0
 16 34  1  0  0  0
 17 18  1  0  0  0
 17 35  1  0  0  0
 18 19  2  0  0  0
 19 36  1  0  0  0
 20 21  1  0  0  0
 20 37  1  0  0  0
 21 38  1  0  0  0
 21 39  1  0  0  0
 22 40  1  0  0  0
 22 41  1  0  0  0
M  END
> <s_m_entry_id>
3401

> <s_m_entry_name>
dock_pv.130

> <s_m_Source_Path>
/home/csk/Desktop/cluster/DUD-E-result/kpcb

> <s_m_Source_File>
dock_pv.maegz

> <i_m_Source_File_Index>
130

> <chembl_id>
CHEMBL2147547

> <chembl_pref_name>
None

> <i_lp_mmshare_version>
53161

> <i_f3d_flags>
0

> <r_lp_tautomer_probability>
1

> <s_lp_Force_Field>
OPLS_2005

> <r_lp_Energy>
16.752004

> <b_lp_Chiralities_Consistent>
1

> <s_lp_Variant>
CHEMBL3045_lig326-1

> <s_i_glide_gridfile>
glide-grid_2i0e

> <i_i_glide_lignum>
490

> <i_i_glide_rotatable_bonds>
4

> <r_i_docking_score>
-7.91724614136126

> <r_i_glide_ligand_efficiency>
-0.35987482460733

> <r_i_glide_ligand_efficiency_sa>
-1.00838341162346

> <r_i_glide_ligand_efficiency_ln>
-1.93526374551846

> <r_i_glide_gscore>
-7.91724614136126

> <r_i_glide_lipo>
-2.76006853191609

> <r_i_glide_hbond>
-0.551356855466388

> <r_i_glide_metal>
0

> <r_i_glide_rewards>
-2.40487591681337

> <r_i_glide_evdw>
-38.3450736999512

> <r_i_glide_ecoul>
-6.13736057281494

> <r_i_glide_erotb>
0.636912933754392

> <r_i_glide_esite>
0

> <r_i_glide_emodel>
-64.9522943042402

> <r_i_glide_energy>
-44.4824342727661

> <r_i_glide_einternal>
2.14227151870728

> <i_i_glide_confnum>
23

> <i_i_glide_posenum>
391

> <r_i_glide_eff_state_penalty>
0

> <s_user_duplicate_titles>
CHEMBL3045_lig326

> <s_m_subgroup_title>
dock_pv

> <s_m_subgroupid>
dock_pv

> <b_m_subgroup_collapsed>
1

$$$$
CHEMBL3045_lig461
                    3D
 Schrodinger Suite 2021-1.
 53 55  0  0  1  0            999 V2000
   36.0412   56.7111   38.5526 N   0  0  0  0  0  0
   37.3288   57.0894   38.7331 C   0  0  0  0  0  0
   38.2404   57.1711   37.6848 C   0  0  0  0  0  0
   37.8155   56.8140   36.4049 C   0  0  0  0  0  0
   36.5022   56.3596   36.1815 C   0  0  0  0  0  0
   35.6396   56.3543   37.3054 C   0  0  0  0  0  0
   34.3029   55.9721   37.2342 N   0  0  0  0  0  0
   36.0649   55.9620   34.7863 C   0  0  0  0  0  0
   37.0755   55.4854   33.7730 C   0  0  0  0  0  0
   34.8712   56.0133   34.4731 O   0  0  0  0  0  0
   38.0541   54.6917   34.2929 N   0  0  0  0  0  0
   39.0305   54.1727   33.5032 C   0  0  0  0  0  0
   39.0194   54.3964   32.1233 C   0  0  0  0  0  0
   38.0046   55.1722   31.5696 C   0  0  0  0  0  0
   37.0061   55.7371   32.3800 C   0  0  0  0  0  0
   40.0386   53.4542   34.1450 N   0  0  0  0  0  0
   41.3135   53.0254   33.5275 C   0  0  0  0  0  0
   42.5632   53.2426   34.4245 C   0  0  0  0  0  0
   42.3721   52.7713   35.7938 N   0  0  2  0  0  0
   41.1783   53.3487   36.4015 C   0  0  2  0  0  0
   39.9612   52.9512   35.5290 C   0  0  0  0  0  0
   41.2256   54.8658   36.7232 C   0  0  0  0  0  0
   42.4301   55.3445   37.5712 C   0  0  0  0  0  0
   42.5250   54.6298   38.9315 C   0  0  0  0  0  0
   42.3963   56.8700   37.7649 C   0  0  0  0  0  0
   35.9322   56.6186   31.7197 C   0  0  0  0  0  0
   36.3007   57.0109   30.4975 F   0  0  0  0  0  0
   34.8047   55.9190   31.5989 F   0  0  0  0  0  0
   35.6851   57.7245   32.4233 F   0  0  0  0  0  0
   37.6304   57.3291   39.7456 H   0  0  0  0  0  0
   39.2542   57.4968   37.8560 H   0  0  0  0  0  0
   38.5331   56.8830   35.5992 H   0  0  0  0  0  0
   33.9181   55.7731   36.3195 H   0  0  0  0  0  0
   33.6968   56.2623   37.9961 H   0  0  0  0  0  0
   39.7692   53.9751   31.4707 H   0  0  0  0  0  0
   38.0039   55.3224   30.4981 H   0  0  0  0  0  0
   41.2290   51.9746   33.2393 H   0  0  0  0  0  0
   41.4918   53.5568   32.5960 H   0  0  0  0  0  0
   43.4283   52.7304   33.9996 H   0  0  0  0  0  0
   42.8355   54.3001   34.4373 H   0  0  0  0  0  0
   43.1973   52.9022   36.3704 H   0  0  0  0  0  0
   41.0652   52.8189   37.3484 H   0  0  0  0  0  0
   39.8918   51.8650   35.4681 H   0  0  0  0  0  0
   39.0377   53.2283   36.0380 H   0  0  0  0  0  0
   40.3023   55.1310   37.2395 H   0  0  0  0  0  0
   41.2095   55.4280   35.7875 H   0  0  0  0  0  0
   43.3404   55.1129   37.0167 H   0  0  0  0  0  0
   41.6128   54.7595   39.5179 H   0  0  0  0  0  0
   43.3576   55.0159   39.5232 H   0  0  0  0  0  0
   42.6988   53.5606   38.8123 H   0  0  0  0  0  0
   41.5245   57.1795   38.3452 H   0  0  0  0  0  0
   43.2852   57.2231   38.2928 H   0  0  0  0  0  0
   42.3647   57.3954   36.8088 H   0  0  0  0  0  0
  1  6  1  0  0  0
  1  2  2  0  0  0
  2  3  1  0  0  0
  2 30  1  0  0  0
  3  4  2  0  0  0
  3 31  1  0  0  0
  4  5  1  0  0  0
  4 32  1  0  0  0
  5  8  1  0  0  0
  5  6  2  0  0  0
  6  7  1  0  0  0
  7 33  1  0  0  0
  7 34  1  0  0  0
  8  9  1  0  0  0
  8 10  2  0  0  0
  9 15  1  0  0  0
  9 11  2  0  0  0
 11 12  1  0  0  0
 12 16  1  0  0  0
 12 13  2  0  0  0
 13 14  1  0  0  0
 13 35  1  0  0  0
 14 15  2  0  0  0
 14 36  1  0  0  0
 15 26  1  0  0  0
 16 17  1  0  0  0
 16 21  1  0  0  0
 17 18  1  0  0  0
 17 37  1  0  0  0
 17 38  1  0  0  0
 18 19  1  0  0  0
 18 39  1  0  0  0
 18 40  1  0  0  0
 19 20  1  0  0  0
 19 41  1  0  0  0
 20 21  1  0  0  0
 20 22  1  0  0  0
 20 42  1  0  0  0
 21 43  1  0  0  0
 21 44  1  0  0  0
 22 23  1  0  0  0
 22 45  1  0  0  0
 22 46  1  0  0  0
 23 24  1  0  0  0
 23 25  1  0  0  0
 23 47  1  0  0  0
 24 48  1  0  0  0
 24 49  1  0  0  0
 24 50  1  0  0  0
 25 51  1  0  0  0
 25 52  1  0  0  0
 25 53  1  0  0  0
 26 27  1  0  0  0
 26 28  1  0  0  0
 26 29  1  0  0  0
M  END
> <s_m_entry_id>
3402

> <s_m_entry_name>
dock_pv.131

> <s_m_Source_Path>
/home/csk/Desktop/cluster/DUD-E-result/kpcb

> <s_m_Source_File>
dock_pv.maegz

> <i_m_Source_File_Index>
131

> <chembl_id>
CHEMBL2046643

> <chembl_pref_name>
None

> <i_lp_mmshare_version>
53161

> <i_f3d_flags>
0

> <r_lp_tautomer_probability>
1

> <s_lp_Force_Field>
OPLS_2005

> <r_lp_Energy>
43.381468

> <b_lp_Chiralities_Consistent>
1

> <s_lp_Variant>
CHEMBL3045_lig461-1

> <s_i_glide_gridfile>
glide-grid_2i0e

> <i_i_glide_lignum>
637

> <i_i_glide_rotatable_bonds>
6

> <r_i_docking_score>
-7.87473159775039

> <r_i_glide_ligand_efficiency>
-0.271542468887944

> <r_i_glide_ligand_efficiency_sa>
-0.834264495116302

> <r_i_glide_ligand_efficiency_ln>
-1.8031138499209

> <r_i_glide_gscore>
-7.87473159775039

> <r_i_glide_lipo>
-1.77624472505717

> <r_i_glide_hbond>
-0.499598722837437

> <r_i_glide_metal>
0

> <r_i_glide_rewards>
-2.96022635500848

> <r_i_glide_evdw>
-41.6777114868164

> <r_i_glide_ecoul>
-5.72333669662476

> <r_i_glide_erotb>
0.331810284355305

> <r_i_glide_esite>
-0.0280860003680685

> <r_i_glide_emodel>
-70.6040364312078

> <r_i_glide_energy>
-47.4010481834412

> <r_i_glide_einternal>
0.85113662481308

> <i_i_glide_confnum>
225

> <i_i_glide_posenum>
242

> <r_i_glide_eff_state_penalty>
0

> <s_user_duplicate_titles>
CHEMBL3045_lig461

> <s_m_subgroup_title>
dock_pv

> <s_m_subgroupid>
dock_pv

> <b_m_subgroup_collapsed>
1

$$$$
CHEMBL3045_lig633
                    3D
 Schrodinger Suite 2021-1.
 62 66  0  0  1  0            999 V2000
   39.8560   52.9752   34.7415 C   0  0  0  0  0  0
   39.9802   54.3778   34.1026 C   0  0  1  0  0  0
   41.3379   54.5821   33.3804 C   0  0  0  0  0  0
   41.4079   53.7451   32.2030 N   0  0  2  0  0  0
   42.6109   53.7530   31.3907 C   0  0  0  0  0  0
   42.1859   53.1027   30.0709 C   0  0  0  0  0  0
   40.6693   53.3062   30.0381 C   0  0  0  0  0  0
   40.3805   54.1529   31.2733 C   0  0  1  0  0  0
   38.9524   54.0456   31.8465 C   0  0  0  0  0  0
   38.8574   54.7362   33.1723 N   0  0  0  0  0  0
   37.5838   55.1640   33.5265 C   0  0  0  0  0  0
   36.6695   55.1051   32.6970 O   0  0  0  0  0  0
   37.2781   55.6887   34.7642 N   0  0  0  0  0  0
   38.2376   55.9130   35.8620 C   0  0  0  0  0  0
   37.4283   56.3632   37.0084 C   0  0  0  0  0  0
   37.4875   56.6311   38.3756 C   0  0  0  0  0  0
   38.5481   56.4968   39.2379 N   0  0  0  0  0  0
   39.8427   56.7554   38.9688 C   0  0  0  0  0  0
   40.2669   57.2273   37.9118 O   0  0  0  0  0  0
   40.7708   56.4621   40.1180 C   0  0  0  0  0  0
   40.6818   55.2711   40.8578 C   0  0  0  0  0  0
   41.4710   55.0359   41.9368 N   0  0  0  0  0  0
   42.3709   55.9973   42.2681 C   0  0  0  0  0  0
   43.2296   55.7231   43.4882 C   0  0  0  0  0  0
   42.4867   57.1754   41.5224 C   0  0  0  0  0  0
   41.6911   57.4111   40.4446 N   0  0  0  0  0  0
   36.2793   56.8630   38.8370 N   0  0  0  0  0  0
   35.4642   56.7720   37.7748 N   0  0  0  0  0  0
   36.1464   56.4953   36.6270 C   0  0  0  0  0  0
   35.9133   56.1993   35.1708 C   0  0  0  0  0  0
   34.7686   55.1726   35.0774 C   0  0  0  0  0  0
   35.5116   57.4832   34.4105 C   0  0  0  0  0  0
   40.7085   52.7703   35.3904 H   0  0  0  0  0  0
   38.9541   52.8805   35.3481 H   0  0  0  0  0  0
   39.8532   52.1886   33.9856 H   0  0  0  0  0  0
   40.1251   55.1054   34.8848 H   0  0  0  0  0  0
   41.4519   55.6288   33.0881 H   0  0  0  0  0  0
   42.1674   54.3638   34.0544 H   0  0  0  0  0  0
   43.0208   54.7575   31.2634 H   0  0  0  0  0  0
   43.3816   53.1841   31.9087 H   0  0  0  0  0  0
   42.6817   53.5715   29.2209 H   0  0  0  0  0  0
   42.4398   52.0423   30.0614 H   0  0  0  0  0  0
   40.1109   52.3719   30.0489 H   0  0  0  0  0  0
   40.3725   53.8488   29.1474 H   0  0  0  0  0  0
   40.4773   55.2067   30.9976 H   0  0  0  0  0  0
   38.7939   52.9833   32.0366 H   0  0  0  0  0  0
   38.2576   54.3920   31.0820 H   0  0  0  0  0  0
   38.9906   56.6518   35.5830 H   0  0  0  0  0  0
   38.7098   54.9830   36.1723 H   0  0  0  0  0  0
   38.3072   56.3646   40.2136 H   0  0  0  0  0  0
   39.9543   54.5066   40.6242 H   0  0  0  0  0  0
   43.9419   56.5290   43.6687 H   0  0  0  0  0  0
   42.6076   55.6211   44.3784 H   0  0  0  0  0  0
   43.7936   54.7986   43.3587 H   0  0  0  0  0  0
   43.2034   57.9424   41.7773 H   0  0  0  0  0  0
   34.4602   56.8879   37.8505 H   0  0  0  0  0  0
   33.8412   55.5696   35.4934 H   0  0  0  0  0  0
   34.5468   54.8877   34.0487 H   0  0  0  0  0  0
   35.0025   54.2689   35.6378 H   0  0  0  0  0  0
   34.6147   57.9358   34.8367 H   0  0  0  0  0  0
   36.3005   58.2282   34.4454 H   0  0  0  0  0  0
   35.3058   57.2788   33.3599 H   0  0  0  0  0  0
  1  2  1  0  0  0
  1 33  1  0  0  0
  1 34  1  0  0  0
  1 35  1  0  0  0
  2  3  1  0  0  0
  2 10  1  0  0  0
  2 36  1  0  0  0
  3  4  1  0  0  0
  3 37  1  0  0  0
  3 38  1  0  0  0
  4  5  1  0  0  0
  4  8  1  0  0  0
  5  6  1  0  0  0
  5 39  1  0  0  0
  5 40  1  0  0  0
  6  7  1  0  0  0
  6 41  1  0  0  0
  6 42  1  0  0  0
  7  8  1  0  0  0
  7 43  1  0  0  0
  7 44  1  0  0  0
  8  9  1  0  0  0
  8 45  1  0  0  0
  9 10  1  0  0  0
  9 46  1  0  0  0
  9 47  1  0  0  0
 10 11  1  0  0  0
 11 12  2  0  0  0
 11 13  1  0  0  0
 13 14  1  0  0  0
 13 30  1  0  0  0
 14 15  1  0  0  0
 14 48  1  0  0  0
 14 49  1  0  0  0
 15 16  1  0  0  0
 15 29  2  0  0  0
 16 17  1  0  0  0
 16 27  2  0  0  0
 17 18  1  0  0  0
 17 50  1  0  0  0
 18 19  2  0  0  0
 18 20  1  0  0  0
 20 21  2  0  0  0
 20 26  1  0  0  0
 21 22  1  0  0  0
 21 51  1  0  0  0
 22 23  2  0  0  0
 23 24  1  0  0  0
 23 25  1  0  0  0
 24 52  1  0  0  0
 24 53  1  0  0  0
 24 54  1  0  0  0
 25 26  2  0  0  0
 25 55  1  0  0  0
 27 28  1  0  0  0
 28 29  1  0  0  0
 28 56  1  0  0  0
 29 30  1  0  0  0
 30 31  1  0  0  0
 30 32  1  0  0  0
 31 57  1  0  0  0
 31 58  1  0  0  0
 31 59  1  0  0  0
 32 60  1  0  0  0
 32 61  1  0  0  0
 32 62  1  0  0  0
M  END
> <s_m_entry_id>
3403

> <s_m_entry_name>
dock_pv.132

> <s_m_Source_Path>
/home/csk/Desktop/cluster/DUD-E-result/kpcb

> <s_m_Source_File>
dock_pv.maegz

> <i_m_Source_File_Index>
132

> <chembl_id>
CHEMBL3662881

> <chembl_pref_name>
None

> <i_lp_mmshare_version>
53161

> <i_f3d_flags>
0

> <r_lp_tautomer_probability>
0.5

> <s_lp_Force_Field>
OPLS_2005

> <r_lp_Energy>
124.696331

> <b_lp_Chiralities_Consistent>
1

> <s_lp_Variant>
CHEMBL3045_lig633-1

> <s_i_glide_gridfile>
glide-grid_2i0e

> <i_i_glide_lignum>
1034

> <i_i_glide_rotatable_bonds>
5

> <r_i_docking_score>
-7.86050604692022

> <r_i_glide_ligand_efficiency>
-0.245640813966257

> <r_i_glide_ligand_efficiency_sa>
-0.779860972091792

> <r_i_glide_ligand_efficiency_ln>
-1.76018157320772

> <r_i_glide_gscore>
-7.86050604692022

> <r_i_glide_lipo>
-2.09918849428007

> <r_i_glide_hbond>
-0.815294961823424

> <r_i_glide_metal>
0

> <r_i_glide_rewards>
-1.92626066191966

> <r_i_glide_evdw>
-48.5598983764648

> <r_i_glide_ecoul>
-6.31717109680176

> <r_i_glide_erotb>
0.363104896361948

> <r_i_glide_esite>
-0.00729624191550713

> <r_i_glide_emodel>
-73.2614925415842

> <r_i_glide_energy>
-54.8770694732666

> <r_i_glide_einternal>
13.4868774414062

> <i_i_glide_confnum>
29

> <i_i_glide_posenum>
132

> <r_i_glide_eff_state_penalty>
0

> <s_user_duplicate_titles>
CHEMBL3045_lig633

> <s_m_subgroup_title>
dock_pv

> <s_m_subgroupid>
dock_pv

> <b_m_subgroup_collapsed>
1

$$$$
CHEMBL3045_lig322
                    3D
 Schrodinger Suite 2021-1.
 42 45  0  0  1  0            999 V2000
   36.5232   56.7717   38.8381 N   0  0  0  0  0  0
   37.8685   56.6959   38.7233 C   0  0  0  0  0  0
   38.5226   56.3748   37.5342 C   0  0  0  0  0  0
   35.7882   56.5377   37.7331 C   0  0  0  0  0  0
   36.3322   56.2149   36.4713 C   0  0  0  0  0  0
   37.7530   56.0851   36.3651 C   0  0  0  0  0  0
   38.2772   55.7381   35.0735 C   0  0  0  0  0  0
   37.4669   55.6220   33.9866 N   0  0  0  0  0  0
   36.1220   55.7828   34.0967 C   0  0  0  0  0  0
   35.5235   56.0564   35.3283 C   0  0  0  0  0  0
   35.3277   55.6892   32.8254 C   0  0  0  0  0  0
   35.9484   55.7604   31.5639 C   0  0  0  0  0  0
   35.1719   55.7012   30.4085 C   0  0  0  0  0  0
   33.8246   55.5778   30.4372 N   0  0  0  0  0  0
   33.2209   55.4958   31.6438 C   0  0  0  0  0  0
   33.9287   55.5397   32.8437 C   0  0  0  0  0  0
   39.6342   55.5148   34.8100 N   0  0  0  0  0  0
   40.2511   55.6718   33.4797 C   0  0  0  0  0  0
   40.4826   54.3066   32.8120 C   0  0  0  0  0  0
   41.4244   53.4388   33.6654 C   0  0  0  0  0  0
   40.9847   53.3299   35.1470 C   0  0  1  0  0  0
   40.5589   54.7388   35.6656 C   0  0  0  0  0  0
   39.8962   52.3724   35.2409 N   0  0  0  0  0  0
   38.4328   56.9088   39.6211 H   0  0  0  0  0  0
   39.5995   56.3862   37.5054 H   0  0  0  0  0  0
   34.7165   56.6324   37.8472 H   0  0  0  0  0  0
   34.4577   56.1915   35.4285 H   0  0  0  0  0  0
   37.0200   55.8630   31.4723 H   0  0  0  0  0  0
   35.6307   55.7363   29.4303 H   0  0  0  0  0  0
   32.1445   55.4006   31.6350 H   0  0  0  0  0  0
   33.3740   55.4581   33.7656 H   0  0  0  0  0  0
   39.6667   56.3332   32.8382 H   0  0  0  0  0  0
   41.2102   56.1756   33.6131 H   0  0  0  0  0  0
   39.5259   53.8049   32.6613 H   0  0  0  0  0  0
   40.9044   54.4493   31.8165 H   0  0  0  0  0  0
   41.5078   52.4437   33.2213 H   0  0  0  0  0  0
   42.4479   53.8153   33.6252 H   0  0  0  0  0  0
   41.8783   53.0463   35.7083 H   0  0  0  0  0  0
   41.4733   55.3288   35.7533 H   0  0  0  0  0  0
   40.3000   54.6575   36.7177 H   0  0  0  0  0  0
   40.2155   51.5209   34.7912 H   0  0  0  0  0  0
   39.7509   52.1289   36.2099 H   0  0  0  0  0  0
  1  2  2  0  0  0
  1  4  1  0  0  0
  2  3  1  0  0  0
  2 24  1  0  0  0
  3  6  2  0  0  0
  3 25  1  0  0  0
  4  5  2  0  0  0
  4 26  1  0  0  0
  5  6  1  0  0  0
  5 10  1  0  0  0
  6  7  1  0  0  0
  7  8  2  0  0  0
  7 17  1  0  0  0
  8  9  1  0  0  0
  9 11  1  0  0  0
  9 10  2  0  0  0
 10 27  1  0  0  0
 11 12  2  0  0  0
 11 16  1  0  0  0
 12 13  1  0  0  0
 12 28  1  0  0  0
 13 14  2  0  0  0
 13 29  1  0  0  0
 14 15  1  0  0  0
 15 16  2  0  0  0
 15 30  1  0  0  0
 16 31  1  0  0  0
 17 18  1  0  0  0
 17 22  1  0  0  0
 18 19  1  0  0  0
 18 32  1  0  0  0
 18 33  1  0  0  0
 19 20  1  0  0  0
 19 34  1  0  0  0
 19 35  1  0  0  0
 20 21  1  0  0  0
 20 36  1  0  0  0
 20 37  1  0  0  0
 21 22  1  0  0  0
 21 23  1  0  0  0
 21 38  1  0  0  0
 22 39  1  0  0  0
 22 40  1  0  0  0
 23 41  1  0  0  0
 23 42  1  0  0  0
M  END
> <s_m_entry_id>
3404

> <s_m_entry_name>
dock_pv.133

> <s_m_Source_Path>
/home/csk/Desktop/cluster/DUD-E-result/kpcb

> <s_m_Source_File>
dock_pv.maegz

> <i_m_Source_File_Index>
133

> <chembl_id>
CHEMBL2147543

> <chembl_pref_name>
None

> <i_lp_mmshare_version>
53161

> <i_f3d_flags>
0

> <r_lp_tautomer_probability>
1

> <s_lp_Force_Field>
OPLS_2005

> <r_lp_Energy>
27.115183

> <b_lp_Chiralities_Consistent>
1

> <s_lp_Variant>
CHEMBL3045_lig322-2

> <s_i_glide_gridfile>
glide-grid_2i0e

> <i_i_glide_lignum>
486

> <i_i_glide_rotatable_bonds>
2

> <r_i_docking_score>
-7.85765039235323

> <r_i_glide_ligand_efficiency>
-0.341636973580575

> <r_i_glide_ligand_efficiency_sa>
-0.971570107246769

> <r_i_glide_ligand_efficiency_ln>
-1.90005111410555

> <r_i_glide_gscore>
-7.85765039235323

> <r_i_glide_lipo>
-2.92400995843132

> <r_i_glide_hbond>
-0.573458363890418

> <r_i_glide_metal>
0

> <r_i_glide_rewards>
-2.09611416773221

> <r_i_glide_evdw>
-39.9439353942871

> <r_i_glide_ecoul>
-4.41795921325684

> <r_i_glide_erotb>
0.395822749403595

> <r_i_glide_esite>
0

> <r_i_glide_emodel>
-65.0082962831826

> <r_i_glide_energy>
-44.3618946075439

> <r_i_glide_einternal>
0.0860888659954071

> <i_i_glide_confnum>
20

> <i_i_glide_posenum>
358

> <r_i_glide_eff_state_penalty>
0

> <s_user_duplicate_titles>
CHEMBL3045_lig322

> <s_m_subgroup_title>
dock_pv

> <s_m_subgroupid>
dock_pv

> <b_m_subgroup_collapsed>
1

$$$$
CHEMBL3045_lig45
                    3D
 Schrodinger Suite 2021-1.
 62 67  0  0  1  0            999 V2000
   37.1965   56.0021   36.4385 C   0  0  0  0  0  0
   36.2163   56.1565   35.5220 C   0  0  0  0  0  0
   38.5941   55.5690   36.2616 C   0  0  0  0  0  0
   36.2801   56.0417   34.0485 C   0  0  0  0  0  0
   35.0206   56.5234   36.2303 C   0  0  0  0  0  0
   36.6597   56.3530   37.7330 C   0  0  0  0  0  0
   40.8649   55.5199   36.5307 N   0  0  0  0  0  0
   35.3687   56.5921   37.5145 N   0  0  0  0  0  0
   39.6736   56.0675   36.9638 C   0  0  0  0  0  0
   37.4359   56.2639   33.3268 C   0  0  0  0  0  0
   37.2599   55.9757   31.9983 N   0  0  0  0  0  0
   39.1465   54.5802   35.3708 C   0  0  0  0  0  0
   40.5729   54.6267   35.5067 C   0  0  0  0  0  0
   35.2721   55.7206   33.0554 C   0  0  0  0  0  0
   35.9152   55.7641   31.7722 C   0  0  0  0  0  0
   42.2158   55.8226   37.0479 C   0  0  0  0  0  0
   42.4746   55.4141   39.9584 N   0  0  1  0  0  0
   33.9012   56.7716   35.7997 O   0  0  0  0  0  0
   37.2116   56.4060   38.8314 O   0  0  0  0  0  0
   42.2944   57.0050   38.0406 C   0  0  0  0  0  0
   42.9162   54.5921   37.6611 C   0  0  0  0  0  0
   42.3823   54.2519   39.0596 C   0  0  0  0  0  0
   41.8155   56.6339   39.4657 C   0  0  0  0  0  0
   38.3124   56.0053   30.9975 C   0  0  0  0  0  0
   41.4177   53.8507   34.6955 C   0  0  0  0  0  0
   38.5957   53.6598   34.4626 C   0  0  0  0  0  0
   33.9011   55.3989   33.0850 C   0  0  0  0  0  0
   35.2160   55.5788   30.5732 C   0  0  0  0  0  0
   42.1437   55.0949   41.3483 C   0  0  0  0  0  0
   40.7203   54.5447   41.5791 C   0  0  0  0  0  0
   40.8167   52.9988   33.7738 C   0  0  0  0  0  0
   33.2068   55.2296   31.8910 C   0  0  0  0  0  0
   39.4364   52.8889   33.6668 C   0  0  0  0  0  0
   33.8467   55.3455   30.6656 C   0  0  0  0  0  0
   34.7135   56.8403   38.2392 H   0  0  0  0  0  0
   39.6677   56.8196   37.7351 H   0  0  0  0  0  0
   38.4218   56.5444   33.6657 H   0  0  0  0  0  0
   42.7531   56.1148   36.1441 H   0  0  0  0  0  0
   41.7532   57.8644   37.6430 H   0  0  0  0  0  0
   43.3110   57.3993   38.0776 H   0  0  0  0  0  0
   43.9989   54.7282   37.6778 H   0  0  0  0  0  0
   42.8260   53.7211   37.0117 H   0  0  0  0  0  0
   42.9761   53.4367   39.4753 H   0  0  0  0  0  0
   41.3520   53.8946   39.0038 H   0  0  0  0  0  0
   40.7344   56.5080   39.5210 H   0  0  0  0  0  0
   42.0523   57.4539   40.1442 H   0  0  0  0  0  0
   38.1796   55.1745   30.3022 H   0  0  0  0  0  0
   38.2728   56.9458   30.4514 H   0  0  0  0  0  0
   39.2876   55.9047   31.4701 H   0  0  0  0  0  0
   42.4958   53.8935   34.7730 H   0  0  0  0  0  0
   37.5250   53.5731   34.3566 H   0  0  0  0  0  0
   33.3687   55.2986   34.0172 H   0  0  0  0  0  0
   35.7088   55.6063   29.6096 H   0  0  0  0  0  0
   42.2994   55.9847   41.9602 H   0  0  0  0  0  0
   42.8834   54.3737   41.6937 H   0  0  0  0  0  0
   40.5301   54.4180   42.6430 H   0  0  0  0  0  0
   40.5758   53.5746   41.1041 H   0  0  0  0  0  0
   39.9577   55.2199   41.1902 H   0  0  0  0  0  0
   41.4418   52.3781   33.1452 H   0  0  0  0  0  0
   32.1497   55.0086   31.9071 H   0  0  0  0  0  0
   39.0171   52.1943   32.9484 H   0  0  0  0  0  0
   33.2765   55.2046   29.7594 H   0  0  0  0  0  0
  1  2  2  0  0  0
  1  3  1  0  0  0
  1  6  1  0  0  0
  2  4  1  0  0  0
  2  5  1  0  0  0
  3  9  2  0  0  0
  3 12  1  0  0  0
  4 10  2  0  0  0
  4 14  1  0  0  0
  5 18  2  0  0  0
  5  8  1  0  0  0
  6  8  1  0  0  0
  6 19  2  0  0  0
  7  9  1  0  0  0
  7 16  1  0  0  0
  7 13  1  0  0  0
  8 35  1  0  0  0
  9 36  1  0  0  0
 10 11  1  0  0  0
 10 37  1  0  0  0
 11 24  1  0  0  0
 11 15  1  0  0  0
 12 13  2  0  0  0
 12 26  1  0  0  0
 13 25  1  0  0  0
 14 15  2  0  0  0
 14 27  1  0  0  0
 15 28  1  0  0  0
 16 20  1  0  0  0
 16 21  1  0  0  0
 16 38  1  0  0  0
 17 22  1  0  0  0
 17 29  1  0  0  0
 17 23  1  0  0  0
 20 23  1  0  0  0
 20 39  1  0  0  0
 20 40  1  0  0  0
 21 22  1  0  0  0
 21 41  1  0  0  0
 21 42  1  0  0  0
 22 43  1  0  0  0
 22 44  1  0  0  0
 23 45  1  0  0  0
 23 46  1  0  0  0
 24 47  1  0  0  0
 24 48  1  0  0  0
 24 49  1  0  0  0
 25 31  2  0  0  0
 25 50  1  0  0  0
 26 33  2  0  0  0
 26 51  1  0  0  0
 27 32  2  0  0  0
 27 52  1  0  0  0
 28 34  2  0  0  0
 28 53  1  0  0  0
 29 30  1  0  0  0
 29 54  1  0  0  0
 29 55  1  0  0  0
 30 56  1  0  0  0
 30 57  1  0  0  0
 30 58  1  0  0  0
 31 33  1  0  0  0
 31 59  1  0  0  0
 32 34  1  0  0  0
 32 60  1  0  0  0
 33 61  1  0  0  0
 34 62  1  0  0  0
M  END
> <s_m_entry_id>
3405

> <s_m_entry_name>
dock_pv.134

> <s_m_Source_Path>
/home/csk/Desktop/cluster/DUD-E-result/kpcb

> <s_m_Source_File>
dock_pv.maegz

> <i_m_Source_File_Index>
134

> <chembl_id>
CHEMBL54382

> <chembl_pref_name>
None

> <i_lp_mmshare_version>
53161

> <i_f3d_flags>
0

> <r_lp_tautomer_probability>
1

> <s_lp_Force_Field>
OPLS_2005

> <r_lp_Energy>
41.113352

> <b_lp_Chiralities_Consistent>
1

> <s_lp_Variant>
CHEMBL3045_lig45-1

> <s_i_glide_gridfile>
glide-grid_2i0e

> <i_i_glide_lignum>
47

> <i_i_glide_rotatable_bonds>
4

> <r_i_docking_score>
-7.84212062747958

> <r_i_glide_ligand_efficiency>
-0.230650606690576

> <r_i_glide_ligand_efficiency_sa>
-0.74721842652828

> <r_i_glide_ligand_efficiency_ln>
-1.73254441064316

> <r_i_glide_gscore>
-7.84212062747958

> <r_i_glide_lipo>
-2.75179907236537

> <r_i_glide_hbond>
-0.227144644259765

> <r_i_glide_metal>
0

> <r_i_glide_rewards>
-2.25581176274756

> <r_i_glide_evdw>
-49.6874198913574

> <r_i_glide_ecoul>
-2.77953767776489

> <r_i_glide_erotb>
0.293936498125724

> <r_i_glide_esite>
0

> <r_i_glide_emodel>
-74.1264785297663

> <r_i_glide_energy>
-52.4669575691223

> <r_i_glide_einternal>
8.04889678955078

> <i_i_glide_confnum>
43

> <i_i_glide_posenum>
52

> <r_i_glide_eff_state_penalty>
0

> <s_user_duplicate_titles>
CHEMBL3045_lig45,83354

> <s_m_subgroup_title>
dock_pv

> <s_m_subgroupid>
dock_pv

> <b_m_subgroup_collapsed>
1

$$$$
CHEMBL3045_lig231
                    3D
 Schrodinger Suite 2021-1.
 39 42  0  0  1  0            999 V2000
   37.2664   56.4144   36.9414 C   0  0  0  0  0  0
   36.0294   56.1850   36.1671 C   0  0  0  0  0  0
   37.2570   56.8925   38.2969 C   0  0  0  0  0  0
   38.5427   56.2053   36.5747 C   0  0  0  0  0  0
   38.5392   56.9812   38.6489 N   0  0  0  0  0  0
   39.3800   56.6088   37.6824 C   0  0  0  0  0  0
   34.7998   55.8422   36.7095 C   0  0  0  0  0  0
   35.8245   56.2073   34.7318 C   0  0  0  0  0  0
   33.9016   55.5718   35.7128 N   0  0  0  0  0  0
   39.0210   55.6626   35.3956 N   0  0  0  0  0  0
   34.4901   55.7535   34.4834 C   0  0  0  0  0  0
   36.3014   57.1719   39.0167 O   0  0  0  0  0  0
   40.6066   56.6178   37.7764 O   0  0  0  0  0  0
   40.3855   55.2766   35.0498 C   0  0  0  0  0  0
   40.4261   54.6271   33.6718 C   0  0  0  0  0  0
   36.6147   56.5524   33.6215 C   0  0  0  0  0  0
   33.9806   55.5721   33.1915 C   0  0  0  0  0  0
   39.8871   55.2783   32.5562 C   0  0  0  0  0  0
   41.0365   53.3778   33.5175 C   0  0  0  0  0  0
   36.1082   56.3821   32.3337 C   0  0  0  0  0  0
   34.8231   55.8926   32.1268 C   0  0  0  0  0  0
   39.9065   54.6599   31.3083 C   0  0  0  0  0  0
   41.0767   52.7705   32.2655 C   0  0  0  0  0  0
   40.4977   53.4066   31.1707 C   0  0  0  0  0  0
   38.8441   57.2820   39.5610 H   0  0  0  0  0  0
   34.4963   55.7178   37.7412 H   0  0  0  0  0  0
   32.9641   55.2370   35.9131 H   0  0  0  0  0  0
   38.3513   55.3020   34.7310 H   0  0  0  0  0  0
   40.7660   54.5868   35.8065 H   0  0  0  0  0  0
   41.0356   56.1531   35.0519 H   0  0  0  0  0  0
   37.6035   56.9603   33.7548 H   0  0  0  0  0  0
   32.9781   55.2142   33.0152 H   0  0  0  0  0  0
   39.4461   56.2575   32.6544 H   0  0  0  0  0  0
   41.4750   52.8666   34.3644 H   0  0  0  0  0  0
   36.7214   56.6349   31.4806 H   0  0  0  0  0  0
   34.4639   55.7728   31.1140 H   0  0  0  0  0  0
   39.4701   55.1464   30.4477 H   0  0  0  0  0  0
   41.5390   51.7993   32.1492 H   0  0  0  0  0  0
   40.5059   52.9208   30.2057 H   0  0  0  0  0  0
  1  2  1  0  0  0
  1  3  1  0  0  0
  1  4  2  0  0  0
  2  7  2  0  0  0
  2  8  1  0  0  0
  3  5  1  0  0  0
  3 12  2  0  0  0
  4  6  1  0  0  0
  4 10  1  0  0  0
  5  6  1  0  0  0
  5 25  1  0  0  0
  6 13  2  0  0  0
  7  9  1  0  0  0
  7 26  1  0  0  0
  8 11  2  0  0  0
  8 16  1  0  0  0
  9 11  1  0  0  0
  9 27  1  0  0  0
 10 14  1  0  0  0
 10 28  1  0  0  0
 11 17  1  0  0  0
 14 15  1  0  0  0
 14 29  1  0  0  0
 14 30  1  0  0  0
 15 18  2  0  0  0
 15 19  1  0  0  0
 16 20  2  0  0  0
 16 31  1  0  0  0
 17 21  2  0  0  0
 17 32  1  0  0  0
 18 22  1  0  0  0
 18 33  1  0  0  0
 19 23  2  0  0  0
 19 34  1  0  0  0
 20 21  1  0  0  0
 20 35  1  0  0  0
 21 36  1  0  0  0
 22 24  2  0  0  0
 22 37  1  0  0  0
 23 24  1  0  0  0
 23 38  1  0  0  0
 24 39  1  0  0  0
M  END
> <s_m_entry_id>
3406

> <s_m_entry_name>
dock_pv.135

> <s_m_Source_Path>
/home/csk/Desktop/cluster/DUD-E-result/kpcb

> <s_m_Source_File>
dock_pv.maegz

> <i_m_Source_File_Index>
135

> <chembl_id>
CHEMBL364374

> <chembl_pref_name>
None

> <i_lp_mmshare_version>
53161

> <i_f3d_flags>
0

> <r_lp_tautomer_probability>
0.999999999997686

> <s_lp_Force_Field>
OPLS_2005

> <r_lp_Energy>
21.897384

> <b_lp_Chiralities_Consistent>
1

> <s_lp_Variant>
CHEMBL3045_lig231-1

> <s_i_glide_gridfile>
glide-grid_2i0e

> <i_i_glide_lignum>
389

> <i_i_glide_rotatable_bonds>
4

> <r_i_docking_score>
-7.83978362381966

> <r_i_glide_ligand_efficiency>
-0.326657650992486

> <r_i_glide_ligand_efficiency_sa>
-0.942243712564914

> <r_i_glide_ligand_efficiency_ln>
-1.8764199654093

> <r_i_glide_gscore>
-7.83978362381966

> <r_i_glide_lipo>
-2.47237260040562

> <r_i_glide_hbond>
-0.588043979059113

> <r_i_glide_metal>
0

> <r_i_glide_rewards>
-2.40201484612454

> <r_i_glide_evdw>
-39.6995162963867

> <r_i_glide_ecoul>
-7.54890775680542

> <r_i_glide_erotb>
0.739959780109751

> <r_i_glide_esite>
0

> <r_i_glide_emodel>
-68.115386216434

> <r_i_glide_energy>
-47.2484240531921

> <r_i_glide_einternal>
3.47162747383118

> <i_i_glide_confnum>
74

> <i_i_glide_posenum>
285

> <r_i_glide_eff_state_penalty>
0

> <s_user_duplicate_titles>
CHEMBL3045_lig231

> <s_m_subgroup_title>
dock_pv

> <s_m_subgroupid>
dock_pv

> <b_m_subgroup_collapsed>
1

$$$$
CHEMBL3045_lig583
                    3D
 Schrodinger Suite 2021-1.
 62 65  0  0  1  0            999 V2000
   41.7193   52.3099   30.3474 C   0  0  0  0  0  0
   41.3642   52.3926   31.8474 C   0  0  0  0  0  0
   40.5662   53.5942   32.1228 N   0  0  1  0  0  0
   39.1725   53.3167   31.7535 C   0  0  0  0  0  0
   38.3201   54.6048   31.8170 C   0  0  2  0  0  0
   38.7383   55.6306   30.7704 C   0  0  0  0  0  0
   38.3674   55.1069   33.2074 N   0  0  0  0  0  0
   39.7658   55.3366   33.6727 C   0  0  0  0  0  0
   40.6025   54.0317   33.5294 C   0  0  2  0  0  0
   42.0172   54.3342   34.0713 C   0  0  0  0  0  0
   37.2126   55.6905   33.6838 C   0  0  0  0  0  0
   36.2627   55.8877   32.9151 O   0  0  0  0  0  0
   37.0272   55.9443   35.0154 N   0  0  0  0  0  0
   38.0927   56.0140   36.0228 C   0  0  0  0  0  0
   37.4077   56.3710   37.2833 C   0  0  0  0  0  0
   37.6149   56.5915   38.6478 C   0  0  0  0  0  0
   38.7749   56.4655   39.3921 N   0  0  0  0  0  0
   40.0458   56.5188   38.9333 C   0  0  0  0  0  0
   40.3526   56.7948   37.7720 O   0  0  0  0  0  0
   41.1354   56.2128   39.9432 C   0  0  0  0  0  0
   42.4382   55.9018   39.5048 C   0  0  0  0  0  0
   43.4124   55.5725   40.4504 C   0  0  0  0  0  0
   43.0805   55.5775   41.8066 C   0  0  0  0  0  0
   44.0038   55.2640   42.7443 F   0  0  0  0  0  0
   41.7792   55.9093   42.1768 C   0  0  0  0  0  0
   40.8155   56.2213   41.2711 N   0  0  0  0  0  0
   36.4616   56.8348   39.2370 N   0  0  0  0  0  0
   35.5277   56.7717   38.2655 N   0  0  0  0  0  0
   36.0863   56.5130   37.0496 C   0  0  0  0  0  0
   35.6975   56.2852   35.6159 C   0  0  0  0  0  0
   34.6958   55.1106   35.5509 C   0  0  0  0  0  0
   35.0889   57.5721   35.0061 C   0  0  0  0  0  0
   42.3714   51.4604   30.1497 H   0  0  0  0  0  0
   40.8424   52.1981   29.7131 H   0  0  0  0  0  0
   42.2391   53.2113   30.0201 H   0  0  0  0  0  0
   42.3006   52.4201   32.3916 H   0  0  0  0  0  0
   40.8621   51.4945   32.2038 H   0  0  0  0  0  0
   39.1025   52.8858   30.7537 H   0  0  0  0  0  0
   38.7537   52.5666   32.4287 H   0  0  0  0  0  0
   37.2892   54.3715   31.5583 H   0  0  0  0  0  0
   38.6708   55.1711   29.7852 H   0  0  0  0  0  0
   38.0918   56.5044   30.7849 H   0  0  0  0  0  0
   39.7765   55.9448   30.8820 H   0  0  0  0  0  0
   40.2260   56.0860   33.0284 H   0  0  0  0  0  0
   39.9061   55.6902   34.6801 H   0  0  0  0  0  0
   40.1708   53.2482   34.1552 H   0  0  0  0  0  0
   41.9729   54.7830   35.0636 H   0  0  0  0  0  0
   42.6145   53.4299   34.1841 H   0  0  0  0  0  0
   42.5604   55.0209   33.4215 H   0  0  0  0  0  0
   38.7859   56.8167   35.7706 H   0  0  0  0  0  0
   38.6221   55.0625   36.1116 H   0  0  0  0  0  0
   38.6499   56.3731   40.3938 H   0  0  0  0  0  0
   42.6964   55.8912   38.4518 H   0  0  0  0  0  0
   44.4165   55.3156   40.1408 H   0  0  0  0  0  0
   41.4982   55.9247   43.2206 H   0  0  0  0  0  0
   34.5383   56.9161   38.4381 H   0  0  0  0  0  0
   33.7641   55.3564   36.0641 H   0  0  0  0  0  0
   34.4373   54.8467   34.5269 H   0  0  0  0  0  0
   35.0948   54.2185   36.0337 H   0  0  0  0  0  0
   34.3007   57.9708   35.6365 H   0  0  0  0  0  0
   35.8428   58.3432   34.8521 H   0  0  0  0  0  0
   34.6427   57.3902   34.0295 H   0  0  0  0  0  0
  1  2  1  0  0  0
  1 33  1  0  0  0
  1 34  1  0  0  0
  1 35  1  0  0  0
  2  3  1  0  0  0
  2 36  1  0  0  0
  2 37  1  0  0  0
  3  4  1  0  0  0
  3  9  1  0  0  0
  4  5  1  0  0  0
  4 38  1  0  0  0
  4 39  1  0  0  0
  5  6  1  0  0  0
  5  7  1  0  0  0
  5 40  1  0  0  0
  6 41  1  0  0  0
  6 42  1  0  0  0
  6 43  1  0  0  0
  7  8  1  0  0  0
  7 11  1  0  0  0
  8  9  1  0  0  0
  8 44  1  0  0  0
  8 45  1  0  0  0
  9 10  1  0  0  0
  9 46  1  0  0  0
 10 47  1  0  0  0
 10 48  1  0  0  0
 10 49  1  0  0  0
 11 12  2  0  0  0
 11 13  1  0  0  0
 13 14  1  0  0  0
 13 30  1  0  0  0
 14 15  1  0  0  0
 14 50  1  0  0  0
 14 51  1  0  0  0
 15 16  1  0  0  0
 15 29  2  0  0  0
 16 17  1  0  0  0
 16 27  2  0  0  0
 17 18  1  0  0  0
 17 52  1  0  0  0
 18 19  2  0  0  0
 18 20  1  0  0  0
 20 21  2  0  0  0
 20 26  1  0  0  0
 21 22  1  0  0  0
 21 53  1  0  0  0
 22 23  2  0  0  0
 22 54  1  0  0  0
 23 24  1  0  0  0
 23 25  1  0  0  0
 25 26  2  0  0  0
 25 55  1  0  0  0
 27 28  1  0  0  0
 28 29  1  0  0  0
 28 56  1  0  0  0
 29 30  1  0  0  0
 30 31  1  0  0  0
 30 32  1  0  0  0
 31 57  1  0  0  0
 31 58  1  0  0  0
 31 59  1  0  0  0
 32 60  1  0  0  0
 32 61  1  0  0  0
 32 62  1  0  0  0
M  END
> <s_m_entry_id>
3407

> <s_m_entry_name>
dock_pv.136

> <s_m_Source_Path>
/home/csk/Desktop/cluster/DUD-E-result/kpcb

> <s_m_Source_File>
dock_pv.maegz

> <i_m_Source_File_Index>
136

> <chembl_id>
CHEMBL3662832

> <chembl_pref_name>
None

> <i_lp_mmshare_version>
53161

> <i_f3d_flags>
0

> <r_lp_tautomer_probability>
0.5

> <s_lp_Force_Field>
OPLS_2005

> <r_lp_Energy>
106.524279

> <b_lp_Chiralities_Consistent>
1

> <s_lp_Variant>
CHEMBL3045_lig583-1

> <s_i_glide_gridfile>
glide-grid_2i0e

> <i_i_glide_lignum>
924

> <i_i_glide_rotatable_bonds>
6

> <r_i_docking_score>
-7.83282292879983

> <r_i_glide_ligand_efficiency>
-0.244775716524995

> <r_i_glide_ligand_efficiency_sa>
-0.777114458918335

> <r_i_glide_ligand_efficiency_ln>
-1.75398256844726

> <r_i_glide_gscore>
-7.83282292879983

> <r_i_glide_lipo>
-2.07947683650018

> <r_i_glide_hbond>
-0.864

> <r_i_glide_metal>
0

> <r_i_glide_rewards>
-2.08554501701298

> <r_i_glide_evdw>
-40.0400848388672

> <r_i_glide_ecoul>
-7.59177541732788

> <r_i_glide_erotb>
0.355720975992176

> <r_i_glide_esite>
-0.0187514967363004

> <r_i_glide_emodel>
-66.6528527952985

> <r_i_glide_energy>
-47.6318602561951

> <r_i_glide_einternal>
5.34006834030151

> <i_i_glide_confnum>
29

> <i_i_glide_posenum>
180

> <r_i_glide_eff_state_penalty>
0

> <s_user_duplicate_titles>
CHEMBL3045_lig583

> <s_m_subgroup_title>
dock_pv

> <s_m_subgroupid>
dock_pv

> <b_m_subgroup_collapsed>
1

$$$$
CHEMBL3045_lig308
                    3D
 Schrodinger Suite 2021-1.
 35 37  0  0  1  0            999 V2000
   37.3860   55.6283   33.9881 N   0  0  0  0  0  0
   38.1782   55.7069   35.0873 C   0  0  0  0  0  0
   36.0598   55.9032   34.0816 C   0  0  0  0  0  0
   37.6728   56.0937   36.3631 C   0  0  0  0  0  0
   36.2735   56.3725   36.4513 C   0  0  0  0  0  0
   35.4709   56.2773   35.2927 C   0  0  0  0  0  0
   36.5017   56.8408   38.8371 N   0  0  0  0  0  0
   35.2744   55.7924   32.8166 C   0  0  0  0  0  0
   33.7728   55.5920   30.4369 N   0  0  0  0  0  0
   39.5484   55.4083   34.9341 N   0  0  0  0  0  0
   35.7584   56.7318   37.7143 C   0  0  0  0  0  0
   41.0043   52.7742   34.6565 N   0  0  0  0  0  0
   38.4552   56.2204   37.5496 C   0  0  0  0  0  0
   37.8269   56.5865   38.7389 C   0  0  0  0  0  0
   35.1002   55.8643   30.4040 C   0  0  0  0  0  0
   33.1903   55.4112   31.6440 C   0  0  0  0  0  0
   35.8750   55.9716   31.5580 C   0  0  0  0  0  0
   33.9004   55.4964   32.8417 C   0  0  0  0  0  0
   40.1058   54.8631   33.6942 C   0  0  0  0  0  0
   40.1154   53.3226   33.6449 C   0  0  0  0  0  0
   34.4169   56.5047   35.3643 H   0  0  0  0  0  0
   40.0297   55.1129   35.7720 H   0  0  0  0  0  0
   34.7029   56.9418   37.8214 H   0  0  0  0  0  0
   41.0972   51.7637   34.5334 H   0  0  0  0  0  0
   41.9414   53.1239   34.5158 H   0  0  0  0  0  0
   39.5173   56.0239   37.5338 H   0  0  0  0  0  0
   38.3949   56.6720   39.6527 H   0  0  0  0  0  0
   35.5433   55.9774   29.4251 H   0  0  0  0  0  0
   32.1313   55.1962   31.6347 H   0  0  0  0  0  0
   36.9295   56.1889   31.4725 H   0  0  0  0  0  0
   33.3808   55.3310   33.7728 H   0  0  0  0  0  0
   39.5635   55.2486   32.8293 H   0  0  0  0  0  0
   41.1182   55.2482   33.5773 H   0  0  0  0  0  0
   39.1092   52.9271   33.7884 H   0  0  0  0  0  0
   40.4525   52.9849   32.6639 H   0  0  0  0  0  0
  1  2  2  0  0  0
  1  3  1  0  0  0
  2  4  1  0  0  0
  2 10  1  0  0  0
  3  6  2  0  0  0
  3  8  1  0  0  0
  4 13  2  0  0  0
  4  5  1  0  0  0
  5  6  1  0  0  0
  5 11  2  0  0  0
  6 21  1  0  0  0
  7 11  1  0  0  0
  7 14  2  0  0  0
  8 17  2  0  0  0
  8 18  1  0  0  0
  9 16  1  0  0  0
  9 15  2  0  0  0
 10 19  1  0  0  0
 10 22  1  0  0  0
 11 23  1  0  0  0
 12 20  1  0  0  0
 12 24  1  0  0  0
 12 25  1  0  0  0
 13 14  1  0  0  0
 13 26  1  0  0  0
 14 27  1  0  0  0
 15 17  1  0  0  0
 15 28  1  0  0  0
 16 18  2  0  0  0
 16 29  1  0  0  0
 17 30  1  0  0  0
 18 31  1  0  0  0
 19 20  1  0  0  0
 19 32  1  0  0  0
 19 33  1  0  0  0
 20 34  1  0  0  0
 20 35  1  0  0  0
M  END
> <s_m_entry_id>
3408

> <s_m_entry_name>
dock_pv.137

> <s_m_Source_Path>
/home/csk/Desktop/cluster/DUD-E-result/kpcb

> <s_m_Source_File>
dock_pv.maegz

> <i_m_Source_File_Index>
137

> <chembl_id>
CHEMBL1214929

> <chembl_pref_name>
None

> <i_lp_mmshare_version>
53161

> <i_f3d_flags>
0

> <r_lp_tautomer_probability>
1

> <s_lp_Force_Field>
OPLS_2005

> <r_lp_Energy>
14.794489

> <b_lp_Chiralities_Consistent>
1

> <s_lp_Variant>
CHEMBL3045_lig308-1

> <s_i_glide_gridfile>
glide-grid_2i0e

> <i_i_glide_lignum>
470

> <i_i_glide_rotatable_bonds>
4

> <r_i_docking_score>
-7.82708055230348

> <r_i_glide_ligand_efficiency>
-0.391354027615174

> <r_i_glide_ligand_efficiency_sa>
-1.06229826582321

> <r_i_glide_ligand_efficiency_ln>
-1.95886010784744

> <r_i_glide_gscore>
-7.82708055230348

> <r_i_glide_lipo>
-2.94987075301656

> <r_i_glide_hbond>
-0.57380901636298

> <r_i_glide_metal>
0

> <r_i_glide_rewards>
-2.38710698418209

> <r_i_glide_evdw>
-33.1766166687012

> <r_i_glide_ecoul>
-6.77201318740845

> <r_i_glide_erotb>
0.758339012804475

> <r_i_glide_esite>
0

> <r_i_glide_emodel>
-58.4990197557732

> <r_i_glide_energy>
-39.9486298561096

> <r_i_glide_einternal>
1.37309277057648

> <i_i_glide_confnum>
6

> <i_i_glide_posenum>
272

> <r_i_glide_eff_state_penalty>
0

> <s_user_duplicate_titles>
CHEMBL3045_lig308

> <s_m_subgroup_title>
dock_pv

> <s_m_subgroupid>
dock_pv

> <b_m_subgroup_collapsed>
1

$$$$
CHEMBL3045_lig312
                    3D
 Schrodinger Suite 2021-1.
 36 38  0  0  1  0            999 V2000
   36.4875   56.8279   38.8369 N   0  0  0  0  0  0
   37.7823   56.4398   38.7914 C   0  0  0  0  0  0
   38.4098   55.9733   37.6362 C   0  0  0  0  0  0
   35.7865   56.7703   37.6811 C   0  0  0  0  0  0
   36.3084   56.3233   36.4425 C   0  0  0  0  0  0
   37.6702   55.8897   36.4171 C   0  0  0  0  0  0
   38.2223   55.3968   35.1917 C   0  0  0  0  0  0
   37.4074   55.3822   34.0522 C   0  0  0  0  0  0
   36.0814   55.8236   34.0602 C   0  0  0  0  0  0
   35.5368   56.2898   35.2591 C   0  0  0  0  0  0
   35.2652   55.7727   32.8108 C   0  0  0  0  0  0
   33.9045   55.4255   32.8399 C   0  0  0  0  0  0
   33.1841   55.3758   31.6447 C   0  0  0  0  0  0
   33.7423   55.6399   30.4395 N   0  0  0  0  0  0
   35.0552   55.9722   30.4103 C   0  0  0  0  0  0
   35.8402   56.0545   31.5605 C   0  0  0  0  0  0
   39.5490   54.9132   35.1478 N   0  0  0  0  0  0
   40.2269   54.5215   33.9114 C   0  0  0  0  0  0
   39.9912   53.0536   33.5121 C   0  0  0  0  0  0
   40.6892   52.7676   32.2701 N   0  0  0  0  0  0
   38.3301   56.4964   39.7208 H   0  0  0  0  0  0
   39.4447   55.6665   37.6719 H   0  0  0  0  0  0
   34.7559   57.0918   37.7382 H   0  0  0  0  0  0
   37.7989   54.9895   33.1267 H   0  0  0  0  0  0
   34.5129   56.6333   35.2988 H   0  0  0  0  0  0
   33.4114   55.1922   33.7723 H   0  0  0  0  0  0
   32.1349   55.1205   31.6352 H   0  0  0  0  0  0
   35.4777   56.1639   29.4352 H   0  0  0  0  0  0
   36.8822   56.3269   31.4743 H   0  0  0  0  0  0
   39.9041   54.4953   35.9967 H   0  0  0  0  0  0
   39.9321   55.1830   33.0953 H   0  0  0  0  0  0
   41.2936   54.7064   34.0462 H   0  0  0  0  0  0
   40.3397   52.3736   34.2925 H   0  0  0  0  0  0
   38.9259   52.8641   33.3702 H   0  0  0  0  0  0
   41.6796   52.6370   32.4436 H   0  0  0  0  0  0
   40.3678   51.8902   31.8727 H   0  0  0  0  0  0
  1  2  2  0  0  0
  1  4  1  0  0  0
  2  3  1  0  0  0
  2 21  1  0  0  0
  3  6  2  0  0  0
  3 22  1  0  0  0
  4  5  2  0  0  0
  4 23  1  0  0  0
  5 10  1  0  0  0
  5  6  1  0  0  0
  6  7  1  0  0  0
  7  8  2  0  0  0
  7 17  1  0  0  0
  8  9  1  0  0  0
  8 24  1  0  0  0
  9 10  2  0  0  0
  9 11  1  0  0  0
 10 25  1  0  0  0
 11 12  2  0  0  0
 11 16  1  0  0  0
 12 13  1  0  0  0
 12 26  1  0  0  0
 13 14  2  0  0  0
 13 27  1  0  0  0
 14 15  1  0  0  0
 15 16  2  0  0  0
 15 28  1  0  0  0
 16 29  1  0  0  0
 17 18  1  0  0  0
 17 30  1  0  0  0
 18 19  1  0  0  0
 18 31  1  0  0  0
 18 32  1  0  0  0
 19 20  1  0  0  0
 19 33  1  0  0  0
 19 34  1  0  0  0
 20 35  1  0  0  0
 20 36  1  0  0  0
M  END
> <s_m_entry_id>
3409

> <s_m_entry_name>
dock_pv.138

> <s_m_Source_Path>
/home/csk/Desktop/cluster/DUD-E-result/kpcb

> <s_m_Source_File>
dock_pv.maegz

> <i_m_Source_File_Index>
138

> <chembl_id>
CHEMBL2147534

> <chembl_pref_name>
None

> <i_lp_mmshare_version>
53161

> <i_f3d_flags>
0

> <r_lp_tautomer_probability>
1

> <s_lp_Force_Field>
OPLS_2005

> <r_lp_Energy>
19.19937

> <b_lp_Chiralities_Consistent>
1

> <s_lp_Variant>
CHEMBL3045_lig312-1

> <s_i_glide_gridfile>
glide-grid_2i0e

> <i_i_glide_lignum>
474

> <i_i_glide_rotatable_bonds>
4

> <r_i_docking_score>
-7.82366044440666

> <r_i_glide_ligand_efficiency>
-0.391183022220333

> <r_i_glide_ligand_efficiency_sa>
-1.06183408576739

> <r_i_glide_ligand_efficiency_ln>
-1.95800416764358

> <r_i_glide_gscore>
-7.82366044440666

> <r_i_glide_lipo>
-2.95679638342114

> <r_i_glide_hbond>
-0.502756735768525

> <r_i_glide_metal>
0

> <r_i_glide_rewards>
-2.60483140980914

> <r_i_glide_evdw>
-34.7624664306641

> <r_i_glide_ecoul>
-5.22927093505859

> <r_i_glide_erotb>
0.763238046384128

> <r_i_glide_esite>
0

> <r_i_glide_emodel>
-58.6583351729803

> <r_i_glide_energy>
-39.9917373657227

> <r_i_glide_einternal>
0.590750873088837

> <i_i_glide_confnum>
1

> <i_i_glide_posenum>
119

> <r_i_glide_eff_state_penalty>
0

> <s_user_duplicate_titles>
CHEMBL3045_lig312

> <s_m_subgroup_title>
dock_pv

> <s_m_subgroupid>
dock_pv

> <b_m_subgroup_collapsed>
1

$$$$
CHEMBL3045_lig313
                    3D
 Schrodinger Suite 2021-1.
 34 36  0  0  1  0            999 V2000
   36.1221   56.6444   38.8370 N   0  0  0  0  0  0
   37.4385   56.9625   38.8046 C   0  0  0  0  0  0
   38.1839   57.0334   37.6278 C   0  0  0  0  0  0
   35.5070   56.3706   37.6636 C   0  0  0  0  0  0
   36.1495   56.3996   36.4081 C   0  0  0  0  0  0
   37.5348   56.7442   36.3886 C   0  0  0  0  0  0
   38.1430   56.7715   35.1019 C   0  0  0  0  0  0
   37.4456   56.4896   33.9724 N   0  0  0  0  0  0
   36.1272   56.1834   34.0972 C   0  0  0  0  0  0
   35.4497   56.1221   35.2746 N   0  0  0  0  0  0
   35.3543   55.9399   32.8296 C   0  0  0  0  0  0
   33.9940   55.5721   32.8491 C   0  0  0  0  0  0
   33.3013   55.4084   31.6474 C   0  0  0  0  0  0
   33.8836   55.5726   30.4374 N   0  0  0  0  0  0
   35.1976   55.8982   30.4078 C   0  0  0  0  0  0
   35.9547   56.0896   31.5638 C   0  0  0  0  0  0
   39.4913   57.1525   34.9665 N   0  0  0  0  0  0
   40.2331   56.9397   33.7229 C   0  0  0  0  0  0
   41.5784   57.6865   33.6752 C   0  0  0  0  0  0
   42.5262   57.1719   34.6496 N   0  0  0  0  0  0
   37.9018   57.1656   39.7598 H   0  0  0  0  0  0
   39.2318   57.2945   37.6570 H   0  0  0  0  0  0
   34.4533   56.1273   37.7162 H   0  0  0  0  0  0
   33.4675   55.4394   33.7849 H   0  0  0  0  0  0
   32.2523   55.1514   31.6392 H   0  0  0  0  0  0
   35.6436   55.9955   29.4286 H   0  0  0  0  0  0
   36.9975   56.3579   31.4662 H   0  0  0  0  0  0
   40.0358   57.0979   35.8127 H   0  0  0  0  0  0
   40.3801   55.8683   33.5704 H   0  0  0  0  0  0
   39.6236   57.2582   32.8764 H   0  0  0  0  0  0
   42.0190   57.5815   32.6819 H   0  0  0  0  0  0
   41.4201   58.7540   33.8436 H   0  0  0  0  0  0
   43.3312   57.7879   34.7037 H   0  0  0  0  0  0
   42.1216   57.1750   35.5748 H   0  0  0  0  0  0
  1  2  2  0  0  0
  1  4  1  0  0  0
  2  3  1  0  0  0
  2 21  1  0  0  0
  3  6  2  0  0  0
  3 22  1  0  0  0
  4  5  2  0  0  0
  4 23  1  0  0  0
  5 10  1  0  0  0
  5  6  1  0  0  0
  6  7  1  0  0  0
  7  8  2  0  0  0
  7 17  1  0  0  0
  8  9  1  0  0  0
  9 10  2  0  0  0
  9 11  1  0  0  0
 11 12  2  0  0  0
 11 16  1  0  0  0
 12 13  1  0  0  0
 12 24  1  0  0  0
 13 14  2  0  0  0
 13 25  1  0  0  0
 14 15  1  0  0  0
 15 16  2  0  0  0
 15 26  1  0  0  0
 16 27  1  0  0  0
 17 18  1  0  0  0
 17 28  1  0  0  0
 18 19  1  0  0  0
 18 29  1  0  0  0
 18 30  1  0  0  0
 19 20  1  0  0  0
 19 31  1  0  0  0
 19 32  1  0  0  0
 20 33  1  0  0  0
 20 34  1  0  0  0
M  END
> <s_m_entry_id>
3410

> <s_m_entry_name>
dock_pv.139

> <s_m_Source_Path>
/home/csk/Desktop/cluster/DUD-E-result/kpcb

> <s_m_Source_File>
dock_pv.maegz

> <i_m_Source_File_Index>
139

> <chembl_id>
CHEMBL2147535

> <chembl_pref_name>
None

> <i_lp_mmshare_version>
53161

> <i_f3d_flags>
0

> <r_lp_tautomer_probability>
1

> <s_lp_Force_Field>
OPLS_2005

> <r_lp_Energy>
11.275553

> <b_lp_Chiralities_Consistent>
1

> <s_lp_Variant>
CHEMBL3045_lig313-1

> <s_i_glide_gridfile>
glide-grid_2i0e

> <i_i_glide_lignum>
475

> <i_i_glide_rotatable_bonds>
4

> <r_i_docking_score>
-7.81865553424157

> <r_i_glide_ligand_efficiency>
-0.390932776712078

> <r_i_glide_ligand_efficiency_sa>
-1.06115481495198

> <r_i_glide_ligand_efficiency_ln>
-1.95675160370224

> <r_i_glide_gscore>
-7.81865553424157

> <r_i_glide_lipo>
-2.98506986704727

> <r_i_glide_hbond>
-0.512397987687024

> <r_i_glide_metal>
0

> <r_i_glide_rewards>
-2.7886446071717

> <r_i_glide_evdw>
-36.6144981384277

> <r_i_glide_ecoul>
-3.03537034988403

> <r_i_glide_erotb>
0.753487387068415

> <r_i_glide_esite>
0

> <r_i_glide_emodel>
-57.7201158903383

> <r_i_glide_energy>
-39.6498684883118

> <r_i_glide_einternal>
2.41585874557495

> <i_i_glide_confnum>
8

> <i_i_glide_posenum>
333

> <r_i_glide_eff_state_penalty>
0

> <s_user_duplicate_titles>
CHEMBL3045_lig313

> <s_m_subgroup_title>
dock_pv

> <s_m_subgroupid>
dock_pv

> <b_m_subgroup_collapsed>
1

$$$$
CHEMBL3045_lig224
                    3D
 Schrodinger Suite 2021-1.
 29 31  0  0  1  0            999 V2000
   38.0887   55.6185   32.8960 N   0  0  0  0  0  0
   36.8872   56.0373   33.3663 C   0  0  0  0  0  0
   35.9503   55.8967   32.2504 C   0  0  0  0  0  0
   36.7129   55.4471   31.2567 N   0  0  0  0  0  0
   37.9509   55.2813   31.6976 C   0  0  0  0  0  0
   36.5562   56.5058   34.6208 C   0  0  0  0  0  0
   35.1245   56.8503   35.0513 C   0  0  0  0  0  0
   34.6465   55.9792   36.2219 C   0  0  0  0  0  0
   35.1007   56.4020   37.5434 N   0  0  0  0  0  0
   36.3115   56.7488   38.0121 C   0  0  0  0  0  0
   37.4321   56.7220   37.0867 C   0  0  0  0  0  0
   37.5798   56.6493   35.6827 C   0  0  0  0  0  0
   38.9677   56.8285   35.4636 C   0  0  0  0  0  0
   39.6294   56.9488   36.6691 C   0  0  0  0  0  0
   38.6777   56.8976   37.6425 N   0  0  0  0  0  0
   38.9494   54.7825   30.8370 N   0  0  0  0  0  0
   34.7465   56.1194   32.1396 O   0  0  0  0  0  0
   36.4753   57.1055   39.1792 O   0  0  0  0  0  0
   41.4719   57.1718   37.0817 Br  0  0  0  0  0  0
   39.8499   54.5922   31.2504 H   0  0  0  0  0  0
   34.3768   56.7565   34.2776 H   0  0  0  0  0  0
   35.0870   57.9061   35.3221 H   0  0  0  0  0  0
   34.8809   54.9242   36.0641 H   0  0  0  0  0  0
   33.5559   56.0096   36.2636 H   0  0  0  0  0  0
   34.3699   56.5372   38.2316 H   0  0  0  0  0  0
   39.4668   56.8691   34.5076 H   0  0  0  0  0  0
   38.8530   56.9807   38.6348 H   0  0  0  0  0  0
   38.6999   54.0210   30.2172 H   0  0  0  0  0  0
   36.3771   55.2438   30.3293 H   0  0  0  0  0  0
  1  2  1  0  0  0
  1  5  2  0  0  0
  2  3  1  0  0  0
  2  6  2  0  0  0
  3 17  2  0  0  0
  3  4  1  0  0  0
  4  5  1  0  0  0
  4 29  1  0  0  0
  5 16  1  0  0  0
  6  7  1  0  0  0
  6 12  1  0  0  0
  7  8  1  0  0  0
  7 21  1  0  0  0
  7 22  1  0  0  0
  8  9  1  0  0  0
  8 23  1  0  0  0
  8 24  1  0  0  0
  9 10  1  0  0  0
  9 25  1  0  0  0
 10 11  1  0  0  0
 10 18  2  0  0  0
 11 12  2  0  0  0
 11 15  1  0  0  0
 12 13  1  0  0  0
 13 14  2  0  0  0
 13 26  1  0  0  0
 14 15  1  0  0  0
 14 19  1  0  0  0
 15 27  1  0  0  0
 16 28  1  0  0  0
 16 20  1  0  0  0
M  END
> <s_m_entry_id>
3411

> <s_m_entry_name>
dock_pv.140

> <s_m_Source_Path>
/home/csk/Desktop/cluster/DUD-E-result/kpcb

> <s_m_Source_File>
dock_pv.maegz

> <i_m_Source_File_Index>
140

> <chembl_id>
CHEMBL361708

> <chembl_pref_name>
HYMENIALDISINE

> <i_lp_mmshare_version>
53161

> <i_f3d_flags>
0

> <r_lp_tautomer_probability>
0.0148016165310655

> <s_lp_Force_Field>
OPLS_2005

> <r_lp_Energy>
30.405567

> <b_lp_Chiralities_Consistent>
1

> <s_lp_Variant>
CHEMBL3045_lig224-2

> <s_i_glide_gridfile>
glide-grid_2i0e

> <i_i_glide_lignum>
382

> <i_i_glide_rotatable_bonds>
0

> <r_i_docking_score>
-7.81734916460837

> <r_i_glide_ligand_efficiency>
-0.41143942971623

> <r_i_glide_ligand_efficiency_sa>
-1.09788565152645

> <r_i_glide_ligand_efficiency_ln>
-1.98186591449321

> <r_i_glide_gscore>
-7.81734916460837

> <r_i_glide_lipo>
-1.54651242313272

> <r_i_glide_hbond>
-0.657199298059504

> <r_i_glide_metal>
0

> <r_i_glide_rewards>
-2.74941413583237

> <r_i_glide_evdw>
-35.1853981018066

> <r_i_glide_ecoul>
-7.03977537155151

> <r_i_glide_erotb>
0

> <r_i_glide_esite>
-0.048987096760709

> <r_i_glide_emodel>
-62.2027118852011

> <r_i_glide_energy>
-42.2251734733582

> <r_i_glide_einternal>
0

> <i_i_glide_confnum>
2

> <i_i_glide_posenum>
309

> <r_i_glide_eff_state_penalty>
0

> <s_user_duplicate_titles>
CHEMBL3045_lig224,CHEMBL3045_lig224

> <s_m_subgroup_title>
dock_pv

> <s_m_subgroupid>
dock_pv

> <b_m_subgroup_collapsed>
1

$$$$
CHEMBL3045_lig288
                    3D
 Schrodinger Suite 2021-1.
 64 69  0  0  1  0            999 V2000
   40.6505   57.1722   37.8561 C   0  0  0  0  0  0
   39.8353   56.9109   38.9664 C   0  0  0  0  0  0
   38.4932   56.5395   38.7873 C   0  0  0  0  0  0
   40.1660   57.0837   36.5503 C   0  0  0  0  0  0
   38.1494   56.6359   35.2200 O   0  0  0  0  0  0
   38.8219   56.7333   36.3998 C   0  0  0  0  0  0
   37.9743   56.4476   37.4861 C   0  0  0  0  0  0
   36.7153   56.1311   36.8913 C   0  0  0  0  0  0
   36.8816   56.2200   35.5064 C   0  0  0  0  0  0
   35.9431   55.9923   34.3487 C   0  0  0  0  0  0
   34.6093   55.7557   34.7050 C   0  0  0  0  0  0
   33.6123   55.5718   33.8126 N   0  0  0  0  0  0
   33.9142   55.6554   32.4989 C   0  0  0  0  0  0
   35.2055   55.8899   32.0258 C   0  0  0  0  0  0
   36.2594   56.0243   32.9598 C   0  0  0  0  0  0
   35.3794   55.9371   30.5775 C   0  0  0  0  0  0
   35.5008   55.9724   29.4293 N   0  0  0  0  0  0
   37.5906   56.1668   32.5099 N   0  0  0  0  0  0
   38.6570   55.2875   32.7707 C   0  0  0  0  0  0
   38.3632   53.9379   32.9652 C   0  0  0  0  0  0
   39.3296   52.9982   33.2875 C   0  0  0  0  0  0
   39.9861   55.7493   32.8565 C   0  0  0  0  0  0
   40.3165   57.2219   32.6516 C   0  0  0  0  0  0
   42.4136   54.9036   33.3880 C   0  0  0  0  0  0
   40.9923   54.8161   33.1865 C   0  0  0  0  0  0
   40.6408   53.4507   33.4001 C   0  0  0  0  0  0
   41.7994   52.7728   33.7077 N   0  0  0  0  0  0
   42.8637   53.6397   33.7060 C   0  0  0  0  0  0
   40.3675   57.1467   40.3823 C   0  0  0  0  0  0
   41.2952   56.1397   40.9178 N   0  0  0  0  0  0
   41.6183   56.5425   42.2997 C   0  0  0  0  0  0
   42.6000   55.5515   42.9725 C   0  0  0  0  0  0
   43.8474   55.4952   42.1995 N   0  0  0  0  0  0
   43.5364   55.0472   40.8356 C   0  0  0  0  0  0
   42.5588   56.0481   40.1641 C   0  0  0  0  0  0
   44.8262   54.6128   42.8259 C   0  0  0  0  0  0
   41.6764   57.4723   38.0062 H   0  0  0  0  0  0
   37.8592   56.3427   39.6365 H   0  0  0  0  0  0
   40.7917   57.2849   35.6937 H   0  0  0  0  0  0
   35.8061   55.8593   37.4029 H   0  0  0  0  0  0
   34.2924   55.7143   35.7368 H   0  0  0  0  0  0
   33.0770   55.5333   31.8214 H   0  0  0  0  0  0
   37.7314   56.7561   31.7020 H   0  0  0  0  0  0
   37.3486   53.5920   32.8393 H   0  0  0  0  0  0
   39.0626   51.9717   33.4463 H   0  0  0  0  0  0
   39.8990   57.5712   31.7121 H   0  0  0  0  0  0
   39.9000   57.8284   33.4570 H   0  0  0  0  0  0
   41.3927   57.3959   32.6081 H   0  0  0  0  0  0
   43.0362   55.7824   33.3112 H   0  0  0  0  0  0
   41.9017   51.7809   33.9100 H   0  0  0  0  0  0
   43.8538   53.2645   33.9290 H   0  0  0  0  0  0
   40.8157   58.1418   40.4339 H   0  0  0  0  0  0
   39.5016   57.1721   41.0450 H   0  0  0  0  0  0
   42.0429   57.5501   42.3257 H   0  0  0  0  0  0
   40.7014   56.5792   42.8871 H   0  0  0  0  0  0
   42.1291   54.5739   43.0535 H   0  0  0  0  0  0
   42.8111   55.8842   43.9895 H   0  0  0  0  0  0
   43.1067   54.0434   40.8385 H   0  0  0  0  0  0
   44.4554   54.9907   40.2496 H   0  0  0  0  0  0
   42.3490   55.6891   39.1560 H   0  0  0  0  0  0
   43.0285   57.0279   40.0646 H   0  0  0  0  0  0
   44.4897   53.5764   42.8683 H   0  0  0  0  0  0
   45.7657   54.6326   42.2712 H   0  0  0  0  0  0
   45.0472   54.9399   43.8431 H   0  0  0  0  0  0
  1  4  1  0  0  0
  1  2  2  0  0  0
  1 37  1  0  0  0
  2  3  1  0  0  0
  2 29  1  0  0  0
  3  7  2  0  0  0
  3 38  1  0  0  0
  4  6  2  0  0  0
  4 39  1  0  0  0
  5  9  1  0  0  0
  5  6  1  0  0  0
  6  7  1  0  0  0
  7  8  1  0  0  0
  8  9  2  0  0  0
  8 40  1  0  0  0
  9 10  1  0  0  0
 10 11  1  0  0  0
 10 15  2  0  0  0
 11 12  2  0  0  0
 11 41  1  0  0  0
 12 13  1  0  0  0
 13 14  2  0  0  0
 13 42  1  0  0  0
 14 16  1  0  0  0
 14 15  1  0  0  0
 15 18  1  0  0  0
 16 17  3  0  0  0
 18 19  1  0  0  0
 18 43  1  0  0  0
 19 20  2  0  0  0
 19 22  1  0  0  0
 20 21  1  0  0  0
 20 44  1  0  0  0
 21 26  2  0  0  0
 21 45  1  0  0  0
 22 25  2  0  0  0
 22 23  1  0  0  0
 23 46  1  0  0  0
 23 47  1  0  0  0
 23 48  1  0  0  0
 24 25  1  0  0  0
 24 28  2  0  0  0
 24 49  1  0  0  0
 25 26  1  0  0  0
 26 27  1  0  0  0
 27 28  1  0  0  0
 27 50  1  0  0  0
 28 51  1  0  0  0
 29 30  1  0  0  0
 29 52  1  0  0  0
 29 53  1  0  0  0
 30 31  1  0  0  0
 30 35  1  0  0  0
 31 32  1  0  0  0
 31 54  1  0  0  0
 31 55  1  0  0  0
 32 33  1  0  0  0
 32 56  1  0  0  0
 32 57  1  0  0  0
 33 34  1  0  0  0
 33 36  1  0  0  0
 34 35  1  0  0  0
 34 58  1  0  0  0
 34 59  1  0  0  0
 35 60  1  0  0  0
 35 61  1  0  0  0
 36 62  1  0  0  0
 36 63  1  0  0  0
 36 64  1  0  0  0
M  END
> <s_m_entry_id>
3413

> <s_m_entry_name>
dock_pv.142

> <s_m_Source_Path>
/home/csk/Desktop/cluster/DUD-E-result/kpcb

> <s_m_Source_File>
dock_pv.maegz

> <i_m_Source_File_Index>
142

> <chembl_id>
CHEMBL571581

> <chembl_pref_name>
None

> <i_lp_mmshare_version>
53161

> <i_f3d_flags>
0

> <r_lp_tautomer_probability>
1

> <s_lp_Force_Field>
OPLS_2005

> <r_lp_Energy>
49.869595

> <b_lp_Chiralities_Consistent>
1

> <s_lp_Variant>
CHEMBL3045_lig288-1

> <s_i_glide_gridfile>
glide-grid_2i0e

> <i_i_glide_lignum>
448

> <i_i_glide_rotatable_bonds>
5

> <r_i_docking_score>
-7.80966752065626

> <r_i_glide_ligand_efficiency>
-0.216935208907118

> <r_i_glide_ligand_efficiency_sa>
-0.716304276679432

> <r_i_glide_ligand_efficiency_ln>
-1.70385846017401

> <r_i_glide_gscore>
-7.80966752065626

> <r_i_glide_lipo>
-3.12272666204598

> <r_i_glide_hbond>
-0.32

> <r_i_glide_metal>
0

> <r_i_glide_rewards>
-1.56499063306341

> <r_i_glide_evdw>
-48.4768409729004

> <r_i_glide_ecoul>
-4.93123912811279

> <r_i_glide_erotb>
0.445813947891664

> <r_i_glide_esite>
-0.0842362555765858

> <r_i_glide_emodel>
-74.9665563014393

> <r_i_glide_energy>
-53.4080801010132

> <r_i_glide_einternal>
6.39509439468384

> <i_i_glide_confnum>
106

> <i_i_glide_posenum>
308

> <r_i_glide_eff_state_penalty>
0

> <s_user_duplicate_titles>
CHEMBL3045_lig288,578805

> <s_m_subgroup_title>
dock_pv

> <s_m_subgroupid>
dock_pv

> <b_m_subgroup_collapsed>
1

$$$$
CHEMBL3045_lig596
                    3D
 Schrodinger Suite 2021-1.
 63 67  0  0  1  0            999 V2000
   40.9976   54.2521   34.9976 C   0  0  0  0  0  0
   40.9762   54.9997   33.6426 C   0  0  2  0  0  0
   39.7332   55.9230   33.4914 C   0  0  0  0  0  0
   38.5333   55.0722   33.2674 N   0  0  0  0  0  0
   38.6433   54.2258   32.0551 C   0  0  1  0  0  0
   38.6031   55.0215   30.7331 C   0  0  0  0  0  0
   39.9173   53.3618   32.1968 C   0  0  0  0  0  0
   41.1036   54.1925   32.4194 N   0  0  2  0  0  0
   42.3072   53.3703   32.3760 C   0  0  0  0  0  0
   37.2816   55.3657   33.7385 C   0  0  0  0  0  0
   36.2955   55.1957   33.0155 O   0  0  0  0  0  0
   37.1174   55.7723   35.0367 N   0  0  0  0  0  0
   38.1526   55.6711   36.0937 C   0  0  0  0  0  0
   37.4874   56.1970   37.3105 C   0  0  0  0  0  0
   37.7030   56.5506   38.6463 C   0  0  0  0  0  0
   38.8581   56.4913   39.3974 N   0  0  0  0  0  0
   40.1051   56.7699   38.9566 C   0  0  0  0  0  0
   40.3743   57.1706   37.8214 O   0  0  0  0  0  0
   41.1421   56.5951   39.9571 C   0  0  0  0  0  0
   41.1007   55.7484   41.0793 C   0  0  0  0  0  0
   42.2934   55.9236   41.7367 C   0  0  0  0  0  0
   43.0492   56.7816   41.0070 O   0  0  0  0  0  0
   42.3256   57.1723   39.8794 N   0  0  0  0  0  0
   42.8803   55.3680   43.0196 C   0  0  0  0  0  0
   44.3250   54.9243   43.0766 C   0  0  0  0  0  0
   43.8811   56.1715   43.8195 C   0  0  0  0  0  0
   36.5568   56.8652   39.2129 N   0  0  0  0  0  0
   35.6294   56.7730   38.2440 N   0  0  0  0  0  0
   36.1836   56.4311   37.0452 C   0  0  0  0  0  0
   35.7874   56.1411   35.6258 C   0  0  0  0  0  0
   34.7671   54.9811   35.6304 C   0  0  0  0  0  0
   35.1757   57.3956   34.9550 C   0  0  0  0  0  0
   40.9755   54.9499   35.8339 H   0  0  0  0  0  0
   40.1506   53.5759   35.1070 H   0  0  0  0  0  0
   41.8987   53.6525   35.1204 H   0  0  0  0  0  0
   41.8483   55.6567   33.6434 H   0  0  0  0  0  0
   39.8740   56.4929   32.5732 H   0  0  0  0  0  0
   39.6477   56.7040   34.2362 H   0  0  0  0  0  0
   37.8058   53.5302   32.0374 H   0  0  0  0  0  0
   38.8505   54.3722   29.9024 H   0  0  0  0  0  0
   37.6155   55.4416   30.5377 H   0  0  0  0  0  0
   39.3398   55.8243   30.7102 H   0  0  0  0  0  0
   40.0340   52.7296   31.3145 H   0  0  0  0  0  0
   39.8022   52.6788   33.0371 H   0  0  0  0  0  0
   42.4132   52.9064   31.3953 H   0  0  0  0  0  0
   43.2038   53.9645   32.5567 H   0  0  0  0  0  0
   42.2826   52.5627   33.1067 H   0  0  0  0  0  0
   39.0261   56.2856   35.9273 H   0  0  0  0  0  0
   38.4748   54.6362   36.2188 H   0  0  0  0  0  0
   38.7203   56.3709   40.3929 H   0  0  0  0  0  0
   40.3003   55.0975   41.3904 H   0  0  0  0  0  0
   42.1710   54.7723   43.5970 H   0  0  0  0  0  0
   44.9423   55.0286   42.1823 H   0  0  0  0  0  0
   44.5717   54.0265   43.6405 H   0  0  0  0  0  0
   43.8106   56.1527   44.9081 H   0  0  0  0  0  0
   44.1875   57.1511   43.4471 H   0  0  0  0  0  0
   34.6410   56.9447   38.4045 H   0  0  0  0  0  0
   33.9012   55.2287   36.2442 H   0  0  0  0  0  0
   34.3899   54.7720   34.6323 H   0  0  0  0  0  0
   35.1968   54.0645   36.0348 H   0  0  0  0  0  0
   34.3264   57.7763   35.5226 H   0  0  0  0  0  0
   35.9016   58.2006   34.8405 H   0  0  0  0  0  0
   34.8030   57.1705   33.9568 H   0  0  0  0  0  0
  1  2  1  0  0  0
  1 33  1  0  0  0
  1 34  1  0  0  0
  1 35  1  0  0  0
  2  3  1  0  0  0
  2  8  1  0  0  0
  2 36  1  0  0  0
  3  4  1  0  0  0
  3 37  1  0  0  0
  3 38  1  0  0  0
  4  5  1  0  0  0
  4 10  1  0  0  0
  5  6  1  0  0  0
  5  7  1  0  0  0
  5 39  1  0  0  0
  6 40  1  0  0  0
  6 41  1  0  0  0
  6 42  1  0  0  0
  7  8  1  0  0  0
  7 43  1  0  0  0
  7 44  1  0  0  0
  8  9  1  0  0  0
  9 45  1  0  0  0
  9 46  1  0  0  0
  9 47  1  0  0  0
 10 11  2  0  0  0
 10 12  1  0  0  0
 12 13  1  0  0  0
 12 30  1  0  0  0
 13 14  1  0  0  0
 13 48  1  0  0  0
 13 49  1  0  0  0
 14 15  1  0  0  0
 14 29  2  0  0  0
 15 16  1  0  0  0
 15 27  2  0  0  0
 16 17  1  0  0  0
 16 50  1  0  0  0
 17 18  2  0  0  0
 17 19  1  0  0  0
 19 20  1  0  0  0
 19 23  2  0  0  0
 20 21  2  0  0  0
 20 51  1  0  0  0
 21 22  1  0  0  0
 21 24  1  0  0  0
 22 23  1  0  0  0
 24 25  1  0  0  0
 24 26  1  0  0  0
 24 52  1  0  0  0
 25 26  1  0  0  0
 25 53  1  0  0  0
 25 54  1  0  0  0
 26 55  1  0  0  0
 26 56  1  0  0  0
 27 28  1  0  0  0
 28 29  1  0  0  0
 28 57  1  0  0  0
 29 30  1  0  0  0
 30 31  1  0  0  0
 30 32  1  0  0  0
 31 58  1  0  0  0
 31 59  1  0  0  0
 31 60  1  0  0  0
 32 61  1  0  0  0
 32 62  1  0  0  0
 32 63  1  0  0  0
M  END
> <s_m_entry_id>
3414

> <s_m_entry_name>
dock_pv.143

> <s_m_Source_Path>
/home/csk/Desktop/cluster/DUD-E-result/kpcb

> <s_m_Source_File>
dock_pv.maegz

> <i_m_Source_File_Index>
143

> <chembl_id>
CHEMBL3662845

> <chembl_pref_name>
None

> <i_lp_mmshare_version>
53161

> <i_f3d_flags>
0

> <r_lp_tautomer_probability>
0.5

> <s_lp_Force_Field>
OPLS_2005

> <r_lp_Energy>
97.190735

> <b_lp_Chiralities_Consistent>
1

> <s_lp_Variant>
CHEMBL3045_lig596-1

> <s_i_glide_gridfile>
glide-grid_2i0e

> <i_i_glide_lignum>
958

> <i_i_glide_rotatable_bonds>
6

> <r_i_docking_score>
-7.80754048714388

> <r_i_glide_ligand_efficiency>
-0.243985640223246

> <r_i_glide_ligand_efficiency_sa>
-0.774606123016172

> <r_i_glide_ligand_efficiency_ln>
-1.74832114058717

> <r_i_glide_gscore>
-7.80754048714388

> <r_i_glide_lipo>
-2.25149593250164

> <r_i_glide_hbond>
-0.864

> <r_i_glide_metal>
0

> <r_i_glide_rewards>
-1.95397924575566

> <r_i_glide_evdw>
-39.7332382202148

> <r_i_glide_ecoul>
-7.7563910484314

> <r_i_glide_erotb>
0.430366676311352

> <r_i_glide_esite>
-0.0183114169224841

> <r_i_glide_emodel>
-64.9521198417341

> <r_i_glide_energy>
-47.4896292686462

> <r_i_glide_einternal>
9.8844690322876

> <i_i_glide_confnum>
31

> <i_i_glide_posenum>
254

> <r_i_glide_eff_state_penalty>
0

> <s_user_duplicate_titles>
CHEMBL3045_lig596

> <s_m_subgroup_title>
dock_pv

> <s_m_subgroupid>
dock_pv

> <b_m_subgroup_collapsed>
1

$$$$
CHEMBL3045_lig703
                    3D
 Schrodinger Suite 2021-1.
 79 83  0  0  1  0            999 V2000
   41.0999   52.8369   36.1845 C   0  0  0  0  0  0
   40.6385   53.9211   35.1872 C   0  0  2  0  0  0
   39.2585   53.4849   34.6077 C   0  0  0  0  0  0
   38.7714   54.5371   33.6910 N   0  0  0  0  0  0
   39.6721   54.7646   32.5438 C   0  0  1  0  0  0
   39.2688   55.8032   31.4805 C   0  0  0  0  0  0
   41.0352   55.1723   33.1578 C   0  0  0  0  0  0
   41.5838   54.1656   34.0782 N   0  0  1  0  0  0
   42.9106   54.6071   34.5490 C   0  0  0  0  0  0
   44.0984   54.0569   33.7166 C   0  0  0  0  0  0
   44.1841   54.5424   32.2462 C   0  0  0  0  0  0
   45.5084   54.1686   31.5486 C   0  0  0  0  0  0
   46.6223   54.5432   32.3530 O   0  0  0  0  0  0
   46.6571   53.8558   33.6003 C   0  0  0  0  0  0
   45.4435   54.2856   34.4443 C   0  0  0  0  0  0
   37.4724   54.9544   33.7416 C   0  0  0  0  0  0
   36.7418   54.9469   32.7479 O   0  0  0  0  0  0
   37.0402   55.4752   34.9331 N   0  0  0  0  0  0
   37.9903   55.8819   35.9914 C   0  0  0  0  0  0
   37.1214   56.3738   37.0783 C   0  0  0  0  0  0
   37.1304   56.7419   38.4196 C   0  0  0  0  0  0
   38.1868   56.7717   39.3020 N   0  0  0  0  0  0
   39.4810   56.9924   39.0061 C   0  0  0  0  0  0
   39.9134   57.2759   37.8907 O   0  0  0  0  0  0
   40.4496   56.8780   40.1890 C   0  0  0  0  0  0
   41.3226   55.6401   40.1004 C   0  0  0  0  0  0
   41.1482   54.4267   40.7454 C   0  0  0  0  0  0
   40.0948   53.8643   41.6652 C   0  0  0  0  0  0
   42.1710   53.5962   40.4364 O   0  0  0  0  0  0
   43.0194   54.2619   39.5593 N   0  0  0  0  0  0
   42.4971   55.4489   39.3609 C   0  0  0  0  0  0
   43.1908   56.4069   38.4182 C   0  0  0  0  0  0
   35.9010   56.9208   38.8366 N   0  0  0  0  0  0
   35.1125   56.7556   37.7590 N   0  0  0  0  0  0
   35.8398   56.4220   36.6535 C   0  0  0  0  0  0
   35.6792   56.0469   35.2027 C   0  0  0  0  0  0
   34.5136   55.0441   35.0650 C   0  0  0  0  0  0
   35.4102   57.3113   34.3605 C   0  0  0  0  0  0
   40.2923   52.5025   36.8360 H   0  0  0  0  0  0
   41.4786   51.9736   35.6434 H   0  0  0  0  0  0
   41.8899   53.1802   36.8504 H   0  0  0  0  0  0
   40.5347   54.8526   35.7423 H   0  0  0  0  0  0
   38.5352   53.2372   35.3848 H   0  0  0  0  0  0
   39.3942   52.5633   34.0426 H   0  0  0  0  0  0
   39.7822   53.8218   32.0068 H   0  0  0  0  0  0
   40.1237   55.9739   30.8363 H   0  0  0  0  0  0
   38.4597   55.4428   30.8436 H   0  0  0  0  0  0
   38.9990   56.7653   31.9139 H   0  0  0  0  0  0
   40.9249   56.1209   33.6851 H   0  0  0  0  0  0
   41.7372   55.3505   32.3506 H   0  0  0  0  0  0
   42.9639   55.6950   34.6057 H   0  0  0  0  0  0
   43.0921   54.2831   35.5702 H   0  0  0  0  0  0
   44.0043   52.9703   33.6590 H   0  0  0  0  0  0
   43.3385   54.1790   31.6628 H   0  0  0  0  0  0
   44.1201   55.6311   32.2390 H   0  0  0  0  0  0
   45.5455   53.1048   31.3256 H   0  0  0  0  0  0
   45.5820   54.6830   30.5885 H   0  0  0  0  0  0
   46.6707   52.7741   33.4519 H   0  0  0  0  0  0
   47.5845   54.1115   34.1154 H   0  0  0  0  0  0
   45.5494   55.3474   34.6669 H   0  0  0  0  0  0
   45.4460   53.7831   35.4123 H   0  0  0  0  0  0
   38.6834   56.6396   35.6213 H   0  0  0  0  0  0
   38.5641   55.0517   36.3845 H   0  0  0  0  0  0
   37.9512   56.6551   40.2795 H   0  0  0  0  0  0
   39.8993   56.8771   41.1278 H   0  0  0  0  0  0
   41.0520   57.7871   40.2262 H   0  0  0  0  0  0
   40.0909   54.3686   42.6298 H   0  0  0  0  0  0
   40.2288   52.7981   41.8386 H   0  0  0  0  0  0
   39.1002   53.9717   41.2355 H   0  0  0  0  0  0
   43.0420   56.1127   37.3761 H   0  0  0  0  0  0
   42.8138   57.4270   38.5144 H   0  0  0  0  0  0
   44.2698   56.4451   38.5895 H   0  0  0  0  0  0
   34.1013   56.8446   37.8129 H   0  0  0  0  0  0
   33.5828   55.4737   35.4414 H   0  0  0  0  0  0
   34.3217   54.7727   34.0250 H   0  0  0  0  0  0
   34.6998   54.1390   35.6390 H   0  0  0  0  0  0
   34.5390   57.8575   34.7248 H   0  0  0  0  0  0
   36.2617   57.9860   34.3875 H   0  0  0  0  0  0
   35.2254   57.0631   33.3136 H   0  0  0  0  0  0
  1  2  1  0  0  0
  1 39  1  0  0  0
  1 40  1  0  0  0
  1 41  1  0  0  0
  2  3  1  0  0  0
  2  8  1  0  0  0
  2 42  1  0  0  0
  3  4  1  0  0  0
  3 43  1  0  0  0
  3 44  1  0  0  0
  4  5  1  0  0  0
  4 16  1  0  0  0
  5  6  1  0  0  0
  5  7  1  0  0  0
  5 45  1  0  0  0
  6 46  1  0  0  0
  6 47  1  0  0  0
  6 48  1  0  0  0
  7  8  1  0  0  0
  7 49  1  0  0  0
  7 50  1  0  0  0
  8  9  1  0  0  0
  9 10  1  0  0  0
  9 51  1  0  0  0
  9 52  1  0  0  0
 10 11  1  0  0  0
 10 15  1  0  0  0
 10 53  1  0  0  0
 11 12  1  0  0  0
 11 54  1  0  0  0
 11 55  1  0  0  0
 12 13  1  0  0  0
 12 56  1  0  0  0
 12 57  1  0  0  0
 13 14  1  0  0  0
 14 15  1  0  0  0
 14 58  1  0  0  0
 14 59  1  0  0  0
 15 60  1  0  0  0
 15 61  1  0  0  0
 16 17  2  0  0  0
 16 18  1  0  0  0
 18 19  1  0  0  0
 18 36  1  0  0  0
 19 20  1  0  0  0
 19 62  1  0  0  0
 19 63  1  0  0  0
 20 21  1  0  0  0
 20 35  2  0  0  0
 21 22  1  0  0  0
 21 33  2  0  0  0
 22 23  1  0  0  0
 22 64  1  0  0  0
 23 24  2  0  0  0
 23 25  1  0  0  0
 25 26  1  0  0  0
 25 65  1  0  0  0
 25 66  1  0  0  0
 26 27  2  0  0  0
 26 31  1  0  0  0
 27 28  1  0  0  0
 27 29  1  0  0  0
 28 67  1  0  0  0
 28 68  1  0  0  0
 28 69  1  0  0  0
 29 30  1  0  0  0
 30 31  2  0  0  0
 31 32  1  0  0  0
 32 70  1  0  0  0
 32 71  1  0  0  0
 32 72  1  0  0  0
 33 34  1  0  0  0
 34 35  1  0  0  0
 34 73  1  0  0  0
 35 36  1  0  0  0
 36 37  1  0  0  0
 36 38  1  0  0  0
 37 74  1  0  0  0
 37 75  1  0  0  0
 37 76  1  0  0  0
 38 77  1  0  0  0
 38 78  1  0  0  0
 38 79  1  0  0  0
M  END
> <s_m_entry_id>
3415

> <s_m_entry_name>
dock_pv.144

> <s_m_Source_Path>
/home/csk/Desktop/cluster/DUD-E-result/kpcb

> <s_m_Source_File>
dock_pv.maegz

> <i_m_Source_File_Index>
144

> <chembl_id>
CHEMBL3667490

> <chembl_pref_name>
None

> <i_lp_mmshare_version>
53161

> <i_f3d_flags>
0

> <r_lp_tautomer_probability>
0.5

> <s_lp_Force_Field>
OPLS_2005

> <r_lp_Energy>
95.364931

> <b_lp_Chiralities_Consistent>
1

> <s_lp_Variant>
CHEMBL3045_lig703-1

> <s_i_glide_gridfile>
glide-grid_2i0e

> <i_i_glide_lignum>
1180

> <i_i_glide_rotatable_bonds>
8

> <r_i_docking_score>
-7.79931807689179

> <r_i_glide_ligand_efficiency>
-0.205245212549784

> <r_i_glide_ligand_efficiency_sa>
-0.690029356118919

> <r_i_glide_ligand_efficiency_ln>
-1.68176241007066

> <r_i_glide_gscore>
-7.79931807689179

> <r_i_glide_lipo>
-2.35451247735235

> <r_i_glide_hbond>
-0.812464871502889

> <r_i_glide_metal>
0

> <r_i_glide_rewards>
-1.51150826162826

> <r_i_glide_evdw>
-47.039234161377

> <r_i_glide_ecoul>
-7.4417519569397

> <r_i_glide_erotb>
0.414263902113878

> <r_i_glide_esite>
-0.0668718669123648

> <r_i_glide_emodel>
-73.5662094861712

> <r_i_glide_energy>
-54.4809861183167

> <r_i_glide_einternal>
9.00140953063965

> <i_i_glide_confnum>
38

> <i_i_glide_posenum>
151

> <r_i_glide_eff_state_penalty>
0

> <s_user_duplicate_titles>
CHEMBL3045_lig703

> <s_m_subgroup_title>
dock_pv

> <s_m_subgroupid>
dock_pv

> <b_m_subgroup_collapsed>
1

$$$$
CHEMBL3045_lig251
                    3D
 Schrodinger Suite 2021-1.
 63 69  0  0  1  0            999 V2000
   36.0323   55.9709   35.4420 C   0  0  0  0  0  0
   36.7813   56.3434   36.4952 C   0  0  0  0  0  0
   36.4391   55.7580   34.0462 C   0  0  0  0  0  0
   38.2189   56.6488   36.4881 C   0  0  0  0  0  0
   34.6710   55.8565   35.8722 C   0  0  0  0  0  0
   35.9175   56.4464   37.6414 C   0  0  0  0  0  0
   40.2174   57.2288   35.5568 N   0  0  0  0  0  0
   34.7008   56.1338   37.1809 N   0  0  0  0  0  0
   37.5226   55.0225   33.6000 N   0  0  0  0  0  0
   38.8625   57.1723   35.3883 C   0  0  0  0  0  0
   43.4751   55.0125   35.3130 C   0  0  0  0  0  0
   43.0840   56.2941   35.4673 N   0  0  0  0  0  0
   39.2462   56.5138   37.4911 C   0  0  0  0  0  0
   40.4943   56.8365   36.8596 C   0  0  0  0  0  0
   36.5729   56.0400   31.7889 N   0  0  0  0  0  0
   35.8819   56.2898   32.8799 C   0  0  0  0  0  0
   37.6071   55.2712   32.2145 C   0  0  0  0  0  0
   41.7300   56.7277   37.5165 C   0  0  0  0  0  0
   44.8173   54.8010   35.1852 N   0  0  0  0  0  0
   43.0526   56.9059   36.8001 C   0  0  0  0  0  0
   41.1550   57.7500   34.5574 C   0  0  0  0  0  0
   38.4361   54.2264   34.2488 C   0  0  0  0  0  0
   33.6752   55.5746   35.2095 O   0  0  0  0  0  0
   36.1752   56.7720   38.8001 O   0  0  0  0  0  0
   42.4708   56.9727   34.3176 C   0  0  0  0  0  0
   42.6343   54.1149   35.2291 O   0  0  0  0  0  0
   38.6923   54.7353   31.4985 C   0  0  0  0  0  0
   39.4936   53.6728   33.5310 C   0  0  0  0  0  0
   39.6188   53.9313   32.1683 C   0  0  0  0  0  0
   39.2686   56.1264   38.8399 C   0  0  0  0  0  0
   41.6775   56.3458   38.8595 C   0  0  0  0  0  0
   45.2981   53.5727   34.5307 C   0  0  0  0  0  0
   45.8470   55.8628   35.2571 C   0  0  0  0  0  0
   40.4835   56.0627   39.5128 C   0  0  0  0  0  0
   46.1584   56.3095   33.8100 C   0  0  0  0  0  0
   45.5865   53.9436   33.0540 C   0  0  0  0  0  0
   46.5772   55.1193   32.9237 C   0  0  0  0  0  0
   33.8737   56.1537   37.7607 H   0  0  0  0  0  0
   38.4518   57.4703   34.4367 H   0  0  0  0  0  0
   34.9996   56.9140   32.8430 H   0  0  0  0  0  0
   43.2323   57.9727   36.6783 H   0  0  0  0  0  0
   43.8899   56.5602   37.4089 H   0  0  0  0  0  0
   41.3893   58.7721   34.8369 H   0  0  0  0  0  0
   40.6277   57.8231   33.6047 H   0  0  0  0  0  0
   38.3007   54.0833   35.3111 H   0  0  0  0  0  0
   43.1866   57.7467   34.0382 H   0  0  0  0  0  0
   42.3720   56.3104   33.4542 H   0  0  0  0  0  0
   38.7894   54.9075   30.4373 H   0  0  0  0  0  0
   40.2284   53.0519   34.0287 H   0  0  0  0  0  0
   40.4426   53.4921   31.6214 H   0  0  0  0  0  0
   38.3619   55.8594   39.3576 H   0  0  0  0  0  0
   42.6000   56.2360   39.4118 H   0  0  0  0  0  0
   46.2157   53.2693   35.0355 H   0  0  0  0  0  0
   44.6289   52.7208   34.6671 H   0  0  0  0  0  0
   45.5955   56.6681   35.9465 H   0  0  0  0  0  0
   46.7311   55.4080   35.7062 H   0  0  0  0  0  0
   40.5002   55.7583   40.5499 H   0  0  0  0  0  0
   45.2905   56.8101   33.3799 H   0  0  0  0  0  0
   46.9523   57.0565   33.8228 H   0  0  0  0  0  0
   45.9827   53.0676   32.5382 H   0  0  0  0  0  0
   44.6489   54.1749   32.5454 H   0  0  0  0  0  0
   47.5713   54.7810   33.2211 H   0  0  0  0  0  0
   46.6593   55.4308   31.8815 H   0  0  0  0  0  0
  1  2  2  0  0  0
  1  3  1  0  0  0
  1  5  1  0  0  0
  2  4  1  0  0  0
  2  6  1  0  0  0
  3  9  1  0  0  0
  3 16  2  0  0  0
  4 10  2  0  0  0
  4 13  1  0  0  0
  5  8  1  0  0  0
  5 23  2  0  0  0
  6 24  2  0  0  0
  6  8  1  0  0  0
  7 10  1  0  0  0
  7 21  1  0  0  0
  7 14  1  0  0  0
  8 38  1  0  0  0
  9 17  1  0  0  0
  9 22  1  0  0  0
 10 39  1  0  0  0
 11 12  1  0  0  0
 11 19  1  0  0  0
 11 26  2  0  0  0
 12 20  1  0  0  0
 12 25  1  0  0  0
 13 14  1  0  0  0
 13 30  2  0  0  0
 14 18  2  0  0  0
 15 16  1  0  0  0
 15 17  2  0  0  0
 16 40  1  0  0  0
 17 27  1  0  0  0
 18 20  1  0  0  0
 18 31  1  0  0  0
 19 32  1  0  0  0
 19 33  1  0  0  0
 20 41  1  0  0  0
 20 42  1  0  0  0
 21 25  1  0  0  0
 21 43  1  0  0  0
 21 44  1  0  0  0
 22 28  2  0  0  0
 22 45  1  0  0  0
 25 46  1  0  0  0
 25 47  1  0  0  0
 27 29  2  0  0  0
 27 48  1  0  0  0
 28 29  1  0  0  0
 28 49  1  0  0  0
 29 50  1  0  0  0
 30 34  1  0  0  0
 30 51  1  0  0  0
 31 34  2  0  0  0
 31 52  1  0  0  0
 32 36  1  0  0  0
 32 53  1  0  0  0
 32 54  1  0  0  0
 33 35  1  0  0  0
 33 55  1  0  0  0
 33 56  1  0  0  0
 34 57  1  0  0  0
 35 37  1  0  0  0
 35 58  1  0  0  0
 35 59  1  0  0  0
 36 37  1  0  0  0
 36 60  1  0  0  0
 36 61  1  0  0  0
 37 62  1  0  0  0
 37 63  1  0  0  0
M  END
> <s_m_entry_id>
3416

> <s_m_entry_name>
dock_pv.145

> <s_m_Source_Path>
/home/csk/Desktop/cluster/DUD-E-result/kpcb

> <s_m_Source_File>
dock_pv.maegz

> <i_m_Source_File_Index>
145

> <chembl_id>
CHEMBL362588

> <chembl_pref_name>
None

> <i_lp_mmshare_version>
53161

> <i_f3d_flags>
0

> <r_lp_tautomer_probability>
1

> <s_lp_Force_Field>
OPLS_2005

> <r_lp_Energy>
99.880141

> <b_lp_Chiralities_Consistent>
1

> <s_lp_Variant>
CHEMBL3045_lig251-1

> <s_i_glide_gridfile>
glide-grid_2i0e

> <i_i_glide_lignum>
409

> <i_i_glide_rotatable_bonds>
4

> <r_i_docking_score>
-7.7913182379078

> <r_i_glide_ligand_efficiency>
-0.210576168592103

> <r_i_glide_ligand_efficiency_sa>
-0.70168650957391

> <r_i_glide_ligand_efficiency_ln>
-1.68975427138752

> <r_i_glide_gscore>
-7.7913182379078

> <r_i_glide_lipo>
-1.77406645082241

> <r_i_glide_hbond>
-0.54278095434031

> <r_i_glide_metal>
0

> <r_i_glide_rewards>
-2.20362323984787

> <r_i_glide_evdw>
-53.3541564941406

> <r_i_glide_ecoul>
-5.33993864059448

> <r_i_glide_erotb>
0.233310599727118

> <r_i_glide_esite>
-0.0354595718281235

> <r_i_glide_emodel>
-82.105125570614

> <r_i_glide_energy>
-58.6940951347351

> <r_i_glide_einternal>
7.69757080078125

> <i_i_glide_confnum>
148

> <i_i_glide_posenum>
269

> <r_i_glide_eff_state_penalty>
0

> <s_user_duplicate_titles>
CHEMBL3045_lig251,300799

> <s_m_subgroup_title>
dock_pv

> <s_m_subgroupid>
dock_pv

> <b_m_subgroup_collapsed>
1

$$$$
CHEMBL3045_lig529
                    3D
 Schrodinger Suite 2021-1.
 62 66  0  0  1  0            999 V2000
   39.7603   52.8803   34.7278 C   0  0  0  0  0  0
   39.9007   54.2976   34.1283 C   0  0  1  0  0  0
   41.2620   54.5132   33.4164 C   0  0  0  0  0  0
   41.3317   53.7089   32.2178 N   0  0  2  0  0  0
   42.5365   53.7393   31.4093 C   0  0  0  0  0  0
   42.1176   53.0981   30.0843 C   0  0  0  0  0  0
   40.5998   53.3088   30.0456 C   0  0  0  0  0  0
   40.3069   54.1336   31.2929 C   0  0  1  0  0  0
   38.8781   54.0253   31.8634 C   0  0  0  0  0  0
   38.7853   54.6914   33.2013 N   0  0  0  0  0  0
   37.5212   55.1496   33.5508 C   0  0  0  0  0  0
   36.6122   55.1393   32.7114 O   0  0  0  0  0  0
   37.2191   55.6465   34.7992 N   0  0  0  0  0  0
   38.1893   55.8360   35.8893 C   0  0  0  0  0  0
   37.4031   56.3109   37.0407 C   0  0  0  0  0  0
   37.4954   56.5874   38.4058 C   0  0  0  0  0  0
   38.5868   56.4255   39.2369 N   0  0  0  0  0  0
   39.8661   56.6633   38.8763 C   0  0  0  0  0  0
   40.2091   57.1775   37.8097 O   0  0  0  0  0  0
   40.9103   56.2756   39.8907 C   0  0  0  0  0  0
   40.7659   56.6177   41.2422 C   0  0  0  0  0  0
   41.7372   56.2554   42.1759 C   0  0  0  0  0  0
   42.8654   55.5365   41.7725 C   0  0  0  0  0  0
   43.0046   55.1672   40.4322 C   0  0  0  0  0  0
   42.0368   55.5332   39.4968 C   0  0  0  0  0  0
   42.2054   55.1470   38.2076 F   0  0  0  0  0  0
   43.8884   55.1723   42.7433 C   0  0  0  0  0  0
   44.6997   54.8802   43.5161 N   0  0  0  0  0  0
   36.3004   56.8562   38.8778 N   0  0  0  0  0  0
   35.4645   56.7720   37.8287 N   0  0  0  0  0  0
   36.1207   56.4705   36.6721 C   0  0  0  0  0  0
   35.8701   56.1824   35.2162 C   0  0  0  0  0  0
   34.7064   55.1722   35.1202 C   0  0  0  0  0  0
   35.4967   57.4791   34.4615 C   0  0  0  0  0  0
   40.6030   52.6512   35.3826 H   0  0  0  0  0  0
   38.8528   52.7763   35.3227 H   0  0  0  0  0  0
   39.7623   52.1103   33.9553 H   0  0  0  0  0  0
   40.0548   54.9955   34.9342 H   0  0  0  0  0  0
   41.3829   55.5667   33.1506 H   0  0  0  0  0  0
   42.0896   54.2693   34.0837 H   0  0  0  0  0  0
   42.9344   54.7496   31.2947 H   0  0  0  0  0  0
   43.3125   53.1768   31.9257 H   0  0  0  0  0  0
   42.6185   53.5719   29.2414 H   0  0  0  0  0  0
   42.3715   52.0357   30.0741 H   0  0  0  0  0  0
   40.0433   52.3721   30.0381 H   0  0  0  0  0  0
   40.3047   53.8629   29.1590 H   0  0  0  0  0  0
   40.4107   55.1918   31.0325 H   0  0  0  0  0  0
   38.7080   52.9618   32.0346 H   0  0  0  0  0  0
   38.1802   54.3879   31.1083 H   0  0  0  0  0  0
   38.9684   56.5468   35.6047 H   0  0  0  0  0  0
   38.6251   54.8875   36.1960 H   0  0  0  0  0  0
   38.3912   56.2604   40.2188 H   0  0  0  0  0  0
   39.9046   57.1698   41.5838 H   0  0  0  0  0  0
   41.6050   56.5442   43.2120 H   0  0  0  0  0  0
   43.8614   54.5967   40.0967 H   0  0  0  0  0  0
   34.4657   56.9206   37.9180 H   0  0  0  0  0  0
   33.7878   55.5750   35.5494 H   0  0  0  0  0  0
   34.4771   54.9008   34.0906 H   0  0  0  0  0  0
   34.9336   54.2569   35.6665 H   0  0  0  0  0  0
   34.6080   57.9466   34.8853 H   0  0  0  0  0  0
   36.2980   58.2077   34.5076 H   0  0  0  0  0  0
   35.2897   57.2903   33.4082 H   0  0  0  0  0  0
  1  2  1  0  0  0
  1 35  1  0  0  0
  1 36  1  0  0  0
  1 37  1  0  0  0
  2  3  1  0  0  0
  2 10  1  0  0  0
  2 38  1  0  0  0
  3  4  1  0  0  0
  3 39  1  0  0  0
  3 40  1  0  0  0
  4  5  1  0  0  0
  4  8  1  0  0  0
  5  6  1  0  0  0
  5 41  1  0  0  0
  5 42  1  0  0  0
  6  7  1  0  0  0
  6 43  1  0  0  0
  6 44  1  0  0  0
  7  8  1  0  0  0
  7 45  1  0  0  0
  7 46  1  0  0  0
  8  9  1  0  0  0
  8 47  1  0  0  0
  9 10  1  0  0  0
  9 48  1  0  0  0
  9 49  1  0  0  0
 10 11  1  0  0  0
 11 12  2  0  0  0
 11 13  1  0  0  0
 13 14  1  0  0  0
 13 32  1  0  0  0
 14 15  1  0  0  0
 14 50  1  0  0  0
 14 51  1  0  0  0
 15 16  1  0  0  0
 15 31  2  0  0  0
 16 17  1  0  0  0
 16 29  2  0  0  0
 17 18  1  0  0  0
 17 52  1  0  0  0
 18 19  2  0  0  0
 18 20  1  0  0  0
 20 21  2  0  0  0
 20 25  1  0  0  0
 21 22  1  0  0  0
 21 53  1  0  0  0
 22 23  2  0  0  0
 22 54  1  0  0  0
 23 24  1  0  0  0
 23 27  1  0  0  0
 24 25  2  0  0  0
 24 55  1  0  0  0
 25 26  1  0  0  0
 27 28  3  0  0  0
 29 30  1  0  0  0
 30 31  1  0  0  0
 30 56  1  0  0  0
 31 32  1  0  0  0
 32 33  1  0  0  0
 32 34  1  0  0  0
 33 57  1  0  0  0
 33 58  1  0  0  0
 33 59  1  0  0  0
 34 60  1  0  0  0
 34 61  1  0  0  0
 34 62  1  0  0  0
M  END
> <s_m_entry_id>
3417

> <s_m_entry_name>
dock_pv.146

> <s_m_Source_Path>
/home/csk/Desktop/cluster/DUD-E-result/kpcb

> <s_m_Source_File>
dock_pv.maegz

> <i_m_Source_File_Index>
146

> <chembl_id>
CHEMBL3662778

> <chembl_pref_name>
None

> <i_lp_mmshare_version>
53161

> <i_f3d_flags>
0

> <r_lp_tautomer_probability>
0.5

> <s_lp_Force_Field>
OPLS_2005

> <r_lp_Energy>
116.596148

> <b_lp_Chiralities_Consistent>
1

> <s_lp_Variant>
CHEMBL3045_lig529-1

> <s_i_glide_gridfile>
glide-grid_2i0e

> <i_i_glide_lignum>
794

> <i_i_glide_rotatable_bonds>
5

> <r_i_docking_score>
-7.77134412919781

> <r_i_glide_ligand_efficiency>
-0.228568944976406

> <r_i_glide_ligand_efficiency_sa>
-0.740474650680716

> <r_i_glide_ligand_efficiency_ln>
-1.71690789695919

> <r_i_glide_gscore>
-7.77134412919781

> <r_i_glide_lipo>
-2.02291397713529

> <r_i_glide_hbond>
-0.84523376498341

> <r_i_glide_metal>
0

> <r_i_glide_rewards>
-1.83117286521647

> <r_i_glide_evdw>
-48.4252510070801

> <r_i_glide_ecoul>
-6.36731863021851

> <r_i_glide_erotb>
0.325718430886934

> <r_i_glide_esite>
-0.0213816078627886

> <r_i_glide_emodel>
-74.7997020762663

> <r_i_glide_energy>
-54.7925696372986

> <r_i_glide_einternal>
9.23245429992676

> <i_i_glide_confnum>
32

> <i_i_glide_posenum>
183

> <r_i_glide_eff_state_penalty>
0

> <s_user_duplicate_titles>
CHEMBL3045_lig529

> <s_m_subgroup_title>
dock_pv

> <s_m_subgroupid>
dock_pv

> <b_m_subgroup_collapsed>
1

$$$$
CHEMBL3045_lig301
                    3D
 Schrodinger Suite 2021-1.
 27 29  0  0  1  0            999 V2000
   39.6327   55.9752   37.0278 C   0  0  0  0  0  0
   39.4872   56.8123   38.3295 C   0  0  0  0  0  0
   38.1371   56.6622   38.9223 N   0  0  0  0  0  0
   36.9676   56.7131   38.2340 C   0  0  0  0  0  0
   38.3640   56.1787   36.2331 C   0  0  0  0  0  0
   37.1716   56.5944   36.8064 C   0  0  0  0  0  0
   36.2570   56.6833   35.7462 C   0  0  0  0  0  0
   36.9057   56.4178   34.5392 C   0  0  0  0  0  0
   38.2100   56.1346   34.8730 N   0  0  0  0  0  0
   36.3882   56.4045   33.1411 C   0  0  0  0  0  0
   35.2202   57.1085   32.8236 C   0  0  0  0  0  0
   34.7350   57.0609   31.5153 C   0  0  0  0  0  0
   35.3547   56.3719   30.5244 N   0  0  0  0  0  0
   36.4936   55.7065   30.8386 C   0  0  0  0  0  0
   37.0371   55.6917   32.1237 C   0  0  0  0  0  0
   35.9012   56.7721   38.8370 O   0  0  0  0  0  0
   40.5288   56.2636   36.4773 H   0  0  0  0  0  0
   39.7555   54.9206   37.2784 H   0  0  0  0  0  0
   39.6618   57.8698   38.1219 H   0  0  0  0  0  0
   40.2376   56.5101   39.0615 H   0  0  0  0  0  0
   38.0664   56.4840   39.9158 H   0  0  0  0  0  0
   35.2093   56.9249   35.8570 H   0  0  0  0  0  0
   38.9397   55.8985   34.2160 H   0  0  0  0  0  0
   34.7011   57.6826   33.5755 H   0  0  0  0  0  0
   33.8304   57.5834   31.2395 H   0  0  0  0  0  0
   36.9770   55.1719   30.0366 H   0  0  0  0  0  0
   37.9386   55.1289   32.3155 H   0  0  0  0  0  0
  1  5  1  0  0  0
  1  2  1  0  0  0
  1 17  1  0  0  0
  1 18  1  0  0  0
  2  3  1  0  0  0
  2 19  1  0  0  0
  2 20  1  0  0  0
  3  4  1  0  0  0
  3 21  1  0  0  0
  4  6  1  0  0  0
  4 16  2  0  0  0
  5  9  1  0  0  0
  5  6  2  0  0  0
  6  7  1  0  0  0
  7  8  2  0  0  0
  7 22  1  0  0  0
  8  9  1  0  0  0
  8 10  1  0  0  0
  9 23  1  0  0  0
 10 11  2  0  0  0
 10 15  1  0  0  0
 11 12  1  0  0  0
 11 24  1  0  0  0
 12 13  2  0  0  0
 12 25  1  0  0  0
 13 14  1  0  0  0
 14 15  2  0  0  0
 14 26  1  0  0  0
 15 27  1  0  0  0
M  END
> <s_m_entry_id>
3418

> <s_m_entry_name>
dock_pv.147

> <s_m_Source_Path>
/home/csk/Desktop/cluster/DUD-E-result/kpcb

> <s_m_Source_File>
dock_pv.maegz

> <i_m_Source_File_Index>
147

> <chembl_id>
CHEMBL225519

> <chembl_pref_name>
None

> <i_lp_mmshare_version>
53161

> <i_f3d_flags>
0

> <r_lp_tautomer_probability>
1

> <s_lp_Force_Field>
OPLS_2005

> <r_lp_Energy>
13.581071

> <b_lp_Chiralities_Consistent>
1

> <s_lp_Variant>
CHEMBL3045_lig301-1

> <s_i_glide_gridfile>
glide-grid_2i0e

> <i_i_glide_lignum>
462

> <i_i_glide_rotatable_bonds>
1

> <r_i_docking_score>
-7.76699913475679

> <r_i_glide_ligand_efficiency>
-0.485437445922299

> <r_i_glide_ligand_efficiency_sa>
-1.22322571191892

> <r_i_glide_ligand_efficiency_ln>
-2.05879826999682

> <r_i_glide_gscore>
-7.76699913475679

> <r_i_glide_lipo>
-1.99321413088214

> <r_i_glide_hbond>
-0.539565258472392

> <r_i_glide_metal>
0

> <r_i_glide_rewards>
-3.25196134349457

> <r_i_glide_evdw>
-30.4415893554688

> <r_i_glide_ecoul>
-4.77962112426758

> <r_i_glide_erotb>
0.256764234505889

> <r_i_glide_esite>
0

> <r_i_glide_emodel>
-52.115314818646

> <r_i_glide_energy>
-35.2212104797363

> <r_i_glide_einternal>
0.119442850351334

> <i_i_glide_confnum>
1

> <i_i_glide_posenum>
104

> <r_i_glide_eff_state_penalty>
0

> <s_user_duplicate_titles>
CHEMBL3045_lig301

> <s_m_subgroup_title>
dock_pv

> <s_m_subgroupid>
dock_pv

> <b_m_subgroup_collapsed>
1

$$$$
CHEMBL3045_lig343
                    3D
 Schrodinger Suite 2021-1.
 55 60  0  0  1  0            999 V2000
   35.4822   56.7719   37.1545 N   0  0  0  0  0  0
   36.6006   56.1735   37.5614 C   0  0  0  0  0  0
   37.2963   55.8299   36.3484 C   0  0  0  0  0  0
   36.5360   56.2203   35.3020 C   0  0  0  0  0  0
   35.4132   56.9237   35.8318 C   0  0  0  0  0  0
   36.9023   55.9724   38.7355 O   0  0  0  0  0  0
   34.5635   57.5718   35.2369 O   0  0  0  0  0  0
   37.7891   55.5856   31.2885 N   0  0  0  0  0  0
   38.5839   55.7793   32.3741 C   0  0  0  0  0  0
   38.1426   56.1391   33.5933 N   0  0  0  0  0  0
   36.8163   56.0695   33.8393 C   0  0  0  0  0  0
   35.8705   55.8265   32.7822 C   0  0  0  0  0  0
   34.4569   55.7052   32.9073 C   0  0  0  0  0  0
   33.6519   55.6029   31.7757 C   0  0  0  0  0  0
   34.2153   55.5719   30.5063 C   0  0  0  0  0  0
   35.5969   55.5720   30.3488 C   0  0  0  0  0  0
   36.4426   55.6743   31.4778 C   0  0  0  0  0  0
   39.9270   55.4238   32.3188 N   0  0  0  0  0  0
   40.4966   54.6785   31.1897 C   0  0  0  0  0  0
   41.7923   53.8965   31.5161 C   0  0  0  0  0  0
   42.7968   54.7711   32.1241 N   0  0  0  0  0  0
   42.2386   55.2978   33.3671 C   0  0  0  0  0  0
   40.9712   56.1361   33.0868 C   0  0  0  0  0  0
   44.0021   53.9991   32.4176 C   0  0  0  0  0  0
   39.9808   53.4390   35.6516 N   0  0  0  0  0  0
   38.7155   53.9436   35.5349 C   0  0  0  0  0  0
   38.5659   55.0824   36.3112 C   0  0  0  0  0  0
   39.8483   55.2817   36.9706 C   0  0  0  0  0  0
   40.3957   56.2217   37.8754 C   0  0  0  0  0  0
   41.7114   56.0630   38.3094 C   0  0  0  0  0  0
   42.5007   55.0064   37.8713 C   0  0  0  0  0  0
   42.0217   54.0603   36.9712 C   0  0  0  0  0  0
   40.7043   54.2118   36.5296 C   0  0  0  0  0  0
   39.5033   57.5713   38.4768 Cl  0  0  0  0  0  0
   34.7856   57.1349   37.7874 H   0  0  0  0  0  0
   33.9812   55.7071   33.8734 H   0  0  0  0  0  0
   32.5776   55.5555   31.8814 H   0  0  0  0  0  0
   33.5770   55.4951   29.6373 H   0  0  0  0  0  0
   36.0309   55.4705   29.3642 H   0  0  0  0  0  0
   39.7645   53.9897   30.7666 H   0  0  0  0  0  0
   40.7010   55.4232   30.4375 H   0  0  0  0  0  0
   41.5649   53.0483   32.1687 H   0  0  0  0  0  0
   42.1928   53.4723   30.5936 H   0  0  0  0  0  0
   42.9813   55.9244   33.8631 H   0  0  0  0  0  0
   42.0073   54.4835   34.0545 H   0  0  0  0  0  0
   41.2710   57.0119   32.5086 H   0  0  0  0  0  0
   40.5810   56.5066   34.0349 H   0  0  0  0  0  0
   44.7684   54.6322   32.8669 H   0  0  0  0  0  0
   43.8021   53.1772   33.1086 H   0  0  0  0  0  0
   44.4225   53.5736   31.5054 H   0  0  0  0  0  0
   40.2963   52.6148   35.1569 H   0  0  0  0  0  0
   38.0107   53.4518   34.8803 H   0  0  0  0  0  0
   42.1295   56.7757   39.0063 H   0  0  0  0  0  0
   43.5122   54.9110   38.2392 H   0  0  0  0  0  0
   42.6495   53.2416   36.6422 H   0  0  0  0  0  0
  1  2  1  0  0  0
  1  5  1  0  0  0
  1 35  1  0  0  0
  2  3  1  0  0  0
  2  6  2  0  0  0
  3  4  2  0  0  0
  3 27  1  0  0  0
  4  5  1  0  0  0
  4 11  1  0  0  0
  5  7  2  0  0  0
  8  9  1  0  0  0
  8 17  2  0  0  0
  9 10  2  0  0  0
  9 18  1  0  0  0
 10 11  1  0  0  0
 11 12  2  0  0  0
 12 13  1  0  0  0
 12 17  1  0  0  0
 13 14  2  0  0  0
 13 36  1  0  0  0
 14 15  1  0  0  0
 14 37  1  0  0  0
 15 16  2  0  0  0
 15 38  1  0  0  0
 16 17  1  0  0  0
 16 39  1  0  0  0
 18 19  1  0  0  0
 18 23  1  0  0  0
 19 20  1  0  0  0
 19 40  1  0  0  0
 19 41  1  0  0  0
 20 21  1  0  0  0
 20 42  1  0  0  0
 20 43  1  0  0  0
 21 22  1  0  0  0
 21 24  1  0  0  0
 22 23  1  0  0  0
 22 44  1  0  0  0
 22 45  1  0  0  0
 23 46  1  0  0  0
 23 47  1  0  0  0
 24 48  1  0  0  0
 24 49  1  0  0  0
 24 50  1  0  0  0
 25 26  1  0  0  0
 25 33  1  0  0  0
 25 51  1  0  0  0
 26 27  2  0  0  0
 26 52  1  0  0  0
 27 28  1  0  0  0
 28 29  1  0  0  0
 28 33  2  0  0  0
 29 30  2  0  0  0
 29 34  1  0  0  0
 30 31  1  0  0  0
 30 53  1  0  0  0
 31 32  2  0  0  0
 31 54  1  0  0  0
 32 33  1  0  0  0
 32 55  1  0  0  0
M  END
> <s_m_entry_id>
3419

> <s_m_entry_name>
dock_pv.148

> <s_m_Source_Path>
/home/csk/Desktop/cluster/DUD-E-result/kpcb

> <s_m_Source_File>
dock_pv.maegz

> <i_m_Source_File_Index>
148

> <chembl_id>
CHEMBL2151407

> <chembl_pref_name>
None

> <i_lp_mmshare_version>
53161

> <i_f3d_flags>
0

> <r_lp_tautomer_probability>
1

> <s_lp_Force_Field>
OPLS_2005

> <r_lp_Energy>
43.819437

> <b_lp_Chiralities_Consistent>
1

> <s_lp_Variant>
CHEMBL3045_lig343-1

> <s_i_glide_gridfile>
glide-grid_2i0e

> <i_i_glide_lignum>
507

> <i_i_glide_rotatable_bonds>
3

> <r_i_docking_score>
-7.76655762975211

> <r_i_glide_ligand_efficiency>
-0.228428165580944

> <r_i_glide_ligand_efficiency_sa>
-0.740018580090337

> <r_i_glide_ligand_efficiency_ln>
-1.71585042497487

> <r_i_glide_gscore>
-7.76655762975211

> <r_i_glide_lipo>
-2.35963463502738

> <r_i_glide_hbond>
-0.0664375954062732

> <r_i_glide_metal>
0

> <r_i_glide_rewards>
-2.60765494545826

> <r_i_glide_evdw>
-44.173397064209

> <r_i_glide_ecoul>
-5.30284547805786

> <r_i_glide_erotb>
0.271266221058924

> <r_i_glide_esite>
0

> <r_i_glide_emodel>
-68.9202317585318

> <r_i_glide_energy>
-49.4762425422668

> <r_i_glide_einternal>
10.7191390991211

> <i_i_glide_confnum>
19

> <i_i_glide_posenum>
2

> <r_i_glide_eff_state_penalty>
0

> <s_user_duplicate_titles>
CHEMBL3045_lig343

> <s_m_subgroup_title>
dock_pv

> <s_m_subgroupid>
dock_pv

> <b_m_subgroup_collapsed>
1

$$$$
CHEMBL3045_lig521
                    3D
 Schrodinger Suite 2021-1.
 62 66  0  0  1  0            999 V2000
   38.7263   55.5718   30.6298 C   0  0  0  0  0  0
   38.3006   54.6216   31.7453 C   0  0  1  0  0  0
   39.1562   53.3177   31.8102 C   0  0  0  0  0  0
   40.5135   53.6269   32.2576 N   0  0  2  0  0  0
   41.4883   52.5586   32.3930 C   0  0  0  0  0  0
   42.6088   53.1725   33.2413 C   0  0  0  0  0  0
   41.9412   54.3204   34.0054 C   0  0  0  0  0  0
   40.4741   54.2175   33.5868 C   0  0  1  0  0  0
   39.7138   55.5559   33.5520 C   0  0  0  0  0  0
   38.3254   55.2570   33.0851 N   0  0  0  0  0  0
   37.1474   55.7819   33.5545 C   0  0  0  0  0  0
   36.1875   55.9329   32.7880 O   0  0  0  0  0  0
   36.9669   56.0100   34.8885 N   0  0  0  0  0  0
   38.0387   56.0771   35.8864 C   0  0  0  0  0  0
   37.3606   56.3718   37.1598 C   0  0  0  0  0  0
   37.5836   56.5559   38.5227 C   0  0  0  0  0  0
   38.7463   56.4081   39.2455 N   0  0  0  0  0  0
   40.0117   56.3733   38.7743 C   0  0  0  0  0  0
   40.3340   56.5623   37.6005 O   0  0  0  0  0  0
   41.0749   56.0726   39.8035 C   0  0  0  0  0  0
   42.2603   55.4208   39.4292 C   0  0  0  0  0  0
   43.1814   55.1367   40.4415 C   0  0  0  0  0  0
   44.4774   54.4075   40.1446 C   0  0  0  0  0  0
   42.9676   55.4860   41.7377 N   0  0  0  0  0  0
   41.8042   56.1331   42.0111 C   0  0  0  0  0  0
   41.5199   56.6212   43.6395 Cl  0  0  0  0  0  0
   40.8458   56.4362   41.0995 N   0  0  0  0  0  0
   36.4427   56.8006   39.1299 N   0  0  0  0  0  0
   35.5011   56.7719   38.1700 N   0  0  0  0  0  0
   36.0400   56.5078   36.9456 C   0  0  0  0  0  0
   35.6429   56.3162   35.5103 C   0  0  0  0  0  0
   34.6341   55.1530   35.4093 C   0  0  0  0  0  0
   35.0512   57.6191   34.9538 C   0  0  0  0  0  0
   38.7515   55.0276   29.6846 H   0  0  0  0  0  0
   38.0257   56.4003   30.5222 H   0  0  0  0  0  0
   39.7277   55.9599   30.8161 H   0  0  0  0  0  0
   37.2738   54.3721   31.4905 H   0  0  0  0  0  0
   38.7036   52.6098   32.5069 H   0  0  0  0  0  0
   39.1766   52.8199   30.8393 H   0  0  0  0  0  0
   41.0524   51.6618   32.8370 H   0  0  0  0  0  0
   41.8273   52.2557   31.4022 H   0  0  0  0  0  0
   43.0359   52.4283   33.9161 H   0  0  0  0  0  0
   43.4154   53.5451   32.6092 H   0  0  0  0  0  0
   42.3845   55.2909   33.7726 H   0  0  0  0  0  0
   42.0493   54.1306   35.0751 H   0  0  0  0  0  0
   39.9575   53.5878   34.3168 H   0  0  0  0  0  0
   40.1973   56.2026   32.8211 H   0  0  0  0  0  0
   39.8597   56.0884   34.4750 H   0  0  0  0  0  0
   38.6862   56.9267   35.6698 H   0  0  0  0  0  0
   38.6166   55.1529   35.9309 H   0  0  0  0  0  0
   38.6285   56.3693   40.2517 H   0  0  0  0  0  0
   42.4465   55.1235   38.4050 H   0  0  0  0  0  0
   44.6814   54.3727   39.0737 H   0  0  0  0  0  0
   45.3217   54.9011   40.6268 H   0  0  0  0  0  0
   44.4266   53.3814   40.5060 H   0  0  0  0  0  0
   34.5141   56.9252   38.3609 H   0  0  0  0  0  0
   33.7147   55.3830   35.9510 H   0  0  0  0  0  0
   34.3506   54.9410   34.3788 H   0  0  0  0  0  0
   35.0413   54.2402   35.8408 H   0  0  0  0  0  0
   34.3004   58.0038   35.6337 H   0  0  0  0  0  0
   35.8239   58.3730   34.8368 H   0  0  0  0  0  0
   34.5832   57.4830   33.9801 H   0  0  0  0  0  0
  1  2  1  0  0  0
  1 34  1  0  0  0
  1 35  1  0  0  0
  1 36  1  0  0  0
  2  3  1  0  0  0
  2 10  1  0  0  0
  2 37  1  0  0  0
  3  4  1  0  0  0
  3 38  1  0  0  0
  3 39  1  0  0  0
  4  5  1  0  0  0
  4  8  1  0  0  0
  5  6  1  0  0  0
  5 40  1  0  0  0
  5 41  1  0  0  0
  6  7  1  0  0  0
  6 42  1  0  0  0
  6 43  1  0  0  0
  7  8  1  0  0  0
  7 44  1  0  0  0
  7 45  1  0  0  0
  8  9  1  0  0  0
  8 46  1  0  0  0
  9 10  1  0  0  0
  9 47  1  0  0  0
  9 48  1  0  0  0
 10 11  1  0  0  0
 11 12  2  0  0  0
 11 13  1  0  0  0
 13 14  1  0  0  0
 13 31  1  0  0  0
 14 15  1  0  0  0
 14 49  1  0  0  0
 14 50  1  0  0  0
 15 16  1  0  0  0
 15 30  2  0  0  0
 16 17  1  0  0  0
 16 28  2  0  0  0
 17 18  1  0  0  0
 17 51  1  0  0  0
 18 19  2  0  0  0
 18 20  1  0  0  0
 20 21  2  0  0  0
 20 27  1  0  0  0
 21 22  1  0  0  0
 21 52  1  0  0  0
 22 23  1  0  0  0
 22 24  2  0  0  0
 23 53  1  0  0  0
 23 54  1  0  0  0
 23 55  1  0  0  0
 24 25  1  0  0  0
 25 26  1  0  0  0
 25 27  2  0  0  0
 28 29  1  0  0  0
 29 30  1  0  0  0
 29 56  1  0  0  0
 30 31  1  0  0  0
 31 32  1  0  0  0
 31 33  1  0  0  0
 32 57  1  0  0  0
 32 58  1  0  0  0
 32 59  1  0  0  0
 33 60  1  0  0  0
 33 61  1  0  0  0
 33 62  1  0  0  0
M  END
> <s_m_entry_id>
3420

> <s_m_entry_name>
dock_pv.149

> <s_m_Source_Path>
/home/csk/Desktop/cluster/DUD-E-result/kpcb

> <s_m_Source_File>
dock_pv.maegz

> <i_m_Source_File_Index>
149

> <chembl_id>
CHEMBL3662771

> <chembl_pref_name>
None

> <i_lp_mmshare_version>
53161

> <i_f3d_flags>
0

> <r_lp_tautomer_probability>
0.5

> <s_lp_Force_Field>
OPLS_2005

> <r_lp_Energy>
113.151048

> <b_lp_Chiralities_Consistent>
1

> <s_lp_Variant>
CHEMBL3045_lig521-1

> <s_i_glide_gridfile>
glide-grid_2i0e

> <i_i_glide_lignum>
778

> <i_i_glide_rotatable_bonds>
5

> <r_i_docking_score>
-7.76301662160053

> <r_i_glide_ligand_efficiency>
-0.235242927927289

> <r_i_glide_ligand_efficiency_sa>
-0.754549766336083

> <r_i_glide_ligand_efficiency_ln>
-1.72645470189507

> <r_i_glide_gscore>
-7.76301662160053

> <r_i_glide_lipo>
-1.95074016323873

> <r_i_glide_hbond>
-0.864

> <r_i_glide_metal>
0

> <r_i_glide_rewards>
-2.05048603775076

> <r_i_glide_evdw>
-42.5343475341797

> <r_i_glide_ecoul>
-7.20059490203857

> <r_i_glide_erotb>
0.316422513918108

> <r_i_glide_esite>
-0.00740632251438663

> <r_i_glide_emodel>
-69.682940186204

> <r_i_glide_energy>
-49.7349424362183

> <r_i_glide_einternal>
5.12247562408447

> <i_i_glide_confnum>
23

> <i_i_glide_posenum>
222

> <r_i_glide_eff_state_penalty>
0

> <s_user_duplicate_titles>
CHEMBL3045_lig521

> <s_m_subgroup_title>
dock_pv

> <s_m_subgroupid>
dock_pv

> <b_m_subgroup_collapsed>
1

$$$$
CHEMBL3045_lig498
                    3D
 Schrodinger Suite 2021-1.
 61 65  0  0  1  0            999 V2000
   39.7234   52.8332   34.6857 C   0  0  0  0  0  0
   39.8878   54.2636   34.1200 C   0  0  1  0  0  0
   41.2605   54.4880   33.4380 C   0  0  0  0  0  0
   41.3483   53.7019   32.2301 N   0  0  2  0  0  0
   42.5622   53.7447   31.4366 C   0  0  0  0  0  0
   42.1583   53.1069   30.1043 C   0  0  0  0  0  0
   40.6441   53.3273   30.0453 C   0  0  0  0  0  0
   40.3423   54.1460   31.2942 C   0  0  1  0  0  0
   38.8967   54.0690   31.8288 C   0  0  0  0  0  0
   38.7911   54.6926   33.1854 N   0  0  0  0  0  0
   37.5160   55.1221   33.5356 C   0  0  0  0  0  0
   36.6036   55.0790   32.7016 O   0  0  0  0  0  0
   37.2149   55.6395   34.7759 N   0  0  0  0  0  0
   38.1829   55.8218   35.8664 C   0  0  0  0  0  0
   37.4102   56.3120   37.0186 C   0  0  0  0  0  0
   37.5028   56.5709   38.3884 C   0  0  0  0  0  0
   38.5902   56.4178   39.2376 N   0  0  0  0  0  0
   39.8988   56.3718   38.8886 C   0  0  0  0  0  0
   40.3241   56.5432   37.7460 O   0  0  0  0  0  0
   40.8805   56.0754   40.0024 C   0  0  0  0  0  0
   40.7006   56.5715   41.3019 C   0  0  0  0  0  0
   41.6031   56.2734   42.3203 C   0  0  0  0  0  0
   42.7096   55.4732   42.0550 C   0  0  0  0  0  0
   43.5714   55.1744   43.0554 F   0  0  0  0  0  0
   42.9149   54.9769   40.7668 C   0  0  0  0  0  0
   44.2770   53.9711   40.4348 Cl  0  0  0  0  0  0
   42.0111   55.2840   39.7461 C   0  0  0  0  0  0
   36.3019   56.8528   38.8548 N   0  0  0  0  0  0
   35.4685   56.7719   37.8056 N   0  0  0  0  0  0
   36.1291   56.4820   36.6481 C   0  0  0  0  0  0
   35.8699   56.1816   35.1949 C   0  0  0  0  0  0
   34.7067   55.1727   35.1090 C   0  0  0  0  0  0
   35.4910   57.4712   34.4346 C   0  0  0  0  0  0
   40.5624   52.5754   35.3335 H   0  0  0  0  0  0
   38.8157   52.7333   35.2810 H   0  0  0  0  0  0
   39.7084   52.0830   33.8941 H   0  0  0  0  0  0
   40.0416   54.9413   34.9424 H   0  0  0  0  0  0
   41.3909   55.5445   33.1950 H   0  0  0  0  0  0
   42.0728   54.2288   34.1182 H   0  0  0  0  0  0
   42.9552   54.7574   31.3325 H   0  0  0  0  0  0
   43.3379   53.1870   31.9592 H   0  0  0  0  0  0
   42.6758   53.5718   29.2659 H   0  0  0  0  0  0
   42.4041   52.0438   30.0968 H   0  0  0  0  0  0
   40.0828   52.3916   30.0279 H   0  0  0  0  0  0
   40.3627   53.9083   29.1714 H   0  0  0  0  0  0
   40.4680   55.2043   31.0474 H   0  0  0  0  0  0
   38.6957   53.0051   31.9656 H   0  0  0  0  0  0
   38.2378   54.4888   31.0672 H   0  0  0  0  0  0
   38.9712   56.5190   35.5788 H   0  0  0  0  0  0
   38.6018   54.8663   36.1768 H   0  0  0  0  0  0
   38.3713   56.3649   40.2253 H   0  0  0  0  0  0
   39.8377   57.1711   41.5469 H   0  0  0  0  0  0
   41.4408   56.6544   43.3181 H   0  0  0  0  0  0
   42.1862   54.8859   38.7558 H   0  0  0  0  0  0
   34.4691   56.9136   37.8948 H   0  0  0  0  0  0
   33.7935   55.5736   35.5523 H   0  0  0  0  0  0
   34.4625   54.9100   34.0805 H   0  0  0  0  0  0
   34.9416   54.2537   35.6434 H   0  0  0  0  0  0
   34.6080   57.9434   34.8673 H   0  0  0  0  0  0
   36.2909   58.2014   34.4609 H   0  0  0  0  0  0
   35.2691   57.2707   33.3863 H   0  0  0  0  0  0
  1  2  1  0  0  0
  1 34  1  0  0  0
  1 35  1  0  0  0
  1 36  1  0  0  0
  2  3  1  0  0  0
  2 10  1  0  0  0
  2 37  1  0  0  0
  3  4  1  0  0  0
  3 38  1  0  0  0
  3 39  1  0  0  0
  4  5  1  0  0  0
  4  8  1  0  0  0
  5  6  1  0  0  0
  5 40  1  0  0  0
  5 41  1  0  0  0
  6  7  1  0  0  0
  6 42  1  0  0  0
  6 43  1  0  0  0
  7  8  1  0  0  0
  7 44  1  0  0  0
  7 45  1  0  0  0
  8  9  1  0  0  0
  8 46  1  0  0  0
  9 10  1  0  0  0
  9 47  1  0  0  0
  9 48  1  0  0  0
 10 11  1  0  0  0
 11 12  2  0  0  0
 11 13  1  0  0  0
 13 14  1  0  0  0
 13 31  1  0  0  0
 14 15  1  0  0  0
 14 49  1  0  0  0
 14 50  1  0  0  0
 15 16  1  0  0  0
 15 30  2  0  0  0
 16 17  1  0  0  0
 16 28  2  0  0  0
 17 18  1  0  0  0
 17 51  1  0  0  0
 18 19  2  0  0  0
 18 20  1  0  0  0
 20 21  2  0  0  0
 20 27  1  0  0  0
 21 22  1  0  0  0
 21 52  1  0  0  0
 22 23  2  0  0  0
 22 53  1  0  0  0
 23 24  1  0  0  0
 23 25  1  0  0  0
 25 26  1  0  0  0
 25 27  2  0  0  0
 27 54  1  0  0  0
 28 29  1  0  0  0
 29 30  1  0  0  0
 29 55  1  0  0  0
 30 31  1  0  0  0
 31 32  1  0  0  0
 31 33  1  0  0  0
 32 56  1  0  0  0
 32 57  1  0  0  0
 32 58  1  0  0  0
 33 59  1  0  0  0
 33 60  1  0  0  0
 33 61  1  0  0  0
M  END
> <s_m_entry_id>
3421

> <s_m_entry_name>
dock_pv.150

> <s_m_Source_Path>
/home/csk/Desktop/cluster/DUD-E-result/kpcb

> <s_m_Source_File>
dock_pv.maegz

> <i_m_Source_File_Index>
150

> <chembl_id>
CHEMBL3662748

> <chembl_pref_name>
None

> <i_lp_mmshare_version>
53161

> <i_f3d_flags>
0

> <r_lp_tautomer_probability>
0.5

> <s_lp_Force_Field>
OPLS_2005

> <r_lp_Energy>
116.35323

> <b_lp_Chiralities_Consistent>
1

> <s_lp_Variant>
CHEMBL3045_lig498-1

> <s_i_glide_gridfile>
glide-grid_2i0e

> <i_i_glide_lignum>
726

> <i_i_glide_rotatable_bonds>
5

> <r_i_docking_score>
-7.74871152129605

> <r_i_glide_ligand_efficiency>
-0.234809440039274

> <r_i_glide_ligand_efficiency_sa>
-0.753159339055259

> <r_i_glide_ligand_efficiency_ln>
-1.7232733216552

> <r_i_glide_gscore>
-7.74871152129605

> <r_i_glide_lipo>
-2.08005993174846

> <r_i_glide_hbond>
-0.834942049288628

> <r_i_glide_metal>
0

> <r_i_glide_rewards>
-1.77233682641233

> <r_i_glide_evdw>
-47.843635559082

> <r_i_glide_ecoul>
-6.50412034988403

> <r_i_glide_erotb>
0.314008878035125

> <r_i_glide_esite>
-0.00758176144504395

> <r_i_glide_emodel>
-74.0701374924924

> <r_i_glide_energy>
-54.3477559089661

> <r_i_glide_einternal>
9.0176362991333

> <i_i_glide_confnum>
37

> <i_i_glide_posenum>
300

> <r_i_glide_eff_state_penalty>
0

> <s_user_duplicate_titles>
CHEMBL3045_lig498

> <s_m_subgroup_title>
dock_pv

> <s_m_subgroupid>
dock_pv

> <b_m_subgroup_collapsed>
1

$$$$
CHEMBL3045_lig369
                    3D
 Schrodinger Suite 2021-1.
 57 61  0  0  1  0            999 V2000
   37.2105   56.0258   36.5250 C   0  0  0  0  0  0
   36.4864   56.3120   35.4332 C   0  0  0  0  0  0
   35.2056   56.7748   35.8931 C   0  0  0  0  0  0
   35.1842   56.5740   37.2058 N   0  0  0  0  0  0
   36.3604   56.1728   37.6729 C   0  0  0  0  0  0
   36.8719   56.3235   34.1072 N   0  0  0  0  0  0
   36.1280   56.0282   32.9484 C   0  0  0  0  0  0
   38.6264   55.6199   36.6315 C   0  0  0  0  0  0
   40.8017   55.4408   37.3838 C   0  0  0  0  0  0
   39.5606   56.0907   37.6294 C   0  0  0  0  0  0
   39.4880   56.9912   38.7107 C   0  0  0  0  0  0
   40.5993   57.1719   39.5295 C   0  0  0  0  0  0
   41.7990   56.5249   39.2628 C   0  0  0  0  0  0
   41.9359   55.6595   38.1806 C   0  0  0  0  0  0
   39.3059   54.6884   35.8404 C   0  0  0  0  0  0
   40.6268   54.6216   36.2867 N   0  0  0  0  0  0
   41.7123   53.8421   35.6703 C   0  0  0  0  0  0
   41.1179   52.7790   34.7355 C   0  0  0  0  0  0
   40.0044   53.3377   33.8282 C   0  0  1  0  0  0
   38.8243   53.7315   34.7399 C   0  0  0  0  0  0
   34.3010   57.2855   35.2461 O   0  0  0  0  0  0
   36.6111   55.9741   38.8502 O   0  0  0  0  0  0
   36.7919   56.1731   31.7350 C   0  0  0  0  0  0
   36.1234   55.9203   30.5479 C   0  0  0  0  0  0
   34.7781   55.5720   30.5492 C   0  0  0  0  0  0
   34.1131   55.3776   31.7530 C   0  0  0  0  0  0
   34.7981   55.5711   32.9483 C   0  0  0  0  0  0
   40.4210   54.4745   32.8430 C   0  0  0  0  0  0
   40.9299   54.0700   31.5272 N   0  0  0  0  0  0
   39.8949   53.5265   30.6525 C   0  0  0  0  0  0
   42.0817   53.1741   31.5718 C   0  0  0  0  0  0
   34.3861   56.7771   37.7903 H   0  0  0  0  0  0
   37.8609   56.4031   33.9219 H   0  0  0  0  0  0
   38.5750   57.5191   38.9344 H   0  0  0  0  0  0
   40.5352   57.8368   40.3784 H   0  0  0  0  0  0
   42.6459   56.6981   39.9113 H   0  0  0  0  0  0
   42.8757   55.1608   37.9890 H   0  0  0  0  0  0
   42.3172   53.3731   36.4489 H   0  0  0  0  0  0
   42.3686   54.5287   35.1345 H   0  0  0  0  0  0
   40.7184   51.9706   35.3463 H   0  0  0  0  0  0
   41.9383   52.3722   34.1470 H   0  0  0  0  0  0
   39.6596   52.4895   33.2353 H   0  0  0  0  0  0
   38.0160   54.1270   34.1369 H   0  0  0  0  0  0
   38.4050   52.8370   35.2022 H   0  0  0  0  0  0
   37.8314   56.4684   31.6991 H   0  0  0  0  0  0
   36.6719   55.9722   29.6370 H   0  0  0  0  0  0
   34.2640   55.4011   29.6135 H   0  0  0  0  0  0
   33.0801   55.0622   31.7607 H   0  0  0  0  0  0
   34.2679   55.3510   33.8593 H   0  0  0  0  0  0
   41.2048   55.0810   33.2958 H   0  0  0  0  0  0
   39.5958   55.1720   32.6976 H   0  0  0  0  0  0
   40.2966   53.3575   29.6517 H   0  0  0  0  0  0
   39.4993   52.5767   31.0140 H   0  0  0  0  0  0
   39.0636   54.2244   30.5510 H   0  0  0  0  0  0
   42.5173   53.0616   30.5785 H   0  0  0  0  0  0
   42.8612   53.5693   32.2243 H   0  0  0  0  0  0
   41.8083   52.1783   31.9238 H   0  0  0  0  0  0
  1  2  2  0  0  0
  1  5  1  0  0  0
  1  8  1  0  0  0
  2  3  1  0  0  0
  2  6  1  0  0  0
  3  4  1  0  0  0
  3 21  2  0  0  0
  4  5  1  0  0  0
  4 32  1  0  0  0
  5 22  2  0  0  0
  6  7  1  0  0  0
  6 33  1  0  0  0
  7 23  2  0  0  0
  7 27  1  0  0  0
  8 10  1  0  0  0
  8 15  2  0  0  0
  9 16  1  0  0  0
  9 10  2  0  0  0
  9 14  1  0  0  0
 10 11  1  0  0  0
 11 12  2  0  0  0
 11 34  1  0  0  0
 12 13  1  0  0  0
 12 35  1  0  0  0
 13 14  2  0  0  0
 13 36  1  0  0  0
 14 37  1  0  0  0
 15 16  1  0  0  0
 15 20  1  0  0  0
 16 17  1  0  0  0
 17 18  1  0  0  0
 17 38  1  0  0  0
 17 39  1  0  0  0
 18 19  1  0  0  0
 18 40  1  0  0  0
 18 41  1  0  0  0
 19 20  1  0  0  0
 19 28  1  0  0  0
 19 42  1  0  0  0
 20 43  1  0  0  0
 20 44  1  0  0  0
 23 24  1  0  0  0
 23 45  1  0  0  0
 24 25  2  0  0  0
 24 46  1  0  0  0
 25 26  1  0  0  0
 25 47  1  0  0  0
 26 27  2  0  0  0
 26 48  1  0  0  0
 27 49  1  0  0  0
 28 29  1  0  0  0
 28 50  1  0  0  0
 28 51  1  0  0  0
 29 30  1  0  0  0
 29 31  1  0  0  0
 30 52  1  0  0  0
 30 53  1  0  0  0
 30 54  1  0  0  0
 31 55  1  0  0  0
 31 56  1  0  0  0
 31 57  1  0  0  0
M  END
> <s_m_entry_id>
3422

> <s_m_entry_name>
dock_pv.151

> <s_m_Source_Path>
/home/csk/Desktop/cluster/DUD-E-result/kpcb

> <s_m_Source_File>
dock_pv.maegz

> <i_m_Source_File_Index>
151

> <chembl_id>
CHEMBL2236799

> <chembl_pref_name>
None

> <i_lp_mmshare_version>
53161

> <i_f3d_flags>
0

> <r_lp_tautomer_probability>
0.999999999997686

> <s_lp_Force_Field>
OPLS_2005

> <r_lp_Energy>
43.790324

> <b_lp_Chiralities_Consistent>
1

> <s_lp_Variant>
CHEMBL3045_lig369-1

> <s_i_glide_gridfile>
glide-grid_2i0e

> <i_i_glide_lignum>
533

> <i_i_glide_rotatable_bonds>
5

> <r_i_docking_score>
-7.73696449329953

> <r_i_glide_ligand_efficiency>
-0.249579499783856

> <r_i_glide_ligand_efficiency_sa>
-0.784024210957084

> <r_i_glide_ligand_efficiency_ln>
-1.74492260272499

> <r_i_glide_gscore>
-7.73696449329953

> <r_i_glide_lipo>
-2.33850284923061

> <r_i_glide_hbond>
-0.459524463637837

> <r_i_glide_metal>
0

> <r_i_glide_rewards>
-2.42738086205545

> <r_i_glide_evdw>
-42.5871772766113

> <r_i_glide_ecoul>
-4.69247198104858

> <r_i_glide_erotb>
0.321673342612222

> <r_i_glide_esite>
0

> <r_i_glide_emodel>
-66.9302411960893

> <r_i_glide_energy>
-47.2796492576599

> <r_i_glide_einternal>
9.18006992340088

> <i_i_glide_confnum>
7

> <i_i_glide_posenum>
261

> <r_i_glide_eff_state_penalty>
0

> <s_user_duplicate_titles>
CHEMBL3045_lig369

> <s_m_subgroup_title>
dock_pv

> <s_m_subgroupid>
dock_pv

> <b_m_subgroup_collapsed>
1

$$$$
CHEMBL3045_lig536
                    3D
 Schrodinger Suite 2021-1.
 64 68  0  0  1  0            999 V2000
   40.6872   52.6542   35.9162 C   0  0  0  0  0  0
   39.7127   52.9462   34.7641 C   0  0  0  0  0  0
   39.8781   54.3528   34.1274 C   0  0  1  0  0  0
   41.2332   54.5532   33.3987 C   0  0  0  0  0  0
   41.2797   53.7359   32.2097 N   0  0  2  0  0  0
   42.4791   53.7285   31.3952 C   0  0  0  0  0  0
   42.0234   53.0637   30.0940 C   0  0  0  0  0  0
   40.5178   53.3598   30.0364 C   0  0  0  0  0  0
   40.2604   54.1847   31.2887 C   0  0  1  0  0  0
   38.8319   54.0862   31.8588 C   0  0  0  0  0  0
   38.7562   54.7412   33.2014 N   0  0  0  0  0  0
   37.4885   55.1775   33.5627 C   0  0  0  0  0  0
   36.5710   55.1587   32.7322 O   0  0  0  0  0  0
   37.1923   55.6602   34.8164 N   0  0  0  0  0  0
   38.1699   55.8789   35.8929 C   0  0  0  0  0  0
   37.3927   56.3574   37.0464 C   0  0  0  0  0  0
   37.4955   56.6367   38.4090 C   0  0  0  0  0  0
   38.5914   56.5016   39.2371 N   0  0  0  0  0  0
   39.8854   56.6128   38.8641 C   0  0  0  0  0  0
   40.2691   56.9501   37.7414 O   0  0  0  0  0  0
   40.8992   56.2691   39.9284 C   0  0  0  0  0  0
   42.0618   55.5717   39.5669 C   0  0  0  0  0  0
   42.9939   55.2064   40.5333 C   0  0  0  0  0  0
   42.7784   55.5509   41.8658 C   0  0  0  0  0  0
   43.6814   55.1917   42.8046 F   0  0  0  0  0  0
   41.6387   56.2585   42.2380 C   0  0  0  0  0  0
   40.7011   56.6195   41.2731 C   0  0  0  0  0  0
   36.3003   56.8980   38.8900 N   0  0  0  0  0  0
   35.4511   56.7720   37.8583 N   0  0  0  0  0  0
   36.1007   56.4693   36.6985 C   0  0  0  0  0  0
   35.8318   56.1384   35.2565 C   0  0  0  0  0  0
   34.7321   55.0561   35.2007 C   0  0  0  0  0  0
   35.3791   57.4075   34.4992 C   0  0  0  0  0  0
   40.4856   51.6749   36.3504 H   0  0  0  0  0  0
   41.7229   52.6386   35.5738 H   0  0  0  0  0  0
   40.6032   53.3946   36.7138 H   0  0  0  0  0  0
   38.6975   52.8426   35.1466 H   0  0  0  0  0  0
   39.8207   52.1774   33.9977 H   0  0  0  0  0  0
   40.0391   55.0739   34.9115 H   0  0  0  0  0  0
   41.3553   55.6028   33.1186 H   0  0  0  0  0  0
   42.0711   54.3224   34.0576 H   0  0  0  0  0  0
   42.8877   54.7311   31.2523 H   0  0  0  0  0  0
   43.2545   53.1722   31.9214 H   0  0  0  0  0  0
   42.5590   53.4709   29.2371 H   0  0  0  0  0  0
   42.2173   51.9909   30.1248 H   0  0  0  0  0  0
   39.9056   52.4560   30.0206 H   0  0  0  0  0  0
   40.3004   53.9679   29.1626 H   0  0  0  0  0  0
   40.3831   55.2421   31.0382 H   0  0  0  0  0  0
   38.6522   53.0228   32.0202 H   0  0  0  0  0  0
   38.1474   54.4807   31.1060 H   0  0  0  0  0  0
   38.9282   56.6017   35.5931 H   0  0  0  0  0  0
   38.6256   54.9422   36.2059 H   0  0  0  0  0  0
   38.3951   56.3763   40.2233 H   0  0  0  0  0  0
   42.2408   55.2917   38.5366 H   0  0  0  0  0  0
   43.8817   54.6560   40.2531 H   0  0  0  0  0  0
   41.4835   56.5260   43.2736 H   0  0  0  0  0  0
   39.8286   57.1719   41.5854 H   0  0  0  0  0  0
   34.4499   56.8947   37.9597 H   0  0  0  0  0  0
   33.8051   55.4103   35.6536 H   0  0  0  0  0  0
   34.4871   54.7719   34.1788 H   0  0  0  0  0  0
   35.0296   54.1611   35.7450 H   0  0  0  0  0  0
   34.4923   57.8505   34.9543 H   0  0  0  0  0  0
   36.1572   58.1660   34.4946 H   0  0  0  0  0  0
   35.1302   57.1932   33.4603 H   0  0  0  0  0  0
  1  2  1  0  0  0
  1 34  1  0  0  0
  1 35  1  0  0  0
  1 36  1  0  0  0
  2  3  1  0  0  0
  2 37  1  0  0  0
  2 38  1  0  0  0
  3  4  1  0  0  0
  3 11  1  0  0  0
  3 39  1  0  0  0
  4  5  1  0  0  0
  4 40  1  0  0  0
  4 41  1  0  0  0
  5  6  1  0  0  0
  5  9  1  0  0  0
  6  7  1  0  0  0
  6 42  1  0  0  0
  6 43  1  0  0  0
  7  8  1  0  0  0
  7 44  1  0  0  0
  7 45  1  0  0  0
  8  9  1  0  0  0
  8 46  1  0  0  0
  8 47  1  0  0  0
  9 10  1  0  0  0
  9 48  1  0  0  0
 10 11  1  0  0  0
 10 49  1  0  0  0
 10 50  1  0  0  0
 11 12  1  0  0  0
 12 13  2  0  0  0
 12 14  1  0  0  0
 14 15  1  0  0  0
 14 31  1  0  0  0
 15 16  1  0  0  0
 15 51  1  0  0  0
 15 52  1  0  0  0
 16 17  1  0  0  0
 16 30  2  0  0  0
 17 18  1  0  0  0
 17 28  2  0  0  0
 18 19  1  0  0  0
 18 53  1  0  0  0
 19 20  2  0  0  0
 19 21  1  0  0  0
 21 22  2  0  0  0
 21 27  1  0  0  0
 22 23  1  0  0  0
 22 54  1  0  0  0
 23 24  2  0  0  0
 23 55  1  0  0  0
 24 25  1  0  0  0
 24 26  1  0  0  0
 26 27  2  0  0  0
 26 56  1  0  0  0
 27 57  1  0  0  0
 28 29  1  0  0  0
 29 30  1  0  0  0
 29 58  1  0  0  0
 30 31  1  0  0  0
 31 32  1  0  0  0
 31 33  1  0  0  0
 32 59  1  0  0  0
 32 60  1  0  0  0
 32 61  1  0  0  0
 33 62  1  0  0  0
 33 63  1  0  0  0
 33 64  1  0  0  0
M  END
> <s_m_entry_id>
3423

> <s_m_entry_name>
dock_pv.152

> <s_m_Source_Path>
/home/csk/Desktop/cluster/DUD-E-result/kpcb

> <s_m_Source_File>
dock_pv.maegz

> <i_m_Source_File_Index>
152

> <chembl_id>
CHEMBL3662785

> <chembl_pref_name>
None

> <i_lp_mmshare_version>
53161

> <i_f3d_flags>
0

> <r_lp_tautomer_probability>
0.5

> <s_lp_Force_Field>
OPLS_2005

> <r_lp_Energy>
117.785155

> <b_lp_Chiralities_Consistent>
1

> <s_lp_Variant>
CHEMBL3045_lig536-1

> <s_i_glide_gridfile>
glide-grid_2i0e

> <i_i_glide_lignum>
808

> <i_i_glide_rotatable_bonds>
6

> <r_i_docking_score>
-7.73530626468913

> <r_i_glide_ligand_efficiency>
-0.234403220142095

> <r_i_glide_ligand_efficiency_sa>
-0.751856374791048

> <r_i_glide_ligand_efficiency_ln>
-1.72029206199452

> <r_i_glide_gscore>
-7.73530626468913

> <r_i_glide_lipo>
-2.03997085047094

> <r_i_glide_hbond>
-0.862628194555748

> <r_i_glide_metal>
0

> <r_i_glide_rewards>
-1.90766323808304

> <r_i_glide_evdw>
-45.3702850341797

> <r_i_glide_ecoul>
-6.62082815170288

> <r_i_glide_erotb>
0.340195485955053

> <r_i_glide_esite>
-0.00360099307003614

> <r_i_glide_emodel>
-70.448185695167

> <r_i_glide_energy>
-51.9911131858826

> <r_i_glide_einternal>
9.97733211517334

> <i_i_glide_confnum>
32

> <i_i_glide_posenum>
367

> <r_i_glide_eff_state_penalty>
0

> <s_user_duplicate_titles>
CHEMBL3045_lig536

> <s_m_subgroup_title>
dock_pv

> <s_m_subgroupid>
dock_pv

> <b_m_subgroup_collapsed>
1

$$$$
CHEMBL3045_lig621
                    3D
 Schrodinger Suite 2021-1.
 61 65  0  0  1  0            999 V2000
   34.5800   55.1769   35.1686 C   0  0  0  0  0  0
   35.6502   56.2909   35.2075 C   0  0  0  0  0  0
   35.1103   57.6028   34.6011 C   0  0  0  0  0  0
   36.9551   55.8898   34.5932 N   0  0  0  0  0  0
   38.0610   56.0085   35.5769 C   0  0  0  0  0  0
   37.3783   56.3353   36.8679 C   0  0  0  0  0  0
   37.5681   56.5248   38.2525 C   0  0  0  0  0  0
   38.7032   56.3721   39.0289 N   0  0  0  0  0  0
   39.9821   56.3807   38.5919 C   0  0  0  0  0  0
   40.3157   56.6413   37.4339 O   0  0  0  0  0  0
   41.0378   56.0498   39.6268 C   0  0  0  0  0  0
   42.3194   55.6429   39.2230 C   0  0  0  0  0  0
   43.2618   55.2954   40.1928 C   0  0  0  0  0  0
   42.9186   55.3698   41.5430 C   0  0  0  0  0  0
   41.6317   55.7905   41.8793 C   0  0  0  0  0  0
   40.7018   56.1247   40.9491 N   0  0  0  0  0  0
   36.4129   56.7723   38.8368 N   0  0  0  0  0  0
   35.5001   56.7611   37.8574 N   0  0  0  0  0  0
   36.0581   56.5000   36.6393 C   0  0  0  0  0  0
   37.0975   55.5203   33.2783 C   0  0  0  0  0  0
   36.1231   55.5389   32.5204 O   0  0  0  0  0  0
   38.4578   55.0278   32.6727 C   0  0  0  0  0  0
   38.3000   54.7719   31.3683 F   0  0  0  0  0  0
   39.5641   56.1203   32.6960 C   0  0  0  0  0  0
   40.9808   55.5486   32.5041 C   0  0  0  0  0  0
   41.2162   54.4625   33.4606 N   0  0  1  0  0  0
   40.3653   53.3206   33.1040 C   0  0  0  0  0  0
   38.8780   53.6711   33.3133 C   0  0  0  0  0  0
   42.6280   54.0786   33.5090 C   0  0  0  0  0  0
   43.6232   55.1070   34.0788 C   0  0  0  0  0  0
   44.4194   53.9146   34.6298 C   0  0  0  0  0  0
   43.0778   53.1722   34.6698 C   0  0  0  0  0  0
   33.6770   55.4775   35.7017 H   0  0  0  0  0  0
   34.2749   54.9280   34.1527 H   0  0  0  0  0  0
   34.9421   54.2664   35.6430 H   0  0  0  0  0  0
   34.3009   58.0125   35.2040 H   0  0  0  0  0  0
   35.8909   58.3614   34.5396 H   0  0  0  0  0  0
   34.7192   57.4549   33.5942 H   0  0  0  0  0  0
   38.7146   56.8425   35.3365 H   0  0  0  0  0  0
   38.6740   55.1156   35.6688 H   0  0  0  0  0  0
   38.5605   56.3118   40.0283 H   0  0  0  0  0  0
   42.5818   55.5742   38.1759 H   0  0  0  0  0  0
   44.2476   54.9659   39.8953 H   0  0  0  0  0  0
   43.6340   55.1071   42.3084 H   0  0  0  0  0  0
   41.3255   55.8625   42.9127 H   0  0  0  0  0  0
   34.5124   56.9070   38.0340 H   0  0  0  0  0  0
   39.3779   56.8246   31.8842 H   0  0  0  0  0  0
   39.5759   56.7538   33.5728 H   0  0  0  0  0  0
   41.1800   55.2350   31.4769 H   0  0  0  0  0  0
   41.6815   56.3562   32.7205 H   0  0  0  0  0  0
   40.5777   52.9555   32.0965 H   0  0  0  0  0  0
   40.6011   52.4959   33.7797 H   0  0  0  0  0  0
   38.6463   53.5781   34.3709 H   0  0  0  0  0  0
   38.2831   52.8734   32.8638 H   0  0  0  0  0  0
   42.9416   53.6914   32.5348 H   0  0  0  0  0  0
   44.1164   55.7452   33.3460 H   0  0  0  0  0  0
   43.2066   55.7367   34.8696 H   0  0  0  0  0  0
   45.1379   53.4860   33.9267 H   0  0  0  0  0  0
   44.9042   54.0655   35.5950 H   0  0  0  0  0  0
   42.5305   53.3333   35.6018 H   0  0  0  0  0  0
   43.0992   52.1026   34.4545 H   0  0  0  0  0  0
  1  2  1  0  0  0
  1 33  1  0  0  0
  1 34  1  0  0  0
  1 35  1  0  0  0
  2  3  1  0  0  0
  2  4  1  0  0  0
  2 19  1  0  0  0
  3 36  1  0  0  0
  3 37  1  0  0  0
  3 38  1  0  0  0
  4  5  1  0  0  0
  4 20  1  0  0  0
  5 39  1  0  0  0
  5 40  1  0  0  0
  5  6  1  0  0  0
  6 19  2  0  0  0
  6  7  1  0  0  0
  7  8  1  0  0  0
  7 17  2  0  0  0
  8  9  1  0  0  0
  8 41  1  0  0  0
  9 10  2  0  0  0
  9 11  1  0  0  0
 11 12  2  0  0  0
 11 16  1  0  0  0
 12 13  1  0  0  0
 12 42  1  0  0  0
 13 14  2  0  0  0
 13 43  1  0  0  0
 14 15  1  0  0  0
 14 44  1  0  0  0
 15 16  2  0  0  0
 15 45  1  0  0  0
 17 18  1  0  0  0
 18 46  1  0  0  0
 18 19  1  0  0  0
 20 21  2  0  0  0
 20 22  1  0  0  0
 22 23  1  0  0  0
 22 24  1  0  0  0
 22 28  1  0  0  0
 24 25  1  0  0  0
 24 47  1  0  0  0
 24 48  1  0  0  0
 25 26  1  0  0  0
 25 49  1  0  0  0
 25 50  1  0  0  0
 26 27  1  0  0  0
 26 29  1  0  0  0
 27 28  1  0  0  0
 27 51  1  0  0  0
 27 52  1  0  0  0
 28 53  1  0  0  0
 28 54  1  0  0  0
 29 30  1  0  0  0
 29 32  1  0  0  0
 29 55  1  0  0  0
 30 31  1  0  0  0
 30 56  1  0  0  0
 30 57  1  0  0  0
 31 32  1  0  0  0
 31 58  1  0  0  0
 31 59  1  0  0  0
 32 60  1  0  0  0
 32 61  1  0  0  0
M  END
> <s_m_entry_id>
3424

> <s_m_entry_name>
dock_pv.153

> <s_m_Source_Path>
/home/csk/Desktop/cluster/DUD-E-result/kpcb

> <s_m_Source_File>
dock_pv.maegz

> <i_m_Source_File_Index>
153

> <chembl_id>
CHEMBL3662870

> <chembl_pref_name>
None

> <i_lp_mmshare_version>
53161

> <i_f3d_flags>
0

> <r_lp_tautomer_probability>
0.5

> <s_lp_Force_Field>
OPLS_2005

> <r_lp_Energy>
68.509475

> <b_lp_Chiralities_Consistent>
1

> <s_lp_Variant>
CHEMBL3045_lig621-2

> <s_i_glide_gridfile>
glide-grid_2i0e

> <i_i_glide_lignum>
1011

> <i_i_glide_rotatable_bonds>
6

> <r_i_docking_score>
-7.73003444811435

> <r_i_glide_ligand_efficiency>
-0.241563576503573

> <r_i_glide_ligand_efficiency_sa>
-0.76691655003197

> <r_i_glide_ligand_efficiency_ln>
-1.73096542571363

> <r_i_glide_gscore>
-7.73003444811435

> <r_i_glide_lipo>
-2.10668282272771

> <r_i_glide_hbond>
-0.819878200112446

> <r_i_glide_metal>
0

> <r_i_glide_rewards>
-1.93797717572504

> <r_i_glide_evdw>
-49.5937423706055

> <r_i_glide_ecoul>
-5.41225051879883

> <r_i_glide_erotb>
0.432164547045546

> <r_i_glide_esite>
-0.00613610024459576

> <r_i_glide_emodel>
-74.9252589801247

> <r_i_glide_energy>
-55.0059928894043

> <r_i_glide_einternal>
7.02294301986694

> <i_i_glide_confnum>
33

> <i_i_glide_posenum>
359

> <r_i_glide_eff_state_penalty>
0

> <s_user_duplicate_titles>
CHEMBL3045_lig621

> <s_m_subgroup_title>
dock_pv

> <s_m_subgroupid>
dock_pv

> <b_m_subgroup_collapsed>
1

$$$$
CHEMBL3045_lig240
                    3D
 Schrodinger Suite 2021-1.
 40 43  0  0  1  0            999 V2000
   37.1370   56.3891   37.0916 C   0  0  0  0  0  0
   36.5102   55.8408   36.0292 C   0  0  0  0  0  0
   38.5638   56.6614   37.2969 C   0  0  0  0  0  0
   36.1548   56.6999   38.0944 C   0  0  0  0  0  0
   34.9896   56.3746   37.5395 N   0  0  0  0  0  0
   35.1006   55.9010   36.2975 C   0  0  0  0  0  0
   39.2592   56.5053   38.4867 C   0  0  0  0  0  0
   39.5441   57.0361   36.3057 C   0  0  0  0  0  0
   40.6021   56.6727   38.2627 N   0  0  0  0  0  0
   36.9463   55.2909   34.8283 N   0  0  0  0  0  0
   40.8257   56.9683   36.9343 C   0  0  0  0  0  0
   36.3019   57.1668   39.2253 O   0  0  0  0  0  0
   34.1652   55.5762   35.5663 O   0  0  0  0  0  0
   38.0655   54.4781   34.5554 C   0  0  0  0  0  0
   38.9511   54.0438   35.5465 C   0  0  0  0  0  0
   40.1102   53.3380   35.2376 C   0  0  0  0  0  0
   39.4876   57.3861   34.9441 C   0  0  0  0  0  0
   40.9697   53.1018   36.2911 O   0  0  0  0  0  0
   39.4166   53.3112   32.9123 C   0  0  0  0  0  0
   38.3010   54.0861   33.2338 C   0  0  0  0  0  0
   42.0160   57.1708   36.2292 C   0  0  0  0  0  0
   40.3268   52.9540   33.9069 C   0  0  0  0  0  0
   42.2991   52.6549   36.0358 C   0  0  0  0  0  0
   40.6695   57.6024   34.2433 C   0  0  0  0  0  0
   41.9029   57.4799   34.8717 C   0  0  0  0  0  0
   34.0997   56.5167   38.0007 H   0  0  0  0  0  0
   38.9084   56.2239   39.4721 H   0  0  0  0  0  0
   41.2941   56.5478   38.9877 H   0  0  0  0  0  0
   36.2900   55.2948   34.0599 H   0  0  0  0  0  0
   38.7806   54.2914   36.5786 H   0  0  0  0  0  0
   38.5379   57.4572   34.4367 H   0  0  0  0  0  0
   39.5891   53.0021   31.8911 H   0  0  0  0  0  0
   37.6262   54.3830   32.4443 H   0  0  0  0  0  0
   42.9840   57.0984   36.7026 H   0  0  0  0  0  0
   41.1927   52.3721   33.6259 H   0  0  0  0  0  0
   42.9437   53.0030   36.8411 H   0  0  0  0  0  0
   42.3463   51.5690   36.0372 H   0  0  0  0  0  0
   42.7298   53.0405   35.1112 H   0  0  0  0  0  0
   40.6295   57.8494   33.1906 H   0  0  0  0  0  0
   42.8044   57.6410   34.2974 H   0  0  0  0  0  0
  1  2  2  0  0  0
  1  3  1  0  0  0
  1  4  1  0  0  0
  2  6  1  0  0  0
  2 10  1  0  0  0
  3  7  2  0  0  0
  3  8  1  0  0  0
  4  5  1  0  0  0
  4 12  2  0  0  0
  5  6  1  0  0  0
  5 26  1  0  0  0
  6 13  2  0  0  0
  7  9  1  0  0  0
  7 27  1  0  0  0
  8 11  2  0  0  0
  8 17  1  0  0  0
  9 11  1  0  0  0
  9 28  1  0  0  0
 10 14  1  0  0  0
 10 29  1  0  0  0
 11 21  1  0  0  0
 14 15  2  0  0  0
 14 20  1  0  0  0
 15 16  1  0  0  0
 15 30  1  0  0  0
 16 18  1  0  0  0
 16 22  2  0  0  0
 17 24  2  0  0  0
 17 31  1  0  0  0
 18 23  1  0  0  0
 19 20  2  0  0  0
 19 22  1  0  0  0
 19 32  1  0  0  0
 20 33  1  0  0  0
 21 25  2  0  0  0
 21 34  1  0  0  0
 22 35  1  0  0  0
 23 36  1  0  0  0
 23 37  1  0  0  0
 23 38  1  0  0  0
 24 25  1  0  0  0
 24 39  1  0  0  0
 25 40  1  0  0  0
M  END
> <s_m_entry_id>
3425

> <s_m_entry_name>
dock_pv.154

> <s_m_Source_Path>
/home/csk/Desktop/cluster/DUD-E-result/kpcb

> <s_m_Source_File>
dock_pv.maegz

> <i_m_Source_File_Index>
154

> <chembl_id>
CHEMBL186901

> <chembl_pref_name>
None

> <i_lp_mmshare_version>
53161

> <i_f3d_flags>
0

> <r_lp_tautomer_probability>
0.999999999997686

> <s_lp_Force_Field>
OPLS_2005

> <r_lp_Energy>
33.164378

> <b_lp_Chiralities_Consistent>
1

> <s_lp_Variant>
CHEMBL3045_lig240-1

> <s_i_glide_gridfile>
glide-grid_2i0e

> <i_i_glide_lignum>
398

> <i_i_glide_rotatable_bonds>
4

> <r_i_docking_score>
-7.71652367305449

> <r_i_glide_ligand_efficiency>
-0.30866094692218

> <r_i_glide_ligand_efficiency_sa>
-0.902530082925656

> <r_i_glide_ligand_efficiency_ln>
-1.82904735606803

> <r_i_glide_gscore>
-7.71652367305449

> <r_i_glide_lipo>
-1.50972937730319

> <r_i_glide_hbond>
-0.608

> <r_i_glide_metal>
0

> <r_i_glide_rewards>
-2.80232294033068

> <r_i_glide_evdw>
-38.8200416564941

> <r_i_glide_ecoul>
-8.07765102386475

> <r_i_glide_erotb>
0.356178380983795

> <r_i_glide_esite>
0

> <r_i_glide_emodel>
-69.4288711609427

> <r_i_glide_energy>
-46.8976926803589

> <r_i_glide_einternal>
2.96970415115356

> <i_i_glide_confnum>
27

> <i_i_glide_posenum>
271

> <r_i_glide_eff_state_penalty>
0

> <s_user_duplicate_titles>
CHEMBL3045_lig240,309059

> <s_m_subgroup_title>
dock_pv

> <s_m_subgroupid>
dock_pv

> <b_m_subgroup_collapsed>
1

$$$$
CHEMBL3045_lig534
                    3D
 Schrodinger Suite 2021-1.
 64 68  0  0  1  0            999 V2000
   40.6277   52.6304   35.8993 C   0  0  0  0  0  0
   39.6778   52.9160   34.7228 C   0  0  0  0  0  0
   39.8400   54.3305   34.1007 C   0  0  1  0  0  0
   41.1983   54.5439   33.3819 C   0  0  0  0  0  0
   41.2652   53.7295   32.1894 N   0  0  2  0  0  0
   42.4721   53.7398   31.3832 C   0  0  0  0  0  0
   42.0408   53.1014   30.0627 C   0  0  0  0  0  0
   40.5288   53.3563   30.0108 C   0  0  0  0  0  0
   40.2476   54.1719   31.2639 C   0  0  1  0  0  0
   38.8146   54.0543   31.8289 C   0  0  0  0  0  0
   38.7221   54.7172   33.1686 N   0  0  0  0  0  0
   37.4563   55.1719   33.5152 C   0  0  0  0  0  0
   36.5507   55.1676   32.6706 O   0  0  0  0  0  0
   37.1468   55.6501   34.7675 N   0  0  0  0  0  0
   38.1068   55.8264   35.8633 C   0  0  0  0  0  0
   37.3284   56.2986   37.0182 C   0  0  0  0  0  0
   37.4199   56.5527   38.3879 C   0  0  0  0  0  0
   38.5061   56.3883   39.2361 N   0  0  0  0  0  0
   39.8061   56.3843   38.8583 C   0  0  0  0  0  0
   40.2110   56.6385   37.7217 O   0  0  0  0  0  0
   40.8148   56.0446   39.9271 C   0  0  0  0  0  0
   41.9109   55.2288   39.6049 C   0  0  0  0  0  0
   42.8640   54.9038   40.5697 C   0  0  0  0  0  0
   42.7395   55.4012   41.8660 C   0  0  0  0  0  0
   41.6590   56.2150   42.2004 C   0  0  0  0  0  0
   41.5041   56.8290   43.8037 Cl  0  0  0  0  0  0
   40.7010   56.5336   41.2379 C   0  0  0  0  0  0
   36.2226   56.8466   38.8462 N   0  0  0  0  0  0
   35.3875   56.7720   37.7971 N   0  0  0  0  0  0
   36.0446   56.4545   36.6470 C   0  0  0  0  0  0
   35.7849   56.1373   35.1969 C   0  0  0  0  0  0
   34.6808   55.0586   35.1281 C   0  0  0  0  0  0
   35.3362   57.4149   34.4502 C   0  0  0  0  0  0
   40.4365   51.6397   36.3159 H   0  0  0  0  0  0
   41.6731   52.6485   35.5882 H   0  0  0  0  0  0
   40.5010   53.3581   36.7029 H   0  0  0  0  0  0
   38.6547   52.7922   35.0816 H   0  0  0  0  0  0
   39.8142   52.1497   33.9566 H   0  0  0  0  0  0
   39.9819   55.0410   34.8939 H   0  0  0  0  0  0
   41.3075   55.5949   33.1087 H   0  0  0  0  0  0
   42.0343   54.3179   34.0465 H   0  0  0  0  0  0
   42.8824   54.7443   31.2637 H   0  0  0  0  0  0
   43.2455   53.1749   31.9013 H   0  0  0  0  0  0
   42.5571   53.5573   29.2189 H   0  0  0  0  0  0
   42.2638   52.0342   30.0602 H   0  0  0  0  0  0
   39.9471   52.4344   29.9762 H   0  0  0  0  0  0
   40.3005   53.9584   29.1365 H   0  0  0  0  0  0
   40.3579   55.2334   31.0161 H   0  0  0  0  0  0
   38.6502   52.9887   31.9943 H   0  0  0  0  0  0
   38.1214   54.4286   31.0745 H   0  0  0  0  0  0
   38.8824   56.5375   35.5827 H   0  0  0  0  0  0
   38.5411   54.8746   36.1585 H   0  0  0  0  0  0
   38.3025   56.3096   40.2238 H   0  0  0  0  0  0
   42.0290   54.8343   38.6041 H   0  0  0  0  0  0
   43.6991   54.2704   40.3059 H   0  0  0  0  0  0
   43.4809   55.1544   42.6129 H   0  0  0  0  0  0
   39.8757   57.1706   41.5193 H   0  0  0  0  0  0
   34.3901   56.9251   37.8879 H   0  0  0  0  0  0
   33.7459   55.4169   35.5642 H   0  0  0  0  0  0
   34.4535   54.7729   34.1013 H   0  0  0  0  0  0
   34.9648   54.1647   35.6842 H   0  0  0  0  0  0
   34.4138   57.8192   34.8722 H   0  0  0  0  0  0
   36.0910   58.1977   34.5039 H   0  0  0  0  0  0
   35.1440   57.2201   33.3950 H   0  0  0  0  0  0
  1  2  1  0  0  0
  1 34  1  0  0  0
  1 35  1  0  0  0
  1 36  1  0  0  0
  2  3  1  0  0  0
  2 37  1  0  0  0
  2 38  1  0  0  0
  3  4  1  0  0  0
  3 11  1  0  0  0
  3 39  1  0  0  0
  4  5  1  0  0  0
  4 40  1  0  0  0
  4 41  1  0  0  0
  5  6  1  0  0  0
  5  9  1  0  0  0
  6  7  1  0  0  0
  6 42  1  0  0  0
  6 43  1  0  0  0
  7  8  1  0  0  0
  7 44  1  0  0  0
  7 45  1  0  0  0
  8  9  1  0  0  0
  8 46  1  0  0  0
  8 47  1  0  0  0
  9 10  1  0  0  0
  9 48  1  0  0  0
 10 11  1  0  0  0
 10 49  1  0  0  0
 10 50  1  0  0  0
 11 12  1  0  0  0
 12 13  2  0  0  0
 12 14  1  0  0  0
 14 15  1  0  0  0
 14 31  1  0  0  0
 15 16  1  0  0  0
 15 51  1  0  0  0
 15 52  1  0  0  0
 16 17  1  0  0  0
 16 30  2  0  0  0
 17 18  1  0  0  0
 17 28  2  0  0  0
 18 19  1  0  0  0
 18 53  1  0  0  0
 19 20  2  0  0  0
 19 21  1  0  0  0
 21 22  2  0  0  0
 21 27  1  0  0  0
 22 23  1  0  0  0
 22 54  1  0  0  0
 23 24  2  0  0  0
 23 55  1  0  0  0
 24 25  1  0  0  0
 24 56  1  0  0  0
 25 26  1  0  0  0
 25 27  2  0  0  0
 27 57  1  0  0  0
 28 29  1  0  0  0
 29 30  1  0  0  0
 29 58  1  0  0  0
 30 31  1  0  0  0
 31 32  1  0  0  0
 31 33  1  0  0  0
 32 59  1  0  0  0
 32 60  1  0  0  0
 32 61  1  0  0  0
 33 62  1  0  0  0
 33 63  1  0  0  0
 33 64  1  0  0  0
M  END
> <s_m_entry_id>
3426

> <s_m_entry_name>
dock_pv.155

> <s_m_Source_Path>
/home/csk/Desktop/cluster/DUD-E-result/kpcb

> <s_m_Source_File>
dock_pv.maegz

> <i_m_Source_File_Index>
155

> <chembl_id>
CHEMBL3662783

> <chembl_pref_name>
None

> <i_lp_mmshare_version>
53161

> <i_f3d_flags>
0

> <r_lp_tautomer_probability>
0.5

> <s_lp_Force_Field>
OPLS_2005

> <r_lp_Energy>
117.408469

> <b_lp_Chiralities_Consistent>
1

> <s_lp_Variant>
CHEMBL3045_lig534-1

> <s_i_glide_gridfile>
glide-grid_2i0e

> <i_i_glide_lignum>
804

> <i_i_glide_rotatable_bonds>
6

> <r_i_docking_score>
-7.71363909041674

> <r_i_glide_ligand_efficiency>
-0.233746639103538

> <r_i_glide_ligand_efficiency_sa>
-0.749750368571906

> <r_i_glide_ligand_efficiency_ln>
-1.71547339462297

> <r_i_glide_gscore>
-7.71363909041674

> <r_i_glide_lipo>
-2.22338559352121

> <r_i_glide_hbond>
-0.86343017832556

> <r_i_glide_metal>
0

> <r_i_glide_rewards>
-1.68970784961843

> <r_i_glide_evdw>
-46.3281707763672

> <r_i_glide_ecoul>
-6.21688985824585

> <r_i_glide_erotb>
0.318849787890901

> <r_i_glide_esite>
-0.00702323928719919

> <r_i_glide_emodel>
-71.0918193637497

> <r_i_glide_energy>
-52.545060634613

> <r_i_glide_einternal>
9.88590526580811

> <i_i_glide_confnum>
42

> <i_i_glide_posenum>
196

> <r_i_glide_eff_state_penalty>
0

> <s_user_duplicate_titles>
CHEMBL3045_lig534

> <s_m_subgroup_title>
dock_pv

> <s_m_subgroupid>
dock_pv

> <b_m_subgroup_collapsed>
1

$$$$
CHEMBL3045_lig314
                    3D
 Schrodinger Suite 2021-1.
 34 36  0  0  1  0            999 V2000
   36.5036   56.8287   38.8370 N   0  0  0  0  0  0
   37.8116   56.4969   38.7264 C   0  0  0  0  0  0
   38.4074   56.1004   37.5288 C   0  0  0  0  0  0
   35.7450   56.7717   37.7175 C   0  0  0  0  0  0
   36.2305   56.3942   36.4469 C   0  0  0  0  0  0
   37.6085   56.0399   36.3533 C   0  0  0  0  0  0
   38.0919   55.6368   35.0836 C   0  0  0  0  0  0
   37.3072   55.5956   33.9759 N   0  0  0  0  0  0
   35.9942   55.9364   34.0737 C   0  0  0  0  0  0
   35.4239   56.3453   35.2859 C   0  0  0  0  0  0
   35.2000   55.8295   32.8128 C   0  0  0  0  0  0
   35.8069   55.9616   31.5496 C   0  0  0  0  0  0
   35.0313   55.8274   30.3989 C   0  0  0  0  0  0
   33.6999   55.5764   30.4370 N   0  0  0  0  0  0
   33.1100   55.4569   31.6465 C   0  0  0  0  0  0
   33.8199   55.5717   32.8433 C   0  0  0  0  0  0
   39.4182   55.2493   34.9807 O   0  0  0  0  0  0
   39.9734   54.7772   33.7467 C   0  0  0  0  0  0
   40.7842   53.5019   34.0326 C   0  0  0  0  0  0
   39.9008   52.3722   34.2788 N   0  0  0  0  0  0
   38.3926   56.5378   39.6367 H   0  0  0  0  0  0
   39.4521   55.8260   37.4919 H   0  0  0  0  0  0
   34.7027   57.0304   37.8365 H   0  0  0  0  0  0
   34.3836   56.6238   35.3564 H   0  0  0  0  0  0
   36.8665   56.1524   31.4600 H   0  0  0  0  0  0
   35.4757   55.9095   29.4173 H   0  0  0  0  0  0
   32.0451   55.2670   31.6372 H   0  0  0  0  0  0
   33.2947   55.4480   33.7799 H   0  0  0  0  0  0
   39.2521   54.5777   32.9524 H   0  0  0  0  0  0
   40.6380   55.5580   33.3749 H   0  0  0  0  0  0
   41.4309   53.2667   33.1830 H   0  0  0  0  0  0
   41.4325   53.6468   34.8990 H   0  0  0  0  0  0
   39.3653   52.1751   33.4433 H   0  0  0  0  0  0
   40.4762   51.5427   34.4366 H   0  0  0  0  0  0
  1  2  2  0  0  0
  1  4  1  0  0  0
  2  3  1  0  0  0
  2 21  1  0  0  0
  3  6  2  0  0  0
  3 22  1  0  0  0
  4  5  2  0  0  0
  4 23  1  0  0  0
  5 10  1  0  0  0
  5  6  1  0  0  0
  6  7  1  0  0  0
  7  8  2  0  0  0
  7 17  1  0  0  0
  8  9  1  0  0  0
  9 10  2  0  0  0
  9 11  1  0  0  0
 10 24  1  0  0  0
 11 12  2  0  0  0
 11 16  1  0  0  0
 12 13  1  0  0  0
 12 25  1  0  0  0
 13 14  2  0  0  0
 13 26  1  0  0  0
 14 15  1  0  0  0
 15 16  2  0  0  0
 15 27  1  0  0  0
 16 28  1  0  0  0
 17 18  1  0  0  0
 18 19  1  0  0  0
 18 29  1  0  0  0
 18 30  1  0  0  0
 19 20  1  0  0  0
 19 31  1  0  0  0
 19 32  1  0  0  0
 20 33  1  0  0  0
 20 34  1  0  0  0
M  END
> <s_m_entry_id>
3427

> <s_m_entry_name>
dock_pv.156

> <s_m_Source_Path>
/home/csk/Desktop/cluster/DUD-E-result/kpcb

> <s_m_Source_File>
dock_pv.maegz

> <i_m_Source_File_Index>
156

> <chembl_id>
CHEMBL2147536

> <chembl_pref_name>
None

> <i_lp_mmshare_version>
53161

> <i_f3d_flags>
0

> <r_lp_tautomer_probability>
1

> <s_lp_Force_Field>
OPLS_2005

> <r_lp_Energy>
14.080128

> <b_lp_Chiralities_Consistent>
1

> <s_lp_Variant>
CHEMBL3045_lig314-1

> <s_i_glide_gridfile>
glide-grid_2i0e

> <i_i_glide_lignum>
476

> <i_i_glide_rotatable_bonds>
4

> <r_i_docking_score>
-7.70824276968545

> <r_i_glide_ligand_efficiency>
-0.385412138484273

> <r_i_glide_ligand_efficiency_sa>
-1.04616949730654

> <r_i_glide_ligand_efficiency_ln>
-1.92911893039054

> <r_i_glide_gscore>
-7.70824276968545

> <r_i_glide_lipo>
-2.93715702962062

> <r_i_glide_hbond>
-0.574260822883527

> <r_i_glide_metal>
0

> <r_i_glide_rewards>
-2.34952967994461

> <r_i_glide_evdw>
-33.6656684875488

> <r_i_glide_ecoul>
-6.1167688369751

> <r_i_glide_erotb>
0.753503512687014

> <r_i_glide_esite>
0

> <r_i_glide_emodel>
-58.1820017637581

> <r_i_glide_energy>
-39.7824373245239

> <r_i_glide_einternal>
1.02759993076324

> <i_i_glide_confnum>
6

> <i_i_glide_posenum>
56

> <r_i_glide_eff_state_penalty>
0

> <s_user_duplicate_titles>
CHEMBL3045_lig314

> <s_m_subgroup_title>
dock_pv

> <s_m_subgroupid>
dock_pv

> <b_m_subgroup_collapsed>
1

$$$$
CHEMBL3045_lig316
                    3D
 Schrodinger Suite 2021-1.
 41 43  0  0  1  0            999 V2000
   39.1009   52.6474   34.1163 C   0  0  0  0  0  0
   40.3664   53.4426   33.7324 C   0  0  0  0  0  0
   40.9464   52.9189   32.4036 C   0  0  0  0  0  0
   36.5135   56.8008   38.8371 N   0  0  0  0  0  0
   37.8486   56.6240   38.7193 C   0  0  0  0  0  0
   38.4820   56.3120   37.5136 C   0  0  0  0  0  0
   35.7640   56.6768   37.7213 C   0  0  0  0  0  0
   36.2816   56.3653   36.4452 C   0  0  0  0  0  0
   37.6905   56.1649   36.3354 C   0  0  0  0  0  0
   38.1981   55.8162   35.0486 C   0  0  0  0  0  0
   37.3952   55.6988   33.9607 N   0  0  0  0  0  0
   36.0585   55.9102   34.0729 C   0  0  0  0  0  0
   35.4670   56.2440   35.2962 C   0  0  0  0  0  0
   35.2668   55.7852   32.8115 C   0  0  0  0  0  0
   33.8996   55.4550   32.8416 C   0  0  0  0  0  0
   33.1873   55.3660   31.6462 C   0  0  0  0  0  0
   33.7571   55.5736   30.4373 N   0  0  0  0  0  0
   35.0765   55.8765   30.3994 C   0  0  0  0  0  0
   35.8565   55.9910   31.5508 C   0  0  0  0  0  0
   39.5789   55.5990   34.8685 N   0  0  0  0  0  0
   40.1353   54.9795   33.6563 C   0  0  0  0  0  0
   41.3693   53.1720   34.7448 N   0  0  0  0  0  0
   38.3037   52.7950   33.3864 H   0  0  0  0  0  0
   38.7128   52.9430   35.0921 H   0  0  0  0  0  0
   39.3006   51.5762   34.1777 H   0  0  0  0  0  0
   40.2575   53.0900   31.5742 H   0  0  0  0  0  0
   41.8909   53.4054   32.1541 H   0  0  0  0  0  0
   41.1469   51.8458   32.4385 H   0  0  0  0  0  0
   38.4222   56.7169   39.6298 H   0  0  0  0  0  0
   39.5519   56.1703   37.4831 H   0  0  0  0  0  0
   34.7012   56.8283   37.8449 H   0  0  0  0  0  0
   34.4042   56.4194   35.3813 H   0  0  0  0  0  0
   33.3904   55.2671   33.7746 H   0  0  0  0  0  0
   32.1324   55.1308   31.6383 H   0  0  0  0  0  0
   35.5085   56.0151   29.4188 H   0  0  0  0  0  0
   36.9039   56.2346   31.4573 H   0  0  0  0  0  0
   40.1341   55.4880   35.7016 H   0  0  0  0  0  0
   41.0860   55.4750   33.4490 H   0  0  0  0  0  0
   39.5184   55.2082   32.7860 H   0  0  0  0  0  0
   40.9646   53.2912   35.6603 H   0  0  0  0  0  0
   41.6337   52.1947   34.6765 H   0  0  0  0  0  0
  1  2  1  0  0  0
  1 23  1  0  0  0
  1 24  1  0  0  0
  1 25  1  0  0  0
  2  3  1  0  0  0
  2 21  1  0  0  0
  2 22  1  0  0  0
  3 26  1  0  0  0
  3 27  1  0  0  0
  3 28  1  0  0  0
  4  7  1  0  0  0
  4  5  2  0  0  0
  5  6  1  0  0  0
  5 29  1  0  0  0
  6  9  2  0  0  0
  6 30  1  0  0  0
  7  8  2  0  0  0
  7 31  1  0  0  0
  8 13  1  0  0  0
  8  9  1  0  0  0
  9 10  1  0  0  0
 10 20  1  0  0  0
 10 11  2  0  0  0
 11 12  1  0  0  0
 12 13  2  0  0  0
 12 14  1  0  0  0
 13 32  1  0  0  0
 14 15  2  0  0  0
 14 19  1  0  0  0
 15 16  1  0  0  0
 15 33  1  0  0  0
 16 17  2  0  0  0
 16 34  1  0  0  0
 17 18  1  0  0  0
 18 19  2  0  0  0
 18 35  1  0  0  0
 19 36  1  0  0  0
 20 21  1  0  0  0
 20 37  1  0  0  0
 21 38  1  0  0  0
 21 39  1  0  0  0
 22 40  1  0  0  0
 22 41  1  0  0  0
M  END
> <s_m_entry_id>
3428

> <s_m_entry_name>
dock_pv.157

> <s_m_Source_Path>
/home/csk/Desktop/cluster/DUD-E-result/kpcb

> <s_m_Source_File>
dock_pv.maegz

> <i_m_Source_File_Index>
157

> <chembl_id>
CHEMBL2147538

> <chembl_pref_name>
None

> <i_lp_mmshare_version>
53161

> <i_f3d_flags>
0

> <r_lp_tautomer_probability>
1

> <s_lp_Force_Field>
OPLS_2005

> <r_lp_Energy>
15.84824

> <b_lp_Chiralities_Consistent>
1

> <s_lp_Variant>
CHEMBL3045_lig316-1

> <s_i_glide_gridfile>
glide-grid_2i0e

> <i_i_glide_lignum>
478

> <i_i_glide_rotatable_bonds>
4

> <r_i_docking_score>
-7.70687254301175

> <r_i_glide_ligand_efficiency>
-0.350312388318716

> <r_i_glide_ligand_efficiency_sa>
-0.981589089073487

> <r_i_glide_ligand_efficiency_ln>
-1.8838407645184

> <r_i_glide_gscore>
-7.70687254301175

> <r_i_glide_lipo>
-3.05899291074184

> <r_i_glide_hbond>
-0.562055854159742

> <r_i_glide_metal>
0

> <r_i_glide_rewards>
-2.1883294061471

> <r_i_glide_evdw>
-38.2459564208984

> <r_i_glide_ecoul>
-4.14739656448364

> <r_i_glide_erotb>
0.636912933754392

> <r_i_glide_esite>
0

> <r_i_glide_emodel>
-61.8955640710067

> <r_i_glide_energy>
-42.3933529853821

> <r_i_glide_einternal>
0.736570119857788

> <i_i_glide_confnum>
1

> <i_i_glide_posenum>
264

> <r_i_glide_eff_state_penalty>
0

> <s_user_duplicate_titles>
CHEMBL3045_lig316

> <s_m_subgroup_title>
dock_pv

> <s_m_subgroupid>
dock_pv

> <b_m_subgroup_collapsed>
1

$$$$
CHEMBL3045_lig33
                    3D
 Schrodinger Suite 2021-1.
 50 53  0  0  1  0            999 V2000
   36.9749   55.7387   36.0446 C   0  0  0  0  0  0
   37.7193   55.0868   34.9753 C   0  0  0  0  0  0
   37.4491   56.2894   37.1746 C   0  0  0  0  0  0
   35.5392   55.8113   36.0635 C   0  0  0  0  0  0
   36.3194   56.6824   37.9703 C   0  0  0  0  0  0
   35.2432   56.3747   37.2389 N   0  0  0  0  0  0
   38.7000   54.1229   35.1576 C   0  0  0  0  0  0
   39.2029   53.7029   33.9441 N   0  0  0  0  0  0
   38.5831   54.4397   32.9474 C   0  0  0  0  0  0
   37.6169   55.2898   33.5595 C   0  0  0  0  0  0
   38.8721   56.5140   37.5815 C   0  0  0  0  0  0
   38.8241   54.3665   31.6338 N   0  0  0  0  0  0
   36.3018   57.1720   39.0975 O   0  0  0  0  0  0
   34.7245   55.4386   35.2226 O   0  0  0  0  0  0
   43.9883   55.5377   32.5348 C   0  0  0  0  0  0
   39.8534   56.9952   36.6851 C   0  0  0  0  0  0
   43.3962   56.5757   32.8350 O   0  0  0  0  0  0
   43.3996   54.3495   32.3345 N   0  0  0  0  0  0
   40.2217   52.6636   33.7820 C   0  0  0  0  0  0
   36.8357   56.0966   32.7111 C   0  0  0  0  0  0
   39.4640   57.3636   35.4078 O   0  0  0  0  0  0
   41.6587   53.2270   33.7067 C   0  0  0  0  0  0
   39.2560   56.2021   38.8965 C   0  0  0  0  0  0
   38.0554   55.1720   30.8565 C   0  0  0  0  0  0
   41.9731   54.0741   32.4623 C   0  0  0  0  0  0
   41.1852   57.1177   37.1267 C   0  0  0  0  0  0
   40.4577   57.5988   34.4118 C   0  0  0  0  0  0
   37.0654   56.0289   31.3340 C   0  0  0  0  0  0
   40.5760   56.3331   39.3170 C   0  0  0  0  0  0
   41.5418   56.7857   38.4289 C   0  0  0  0  0  0
   34.2958   56.5344   37.5541 H   0  0  0  0  0  0
   39.0737   53.6856   36.0731 H   0  0  0  0  0  0
   45.0780   55.4640   32.3940 H   0  0  0  0  0  0
   43.9688   53.5431   32.0905 H   0  0  0  0  0  0
   39.9861   52.0798   32.8890 H   0  0  0  0  0  0
   40.1459   51.9712   34.6216 H   0  0  0  0  0  0
   36.0795   56.7520   33.1157 H   0  0  0  0  0  0
   42.3435   52.3734   33.7301 H   0  0  0  0  0  0
   41.8727   53.8039   34.6072 H   0  0  0  0  0  0
   38.5298   55.8246   39.6027 H   0  0  0  0  0  0
   38.2429   55.0883   29.7965 H   0  0  0  0  0  0
   41.3742   54.9865   32.4564 H   0  0  0  0  0  0
   41.6576   53.5340   31.5692 H   0  0  0  0  0  0
   41.9600   57.4856   36.4728 H   0  0  0  0  0  0
   39.9712   57.7782   33.4549 H   0  0  0  0  0  0
   41.0689   58.4715   34.6396 H   0  0  0  0  0  0
   41.1080   56.7309   34.2929 H   0  0  0  0  0  0
   36.4796   56.6257   30.6463 H   0  0  0  0  0  0
   40.8466   56.0791   40.3313 H   0  0  0  0  0  0
   42.5683   56.8976   38.7528 H   0  0  0  0  0  0
  1  2  1  0  0  0
  1  3  2  0  0  0
  1  4  1  0  0  0
  2  7  2  0  0  0
  2 10  1  0  0  0
  3  5  1  0  0  0
  3 11  1  0  0  0
  4  6  1  0  0  0
  4 14  2  0  0  0
  5 13  2  0  0  0
  5  6  1  0  0  0
  6 31  1  0  0  0
  7  8  1  0  0  0
  7 32  1  0  0  0
  8 19  1  0  0  0
  8  9  1  0  0  0
  9 10  2  0  0  0
  9 12  1  0  0  0
 10 20  1  0  0  0
 11 16  1  0  0  0
 11 23  2  0  0  0
 12 24  2  0  0  0
 15 18  1  0  0  0
 15 17  2  0  0  0
 15 33  1  0  0  0
 16 21  1  0  0  0
 16 26  2  0  0  0
 18 25  1  0  0  0
 18 34  1  0  0  0
 19 22  1  0  0  0
 19 35  1  0  0  0
 19 36  1  0  0  0
 20 28  2  0  0  0
 20 37  1  0  0  0
 21 27  1  0  0  0
 22 25  1  0  0  0
 22 38  1  0  0  0
 22 39  1  0  0  0
 23 29  1  0  0  0
 23 40  1  0  0  0
 24 28  1  0  0  0
 24 41  1  0  0  0
 25 42  1  0  0  0
 25 43  1  0  0  0
 26 30  1  0  0  0
 26 44  1  0  0  0
 27 45  1  0  0  0
 27 46  1  0  0  0
 27 47  1  0  0  0
 28 48  1  0  0  0
 29 30  2  0  0  0
 29 49  1  0  0  0
 30 50  1  0  0  0
M  END
> <s_m_entry_id>
3429

> <s_m_entry_name>
dock_pv.158

> <s_m_Source_Path>
/home/csk/Desktop/cluster/DUD-E-result/kpcb

> <s_m_Source_File>
dock_pv.maegz

> <i_m_Source_File_Index>
158

> <chembl_id>
CHEMBL109977

> <chembl_pref_name>
None

> <i_lp_mmshare_version>
53161

> <i_f3d_flags>
0

> <r_lp_tautomer_probability>
1

> <s_lp_Force_Field>
OPLS_2005

> <r_lp_Energy>
25.966341

> <b_lp_Chiralities_Consistent>
1

> <s_lp_Variant>
CHEMBL3045_lig33-1

> <s_i_glide_gridfile>
glide-grid_2i0e

> <i_i_glide_lignum>
35

> <i_i_glide_rotatable_bonds>
8

> <r_i_docking_score>
-7.70329819730814

> <r_i_glide_ligand_efficiency>
-0.256776606576938

> <r_i_glide_ligand_efficiency_sa>
-0.797864617819822

> <r_i_glide_ligand_efficiency_ln>
-1.75027328458487

> <r_i_glide_gscore>
-7.70329819730814

> <r_i_glide_lipo>
-1.61272337779698

> <r_i_glide_hbond>
-0.45213307609243

> <r_i_glide_metal>
0

> <r_i_glide_rewards>
-2.45682983419835

> <r_i_glide_evdw>
-44.8471832275391

> <r_i_glide_ecoul>
-9.00550746917725

> <r_i_glide_erotb>
0.504421002469463

> <r_i_glide_esite>
-0.0928476299363015

> <r_i_glide_emodel>
-78.9137556338661

> <r_i_glide_energy>
-53.8526906967163

> <r_i_glide_einternal>
4.87828731536865

> <i_i_glide_confnum>
132

> <i_i_glide_posenum>
61

> <r_i_glide_eff_state_penalty>
0

> <s_user_duplicate_titles>
CHEMBL3045_lig33

> <s_m_subgroup_title>
dock_pv

> <s_m_subgroupid>
dock_pv

> <b_m_subgroup_collapsed>
1

$$$$
CHEMBL3045_lig445
                    3D
 Schrodinger Suite 2021-1.
 51 53  0  0  1  0            999 V2000
   42.9474   55.3456   40.7473 N   0  0  1  0  0  0
   42.8859   56.8303   40.8277 C   0  0  0  0  0  0
   41.4151   57.2964   40.7981 C   0  0  0  0  0  0
   40.6895   56.7546   39.5474 C   0  0  0  0  0  0
   40.8444   55.2164   39.4312 C   0  0  0  0  0  0
   42.3212   54.7827   39.5218 C   0  0  0  0  0  0
   39.2683   57.0850   39.6371 N   0  0  0  0  0  0
   38.4503   56.9839   38.5072 C   0  0  0  0  0  0
   38.9800   57.1430   37.2654 N   0  0  0  0  0  0
   38.1604   56.8855   36.2164 C   0  0  0  0  0  0
   36.8315   56.4626   36.3683 C   0  0  0  0  0  0
   36.3836   56.3767   37.7019 C   0  0  0  0  0  0
   37.1680   56.6530   38.7683 N   0  0  0  0  0  0
   35.9708   56.1474   35.1705 C   0  0  0  0  0  0
   34.7432   56.0585   35.2667 O   0  0  0  0  0  0
   36.5983   55.9014   33.8380 C   0  0  0  0  0  0
   36.1942   56.6859   32.7458 C   0  0  0  0  0  0
   36.7448   56.4676   31.4852 C   0  0  0  0  0  0
   37.7197   55.4930   31.3056 C   0  0  0  0  0  0
   38.1311   54.7153   32.3859 C   0  0  0  0  0  0
   37.5748   54.8986   33.6632 C   0  0  0  0  0  0
   37.9320   54.1276   34.7577 O   0  0  0  0  0  0
   38.9635   53.1515   34.6334 C   0  0  0  0  0  0
   35.2656   57.6644   32.8898 F   0  0  0  0  0  0
   36.3316   57.2106   30.4366 F   0  0  0  0  0  0
   35.1011   55.9722   38.0270 N   0  0  0  0  0  0
   44.5065   54.6218   41.1771 S   0  0  0  0  0  0
   45.6024   54.9816   39.6916 C   0  0  0  0  0  0
   45.0467   55.3486   42.3309 O   0  0  0  0  0  0
   44.3165   53.1717   41.2367 O   0  0  0  0  0  0
   43.3558   57.2540   39.9402 H   0  0  0  0  0  0
   43.3570   57.1731   41.7503 H   0  0  0  0  0  0
   41.3786   58.3855   40.8173 H   0  0  0  0  0  0
   40.9117   56.9659   41.7093 H   0  0  0  0  0  0
   41.1111   57.2243   38.6553 H   0  0  0  0  0  0
   40.2706   54.7111   40.2117 H   0  0  0  0  0  0
   40.4310   54.8674   38.4835 H   0  0  0  0  0  0
   42.8074   55.2178   38.6473 H   0  0  0  0  0  0
   42.3919   53.6920   39.5288 H   0  0  0  0  0  0
   38.8075   56.7813   40.4882 H   0  0  0  0  0  0
   38.6139   57.0036   35.2420 H   0  0  0  0  0  0
   38.1499   55.3261   30.3283 H   0  0  0  0  0  0
   38.8801   53.9602   32.2023 H   0  0  0  0  0  0
   39.1100   52.6617   35.5958 H   0  0  0  0  0  0
   38.7010   52.3766   33.9106 H   0  0  0  0  0  0
   39.9142   53.6049   34.3475 H   0  0  0  0  0  0
   34.4535   55.8609   37.2569 H   0  0  0  0  0  0
   34.7579   56.1055   38.9640 H   0  0  0  0  0  0
   46.5995   54.5992   39.9046 H   0  0  0  0  0  0
   45.1944   54.4643   38.8229 H   0  0  0  0  0  0
   45.6380   56.0560   39.5214 H   0  0  0  0  0  0
  1  2  1  0  0  0
  1  6  1  0  0  0
  1 27  1  0  0  0
  2  3  1  0  0  0
  2 31  1  0  0  0
  2 32  1  0  0  0
  3  4  1  0  0  0
  3 33  1  0  0  0
  3 34  1  0  0  0
  4  5  1  0  0  0
  4  7  1  0  0  0
  4 35  1  0  0  0
  5  6  1  0  0  0
  5 36  1  0  0  0
  5 37  1  0  0  0
  6 38  1  0  0  0
  6 39  1  0  0  0
  7  8  1  0  0  0
  7 40  1  0  0  0
  8  9  2  0  0  0
  8 13  1  0  0  0
  9 10  1  0  0  0
 10 11  2  0  0  0
 10 41  1  0  0  0
 11 12  1  0  0  0
 11 14  1  0  0  0
 12 13  2  0  0  0
 12 26  1  0  0  0
 14 15  2  0  0  0
 14 16  1  0  0  0
 16 17  1  0  0  0
 16 21  2  0  0  0
 17 18  2  0  0  0
 17 24  1  0  0  0
 18 19  1  0  0  0
 18 25  1  0  0  0
 19 20  2  0  0  0
 19 42  1  0  0  0
 20 21  1  0  0  0
 20 43  1  0  0  0
 21 22  1  0  0  0
 22 23  1  0  0  0
 23 44  1  0  0  0
 23 45  1  0  0  0
 23 46  1  0  0  0
 26 47  1  0  0  0
 26 48  1  0  0  0
 27 28  1  0  0  0
 27 29  2  0  0  0
 27 30  2  0  0  0
 28 49  1  0  0  0
 28 50  1  0  0  0
 28 51  1  0  0  0
M  END
> <s_m_entry_id>
3430

> <s_m_entry_name>
dock_pv.159

> <s_m_Source_Path>
/home/csk/Desktop/cluster/DUD-E-result/kpcb

> <s_m_Source_File>
dock_pv.maegz

> <i_m_Source_File_Index>
159

> <chembl_id>
CHEMBL384304

> <chembl_pref_name>
RG-547

> <i_lp_mmshare_version>
53161

> <i_f3d_flags>
0

> <r_lp_tautomer_probability>
1

> <s_lp_Force_Field>
OPLS_2005

> <r_lp_Energy>
17.749776

> <b_lp_Chiralities_Consistent>
1

> <s_lp_Variant>
CHEMBL3045_lig445-1

> <s_i_glide_gridfile>
glide-grid_2i0e

> <i_i_glide_lignum>
617

> <i_i_glide_rotatable_bonds>
6

> <r_i_docking_score>
-7.66434172849592

> <r_i_glide_ligand_efficiency>
-0.255478057616531

> <r_i_glide_ligand_efficiency_sa>
-0.793829724284046

> <r_i_glide_ligand_efficiency_ln>
-1.74142195040601

> <r_i_glide_gscore>
-7.66434172849592

> <r_i_glide_lipo>
-2.0006038292618

> <r_i_glide_hbond>
-0.339335078422074

> <r_i_glide_metal>
0

> <r_i_glide_rewards>
-2.38687647044873

> <r_i_glide_evdw>
-41.3100700378418

> <r_i_glide_ecoul>
-8.09299850463867

> <r_i_glide_erotb>
0.409996736210045

> <r_i_glide_esite>
-0.0680698089854631

> <r_i_glide_emodel>
-69.8766119041997

> <r_i_glide_energy>
-49.4030685424805

> <r_i_glide_einternal>
1.70586359500885

> <i_i_glide_confnum>
13

> <i_i_glide_posenum>
391

> <r_i_glide_eff_state_penalty>
0

> <s_user_duplicate_titles>
CHEMBL3045_lig445

> <s_m_subgroup_title>
dock_pv

> <s_m_subgroupid>
dock_pv

> <b_m_subgroup_collapsed>
1

$$$$
CHEMBL3045_lig294
                    3D
 Schrodinger Suite 2021-1.
 52 55  0  0  1  0            999 V2000
   39.4633   55.4447   33.4215 C   0  0  0  0  0  0
   39.0400   55.3275   34.7579 C   0  0  0  0  0  0
   39.3551   54.1864   35.5020 C   0  0  0  0  0  0
   40.0822   53.1229   34.9733 C   0  0  0  0  0  0
   40.1774   54.3793   32.8470 C   0  0  0  0  0  0
   40.4769   53.2354   33.6409 C   0  0  0  0  0  0
   41.1833   52.3720   32.8371 N   0  0  0  0  0  0
   41.3344   52.8983   31.5808 C   0  0  0  0  0  0
   40.7265   54.1329   31.5427 C   0  0  0  0  0  0
   39.1542   56.6981   32.6246 C   0  0  0  0  0  0
   38.2390   56.3404   35.3157 N   0  0  0  0  0  0
   37.7838   56.5073   36.6385 C   0  0  0  0  0  0
   36.3911   56.5601   36.8892 C   0  0  0  0  0  0
   35.9660   56.7719   38.1986 C   0  0  0  0  0  0
   36.8109   56.9415   39.2370 N   0  0  0  0  0  0
   38.1394   56.9023   38.9920 C   0  0  0  0  0  0
   38.6759   56.7014   37.7200 C   0  0  0  0  0  0
   40.1286   56.7668   37.5780 C   0  0  0  0  0  0
   41.2792   56.8227   37.4687 N   0  0  0  0  0  0
   35.3277   56.3847   35.8814 C   0  0  0  0  0  0
   35.3422   55.5026   34.8692 C   0  0  0  0  0  0
   34.2648   55.4080   33.8133 C   0  0  0  0  0  0
   34.6848   55.8889   32.5027 N   0  0  0  0  0  0
   33.5487   55.9009   31.5802 C   0  0  0  0  0  0
   33.9774   56.6391   30.3014 C   0  0  0  0  0  0
   35.1010   55.9718   29.6353 N   0  0  0  0  0  0
   36.2219   55.7634   30.5523 C   0  0  0  0  0  0
   35.7752   55.1102   31.8882 C   0  0  0  0  0  0
   39.0152   54.1035   36.5215 H   0  0  0  0  0  0
   40.3186   52.2489   35.5634 H   0  0  0  0  0  0
   41.5649   51.4704   33.1049 H   0  0  0  0  0  0
   41.8702   52.3354   30.8284 H   0  0  0  0  0  0
   40.6853   54.7741   30.6746 H   0  0  0  0  0  0
   39.6225   56.7001   31.6390 H   0  0  0  0  0  0
   38.0772   56.7718   32.4996 H   0  0  0  0  0  0
   39.5080   57.5717   33.1740 H   0  0  0  0  0  0
   37.6905   56.8322   34.6253 H   0  0  0  0  0  0
   34.9124   56.7991   38.4371 H   0  0  0  0  0  0
   38.7712   57.0510   39.8591 H   0  0  0  0  0  0
   34.4807   57.0537   35.9658 H   0  0  0  0  0  0
   36.1725   54.8202   34.7601 H   0  0  0  0  0  0
   33.3893   55.9576   34.1638 H   0  0  0  0  0  0
   33.9605   54.3720   33.7010 H   0  0  0  0  0  0
   32.6992   56.4194   32.0259 H   0  0  0  0  0  0
   33.2170   54.8872   31.3477 H   0  0  0  0  0  0
   33.1207   56.7236   29.6370 H   0  0  0  0  0  0
   34.2747   57.6474   30.5826 H   0  0  0  0  0  0
   34.8264   55.1417   29.1237 H   0  0  0  0  0  0
   36.9759   55.1437   30.0654 H   0  0  0  0  0  0
   36.6816   56.7317   30.7560 H   0  0  0  0  0  0
   35.4690   54.0792   31.7183 H   0  0  0  0  0  0
   36.6316   55.0600   32.5584 H   0  0  0  0  0  0
  1  2  2  0  0  0
  1  5  1  0  0  0
  1 10  1  0  0  0
  2 11  1  0  0  0
  2  3  1  0  0  0
  3  4  2  0  0  0
  3 29  1  0  0  0
  4  6  1  0  0  0
  4 30  1  0  0  0
  5  9  1  0  0  0
  5  6  2  0  0  0
  6  7  1  0  0  0
  7  8  1  0  0  0
  7 31  1  0  0  0
  8  9  2  0  0  0
  8 32  1  0  0  0
  9 33  1  0  0  0
 10 34  1  0  0  0
 10 35  1  0  0  0
 10 36  1  0  0  0
 11 12  1  0  0  0
 11 37  1  0  0  0
 12 17  1  0  0  0
 12 13  2  0  0  0
 13 14  1  0  0  0
 13 20  1  0  0  0
 14 15  2  0  0  0
 14 38  1  0  0  0
 15 16  1  0  0  0
 16 17  2  0  0  0
 16 39  1  0  0  0
 17 18  1  0  0  0
 18 19  3  0  0  0
 20 21  2  0  0  0
 20 40  1  0  0  0
 21 22  1  0  0  0
 21 41  1  0  0  0
 22 23  1  0  0  0
 22 42  1  0  0  0
 22 43  1  0  0  0
 23 24  1  0  0  0
 23 28  1  0  0  0
 24 25  1  0  0  0
 24 44  1  0  0  0
 24 45  1  0  0  0
 25 26  1  0  0  0
 25 46  1  0  0  0
 25 47  1  0  0  0
 26 27  1  0  0  0
 26 48  1  0  0  0
 27 28  1  0  0  0
 27 49  1  0  0  0
 27 50  1  0  0  0
 28 51  1  0  0  0
 28 52  1  0  0  0
M  END
> <s_m_entry_id>
3431

> <s_m_entry_name>
dock_pv.160

> <s_m_Source_Path>
/home/csk/Desktop/cluster/DUD-E-result/kpcb

> <s_m_Source_File>
dock_pv.maegz

> <i_m_Source_File_Index>
160

> <chembl_id>
CHEMBL593619

> <chembl_pref_name>
None

> <i_lp_mmshare_version>
53161

> <i_f3d_flags>
0

> <r_lp_tautomer_probability>
1

> <s_lp_Force_Field>
OPLS_2005

> <r_lp_Energy>
42.866143

> <b_lp_Chiralities_Consistent>
1

> <s_lp_Variant>
CHEMBL3045_lig294-1

> <s_i_glide_gridfile>
glide-grid_2i0e

> <i_i_glide_lignum>
455

> <i_i_glide_rotatable_bonds>
5

> <r_i_docking_score>
-7.64718072327056

> <r_i_glide_ligand_efficiency>
-0.273113597259663

> <r_i_glide_ligand_efficiency_sa>
-0.829333736586814

> <r_i_glide_ligand_efficiency_ln>
-1.76519384191336

> <r_i_glide_gscore>
-7.64718072327056

> <r_i_glide_lipo>
-2.68828137607119

> <r_i_glide_hbond>
-0.599310588140751

> <r_i_glide_metal>
0

> <r_i_glide_rewards>
-1.86251406681115

> <r_i_glide_evdw>
-40.417781829834

> <r_i_glide_ecoul>
-6.48526430130005

> <r_i_glide_erotb>
0.556888880300759

> <r_i_glide_esite>
-0.0602848358615291

> <r_i_glide_emodel>
-63.7468361087404

> <r_i_glide_energy>
-46.903046131134

> <r_i_glide_einternal>
8.9715518951416

> <i_i_glide_confnum>
126

> <i_i_glide_posenum>
80

> <r_i_glide_eff_state_penalty>
0

> <s_user_duplicate_titles>
CHEMBL3045_lig294

> <s_m_subgroup_title>
dock_pv

> <s_m_subgroupid>
dock_pv

> <b_m_subgroup_collapsed>
1

$$$$
CHEMBL3045_lig573
                    3D
 Schrodinger Suite 2021-1.
 65 69  0  0  1  0            999 V2000
   39.1018   54.7687   30.7846 C   0  0  0  0  0  0
   38.8897   54.1108   32.1525 C   0  0  1  0  0  0
   40.1379   53.3193   32.6458 C   0  0  0  0  0  0
   41.2410   54.2297   32.9406 N   0  0  2  0  0  0
   42.4902   53.6768   33.4360 C   0  0  0  0  0  0
   43.2495   54.8928   33.9822 C   0  0  0  0  0  0
   42.1543   55.9195   34.3160 C   0  0  0  0  0  0
   40.8624   55.1715   33.9842 C   0  0  1  0  0  0
   39.6468   56.0344   33.5633 C   0  0  0  0  0  0
   38.5556   55.0864   33.2110 N   0  0  0  0  0  0
   37.2544   55.3216   33.5389 C   0  0  0  0  0  0
   36.3481   55.1720   32.7139 O   0  0  0  0  0  0
   36.9886   55.6675   34.8318 N   0  0  0  0  0  0
   37.9019   55.3145   35.9422 C   0  0  0  0  0  0
   37.2837   55.9720   37.1155 C   0  0  0  0  0  0
   37.4990   56.3094   38.4560 C   0  0  0  0  0  0
   38.6116   56.0532   39.2370 N   0  0  0  0  0  0
   39.8900   56.0053   38.7997 C   0  0  0  0  0  0
   40.2486   56.3928   37.6836 O   0  0  0  0  0  0
   40.9224   55.3823   39.7813 C   0  0  1  0  0  0
   42.4029   55.4725   39.3105 C   0  0  0  0  0  0
   43.0201   56.8615   39.5629 C   0  0  0  0  0  0
   42.7199   57.3500   40.9893 C   0  0  0  0  0  0
   41.2133   57.2726   41.2866 C   0  0  0  0  0  0
   40.7464   55.9341   41.0965 O   0  0  0  0  0  0
   36.3902   56.7958   38.9720 N   0  0  0  0  0  0
   35.5010   56.8242   37.9672 N   0  0  0  0  0  0
   36.0473   56.4047   36.7899 C   0  0  0  0  0  0
   35.6857   56.1885   35.3465 C   0  0  0  0  0  0
   34.5313   55.1720   35.2580 C   0  0  0  0  0  0
   35.2830   57.5160   34.6715 C   0  0  0  0  0  0
   39.3885   54.0206   30.0454 H   0  0  0  0  0  0
   38.1934   55.2520   30.4267 H   0  0  0  0  0  0
   39.9127   55.4964   30.8038 H   0  0  0  0  0  0
   38.0718   53.3982   32.0369 H   0  0  0  0  0  0
   39.8884   52.7611   33.5502 H   0  0  0  0  0  0
   40.4382   52.5757   31.9057 H   0  0  0  0  0  0
   42.3269   52.8984   34.1844 H   0  0  0  0  0  0
   43.0112   53.1776   32.6170 H   0  0  0  0  0  0
   43.8350   54.6187   34.8612 H   0  0  0  0  0  0
   43.9430   55.2807   33.2350 H   0  0  0  0  0  0
   42.2612   56.8465   33.7525 H   0  0  0  0  0  0
   42.2013   56.1479   35.3828 H   0  0  0  0  0  0
   40.5489   54.6477   34.8908 H   0  0  0  0  0  0
   39.9235   56.5886   32.6662 H   0  0  0  0  0  0
   39.3816   56.7977   34.2945 H   0  0  0  0  0  0
   38.9161   55.6691   35.8232 H   0  0  0  0  0  0
   37.9487   54.2309   36.0560 H   0  0  0  0  0  0
   38.4572   55.9702   40.2369 H   0  0  0  0  0  0
   40.6228   54.3351   39.8315 H   0  0  0  0  0  0
   42.5029   55.1988   38.2570 H   0  0  0  0  0  0
   42.9817   54.7249   39.8557 H   0  0  0  0  0  0
   42.6138   57.5705   38.8409 H   0  0  0  0  0  0
   44.0956   56.8321   39.3880 H   0  0  0  0  0  0
   43.0763   58.3730   41.1182 H   0  0  0  0  0  0
   43.2634   56.7395   41.7129 H   0  0  0  0  0  0
   40.6670   57.9717   40.6516 H   0  0  0  0  0  0
   41.0141   57.5668   42.3175 H   0  0  0  0  0  0
   34.5455   57.1439   38.0901 H   0  0  0  0  0  0
   33.6271   55.5588   35.7307 H   0  0  0  0  0  0
   34.2726   54.9339   34.2272 H   0  0  0  0  0  0
   34.7809   54.2390   35.7638 H   0  0  0  0  0  0
   34.4182   57.9625   35.1633 H   0  0  0  0  0  0
   36.0900   58.2434   34.7089 H   0  0  0  0  0  0
   35.0210   57.3711   33.6230 H   0  0  0  0  0  0
  1  2  1  0  0  0
  1 32  1  0  0  0
  1 33  1  0  0  0
  1 34  1  0  0  0
  2  3  1  0  0  0
  2 10  1  0  0  0
  2 35  1  0  0  0
  3  4  1  0  0  0
  3 36  1  0  0  0
  3 37  1  0  0  0
  4  5  1  0  0  0
  4  8  1  0  0  0
  5  6  1  0  0  0
  5 38  1  0  0  0
  5 39  1  0  0  0
  6  7  1  0  0  0
  6 40  1  0  0  0
  6 41  1  0  0  0
  7  8  1  0  0  0
  7 42  1  0  0  0
  7 43  1  0  0  0
  8  9  1  0  0  0
  8 44  1  0  0  0
  9 10  1  0  0  0
  9 45  1  0  0  0
  9 46  1  0  0  0
 10 11  1  0  0  0
 11 12  2  0  0  0
 11 13  1  0  0  0
 13 14  1  0  0  0
 13 29  1  0  0  0
 14 15  1  0  0  0
 14 47  1  0  0  0
 14 48  1  0  0  0
 15 16  1  0  0  0
 15 28  2  0  0  0
 16 17  1  0  0  0
 16 26  2  0  0  0
 17 18  1  0  0  0
 17 49  1  0  0  0
 18 19  2  0  0  0
 18 20  1  0  0  0
 20 21  1  0  0  0
 20 25  1  0  0  0
 20 50  1  0  0  0
 21 22  1  0  0  0
 21 51  1  0  0  0
 21 52  1  0  0  0
 22 23  1  0  0  0
 22 53  1  0  0  0
 22 54  1  0  0  0
 23 24  1  0  0  0
 23 55  1  0  0  0
 23 56  1  0  0  0
 24 25  1  0  0  0
 24 57  1  0  0  0
 24 58  1  0  0  0
 26 27  1  0  0  0
 27 28  1  0  0  0
 27 59  1  0  0  0
 28 29  1  0  0  0
 29 30  1  0  0  0
 29 31  1  0  0  0
 30 60  1  0  0  0
 30 61  1  0  0  0
 30 62  1  0  0  0
 31 63  1  0  0  0
 31 64  1  0  0  0
 31 65  1  0  0  0
M  END
> <s_m_entry_id>
3432

> <s_m_entry_name>
dock_pv.161

> <s_m_Source_Path>
/home/csk/Desktop/cluster/DUD-E-result/kpcb

> <s_m_Source_File>
dock_pv.maegz

> <i_m_Source_File_Index>
161

> <chembl_id>
CHEMBL3662822

> <chembl_pref_name>
None

> <i_lp_mmshare_version>
53161

> <i_f3d_flags>
0

> <r_lp_tautomer_probability>
0.5

> <s_lp_Force_Field>
OPLS_2005

> <r_lp_Energy>
116.478635

> <b_lp_Chiralities_Consistent>
1

> <s_lp_Variant>
CHEMBL3045_lig573-2

> <s_i_glide_gridfile>
glide-grid_2i0e

> <i_i_glide_lignum>
903

> <i_i_glide_rotatable_bonds>
5

> <r_i_docking_score>
-7.64174450996485

> <r_i_glide_ligand_efficiency>
-0.246507887418221

> <r_i_glide_ligand_efficiency_sa>
-0.774375107311077

> <r_i_glide_ligand_efficiency_ln>
-1.72344757834099

> <r_i_glide_gscore>
-7.64174450996485

> <r_i_glide_lipo>
-1.88331139785432

> <r_i_glide_hbond>
-0.864

> <r_i_glide_metal>
0

> <r_i_glide_rewards>
-1.99794893668774

> <r_i_glide_evdw>
-43.3936424255371

> <r_i_glide_ecoul>
-7.19383859634399

> <r_i_glide_erotb>
0.37540116713553

> <r_i_glide_esite>
-0.0231274318298662

> <r_i_glide_emodel>
-65.8149900487012

> <r_i_glide_energy>
-50.5874810218811

> <r_i_glide_einternal>
13.408579826355

> <i_i_glide_confnum>
53

> <i_i_glide_posenum>
2

> <r_i_glide_eff_state_penalty>
0

> <s_user_duplicate_titles>
CHEMBL3045_lig573

> <s_m_subgroup_title>
dock_pv

> <s_m_subgroupid>
dock_pv

> <b_m_subgroup_collapsed>
1

$$$$
CHEMBL3045_lig532
                    3D
 Schrodinger Suite 2021-1.
 64 68  0  0  1  0            999 V2000
   40.7031   52.6627   35.9031 C   0  0  0  0  0  0
   39.7347   52.9361   34.7411 C   0  0  0  0  0  0
   39.8929   54.3420   34.0960 C   0  0  1  0  0  0
   41.2454   54.5428   33.3635 C   0  0  0  0  0  0
   41.2974   53.7160   32.1799 N   0  0  2  0  0  0
   42.4974   53.7225   31.3655 C   0  0  0  0  0  0
   42.0543   53.0604   30.0586 C   0  0  0  0  0  0
   40.5426   53.3214   30.0058 C   0  0  0  0  0  0
   40.2729   54.1485   31.2571 C   0  0  1  0  0  0
   38.8457   54.0482   31.8297 C   0  0  0  0  0  0
   38.7690   54.7161   33.1679 N   0  0  0  0  0  0
   37.5055   55.1653   33.5285 C   0  0  0  0  0  0
   36.5905   55.1471   32.6963 O   0  0  0  0  0  0
   37.2094   55.6455   34.7843 N   0  0  0  0  0  0
   38.1776   55.8505   35.8742 C   0  0  0  0  0  0
   37.3936   56.3283   37.0270 C   0  0  0  0  0  0
   37.4805   56.6164   38.3925 C   0  0  0  0  0  0
   38.5710   56.4880   39.2370 N   0  0  0  0  0  0
   39.8654   56.6217   38.8721 C   0  0  0  0  0  0
   40.2436   56.9877   37.7581 O   0  0  0  0  0  0
   40.8862   56.2760   39.9290 C   0  0  0  0  0  0
   42.0468   55.5832   39.5578 C   0  0  0  0  0  0
   42.9925   55.2261   40.5166 C   0  0  0  0  0  0
   42.7872   55.5717   41.8493 C   0  0  0  0  0  0
   41.6473   56.2718   42.2314 C   0  0  0  0  0  0
   40.7010   56.6261   41.2742 C   0  0  0  0  0  0
   36.2787   56.8857   38.8542 N   0  0  0  0  0  0
   35.4453   56.7721   37.8098 N   0  0  0  0  0  0
   36.1064   56.4572   36.6597 C   0  0  0  0  0  0
   35.8492   56.1344   35.2128 C   0  0  0  0  0  0
   34.7360   55.0645   35.1361 C   0  0  0  0  0  0
   35.4253   57.4134   34.4571 C   0  0  0  0  0  0
   40.5027   51.6899   36.3537 H   0  0  0  0  0  0
   41.7398   52.6495   35.5659 H   0  0  0  0  0  0
   40.6100   53.4137   36.6877 H   0  0  0  0  0  0
   38.7159   52.8220   35.1143 H   0  0  0  0  0  0
   39.8578   52.1613   33.9818 H   0  0  0  0  0  0
   40.0413   55.0681   34.8766 H   0  0  0  0  0  0
   41.3582   55.5901   33.0759 H   0  0  0  0  0  0
   42.0852   54.3238   34.0233 H   0  0  0  0  0  0
   42.8987   54.7282   31.2291 H   0  0  0  0  0  0
   43.2791   53.1721   31.8873 H   0  0  0  0  0  0
   42.5756   53.4885   29.2031 H   0  0  0  0  0  0
   42.2726   51.9913   30.0787 H   0  0  0  0  0  0
   39.9578   52.3997   29.9867 H   0  0  0  0  0  0
   40.3013   53.9126   29.1270 H   0  0  0  0  0  0
   40.3846   55.2043   30.9968 H   0  0  0  0  0  0
   38.6722   52.9839   32.0008 H   0  0  0  0  0  0
   38.1570   54.4305   31.0758 H   0  0  0  0  0  0
   38.9415   56.5729   35.5832 H   0  0  0  0  0  0
   38.6341   54.9113   36.1796 H   0  0  0  0  0  0
   38.3677   56.3721   40.2225 H   0  0  0  0  0  0
   42.2164   55.3025   38.5268 H   0  0  0  0  0  0
   43.8790   54.6817   40.2232 H   0  0  0  0  0  0
   43.5204   55.2980   42.5943 H   0  0  0  0  0  0
   41.4967   56.5398   43.2674 H   0  0  0  0  0  0
   39.8249   57.1717   41.5926 H   0  0  0  0  0  0
   34.4453   56.9079   37.8984 H   0  0  0  0  0  0
   33.8061   55.4271   35.5772 H   0  0  0  0  0  0
   34.5013   54.7772   34.1112 H   0  0  0  0  0  0
   35.0154   54.1635   35.6772 H   0  0  0  0  0  0
   34.5603   57.8873   34.9237 H   0  0  0  0  0  0
   36.2316   58.1431   34.4370 H   0  0  0  0  0  0
   35.1546   57.2009   33.4224 H   0  0  0  0  0  0
  1  2  1  0  0  0
  1 33  1  0  0  0
  1 34  1  0  0  0
  1 35  1  0  0  0
  2  3  1  0  0  0
  2 36  1  0  0  0
  2 37  1  0  0  0
  3  4  1  0  0  0
  3 11  1  0  0  0
  3 38  1  0  0  0
  4  5  1  0  0  0
  4 39  1  0  0  0
  4 40  1  0  0  0
  5  6  1  0  0  0
  5  9  1  0  0  0
  6  7  1  0  0  0
  6 41  1  0  0  0
  6 42  1  0  0  0
  7  8  1  0  0  0
  7 43  1  0  0  0
  7 44  1  0  0  0
  8  9  1  0  0  0
  8 45  1  0  0  0
  8 46  1  0  0  0
  9 10  1  0  0  0
  9 47  1  0  0  0
 10 11  1  0  0  0
 10 48  1  0  0  0
 10 49  1  0  0  0
 11 12  1  0  0  0
 12 13  2  0  0  0
 12 14  1  0  0  0
 14 15  1  0  0  0
 14 30  1  0  0  0
 15 16  1  0  0  0
 15 50  1  0  0  0
 15 51  1  0  0  0
 16 17  1  0  0  0
 16 29  2  0  0  0
 17 18  1  0  0  0
 17 27  2  0  0  0
 18 19  1  0  0  0
 18 52  1  0  0  0
 19 20  2  0  0  0
 19 21  1  0  0  0
 21 22  2  0  0  0
 21 26  1  0  0  0
 22 23  1  0  0  0
 22 53  1  0  0  0
 23 24  2  0  0  0
 23 54  1  0  0  0
 24 25  1  0  0  0
 24 55  1  0  0  0
 25 26  2  0  0  0
 25 56  1  0  0  0
 26 57  1  0  0  0
 27 28  1  0  0  0
 28 29  1  0  0  0
 28 58  1  0  0  0
 29 30  1  0  0  0
 30 31  1  0  0  0
 30 32  1  0  0  0
 31 59  1  0  0  0
 31 60  1  0  0  0
 31 61  1  0  0  0
 32 62  1  0  0  0
 32 63  1  0  0  0
 32 64  1  0  0  0
M  END
> <s_m_entry_id>
3433

> <s_m_entry_name>
dock_pv.162

> <s_m_Source_Path>
/home/csk/Desktop/cluster/DUD-E-result/kpcb

> <s_m_Source_File>
dock_pv.maegz

> <i_m_Source_File_Index>
162

> <chembl_id>
CHEMBL3662781

> <chembl_pref_name>
None

> <i_lp_mmshare_version>
53161

> <i_f3d_flags>
0

> <r_lp_tautomer_probability>
0.5

> <s_lp_Force_Field>
OPLS_2005

> <r_lp_Energy>
117.839086

> <b_lp_Chiralities_Consistent>
1

> <s_lp_Variant>
CHEMBL3045_lig532-1

> <s_i_glide_gridfile>
glide-grid_2i0e

> <i_i_glide_lignum>
800

> <i_i_glide_rotatable_bonds>
6

> <r_i_docking_score>
-7.61889310440204

> <r_i_glide_ligand_efficiency>
-0.238090409512564

> <r_i_glide_ligand_efficiency_sa>
-0.755889932174328

> <r_i_glide_ligand_efficiency_ln>
-1.70607784925783

> <r_i_glide_gscore>
-7.61889310440204

> <r_i_glide_lipo>
-2.01285916904804

> <r_i_glide_hbond>
-0.846935011885829

> <r_i_glide_metal>
0

> <r_i_glide_rewards>
-1.9381190842168

> <r_i_glide_evdw>
-44.8892250061035

> <r_i_glide_ecoul>
-6.25687551498413

> <r_i_glide_erotb>
0.366091928238552

> <r_i_glide_esite>
-0.00407918993712485

> <r_i_glide_emodel>
-68.9415140834029

> <r_i_glide_energy>
-51.1461005210876

> <r_i_glide_einternal>
9.95403385162354

> <i_i_glide_confnum>
48

> <i_i_glide_posenum>
204

> <r_i_glide_eff_state_penalty>
0

> <s_user_duplicate_titles>
CHEMBL3045_lig532

> <s_m_subgroup_title>
dock_pv

> <s_m_subgroupid>
dock_pv

> <b_m_subgroup_collapsed>
1

$$$$
CHEMBL3045_lig319
                    3D
 Schrodinger Suite 2021-1.
 38 40  0  0  1  0            999 V2000
   36.5060   56.8905   38.8370 N   0  0  0  0  0  0
   37.8374   56.6757   38.7308 C   0  0  0  0  0  0
   38.4706   56.3346   37.5355 C   0  0  0  0  0  0
   35.7623   56.7697   37.7170 C   0  0  0  0  0  0
   36.2796   56.4348   36.4475 C   0  0  0  0  0  0
   37.6847   56.1979   36.3516 C   0  0  0  0  0  0
   38.1919   55.8273   35.0720 C   0  0  0  0  0  0
   37.3973   55.7284   33.9761 N   0  0  0  0  0  0
   36.0649   55.9731   34.0762 C   0  0  0  0  0  0
   35.4730   56.3285   35.2924 C   0  0  0  0  0  0
   35.2760   55.8432   32.8127 C   0  0  0  0  0  0
   35.8777   55.9914   31.5497 C   0  0  0  0  0  0
   35.1039   55.8549   30.3990 C   0  0  0  0  0  0
   33.7778   55.5808   30.4370 N   0  0  0  0  0  0
   33.1930   55.4393   31.6472 C   0  0  0  0  0  0
   33.9008   55.5574   32.8432 C   0  0  0  0  0  0
   39.5637   55.5487   34.9184 N   0  0  0  0  0  0
   40.1121   54.9228   33.7142 C   0  0  0  0  0  0
   40.0622   53.3783   33.7193 C   0  0  0  0  0  0
   40.9242   52.7720   34.7328 N   0  0  1  0  0  0
   40.3008   52.6486   36.0421 C   0  0  0  0  0  0
   38.4064   56.7670   39.6440 H   0  0  0  0  0  0
   39.5367   56.1635   37.5147 H   0  0  0  0  0  0
   34.7021   56.9505   37.8306 H   0  0  0  0  0  0
   34.4151   56.5309   35.3715 H   0  0  0  0  0  0
   36.9334   56.2055   31.4571 H   0  0  0  0  0  0
   35.5466   55.9460   29.4176 H   0  0  0  0  0  0
   32.1336   55.2269   31.6373 H   0  0  0  0  0  0
   33.3769   55.4160   33.7768 H   0  0  0  0  0  0
   40.0622   55.3174   35.7647 H   0  0  0  0  0  0
   41.1418   55.2631   33.5943 H   0  0  0  0  0  0
   39.5936   55.2909   32.8282 H   0  0  0  0  0  0
   40.4309   53.0383   32.7508 H   0  0  0  0  0  0
   39.0392   53.0082   33.7959 H   0  0  0  0  0  0
   41.2776   51.8553   34.4369 H   0  0  0  0  0  0
   40.9626   52.0862   36.7012 H   0  0  0  0  0  0
   39.3560   52.1062   35.9854 H   0  0  0  0  0  0
   40.1296   53.6149   36.5106 H   0  0  0  0  0  0
  1  2  2  0  0  0
  1  4  1  0  0  0
  2  3  1  0  0  0
  2 22  1  0  0  0
  3  6  2  0  0  0
  3 23  1  0  0  0
  4  5  2  0  0  0
  4 24  1  0  0  0
  5 10  1  0  0  0
  5  6  1  0  0  0
  6  7  1  0  0  0
  7  8  2  0  0  0
  7 17  1  0  0  0
  8  9  1  0  0  0
  9 11  1  0  0  0
  9 10  2  0  0  0
 10 25  1  0  0  0
 11 12  2  0  0  0
 11 16  1  0  0  0
 12 13  1  0  0  0
 12 26  1  0  0  0
 13 14  2  0  0  0
 13 27  1  0  0  0
 14 15  1  0  0  0
 15 16  2  0  0  0
 15 28  1  0  0  0
 16 29  1  0  0  0
 17 18  1  0  0  0
 17 30  1  0  0  0
 18 19  1  0  0  0
 18 31  1  0  0  0
 18 32  1  0  0  0
 19 20  1  0  0  0
 19 33  1  0  0  0
 19 34  1  0  0  0
 20 21  1  0  0  0
 20 35  1  0  0  0
 21 36  1  0  0  0
 21 37  1  0  0  0
 21 38  1  0  0  0
M  END
> <s_m_entry_id>
3434

> <s_m_entry_name>
dock_pv.163

> <s_m_Source_Path>
/home/csk/Desktop/cluster/DUD-E-result/kpcb

> <s_m_Source_File>
dock_pv.maegz

> <i_m_Source_File_Index>
163

> <chembl_id>
CHEMBL2147541

> <chembl_pref_name>
None

> <i_lp_mmshare_version>
53161

> <i_f3d_flags>
0

> <r_lp_tautomer_probability>
1

> <s_lp_Force_Field>
OPLS_2005

> <r_lp_Energy>
15.439295

> <b_lp_Chiralities_Consistent>
1

> <s_lp_Variant>
CHEMBL3045_lig319-1

> <s_i_glide_gridfile>
glide-grid_2i0e

> <i_i_glide_lignum>
482

> <i_i_glide_rotatable_bonds>
5

> <r_i_docking_score>
-7.61508641522966

> <r_i_glide_ligand_efficiency>
-0.362623162629984

> <r_i_glide_ligand_efficiency_sa>
-1.00044980928035

> <r_i_glide_ligand_efficiency_ln>
-1.88281472843455

> <r_i_glide_gscore>
-7.61508641522966

> <r_i_glide_lipo>
-3.00574662068407

> <r_i_glide_hbond>
-0.567615952097598

> <r_i_glide_metal>
0

> <r_i_glide_rewards>
-2.25755347753464

> <r_i_glide_evdw>
-35.4352416992188

> <r_i_glide_ecoul>
-6.24830150604248

> <r_i_glide_erotb>
0.924836945953956

> <r_i_glide_esite>
0

> <r_i_glide_emodel>
-60.0806054707863

> <r_i_glide_energy>
-41.6835432052612

> <r_i_glide_einternal>
1.54593110084534

> <i_i_glide_confnum>
14

> <i_i_glide_posenum>
307

> <r_i_glide_eff_state_penalty>
0

> <s_user_duplicate_titles>
CHEMBL3045_lig319

> <s_m_subgroup_title>
dock_pv

> <s_m_subgroupid>
dock_pv

> <b_m_subgroup_collapsed>
1

$$$$
CHEMBL3045_lig542
                    3D
 Schrodinger Suite 2021-1.
 59 62  0  0  1  0            999 V2000
   41.4994   53.1465   35.4304 C   0  0  0  0  0  0
   40.4093   52.7725   34.4116 C   0  0  0  0  0  0
   39.9214   53.9537   33.5396 C   0  0  2  0  0  0
   38.3825   53.8384   33.3837 C   0  0  0  0  0  0
   37.9155   55.0370   32.6719 N   0  0  0  0  0  0
   38.4828   55.2106   31.3224 C   0  0  0  0  0  0
   40.0233   55.1782   31.4388 C   0  0  0  0  0  0
   40.5115   54.0132   32.1885 N   0  0  1  0  0  0
   41.9750   54.0666   32.2054 C   0  0  0  0  0  0
   36.8801   55.8083   33.1008 C   0  0  0  0  0  0
   36.1088   56.3196   32.2861 O   0  0  0  0  0  0
   36.7365   56.0169   34.4477 N   0  0  0  0  0  0
   37.8888   56.1645   35.3739 C   0  0  0  0  0  0
   37.2547   56.4357   36.7062 C   0  0  0  0  0  0
   37.4876   56.5521   38.0960 C   0  0  0  0  0  0
   38.6467   56.3726   38.8332 N   0  0  0  0  0  0
   39.9090   56.3285   38.3512 C   0  0  0  0  0  0
   40.2132   56.5604   37.1800 O   0  0  0  0  0  0
   40.9860   55.9556   39.3488 C   0  0  0  0  0  0
   42.1997   55.4071   38.9035 C   0  0  0  0  0  0
   43.1547   55.0113   39.8418 C   0  0  0  0  0  0
   42.8935   55.1828   41.2013 C   0  0  0  0  0  0
   41.6744   55.7469   41.5783 C   0  0  0  0  0  0
   40.7323   56.1284   40.6794 N   0  0  0  0  0  0
   36.3509   56.7676   38.7302 N   0  0  0  0  0  0
   35.4049   56.7707   37.7797 N   0  0  0  0  0  0
   35.9217   56.5808   36.5304 C   0  0  0  0  0  0
   35.4748   56.4802   35.0945 C   0  0  0  0  0  0
   34.3370   55.4429   34.9637 C   0  0  0  0  0  0
   35.0412   57.8745   34.5834 C   0  0  0  0  0  0
   41.7973   52.2752   36.0138 H   0  0  0  0  0  0
   42.3955   53.5347   34.9492 H   0  0  0  0  0  0
   41.1418   53.9022   36.1294 H   0  0  0  0  0  0
   39.5853   52.3327   34.9747 H   0  0  0  0  0  0
   40.7450   51.9733   33.7546 H   0  0  0  0  0  0
   40.1596   54.8801   34.0670 H   0  0  0  0  0  0
   37.8765   53.6981   34.3394 H   0  0  0  0  0  0
   38.1425   52.9453   32.8032 H   0  0  0  0  0  0
   38.1821   54.3749   30.6905 H   0  0  0  0  0  0
   38.1606   56.1340   30.8390 H   0  0  0  0  0  0
   40.4534   55.1709   30.4391 H   0  0  0  0  0  0
   40.3631   56.0810   31.9518 H   0  0  0  0  0  0
   42.3741   54.1371   31.1923 H   0  0  0  0  0  0
   42.3427   54.9209   32.7767 H   0  0  0  0  0  0
   42.3989   53.1604   32.6379 H   0  0  0  0  0  0
   38.5298   56.9849   35.0489 H   0  0  0  0  0  0
   38.5071   55.2743   35.4406 H   0  0  0  0  0  0
   38.5366   56.3018   39.8356 H   0  0  0  0  0  0
   42.3979   55.2629   37.8504 H   0  0  0  0  0  0
   44.0847   54.5683   39.5134 H   0  0  0  0  0  0
   43.6199   54.8846   41.9426 H   0  0  0  0  0  0
   41.4329   55.8992   42.6201 H   0  0  0  0  0  0
   34.4238   56.9100   37.9934 H   0  0  0  0  0  0
   33.4480   55.7566   35.5122 H   0  0  0  0  0  0
   34.0407   55.2974   33.9246 H   0  0  0  0  0  0
   34.6336   54.4718   35.3625 H   0  0  0  0  0  0
   34.3019   58.3351   35.2364 H   0  0  0  0  0  0
   35.9003   58.5408   34.5129 H   0  0  0  0  0  0
   34.5939   57.8267   33.5910 H   0  0  0  0  0  0
  1  2  1  0  0  0
  1 31  1  0  0  0
  1 32  1  0  0  0
  1 33  1  0  0  0
  2  3  1  0  0  0
  2 34  1  0  0  0
  2 35  1  0  0  0
  3  4  1  0  0  0
  3  8  1  0  0  0
  3 36  1  0  0  0
  4  5  1  0  0  0
  4 37  1  0  0  0
  4 38  1  0  0  0
  5  6  1  0  0  0
  5 10  1  0  0  0
  6  7  1  0  0  0
  6 39  1  0  0  0
  6 40  1  0  0  0
  7  8  1  0  0  0
  7 41  1  0  0  0
  7 42  1  0  0  0
  8  9  1  0  0  0
  9 43  1  0  0  0
  9 44  1  0  0  0
  9 45  1  0  0  0
 10 11  2  0  0  0
 10 12  1  0  0  0
 12 13  1  0  0  0
 12 28  1  0  0  0
 13 14  1  0  0  0
 13 46  1  0  0  0
 13 47  1  0  0  0
 14 15  1  0  0  0
 14 27  2  0  0  0
 15 16  1  0  0  0
 15 25  2  0  0  0
 16 17  1  0  0  0
 16 48  1  0  0  0
 17 18  2  0  0  0
 17 19  1  0  0  0
 19 20  2  0  0  0
 19 24  1  0  0  0
 20 21  1  0  0  0
 20 49  1  0  0  0
 21 22  2  0  0  0
 21 50  1  0  0  0
 22 23  1  0  0  0
 22 51  1  0  0  0
 23 24  2  0  0  0
 23 52  1  0  0  0
 25 26  1  0  0  0
 26 27  1  0  0  0
 26 53  1  0  0  0
 27 28  1  0  0  0
 28 29  1  0  0  0
 28 30  1  0  0  0
 29 54  1  0  0  0
 29 55  1  0  0  0
 29 56  1  0  0  0
 30 57  1  0  0  0
 30 58  1  0  0  0
 30 59  1  0  0  0
M  END
> <s_m_entry_id>
3435

> <s_m_entry_name>
dock_pv.164

> <s_m_Source_Path>
/home/csk/Desktop/cluster/DUD-E-result/kpcb

> <s_m_Source_File>
dock_pv.maegz

> <i_m_Source_File_Index>
164

> <chembl_id>
CHEMBL3662791

> <chembl_pref_name>
None

> <i_lp_mmshare_version>
53161

> <i_f3d_flags>
0

> <r_lp_tautomer_probability>
0.5

> <s_lp_Force_Field>
OPLS_2005

> <r_lp_Energy>
97.822979

> <b_lp_Chiralities_Consistent>
1

> <s_lp_Variant>
CHEMBL3045_lig542-1

> <s_i_glide_gridfile>
glide-grid_2i0e

> <i_i_glide_lignum>
820

> <i_i_glide_rotatable_bonds>
6

> <r_i_docking_score>
-7.59627946752145

> <r_i_glide_ligand_efficiency>
-0.253209315584048

> <r_i_glide_ligand_efficiency_sa>
-0.786780215301086

> <r_i_glide_ligand_efficiency_ln>
-1.72595746311488

> <r_i_glide_gscore>
-7.59627946752145

> <r_i_glide_lipo>
-2.14410340345545

> <r_i_glide_hbond>
-0.674322833980448

> <r_i_glide_metal>
0

> <r_i_glide_rewards>
-2.3035792063823

> <r_i_glide_evdw>
-43.9092483520508

> <r_i_glide_ecoul>
-4.57472133636475

> <r_i_glide_erotb>
0.40739659435399

> <r_i_glide_esite>
0

> <r_i_glide_emodel>
-67.6763525467536

> <r_i_glide_energy>
-48.4839696884155

> <r_i_glide_einternal>
5.65650796890259

> <i_i_glide_confnum>
6

> <i_i_glide_posenum>
342

> <r_i_glide_eff_state_penalty>
0

> <s_user_duplicate_titles>
CHEMBL3045_lig542

> <s_m_subgroup_title>
dock_pv

> <s_m_subgroupid>
dock_pv

> <b_m_subgroup_collapsed>
1

$$$$
CHEMBL3045_lig537
                    3D
 Schrodinger Suite 2021-1.
 57 61  0  0  1  0            999 V2000
   39.7089   52.7710   34.7454 C   0  0  0  0  0  0
   39.8776   54.2031   34.1899 C   0  0  1  0  0  0
   41.2563   54.4356   33.5206 C   0  0  0  0  0  0
   41.3493   53.6720   32.2990 N   0  0  2  0  0  0
   42.5675   53.7365   31.5160 C   0  0  0  0  0  0
   42.1761   53.1137   30.1737 C   0  0  0  0  0  0
   40.6671   53.3501   30.0951 C   0  0  0  0  0  0
   40.3491   54.1316   31.3655 C   0  0  1  0  0  0
   38.9032   54.0218   31.8919 C   0  0  0  0  0  0
   38.7865   54.6368   33.2516 N   0  0  0  0  0  0
   37.5088   55.0580   33.5978 C   0  0  0  0  0  0
   36.5945   54.9939   32.7692 O   0  0  0  0  0  0
   37.2095   55.5961   34.8294 N   0  0  0  0  0  0
   38.1882   55.8336   35.9017 C   0  0  0  0  0  0
   37.4183   56.3643   37.0382 C   0  0  0  0  0  0
   37.5123   56.6840   38.3950 C   0  0  0  0  0  0
   38.6006   56.6090   39.2453 N   0  0  0  0  0  0
   39.9026   56.5358   38.8851 C   0  0  0  0  0  0
   40.3307   56.6429   37.7342 O   0  0  0  0  0  0
   40.7969   56.3019   39.9909 C   0  0  0  0  0  0
   40.7006   56.7051   41.2390 N   0  0  0  0  0  0
   41.7021   56.2976   41.9936 C   0  0  0  0  0  0
   41.7013   56.7490   43.6506 Cl  0  0  0  0  0  0
   42.6732   55.5336   41.3586 C   0  0  0  0  0  0
   44.1011   54.8207   41.9967 Cl  0  0  0  0  0  0
   42.2451   55.3709   39.6831 S   0  0  0  0  0  0
   36.3105   56.9405   38.8649 N   0  0  0  0  0  0
   35.4703   56.7757   37.8328 N   0  0  0  0  0  0
   36.1324   56.4954   36.6748 C   0  0  0  0  0  0
   35.8663   56.1469   35.2379 C   0  0  0  0  0  0
   34.7033   55.1393   35.2154 C   0  0  0  0  0  0
   35.4830   57.4058   34.4287 C   0  0  0  0  0  0
   40.5478   52.5051   35.3907 H   0  0  0  0  0  0
   38.8008   52.6726   35.3413 H   0  0  0  0  0  0
   39.6920   52.0252   33.9487 H   0  0  0  0  0  0
   40.0289   54.8733   35.0170 H   0  0  0  0  0  0
   41.3888   55.4974   33.2973 H   0  0  0  0  0  0
   42.0640   54.1614   34.2004 H   0  0  0  0  0  0
   42.9586   54.7519   31.4299 H   0  0  0  0  0  0
   43.3411   53.1755   32.0389 H   0  0  0  0  0  0
   42.7141   53.5722   29.3455 H   0  0  0  0  0  0
   42.4084   52.0478   30.1651 H   0  0  0  0  0  0
   40.0984   52.4203   30.0263 H   0  0  0  0  0  0
   40.4166   53.9654   29.2355 H   0  0  0  0  0  0
   40.4663   55.1980   31.1469 H   0  0  0  0  0  0
   38.7168   52.9537   32.0153 H   0  0  0  0  0  0
   38.2362   54.4347   31.1355 H   0  0  0  0  0  0
   38.9734   56.5169   35.5782 H   0  0  0  0  0  0
   38.6099   54.8920   36.2487 H   0  0  0  0  0  0
   38.3881   56.5848   40.2357 H   0  0  0  0  0  0
   34.4680   56.8893   37.9246 H   0  0  0  0  0  0
   33.7878   55.5730   35.6235 H   0  0  0  0  0  0
   34.4684   54.8018   34.2045 H   0  0  0  0  0  0
   34.9302   54.2589   35.8155 H   0  0  0  0  0  0
   34.6285   57.9210   34.8695 H   0  0  0  0  0  0
   36.3010   58.1164   34.3789 H   0  0  0  0  0  0
   35.2120   57.1555   33.4027 H   0  0  0  0  0  0
  1  2  1  0  0  0
  1 33  1  0  0  0
  1 34  1  0  0  0
  1 35  1  0  0  0
  2  3  1  0  0  0
  2 10  1  0  0  0
  2 36  1  0  0  0
  3  4  1  0  0  0
  3 37  1  0  0  0
  3 38  1  0  0  0
  4  5  1  0  0  0
  4  8  1  0  0  0
  5  6  1  0  0  0
  5 39  1  0  0  0
  5 40  1  0  0  0
  6  7  1  0  0  0
  6 41  1  0  0  0
  6 42  1  0  0  0
  7  8  1  0  0  0
  7 43  1  0  0  0
  7 44  1  0  0  0
  8  9  1  0  0  0
  8 45  1  0  0  0
  9 10  1  0  0  0
  9 46  1  0  0  0
  9 47  1  0  0  0
 10 11  1  0  0  0
 11 12  2  0  0  0
 11 13  1  0  0  0
 13 14  1  0  0  0
 13 30  1  0  0  0
 14 15  1  0  0  0
 14 48  1  0  0  0
 14 49  1  0  0  0
 15 16  1  0  0  0
 15 29  2  0  0  0
 16 17  1  0  0  0
 16 27  2  0  0  0
 17 18  1  0  0  0
 17 50  1  0  0  0
 18 19  2  0  0  0
 18 20  1  0  0  0
 20 21  2  0  0  0
 20 26  1  0  0  0
 21 22  1  0  0  0
 22 23  1  0  0  0
 22 24  2  0  0  0
 24 25  1  0  0  0
 24 26  1  0  0  0
 27 28  1  0  0  0
 28 29  1  0  0  0
 28 51  1  0  0  0
 29 30  1  0  0  0
 30 31  1  0  0  0
 30 32  1  0  0  0
 31 52  1  0  0  0
 31 53  1  0  0  0
 31 54  1  0  0  0
 32 55  1  0  0  0
 32 56  1  0  0  0
 32 57  1  0  0  0
M  END
> <s_m_entry_id>
3436

> <s_m_entry_name>
dock_pv.165

> <s_m_Source_Path>
/home/csk/Desktop/cluster/DUD-E-result/kpcb

> <s_m_Source_File>
dock_pv.maegz

> <i_m_Source_File_Index>
165

> <chembl_id>
CHEMBL3662786

> <chembl_pref_name>
None

> <i_lp_mmshare_version>
53161

> <i_f3d_flags>
0

> <r_lp_tautomer_probability>
0.5

> <s_lp_Force_Field>
OPLS_2005

> <r_lp_Energy>
113.151628

> <b_lp_Chiralities_Consistent>
1

> <s_lp_Variant>
CHEMBL3045_lig537-1

> <s_i_glide_gridfile>
glide-grid_2i0e

> <i_i_glide_lignum>
810

> <i_i_glide_rotatable_bonds>
5

> <r_i_docking_score>
-7.54735743213114

> <r_i_glide_ligand_efficiency>
-0.235854919754098

> <r_i_glide_ligand_efficiency_sa>
-0.748792694594022

> <r_i_glide_ligand_efficiency_ln>
-1.6900590622476

> <r_i_glide_gscore>
-7.54735743213114

> <r_i_glide_lipo>
-2.17351950828839

> <r_i_glide_hbond>
-0.841711315362321

> <r_i_glide_metal>
0

> <r_i_glide_rewards>
-1.50797637233114

> <r_i_glide_evdw>
-49.0900802612305

> <r_i_glide_ecoul>
-5.71421718597412

> <r_i_glide_erotb>
0.287486354808351

> <r_i_glide_esite>
0

> <r_i_glide_emodel>
-73.9746419959421

> <r_i_glide_energy>
-54.8042974472046

> <r_i_glide_einternal>
9.59444904327393

> <i_i_glide_confnum>
30

> <i_i_glide_posenum>
168

> <r_i_glide_eff_state_penalty>
0

> <s_user_duplicate_titles>
CHEMBL3045_lig537

> <s_m_subgroup_title>
dock_pv

> <s_m_subgroupid>
dock_pv

> <b_m_subgroup_collapsed>
1

$$$$
CHEMBL3045_lig92
                    3D
 Schrodinger Suite 2021-1.
 66 69  0  0  1  0            999 V2000
   44.1348   55.3710   32.7553 S   0  0  0  0  0  0
   40.3442   53.5436   34.7200 C   0  0  0  0  0  0
   41.2988   53.1576   35.7950 C   0  0  0  0  0  0
   42.2622   54.2115   36.2776 C   0  0  0  0  0  0
   45.9396   54.8332   33.0444 C   0  0  0  0  0  0
   43.2220   54.5459   34.0377 N   0  0  0  0  0  0
   43.1296   54.9113   35.3971 C   0  0  0  0  0  0
   39.2513   54.3616   35.0454 C   0  0  0  0  0  0
   40.5371   53.1819   33.3748 C   0  0  0  0  0  0
   37.8503   55.1718   31.6160 C   0  0  0  0  0  0
   34.9442   56.2916   34.6021 C   0  0  0  0  0  0
   38.6508   54.5369   32.6980 C   0  0  0  0  0  0
   35.0872   57.2228   33.6317 N   0  0  0  0  0  0
   36.7013   55.7123   32.0705 O   0  0  0  0  0  0
   39.7124   53.6908   32.3785 C   0  0  0  0  0  0
   38.4116   54.8235   34.0431 C   0  0  0  0  0  0
   43.6722   54.7734   31.4989 O   0  0  0  0  0  0
   44.0028   56.8181   32.9631 O   0  0  0  0  0  0
   34.7361   57.1405   32.1895 C   0  0  1  0  0  0
   35.8556   56.5455   31.2783 C   0  0  2  0  0  0
   35.6442   56.5814   35.9105 C   0  0  0  0  0  0
   42.2847   54.5303   37.6547 C   0  0  0  0  0  0
   41.1007   52.1274   36.4370 O   0  0  0  0  0  0
   38.1915   55.1723   30.4371 O   0  0  0  0  0  0
   34.3016   55.2525   34.4647 O   0  0  0  0  0  0
   46.6719   55.2795   32.0236 F   0  0  0  0  0  0
   46.3753   55.3583   34.1885 F   0  0  0  0  0  0
   45.9795   53.5036   33.1005 F   0  0  0  0  0  0
   36.8758   57.2484   35.9332 C   0  0  0  0  0  0
   35.1030   56.1250   37.1196 C   0  0  0  0  0  0
   38.9735   54.7721   36.3253 O   0  0  0  0  0  0
   41.5528   52.3721   32.9619 O   0  0  0  0  0  0
   37.0147   56.9870   38.3200 C   0  0  0  0  0  0
   35.7867   56.3317   38.3184 C   0  0  0  0  0  0
   37.5516   57.4604   37.1299 C   0  0  0  0  0  0
   43.9161   55.9535   35.9085 C   0  0  0  0  0  0
   41.5043   53.8817   38.5810 O   0  0  0  0  0  0
   37.7162   57.1719   39.4821 O   0  0  0  0  0  0
   43.8916   56.2824   37.2580 C   0  0  0  0  0  0
   33.4357   56.3716   31.8158 C   0  0  0  0  0  0
   35.1019   55.7455   30.1991 C   0  0  0  0  0  0
   33.8577   55.2282   30.9091 C   0  0  0  0  0  0
   43.0852   55.5643   38.1291 C   0  0  0  0  0  0
   42.7381   53.7108   33.7312 H   0  0  0  0  0  0
   35.6103   58.0429   33.8945 H   0  0  0  0  0  0
   39.9178   53.4297   31.3476 H   0  0  0  0  0  0
   37.5841   55.4456   34.3195 H   0  0  0  0  0  0
   34.5975   58.1635   31.8375 H   0  0  0  0  0  0
   36.4609   57.3553   30.8664 H   0  0  0  0  0  0
   37.3463   57.5718   35.0170 H   0  0  0  0  0  0
   34.1555   55.6023   37.1372 H   0  0  0  0  0  0
   39.5119   54.3604   37.0047 H   0  0  0  0  0  0
   41.7676   51.6479   33.5680 H   0  0  0  0  0  0
   35.3562   55.9723   39.2367 H   0  0  0  0  0  0
   38.5115   57.9547   37.1277 H   0  0  0  0  0  0
   44.5742   56.5300   35.2812 H   0  0  0  0  0  0
   41.0645   53.1117   38.2063 H   0  0  0  0  0  0
   37.5129   56.5680   40.2065 H   0  0  0  0  0  0
   44.5098   57.0860   37.6293 H   0  0  0  0  0  0
   32.7758   57.0243   31.2413 H   0  0  0  0  0  0
   32.8548   55.9776   32.6498 H   0  0  0  0  0  0
   34.8341   56.3785   29.3536 H   0  0  0  0  0  0
   35.6840   54.9164   29.7958 H   0  0  0  0  0  0
   33.0728   54.9238   30.2144 H   0  0  0  0  0  0
   34.1168   54.3701   31.5270 H   0  0  0  0  0  0
   43.0799   55.8110   39.1806 H   0  0  0  0  0  0
  1  5  1  0  0  0
  1  6  1  0  0  0
  1 17  2  0  0  0
  1 18  2  0  0  0
  2  3  1  0  0  0
  2  8  1  0  0  0
  2  9  2  0  0  0
  3  4  1  0  0  0
  3 23  2  0  0  0
  4  7  1  0  0  0
  4 22  2  0  0  0
  5 26  1  0  0  0
  5 27  1  0  0  0
  5 28  1  0  0  0
  6  7  1  0  0  0
  6 44  1  0  0  0
  7 36  2  0  0  0
  8 16  2  0  0  0
  8 31  1  0  0  0
  9 15  1  0  0  0
  9 32  1  0  0  0
 10 12  1  0  0  0
 10 14  1  0  0  0
 10 24  2  0  0  0
 11 13  1  0  0  0
 11 21  1  0  0  0
 11 25  2  0  0  0
 12 15  2  0  0  0
 12 16  1  0  0  0
 13 19  1  0  0  0
 13 45  1  0  0  0
 14 20  1  0  0  0
 15 46  1  0  0  0
 16 47  1  0  0  0
 19 20  1  0  0  0
 19 40  1  0  0  0
 19 48  1  0  0  0
 20 41  1  0  0  0
 20 49  1  0  0  0
 21 29  2  0  0  0
 21 30  1  0  0  0
 22 37  1  0  0  0
 22 43  1  0  0  0
 29 35  1  0  0  0
 29 50  1  0  0  0
 30 34  2  0  0  0
 30 51  1  0  0  0
 31 52  1  0  0  0
 32 53  1  0  0  0
 33 34  1  0  0  0
 33 38  1  0  0  0
 33 35  2  0  0  0
 34 54  1  0  0  0
 35 55  1  0  0  0
 36 39  1  0  0  0
 36 56  1  0  0  0
 37 57  1  0  0  0
 38 58  1  0  0  0
 39 43  2  0  0  0
 39 59  1  0  0  0
 40 42  1  0  0  0
 40 60  1  0  0  0
 40 61  1  0  0  0
 41 42  1  0  0  0
 41 62  1  0  0  0
 41 63  1  0  0  0
 42 64  1  0  0  0
 42 65  1  0  0  0
 43 66  1  0  0  0
M  END
> <s_m_entry_id>
3437

> <s_m_entry_name>
dock_pv.166

> <s_m_Source_Path>
/home/csk/Desktop/cluster/DUD-E-result/kpcb

> <s_m_Source_File>
dock_pv.maegz

> <i_m_Source_File_Index>
166

> <chembl_id>
CHEMBL312846

> <chembl_pref_name>
None

> <i_lp_mmshare_version>
53161

> <i_f3d_flags>
0

> <r_lp_tautomer_probability>
0.999999999997365

> <s_lp_Force_Field>
OPLS_2005

> <r_lp_Energy>
53.471783

> <b_lp_Chiralities_Consistent>
1

> <s_lp_Variant>
CHEMBL3045_lig92-4

> <s_i_glide_gridfile>
glide-grid_2i0e

> <i_i_glide_lignum>
148

> <i_i_glide_rotatable_bonds>
15

> <r_i_docking_score>
-7.54249387541762

> <r_i_glide_ligand_efficiency>
-0.175406834312038

> <r_i_glide_ligand_efficiency_sa>
-0.614519962336924

> <r_i_glide_ligand_efficiency_ln>
-1.5841581307529

> <r_i_glide_gscore>
-7.54249387541762

> <r_i_glide_lipo>
-2.7111397208761

> <r_i_glide_hbond>
-0.608

> <r_i_glide_metal>
0

> <r_i_glide_rewards>
-0.586191026841021

> <r_i_glide_evdw>
-55.8753356933594

> <r_i_glide_ecoul>
-7.42271661758423

> <r_i_glide_erotb>
0.406571389431545

> <r_i_glide_esite>
-0.136560239826445

> <r_i_glide_emodel>
-80.7313097173103

> <r_i_glide_energy>
-63.2980523109436

> <r_i_glide_einternal>
21.0805854797363

> <i_i_glide_confnum>
228

> <i_i_glide_posenum>
311

> <r_i_glide_eff_state_penalty>
0

> <s_user_duplicate_titles>
CHEMBL3045_lig92

> <s_m_subgroup_title>
dock_pv

> <s_m_subgroupid>
dock_pv

> <b_m_subgroup_collapsed>
1

$$$$
CHEMBL3045_lig203
                    3D
 Schrodinger Suite 2021-1.
 65 68  0  0  1  0            999 V2000
   39.4290   55.6089   36.8411 C   0  0  0  0  0  0
   40.7426   55.1641   37.4554 C   0  0  0  0  0  0
   41.6919   56.1674   38.0372 C   0  0  0  0  0  0
   38.7954   54.8205   35.8593 C   0  0  0  0  0  0
   38.7726   56.8005   37.2335 C   0  0  0  0  0  0
   36.0439   57.1029   34.5736 C   0  0  0  0  0  0
   38.1224   55.1143   31.7106 C   0  0  0  0  0  0
   42.3986   57.0987   37.2310 C   0  0  0  0  0  0
   37.7098   56.1922   31.0170 N   0  0  0  0  0  0
   37.0962   56.5293   35.4880 C   0  0  0  0  0  0
   36.3062   56.6652   30.8783 C   0  0  2  0  0  0
   36.2289   56.6726   33.3151 O   0  0  0  0  0  0
   35.6542   57.2727   32.1534 C   0  0  2  0  0  0
   42.2577   57.1720   35.7310 C   0  0  0  0  0  0
   37.6259   55.2587   35.2477 C   0  0  0  0  0  0
   37.6412   57.2598   36.5468 C   0  0  0  0  0  0
   39.5944   54.8469   31.8400 C   0  0  0  0  0  0
   41.0966   53.9846   37.4988 O   0  0  0  0  0  0
   41.9362   56.1365   39.4275 C   0  0  0  0  0  0
   35.2857   55.6240   30.3611 C   0  0  0  0  0  0
   34.1442   56.9653   32.0370 C   0  0  0  0  0  0
   35.2222   57.9719   34.8601 O   0  0  0  0  0  0
   37.3384   54.3600   32.2703 O   0  0  0  0  0  0
   41.2323   57.5640   35.1787 O   0  0  0  0  0  0
   33.8948   56.1597   30.7458 C   0  0  2  0  0  0
   40.0647   53.5335   31.7036 C   0  0  0  0  0  0
   40.4817   55.8650   32.2048 C   0  0  0  0  0  0
   39.1991   57.5719   38.2856 O   0  0  0  0  0  0
   39.2998   53.6250   35.4126 O   0  0  0  0  0  0
   43.3779   56.7722   35.0711 O   0  0  0  0  0  0
   42.2827   54.2581   32.2948 C   0  0  0  0  0  0
   41.8236   55.5664   32.4340 C   0  0  0  0  0  0
   41.4068   53.2410   31.9285 C   0  0  0  0  0  0
   41.3150   55.2426   40.2672 O   0  0  0  0  0  0
   43.3095   57.9718   37.8369 C   0  0  0  0  0  0
   43.6040   53.9720   32.5180 O   0  0  0  0  0  0
   32.4785   54.3720   29.7832 O   0  0  0  0  0  0
   43.5125   57.9518   39.2128 C   0  0  0  0  0  0
   42.8267   57.0378   40.0035 C   0  0  0  0  0  0
   32.7963   55.0864   30.9596 C   0  0  0  0  0  0
   38.4248   56.7274   30.5453 H   0  0  0  0  0  0
   36.3039   57.4756   30.1486 H   0  0  0  0  0  0
   35.8676   58.3433   32.1868 H   0  0  0  0  0  0
   37.1531   54.6140   34.5312 H   0  0  0  0  0  0
   37.2235   58.2195   36.8156 H   0  0  0  0  0  0
   35.4037   55.4367   29.2929 H   0  0  0  0  0  0
   35.4363   54.6587   30.8370 H   0  0  0  0  0  0
   33.8167   56.3715   32.8940 H   0  0  0  0  0  0
   33.5664   57.8908   32.0362 H   0  0  0  0  0  0
   33.5476   56.8355   29.9644 H   0  0  0  0  0  0
   39.3946   52.7282   31.4317 H   0  0  0  0  0  0
   40.1395   56.8809   32.3431 H   0  0  0  0  0  0
   39.9986   57.2421   38.7036 H   0  0  0  0  0  0
   38.8548   53.3009   34.6261 H   0  0  0  0  0  0
   44.0514   56.4759   35.6854 H   0  0  0  0  0  0
   42.5086   56.3525   32.7111 H   0  0  0  0  0  0
   41.7593   52.2237   31.8266 H   0  0  0  0  0  0
   40.8583   54.5354   39.8025 H   0  0  0  0  0  0
   43.8648   58.6843   37.2396 H   0  0  0  0  0  0
   43.8048   53.0247   32.4368 H   0  0  0  0  0  0
   32.3549   55.0064   29.0520 H   0  0  0  0  0  0
   44.2132   58.6378   39.6651 H   0  0  0  0  0  0
   42.9992   57.0178   41.0697 H   0  0  0  0  0  0
   33.0925   54.3724   31.7291 H   0  0  0  0  0  0
   31.8846   55.5684   31.3142 H   0  0  0  0  0  0
  1  2  1  0  0  0
  1  4  2  0  0  0
  1  5  1  0  0  0
  2  3  1  0  0  0
  2 18  2  0  0  0
  3  8  2  0  0  0
  3 19  1  0  0  0
  4 15  1  0  0  0
  4 29  1  0  0  0
  5 16  2  0  0  0
  5 28  1  0  0  0
  6 10  1  0  0  0
  6 12  1  0  0  0
  6 22  2  0  0  0
  7  9  1  0  0  0
  7 17  1  0  0  0
  7 23  2  0  0  0
  8 14  1  0  0  0
  8 35  1  0  0  0
  9 11  1  0  0  0
  9 41  1  0  0  0
 10 16  1  0  0  0
 10 15  2  0  0  0
 11 13  1  0  0  0
 11 20  1  0  0  0
 11 42  1  0  0  0
 12 13  1  0  0  0
 13 21  1  0  0  0
 13 43  1  0  0  0
 14 24  2  0  0  0
 14 30  1  0  0  0
 15 44  1  0  0  0
 16 45  1  0  0  0
 17 26  2  0  0  0
 17 27  1  0  0  0
 19 34  1  0  0  0
 19 39  2  0  0  0
 20 25  1  0  0  0
 20 46  1  0  0  0
 20 47  1  0  0  0
 21 25  1  0  0  0
 21 48  1  0  0  0
 21 49  1  0  0  0
 25 40  1  0  0  0
 25 50  1  0  0  0
 26 33  1  0  0  0
 26 51  1  0  0  0
 27 32  2  0  0  0
 27 52  1  0  0  0
 28 53  1  0  0  0
 29 54  1  0  0  0
 30 55  1  0  0  0
 31 32  1  0  0  0
 31 36  1  0  0  0
 31 33  2  0  0  0
 32 56  1  0  0  0
 33 57  1  0  0  0
 34 58  1  0  0  0
 35 38  2  0  0  0
 35 59  1  0  0  0
 36 60  1  0  0  0
 37 40  1  0  0  0
 37 61  1  0  0  0
 38 39  1  0  0  0
 38 62  1  0  0  0
 39 63  1  0  0  0
 40 64  1  0  0  0
 40 65  1  0  0  0
M  END
> <s_m_entry_id>
3438

> <s_m_entry_name>
dock_pv.167

> <s_m_Source_Path>
/home/csk/Desktop/cluster/DUD-E-result/kpcb

> <s_m_Source_File>
dock_pv.maegz

> <i_m_Source_File_Index>
167

> <chembl_id>
CHEMBL431955

> <chembl_pref_name>
None

> <i_lp_mmshare_version>
53161

> <i_f3d_flags>
0

> <r_lp_tautomer_probability>
0.999999999997365

> <s_lp_Force_Field>
OPLS_2005

> <r_lp_Energy>
59.902888

> <b_lp_Chiralities_Consistent>
1

> <s_lp_Variant>
CHEMBL3045_lig203-1

> <s_i_glide_gridfile>
glide-grid_2i0e

> <i_i_glide_lignum>
360

> <i_i_glide_rotatable_bonds>
16

> <r_i_docking_score>
-7.51007526282961

> <r_i_glide_ligand_efficiency>
-0.18775188157074

> <r_i_glide_ligand_efficiency_sa>
-0.642102402068969

> <r_i_glide_ligand_efficiency_ln>
-1.60167804191264

> <r_i_glide_gscore>
-7.51007526282961

> <r_i_glide_lipo>
-2.63848387279882

> <r_i_glide_hbond>
-0.564712626124554

> <r_i_glide_metal>
0

> <r_i_glide_rewards>
-0.567931722738882

> <r_i_glide_evdw>
-47.3428382873535

> <r_i_glide_ecoul>
-13.2230339050293

> <r_i_glide_erotb>
0.611649958954723

> <r_i_glide_esite>
0

> <r_i_glide_emodel>
-79.0381284019193

> <r_i_glide_energy>
-60.5658721923828

> <r_i_glide_einternal>
19.4403820037842

> <i_i_glide_confnum>
114

> <i_i_glide_posenum>
181

> <r_i_glide_eff_state_penalty>
0

> <s_user_duplicate_titles>
CHEMBL3045_lig203,107506

> <s_m_subgroup_title>
dock_pv

> <s_m_subgroupid>
dock_pv

> <b_m_subgroup_collapsed>
1

$$$$
CHEMBL3045_lig103
                    3D
 Schrodinger Suite 2021-1.
 65 69  0  0  1  0            999 V2000
   40.0731   57.0994   38.6273 C   0  0  1  0  0  0
   38.7980   57.0654   37.7748 C   0  0  0  0  0  0
   39.9241   57.5691   39.9582 O   0  0  0  0  0  0
   40.7977   55.7882   38.7703 C   0  0  0  0  0  0
   40.6890   56.8552   40.8248 C   0  0  0  0  0  0
   37.5061   56.8597   38.3014 C   0  0  0  0  0  0
   38.9282   57.2650   36.3919 C   0  0  0  0  0  0
   41.1950   55.6851   40.0929 C   0  0  0  0  0  0
   35.4054   56.9804   35.1779 C   0  0  0  0  0  0
   37.7300   54.5632   32.7698 C   0  0  0  0  0  0
   36.7951   55.0189   31.9064 N   0  0  0  0  0  0
   36.5552   56.9311   36.0889 C   0  0  0  0  0  0
   35.2779   55.8886   34.4228 O   0  0  0  0  0  0
   35.8758   56.1483   32.0878 C   0  0  2  0  0  0
   36.3973   56.7735   37.4623 C   0  0  0  0  0  0
   37.8219   57.1720   35.5614 C   0  0  0  0  0  0
   34.7207   56.0094   33.1188 C   0  0  1  0  0  0
   38.9414   53.9176   32.1554 C   0  0  0  0  0  0
   41.1418   54.7779   37.8621 C   0  0  0  0  0  0
   40.8275   57.1651   42.0059 O   0  0  0  0  0  0
   34.7010   57.9720   35.0636 O   0  0  0  0  0  0
   37.6736   54.6976   33.9869 O   0  0  0  0  0  0
   34.3423   56.0617   30.0379 N   0  0  1  0  0  0
   39.3578   54.2818   30.8697 C   0  0  0  0  0  0
   39.6962   52.9850   32.8846 C   0  0  0  0  0  0
   37.2523   56.7721   39.6370 O   0  0  0  0  0  0
   40.1338   57.5719   35.8141 O   0  0  0  0  0  0
   35.4169   56.7504   30.7420 C   0  0  0  0  0  0
   41.2138   52.7722   31.0310 C   0  0  0  0  0  0
   40.4803   53.6936   30.3137 C   0  0  0  0  0  0
   40.8372   52.4180   32.3188 C   0  0  0  0  0  0
   40.7651   54.8290   36.5490 O   0  0  0  0  0  0
   41.9509   54.6038   40.5407 C   0  0  0  0  0  0
   42.3009   52.2063   30.4366 O   0  0  0  0  0  0
   42.3023   53.6080   39.6312 C   0  0  0  0  0  0
   33.0357   56.0117   30.6718 C   0  0  0  0  0  0
   41.9009   53.6967   38.2972 C   0  0  0  0  0  0
   33.6055   54.9594   32.9595 C   0  0  0  0  0  0
   32.9369   54.8082   31.5952 C   0  0  0  0  0  0
   40.7453   57.8120   38.1476 H   0  0  0  0  0  0
   36.7905   54.6077   30.9843 H   0  0  0  0  0  0
   36.5186   56.9377   32.4843 H   0  0  0  0  0  0
   35.4136   56.6287   37.8898 H   0  0  0  0  0  0
   37.9506   57.3220   34.4986 H   0  0  0  0  0  0
   34.1854   56.9551   33.0486 H   0  0  0  0  0  0
   34.2417   56.2575   29.0484 H   0  0  0  0  0  0
   38.8153   55.0021   30.2744 H   0  0  0  0  0  0
   39.4018   52.6886   33.8817 H   0  0  0  0  0  0
   38.0404   56.7084   40.1902 H   0  0  0  0  0  0
   40.1493   57.3986   34.8711 H   0  0  0  0  0  0
   35.0933   57.7787   30.9113 H   0  0  0  0  0  0
   36.2742   56.8204   30.0704 H   0  0  0  0  0  0
   40.7740   53.9493   29.3093 H   0  0  0  0  0  0
   41.4147   51.6723   32.8371 H   0  0  0  0  0  0
   41.0738   54.0724   36.0460 H   0  0  0  0  0  0
   42.2694   54.5316   41.5705 H   0  0  0  0  0  0
   42.8979   51.7557   31.0684 H   0  0  0  0  0  0
   42.9082   52.7726   39.9434 H   0  0  0  0  0  0
   32.2523   55.9270   29.9224 H   0  0  0  0  0  0
   32.8531   56.9391   31.2176 H   0  0  0  0  0  0
   42.1972   52.9310   37.5958 H   0  0  0  0  0  0
   33.9029   53.9717   33.2759 H   0  0  0  0  0  0
   32.8237   55.2567   33.6587 H   0  0  0  0  0  0
   33.4145   53.9718   31.0990 H   0  0  0  0  0  0
   31.9011   54.5175   31.7289 H   0  0  0  0  0  0
  1  2  1  0  0  0
  1  3  1  0  0  0
  1  4  1  0  0  0
  1 40  1  0  0  0
  2  6  1  0  0  0
  2  7  2  0  0  0
  3  5  1  0  0  0
  4  8  2  0  0  0
  4 19  1  0  0  0
  5 20  2  0  0  0
  5  8  1  0  0  0
  6 15  2  0  0  0
  6 26  1  0  0  0
  7 16  1  0  0  0
  7 27  1  0  0  0
  8 33  1  0  0  0
  9 12  1  0  0  0
  9 13  1  0  0  0
  9 21  2  0  0  0
 10 11  1  0  0  0
 10 18  1  0  0  0
 10 22  2  0  0  0
 11 14  1  0  0  0
 11 41  1  0  0  0
 12 16  2  0  0  0
 12 15  1  0  0  0
 13 17  1  0  0  0
 14 17  1  0  0  0
 14 28  1  0  0  0
 14 42  1  0  0  0
 15 43  1  0  0  0
 16 44  1  0  0  0
 17 38  1  0  0  0
 17 45  1  0  0  0
 18 24  1  0  0  0
 18 25  2  0  0  0
 19 32  1  0  0  0
 19 37  2  0  0  0
 23 28  1  0  0  0
 23 36  1  0  0  0
 23 46  1  0  0  0
 24 30  2  0  0  0
 24 47  1  0  0  0
 25 31  1  0  0  0
 25 48  1  0  0  0
 26 49  1  0  0  0
 27 50  1  0  0  0
 28 51  1  0  0  0
 28 52  1  0  0  0
 29 31  2  0  0  0
 29 34  1  0  0  0
 29 30  1  0  0  0
 30 53  1  0  0  0
 31 54  1  0  0  0
 32 55  1  0  0  0
 33 35  2  0  0  0
 33 56  1  0  0  0
 34 57  1  0  0  0
 35 37  1  0  0  0
 35 58  1  0  0  0
 36 39  1  0  0  0
 36 59  1  0  0  0
 36 60  1  0  0  0
 37 61  1  0  0  0
 38 39  1  0  0  0
 38 62  1  0  0  0
 38 63  1  0  0  0
 39 64  1  0  0  0
 39 65  1  0  0  0
M  END
> <s_m_entry_id>
3439

> <s_m_entry_name>
dock_pv.168

> <s_m_Source_Path>
/home/csk/Desktop/cluster/DUD-E-result/kpcb

> <s_m_Source_File>
dock_pv.maegz

> <i_m_Source_File_Index>
168

> <chembl_id>
CHEMBL86680

> <chembl_pref_name>
None

> <i_lp_mmshare_version>
53161

> <i_f3d_flags>
0

> <r_lp_tautomer_probability>
0.999999999997365

> <s_lp_Force_Field>
OPLS_2005

> <r_lp_Energy>
51.076216

> <b_lp_Chiralities_Consistent>
1

> <s_lp_Variant>
CHEMBL3045_lig103-2

> <s_i_glide_gridfile>
glide-grid_2i0e

> <i_i_glide_lignum>
176

> <i_i_glide_rotatable_bonds>
11

> <r_i_docking_score>
-7.50947949127266

> <r_i_glide_ligand_efficiency>
-0.192550756186479

> <r_i_glide_ligand_efficiency_sa>
-0.652980326943206

> <r_i_glide_ligand_efficiency_ln>
-1.61024557218084

> <r_i_glide_gscore>
-7.50947949127266

> <r_i_glide_lipo>
-3.04307998878004

> <r_i_glide_hbond>
-0.200732642584316

> <r_i_glide_metal>
0

> <r_i_glide_rewards>
-0.874761768482778

> <r_i_glide_evdw>
-44.8521575927734

> <r_i_glide_ecoul>
-11.026421546936

> <r_i_glide_erotb>
0.505666020253544

> <r_i_glide_esite>
0

> <r_i_glide_emodel>
-51.3640750338755

> <r_i_glide_energy>
-55.8785791397095

> <r_i_glide_einternal>
21.641040802002

> <i_i_glide_confnum>
33

> <i_i_glide_posenum>
174

> <r_i_glide_eff_state_penalty>
0

> <s_user_duplicate_titles>
CHEMBL3045_lig103,143735

> <s_m_subgroup_title>
dock_pv

> <s_m_subgroupid>
dock_pv

> <b_m_subgroup_collapsed>
1

$$$$
CHEMBL3045_lig95
                    3D
 Schrodinger Suite 2021-1.
 63 67  0  0  1  0            999 V2000
   39.2727   56.5384   38.3610 C   0  0  0  0  0  0
   40.3417   56.8506   39.3802 C   0  0  0  0  0  0
   41.4305   55.8857   39.6822 C   0  0  0  0  0  0
   43.3420   57.4438   38.9352 C   0  0  0  0  0  0
   44.1360   58.7723   37.6370 N   0  0  3  0  0  0
   43.3375   57.7127   37.6580 N   0  0  0  0  0  0
   44.5609   59.1955   38.8251 N   0  0  0  0  0  0
   37.9187   56.8202   38.6290 C   0  0  0  0  0  0
   39.5901   56.0821   37.0652 C   0  0  0  0  0  0
   44.0181   58.2844   39.7004 N   0  0  0  0  0  0
   42.7911   56.1791   39.4438 C   0  0  0  0  0  0
   36.1627   56.3082   35.3504 C   0  0  0  0  0  0
   38.6988   54.2225   32.4819 C   0  0  0  0  0  0
   37.2613   56.3254   36.3637 C   0  0  0  0  0  0
   37.8770   55.1036   31.8778 N   0  0  0  0  0  0
   36.5878   55.8783   34.1602 O   0  0  0  0  0  0
   38.5941   55.9740   36.0875 C   0  0  0  0  0  0
   36.9447   56.7299   37.6521 C   0  0  0  0  0  0
   36.4057   55.0174   31.9086 C   0  0  1  0  0  0
   35.7390   55.8373   33.0224 C   0  0  2  0  0  0
   40.1479   54.6221   32.6175 C   0  0  0  0  0  0
   40.2960   57.8827   40.0369 O   0  0  0  0  0  0
   41.1184   54.6642   40.2855 C   0  0  0  0  0  0
   34.9993   56.6579   35.5780 O   0  0  0  0  0  0
   38.3015   53.1517   32.9429 O   0  0  0  0  0  0
   41.1240   53.6268   32.7664 C   0  0  0  0  0  0
   40.5339   55.9716   32.6545 C   0  0  0  0  0  0
   40.8736   55.7720   36.6949 O   0  0  0  0  0  0
   37.4331   57.1720   39.8461 O   0  0  0  0  0  0
   42.8289   55.3132   32.9758 C   0  0  0  0  0  0
   41.8710   56.3133   32.8393 C   0  0  0  0  0  0
   42.4604   53.9720   32.9416 C   0  0  0  0  0  0
   39.9011   54.3722   40.8371 O   0  0  0  0  0  0
   43.7771   55.2171   39.6730 C   0  0  0  0  0  0
   44.1426   55.6515   33.1478 O   0  0  0  0  0  0
   35.7940   55.5727   30.6235 C   0  0  0  0  0  0
   43.4270   53.9690   40.1470 C   0  0  0  0  0  0
   35.5009   57.2335   32.4182 C   0  0  0  0  0  0
   35.5532   57.0581   30.8944 C   0  0  0  0  0  0
   42.0978   53.7043   40.4371 C   0  0  0  0  0  0
   44.3199   59.2649   36.7608 H   0  0  0  0  0  0
   38.2794   55.9241   31.4538 H   0  0  0  0  0  0
   38.8732   55.6398   35.0989 H   0  0  0  0  0  0
   35.9248   56.9819   37.9143 H   0  0  0  0  0  0
   36.1188   53.9718   32.0342 H   0  0  0  0  0  0
   34.7970   55.3625   33.3064 H   0  0  0  0  0  0
   40.8576   52.5774   32.7502 H   0  0  0  0  0  0
   39.8076   56.7663   32.5629 H   0  0  0  0  0  0
   40.9402   55.4215   35.8033 H   0  0  0  0  0  0
   37.9363   56.8689   40.6129 H   0  0  0  0  0  0
   42.1657   57.3514   32.8738 H   0  0  0  0  0  0
   43.1988   53.1892   33.0496 H   0  0  0  0  0  0
   39.2543   55.0833   40.8503 H   0  0  0  0  0  0
   44.8179   55.4235   39.4644 H   0  0  0  0  0  0
   44.7000   54.8743   33.2388 H   0  0  0  0  0  0
   34.8260   55.1008   30.4551 H   0  0  0  0  0  0
   36.3851   55.3629   29.7301 H   0  0  0  0  0  0
   44.1854   53.2143   40.2977 H   0  0  0  0  0  0
   34.5291   57.6187   32.7282 H   0  0  0  0  0  0
   36.2514   57.9511   32.7527 H   0  0  0  0  0  0
   34.6107   57.3697   30.4427 H   0  0  0  0  0  0
   36.3509   57.6638   30.4606 H   0  0  0  0  0  0
   41.8023   52.7720   40.8558 H   0  0  0  0  0  0
  1  2  1  0  0  0
  1  8  2  0  0  0
  1  9  1  0  0  0
  2  3  1  0  0  0
  2 22  2  0  0  0
  3 11  2  0  0  0
  3 23  1  0  0  0
  4 11  1  0  0  0
  4 10  1  0  0  0
  4  6  2  0  0  0
  5  7  1  0  0  0
  5 41  1  0  0  0
  5  6  1  0  0  0
  7 10  2  0  0  0
  8 18  1  0  0  0
  8 29  1  0  0  0
  9 17  2  0  0  0
  9 28  1  0  0  0
 11 34  1  0  0  0
 12 14  1  0  0  0
 12 16  1  0  0  0
 12 24  2  0  0  0
 13 15  1  0  0  0
 13 21  1  0  0  0
 13 25  2  0  0  0
 14 17  1  0  0  0
 14 18  2  0  0  0
 15 19  1  0  0  0
 15 42  1  0  0  0
 16 20  1  0  0  0
 17 43  1  0  0  0
 18 44  1  0  0  0
 19 20  1  0  0  0
 19 36  1  0  0  0
 19 45  1  0  0  0
 20 38  1  0  0  0
 20 46  1  0  0  0
 21 26  2  0  0  0
 21 27  1  0  0  0
 23 33  1  0  0  0
 23 40  2  0  0  0
 26 32  1  0  0  0
 26 47  1  0  0  0
 27 31  2  0  0  0
 27 48  1  0  0  0
 28 49  1  0  0  0
 29 50  1  0  0  0
 30 31  1  0  0  0
 30 35  1  0  0  0
 30 32  2  0  0  0
 31 51  1  0  0  0
 32 52  1  0  0  0
 33 53  1  0  0  0
 34 37  2  0  0  0
 34 54  1  0  0  0
 35 55  1  0  0  0
 36 39  1  0  0  0
 36 56  1  0  0  0
 36 57  1  0  0  0
 37 40  1  0  0  0
 37 58  1  0  0  0
 38 39  1  0  0  0
 38 59  1  0  0  0
 38 60  1  0  0  0
 39 61  1  0  0  0
 39 62  1  0  0  0
 40 63  1  0  0  0
M  END
> <s_m_entry_id>
3440

> <s_m_entry_name>
dock_pv.169

> <s_m_Source_Path>
/home/csk/Desktop/cluster/DUD-E-result/kpcb

> <s_m_Source_File>
dock_pv.maegz

> <i_m_Source_File_Index>
169

> <chembl_id>
CHEMBL89384

> <chembl_pref_name>
None

> <i_lp_mmshare_version>
53161

> <i_f3d_flags>
0

> <r_lp_tautomer_probability>
0.199999999999473

> <s_lp_Force_Field>
OPLS_2005

> <r_lp_Energy>
52.372079

> <b_lp_Chiralities_Consistent>
1

> <s_lp_Variant>
CHEMBL3045_lig95-8

> <s_i_glide_gridfile>
glide-grid_2i0e

> <i_i_glide_lignum>
160

> <i_i_glide_rotatable_bonds>
13

> <r_i_docking_score>
-7.50740963366973

> <r_i_glide_ligand_efficiency>
-0.187685240841743

> <r_i_glide_ligand_efficiency_sa>
-0.641874493981942

> <r_i_glide_ligand_efficiency_ln>
-1.6011095416588

> <r_i_glide_gscore>
-7.50740963366973

> <r_i_glide_lipo>
-2.63174747592412

> <r_i_glide_hbond>
-0.507559523295763

> <r_i_glide_metal>
0

> <r_i_glide_rewards>
-0.800865903753627

> <r_i_glide_evdw>
-39.1929397583008

> <r_i_glide_ecoul>
-14.6998844146729

> <r_i_glide_erotb>
0.626206064324494

> <r_i_glide_esite>
-0.0288131449047524

> <r_i_glide_emodel>
-70.9824188284841

> <r_i_glide_energy>
-53.8928241729736

> <r_i_glide_einternal>
12.3193655014038

> <i_i_glide_confnum>
25

> <i_i_glide_posenum>
68

> <r_i_glide_eff_state_penalty>
0

> <s_user_duplicate_titles>
CHEMBL3045_lig95

> <s_m_subgroup_title>
dock_pv

> <s_m_subgroupid>
dock_pv

> <b_m_subgroup_collapsed>
1

$$$$
CHEMBL3045_lig535
                    3D
 Schrodinger Suite 2021-1.
 64 68  0  0  1  0            999 V2000
   37.1044   56.8710   30.6857 C   0  0  0  0  0  0
   38.2536   55.8318   30.6934 C   0  0  0  0  0  0
   38.0890   54.7394   31.7496 C   0  0  1  0  0  0
   39.1009   53.5562   31.6036 C   0  0  0  0  0  0
   40.4510   53.9641   31.9683 N   0  0  2  0  0  0
   41.5086   52.9664   31.9489 C   0  0  0  0  0  0
   42.6335   53.5719   32.7994 C   0  0  0  0  0  0
   41.9392   54.6336   33.6598 C   0  0  0  0  0  0
   40.4564   54.4228   33.3449 C   0  0  1  0  0  0
   39.5530   55.6587   33.5161 C   0  0  0  0  0  0
   38.1604   55.2513   33.1401 N   0  0  0  0  0  0
   36.9594   55.5577   33.7444 C   0  0  0  0  0  0
   35.8996   55.4581   33.1112 O   0  0  0  0  0  0
   36.8761   55.9147   35.0547 N   0  0  0  0  0  0
   38.0175   56.0739   35.9583 C   0  0  0  0  0  0
   37.4182   56.3928   37.2590 C   0  0  0  0  0  0
   37.7298   56.6334   38.5921 C   0  0  0  0  0  0
   38.9474   56.5265   39.2446 N   0  0  0  0  0  0
   40.1605   56.7412   38.6849 C   0  0  0  0  0  0
   40.3172   57.1722   37.5399 O   0  0  0  0  0  0
   41.3773   56.5014   39.5592 C   0  0  0  0  0  0
   42.5750   57.1717   39.2542 C   0  0  0  0  0  0
   43.7184   56.9997   40.0318 C   0  0  0  0  0  0
   43.6917   56.1446   41.1288 C   0  0  0  0  0  0
   42.5258   55.4488   41.4327 C   0  0  0  0  0  0
   41.3806   55.6084   40.6517 C   0  0  0  0  0  0
   40.3012   54.8585   40.9659 F   0  0  0  0  0  0
   36.6203   56.8966   39.2370 N   0  0  0  0  0  0
   35.6093   56.7723   38.3643 N   0  0  0  0  0  0
   36.0778   56.4628   37.1299 C   0  0  0  0  0  0
   35.5781   56.1595   35.7579 C   0  0  0  0  0  0
   34.6753   54.9107   35.8111 C   0  0  0  0  0  0
   34.7865   57.3588   35.1908 C   0  0  0  0  0  0
   37.3178   57.7148   30.0371 H   0  0  0  0  0  0
   36.1664   56.4202   30.3599 H   0  0  0  0  0  0
   36.9337   57.3102   31.6630 H   0  0  0  0  0  0
   39.2018   56.3496   30.8369 H   0  0  0  0  0  0
   38.3006   55.2998   29.7431 H   0  0  0  0  0  0
   37.0893   54.3719   31.5391 H   0  0  0  0  0  0
   38.7961   52.7303   32.2507 H   0  0  0  0  0  0
   39.1013   53.1617   30.5856 H   0  0  0  0  0  0
   41.1743   51.9984   32.3294 H   0  0  0  0  0  0
   41.8130   52.7853   30.9182 H   0  0  0  0  0  0
   43.0989   52.8042   33.4200 H   0  0  0  0  0  0
   43.4110   54.0098   32.1731 H   0  0  0  0  0  0
   42.2759   55.6469   33.4327 H   0  0  0  0  0  0
   42.1444   54.4253   34.7129 H   0  0  0  0  0  0
   40.0732   53.6762   34.0478 H   0  0  0  0  0  0
   39.8937   56.4352   32.8320 H   0  0  0  0  0  0
   39.7550   56.0609   34.4928 H   0  0  0  0  0  0
   38.5980   56.9457   35.6599 H   0  0  0  0  0  0
   38.6409   55.1788   35.9999 H   0  0  0  0  0  0
   38.9038   56.3801   40.2455 H   0  0  0  0  0  0
   42.6300   57.8450   38.4099 H   0  0  0  0  0  0
   44.6229   57.5334   39.7829 H   0  0  0  0  0  0
   44.5768   56.0103   41.7331 H   0  0  0  0  0  0
   42.5089   54.7725   42.2740 H   0  0  0  0  0  0
   34.6315   56.9067   38.6066 H   0  0  0  0  0  0
   33.9012   55.0198   36.5702 H   0  0  0  0  0  0
   34.1594   54.7683   34.8626 H   0  0  0  0  0  0
   35.2356   54.0039   36.0369 H   0  0  0  0  0  0
   33.9263   57.5721   35.8258 H   0  0  0  0  0  0
   35.3989   58.2547   35.1081 H   0  0  0  0  0  0
   34.3928   57.1517   34.1984 H   0  0  0  0  0  0
  1  2  1  0  0  0
  1 34  1  0  0  0
  1 35  1  0  0  0
  1 36  1  0  0  0
  2  3  1  0  0  0
  2 37  1  0  0  0
  2 38  1  0  0  0
  3  4  1  0  0  0
  3 11  1  0  0  0
  3 39  1  0  0  0
  4  5  1  0  0  0
  4 40  1  0  0  0
  4 41  1  0  0  0
  5  6  1  0  0  0
  5  9  1  0  0  0
  6  7  1  0  0  0
  6 42  1  0  0  0
  6 43  1  0  0  0
  7  8  1  0  0  0
  7 44  1  0  0  0
  7 45  1  0  0  0
  8  9  1  0  0  0
  8 46  1  0  0  0
  8 47  1  0  0  0
  9 10  1  0  0  0
  9 48  1  0  0  0
 10 11  1  0  0  0
 10 49  1  0  0  0
 10 50  1  0  0  0
 11 12  1  0  0  0
 12 13  2  0  0  0
 12 14  1  0  0  0
 14 15  1  0  0  0
 14 31  1  0  0  0
 15 16  1  0  0  0
 15 51  1  0  0  0
 15 52  1  0  0  0
 16 17  1  0  0  0
 16 30  2  0  0  0
 17 18  1  0  0  0
 17 28  2  0  0  0
 18 19  1  0  0  0
 18 53  1  0  0  0
 19 20  2  0  0  0
 19 21  1  0  0  0
 21 22  2  0  0  0
 21 26  1  0  0  0
 22 23  1  0  0  0
 22 54  1  0  0  0
 23 24  2  0  0  0
 23 55  1  0  0  0
 24 25  1  0  0  0
 24 56  1  0  0  0
 25 26  2  0  0  0
 25 57  1  0  0  0
 26 27  1  0  0  0
 28 29  1  0  0  0
 29 30  1  0  0  0
 29 58  1  0  0  0
 30 31  1  0  0  0
 31 32  1  0  0  0
 31 33  1  0  0  0
 32 59  1  0  0  0
 32 60  1  0  0  0
 32 61  1  0  0  0
 33 62  1  0  0  0
 33 63  1  0  0  0
 33 64  1  0  0  0
M  END
> <s_m_entry_id>
3441

> <s_m_entry_name>
dock_pv.170

> <s_m_Source_Path>
/home/csk/Desktop/cluster/DUD-E-result/kpcb

> <s_m_Source_File>
dock_pv.maegz

> <i_m_Source_File_Index>
170

> <chembl_id>
CHEMBL3662784

> <chembl_pref_name>
None

> <i_lp_mmshare_version>
53161

> <i_f3d_flags>
0

> <r_lp_tautomer_probability>
0.5

> <s_lp_Force_Field>
OPLS_2005

> <r_lp_Energy>
119.21914

> <b_lp_Chiralities_Consistent>
1

> <s_lp_Variant>
CHEMBL3045_lig535-1

> <s_i_glide_gridfile>
glide-grid_2i0e

> <i_i_glide_lignum>
806

> <i_i_glide_rotatable_bonds>
6

> <r_i_docking_score>
-7.49587644038498

> <r_i_glide_ligand_efficiency>
-0.227147770920757

> <r_i_glide_ligand_efficiency_sa>
-0.728584272361189

> <r_i_glide_ligand_efficiency_ln>
-1.66704410877056

> <r_i_glide_gscore>
-7.49587644038498

> <r_i_glide_lipo>
-2.28060409548649

> <r_i_glide_hbond>
-0.848291142502931

> <r_i_glide_metal>
0

> <r_i_glide_rewards>
-1.95154035724795

> <r_i_glide_evdw>
-38.7759552001953

> <r_i_glide_ecoul>
-5.43853712081909

> <r_i_glide_erotb>
0.340195485955053

> <r_i_glide_esite>
-0.00105800297003629

> <r_i_glide_emodel>
-58.9198737938148

> <r_i_glide_energy>
-44.2144923210144

> <r_i_glide_einternal>
6.95207691192627

> <i_i_glide_confnum>
38

> <i_i_glide_posenum>
32

> <r_i_glide_eff_state_penalty>
0

> <s_user_duplicate_titles>
CHEMBL3045_lig535

> <s_m_subgroup_title>
dock_pv

> <s_m_subgroupid>
dock_pv

> <b_m_subgroup_collapsed>
1

$$$$
CHEMBL3045_lig66
                    3D
 Schrodinger Suite 2021-1.
 65 69  0  0  1  0            999 V2000
   42.2317   55.6972   34.2496 C   0  0  0  0  0  0
   43.3744   55.6334   35.2163 C   0  0  0  0  0  0
   43.0502   55.4389   36.6786 C   0  0  0  0  0  0
   35.3411   57.2687   32.4766 C   0  0  1  0  0  0
   35.7578   57.3361   33.9055 N   0  0  0  0  0  0
   36.4628   56.6908   31.5325 C   0  0  1  0  0  0
   41.1982   56.6286   34.4455 C   0  0  0  0  0  0
   42.1585   54.8384   33.1375 C   0  0  0  0  0  0
   38.7414   55.7189   31.6842 C   0  0  0  0  0  0
   37.6562   56.3274   32.2572 O   0  0  0  0  0  0
   35.3336   56.6688   35.0039 C   0  0  0  0  0  0
   42.2726   54.3458   37.1670 C   0  0  0  0  0  0
   39.9595   55.7210   32.5601 C   0  0  0  0  0  0
   34.1463   56.3227   32.1292 C   0  0  2  0  0  0
   35.7381   55.5019   30.8527 C   0  0  1  0  0  0
   41.8187   53.1707   36.3246 C   0  0  0  0  0  0
   40.0963   56.6465   33.5977 C   0  0  0  0  0  0
   41.0232   54.8378   32.3219 C   0  0  0  0  0  0
   34.8394   54.9848   31.9608 C   0  0  0  0  0  0
   36.2096   56.7663   36.2413 C   0  0  0  0  0  0
   44.5315   55.8329   34.8423 O   0  0  0  0  0  0
   43.5041   56.4095   37.6028 C   0  0  0  0  0  0
   38.7138   55.1705   30.5875 O   0  0  0  0  0  0
   34.3082   55.9903   35.0353 O   0  0  0  0  0  0
   33.5956   56.5417   30.7039 C   0  0  0  0  0  0
   34.7206   55.9918   29.8211 C   0  0  0  0  0  0
   40.7011   52.6771   36.4343 O   0  0  0  0  0  0
   35.7110   56.3542   37.4861 C   0  0  0  0  0  0
   37.5377   57.2112   36.1727 C   0  0  0  0  0  0
   41.2262   57.5719   35.4417 O   0  0  0  0  0  0
   43.1813   53.9724   32.8428 O   0  0  0  0  0  0
   42.7686   52.6422   35.5075 O   0  0  0  0  0  0
   37.8453   56.8072   38.5286 C   0  0  0  0  0  0
   36.5276   56.3721   38.6176 C   0  0  0  0  0  0
   38.3496   57.2282   37.3062 C   0  0  0  0  0  0
   44.2848   57.4797   37.2367 O   0  0  0  0  0  0
   41.8991   54.3284   38.5197 C   0  0  0  0  0  0
   38.6571   56.8228   39.6344 O   0  0  0  0  0  0
   42.3180   55.3187   39.3989 C   0  0  0  0  0  0
   43.1312   56.3450   38.9417 C   0  0  0  0  0  0
   35.0635   58.2737   32.1573 H   0  0  0  0  0  0
   36.5303   57.9608   34.0660 H   0  0  0  0  0  0
   36.7724   57.4464   30.8075 H   0  0  0  0  0  0
   33.3290   56.3105   32.8374 H   0  0  0  0  0  0
   36.3938   54.7722   30.4025 H   0  0  0  0  0  0
   39.3496   57.4074   33.7439 H   0  0  0  0  0  0
   40.9709   54.1419   31.4940 H   0  0  0  0  0  0
   34.1538   54.1939   31.6555 H   0  0  0  0  0  0
   35.3954   54.6585   32.8372 H   0  0  0  0  0  0
   33.3608   57.5726   30.4609 H   0  0  0  0  0  0
   32.6804   55.9670   30.5476 H   0  0  0  0  0  0
   35.1493   56.7546   29.1695 H   0  0  0  0  0  0
   34.3647   55.1729   29.1942 H   0  0  0  0  0  0
   34.6947   55.9963   37.5810 H   0  0  0  0  0  0
   37.9613   57.5558   35.2478 H   0  0  0  0  0  0
   42.0174   57.5458   35.9841 H   0  0  0  0  0  0
   42.9803   53.2789   32.2074 H   0  0  0  0  0  0
   42.4427   51.8502   35.0652 H   0  0  0  0  0  0
   36.1424   56.0065   39.5532 H   0  0  0  0  0  0
   39.3705   57.5679   37.2382 H   0  0  0  0  0  0
   44.6452   57.4030   36.3475 H   0  0  0  0  0  0
   41.2874   53.5253   38.9105 H   0  0  0  0  0  0
   38.3007   56.3730   40.4116 H   0  0  0  0  0  0
   42.0199   55.2826   40.4358 H   0  0  0  0  0  0
   43.4665   57.1062   39.6306 H   0  0  0  0  0  0
  1  2  1  0  0  0
  1  7  2  0  0  0
  1  8  1  0  0  0
  2  3  1  0  0  0
  2 21  2  0  0  0
  3 12  1  0  0  0
  3 22  2  0  0  0
  4  6  1  0  0  0
  4  5  1  0  0  0
  4 14  1  0  0  0
  4 41  1  0  0  0
  5 11  1  0  0  0
  5 42  1  0  0  0
  6 10  1  0  0  0
  6 15  1  0  0  0
  6 43  1  0  0  0
  7 17  1  0  0  0
  7 30  1  0  0  0
  8 18  2  0  0  0
  8 31  1  0  0  0
  9 13  1  0  0  0
  9 10  1  0  0  0
  9 23  2  0  0  0
 11 20  1  0  0  0
 11 24  2  0  0  0
 12 16  1  0  0  0
 12 37  2  0  0  0
 13 18  1  0  0  0
 13 17  2  0  0  0
 14 19  1  0  0  0
 14 25  1  0  0  0
 14 44  1  0  0  0
 15 19  1  0  0  0
 15 26  1  0  0  0
 15 45  1  0  0  0
 16 27  2  0  0  0
 16 32  1  0  0  0
 17 46  1  0  0  0
 18 47  1  0  0  0
 19 48  1  0  0  0
 19 49  1  0  0  0
 20 28  1  0  0  0
 20 29  2  0  0  0
 22 36  1  0  0  0
 22 40  1  0  0  0
 25 26  1  0  0  0
 25 50  1  0  0  0
 25 51  1  0  0  0
 26 52  1  0  0  0
 26 53  1  0  0  0
 28 34  2  0  0  0
 28 54  1  0  0  0
 29 35  1  0  0  0
 29 55  1  0  0  0
 30 56  1  0  0  0
 31 57  1  0  0  0
 32 58  1  0  0  0
 33 35  2  0  0  0
 33 38  1  0  0  0
 33 34  1  0  0  0
 34 59  1  0  0  0
 35 60  1  0  0  0
 36 61  1  0  0  0
 37 39  1  0  0  0
 37 62  1  0  0  0
 38 63  1  0  0  0
 39 40  2  0  0  0
 39 64  1  0  0  0
 40 65  1  0  0  0
M  END
> <s_m_entry_id>
3442

> <s_m_entry_name>
dock_pv.171

> <s_m_Source_Path>
/home/csk/Desktop/cluster/DUD-E-result/kpcb

> <s_m_Source_File>
dock_pv.maegz

> <i_m_Source_File_Index>
171

> <chembl_id>
CHEMBL305667

> <chembl_pref_name>
None

> <i_lp_mmshare_version>
53161

> <i_f3d_flags>
0

> <r_lp_tautomer_probability>
0.999999999997365

> <s_lp_Force_Field>
OPLS_2005

> <r_lp_Energy>
79.39467

> <b_lp_Chiralities_Consistent>
1

> <s_lp_Variant>
CHEMBL3045_lig66-7

> <s_i_glide_gridfile>
glide-grid_2i0e

> <i_i_glide_lignum>
80

> <i_i_glide_rotatable_bonds>
14

> <r_i_docking_score>
-7.45219326730199

> <r_i_glide_ligand_efficiency>
-0.18630483168255

> <r_i_glide_ligand_efficiency_sa>
-0.63715356107016

> <r_i_glide_ligand_efficiency_ln>
-1.58933351565768

> <r_i_glide_gscore>
-7.45219326730199

> <r_i_glide_lipo>
-3.19772099372522

> <r_i_glide_hbond>
-0.303952080731818

> <r_i_glide_metal>
0

> <r_i_glide_rewards>
-0.675879973265812

> <r_i_glide_evdw>
-54.505973815918

> <r_i_glide_ecoul>
-7.52260732650757

> <r_i_glide_erotb>
0.621971937046108

> <r_i_glide_esite>
-0.0429223668532133

> <r_i_glide_emodel>
-81.2515117055766

> <r_i_glide_energy>
-62.0285811424255

> <r_i_glide_einternal>
17.1105842590332

> <i_i_glide_confnum>
154

> <i_i_glide_posenum>
272

> <r_i_glide_eff_state_penalty>
0

> <s_user_duplicate_titles>
CHEMBL3045_lig66

> <s_m_subgroup_title>
dock_pv

> <s_m_subgroupid>
dock_pv

> <b_m_subgroup_collapsed>
1

$$$$
CHEMBL3045_lig295
                    3D
 Schrodinger Suite 2021-1.
 50 53  0  0  1  0            999 V2000
   36.2200   55.3318   31.4939 N   0  0  0  0  0  0
   37.5453   55.3348   31.7971 C   0  0  0  0  0  0
   38.0664   55.8024   32.9540 N   0  0  0  0  0  0
   35.3689   55.7877   32.4529 C   0  0  0  0  0  0
   38.4006   54.7749   30.8370 N   0  0  0  0  0  0
   35.8064   56.2560   33.6979 C   0  0  0  0  0  0
   37.1960   56.2512   33.8830 C   0  0  0  0  0  0
   35.4130   56.3557   36.2394 C   0  0  0  0  0  0
   34.8897   56.7512   34.8229 C   0  0  0  0  0  0
   36.9097   56.6694   36.3438 C   0  0  0  0  0  0
   37.6981   56.6673   35.2064 C   0  0  0  0  0  0
   38.9441   57.0670   35.6177 N   0  0  0  0  0  0
   39.0074   57.2320   36.9365 N   0  0  0  0  0  0
   37.7941   56.9812   37.3994 C   0  0  0  0  0  0
   40.1560   57.2471   34.8372 C   0  0  0  0  0  0
   37.4423   56.9893   38.7958 C   0  0  0  0  0  0
   36.3032   56.7722   39.1983 O   0  0  0  0  0  0
   39.7553   54.2662   31.0778 C   0  0  0  0  0  0
   38.4575   57.1720   39.6369 N   0  0  0  0  0  0
   40.7389   55.3587   31.5348 C   0  0  0  0  0  0
   42.1636   54.7784   31.6373 C   0  0  0  0  0  0
   42.0910   53.6907   32.6287 N   0  0  0  0  0  0
   41.2376   52.5509   32.2234 C   0  0  0  0  0  0
   39.7849   53.0800   32.0689 C   0  0  0  0  0  0
   42.4479   53.9276   33.9185 C   0  0  0  0  0  0
   42.4577   52.7720   34.9155 C   0  0  0  0  0  0
   42.9049   55.0090   34.2966 O   0  0  0  0  0  0
   34.3174   55.7646   32.2082 H   0  0  0  0  0  0
   37.9466   54.3738   30.0250 H   0  0  0  0  0  0
   34.8436   56.8960   36.9967 H   0  0  0  0  0  0
   35.2332   55.2956   36.4222 H   0  0  0  0  0  0
   34.8156   57.8381   34.7607 H   0  0  0  0  0  0
   33.8791   56.3682   34.6859 H   0  0  0  0  0  0
   39.9043   57.6322   33.8495 H   0  0  0  0  0  0
   40.8270   57.9558   35.3242 H   0  0  0  0  0  0
   40.6579   56.2856   34.7447 H   0  0  0  0  0  0
   40.0818   53.8969   30.1028 H   0  0  0  0  0  0
   38.3024   56.9776   40.6214 H   0  0  0  0  0  0
   39.3894   57.3298   39.2868 H   0  0  0  0  0  0
   40.4823   55.7868   32.4965 H   0  0  0  0  0  0
   40.7008   56.1826   30.8371 H   0  0  0  0  0  0
   42.9466   55.5069   31.8563 H   0  0  0  0  0  0
   42.4694   54.3336   30.6896 H   0  0  0  0  0  0
   41.6110   52.2204   31.2528 H   0  0  0  0  0  0
   41.3523   51.6597   32.8372 H   0  0  0  0  0  0
   39.1416   52.2787   31.7053 H   0  0  0  0  0  0
   39.3870   53.3625   33.0442 H   0  0  0  0  0  0
   43.1016   51.9726   34.5461 H   0  0  0  0  0  0
   41.4539   52.3768   35.0714 H   0  0  0  0  0  0
   42.8508   53.0929   35.8810 H   0  0  0  0  0  0
  1  2  2  0  0  0
  1  4  1  0  0  0
  2  5  1  0  0  0
  2  3  1  0  0  0
  3  7  2  0  0  0
  4  6  2  0  0  0
  4 28  1  0  0  0
  5 18  1  0  0  0
  5 29  1  0  0  0
  6  9  1  0  0  0
  6  7  1  0  0  0
  7 11  1  0  0  0
  8 10  1  0  0  0
  8  9  1  0  0  0
  8 30  1  0  0  0
  8 31  1  0  0  0
  9 32  1  0  0  0
  9 33  1  0  0  0
 10 14  1  0  0  0
 10 11  2  0  0  0
 11 12  1  0  0  0
 12 13  1  0  0  0
 12 15  1  0  0  0
 13 14  2  0  0  0
 14 16  1  0  0  0
 15 34  1  0  0  0
 15 35  1  0  0  0
 15 36  1  0  0  0
 16 17  2  0  0  0
 16 19  1  0  0  0
 18 20  1  0  0  0
 18 24  1  0  0  0
 18 37  1  0  0  0
 19 38  1  0  0  0
 19 39  1  0  0  0
 20 21  1  0  0  0
 20 40  1  0  0  0
 20 41  1  0  0  0
 21 22  1  0  0  0
 21 42  1  0  0  0
 21 43  1  0  0  0
 22 23  1  0  0  0
 22 25  1  0  0  0
 23 24  1  0  0  0
 23 44  1  0  0  0
 23 45  1  0  0  0
 24 46  1  0  0  0
 24 47  1  0  0  0
 25 26  1  0  0  0
 25 27  2  0  0  0
 26 48  1  0  0  0
 26 49  1  0  0  0
 26 50  1  0  0  0
M  END
> <s_m_entry_id>
3443

> <s_m_entry_name>
dock_pv.172

> <s_m_Source_Path>
/home/csk/Desktop/cluster/DUD-E-result/kpcb

> <s_m_Source_File>
dock_pv.maegz

> <i_m_Source_File_Index>
172

> <chembl_id>
CHEMBL599224

> <chembl_pref_name>
None

> <i_lp_mmshare_version>
53161

> <i_f3d_flags>
0

> <r_lp_tautomer_probability>
0.999999987636

> <s_lp_Force_Field>
OPLS_2005

> <r_lp_Energy>
26.655429

> <b_lp_Chiralities_Consistent>
1

> <s_lp_Variant>
CHEMBL3045_lig295-1

> <s_i_glide_gridfile>
glide-grid_2i0e

> <i_i_glide_lignum>
456

> <i_i_glide_rotatable_bonds>
4

> <r_i_docking_score>
-7.42968983078988

> <r_i_glide_ligand_efficiency>
-0.275173697436662

> <r_i_glide_ligand_efficiency_sa>
-0.825521091403059

> <r_i_glide_ligand_efficiency_ln>
-1.72950930459806

> <r_i_glide_gscore>
-7.42968983078988

> <r_i_glide_lipo>
-1.88552316215606

> <r_i_glide_hbond>
-0.65141426582953

> <r_i_glide_metal>
0

> <r_i_glide_rewards>
-1.72216803189497

> <r_i_glide_evdw>
-36.204532623291

> <r_i_glide_ecoul>
-9.76621913909912

> <r_i_glide_erotb>
0.282560957926378

> <r_i_glide_esite>
-0.177985826806272

> <r_i_glide_emodel>
-65.4780996255097

> <r_i_glide_energy>
-45.9707517623901

> <r_i_glide_einternal>
3.18237566947937

> <i_i_glide_confnum>
2

> <i_i_glide_posenum>
362

> <r_i_glide_eff_state_penalty>
0

> <s_user_duplicate_titles>
CHEMBL3045_lig295

> <s_m_subgroup_title>
dock_pv

> <s_m_subgroupid>
dock_pv

> <b_m_subgroup_collapsed>
1

$$$$
CHEMBL3045_lig551
                    3D
 Schrodinger Suite 2021-1.
 64 68  0  0  1  0            999 V2000
   39.6645   53.1729   30.9106 C   0  0  0  0  0  0
   39.1024   52.6478   32.2405 C   0  0  0  0  0  0
   39.0031   53.6430   33.4277 C   0  0  1  0  0  0
   40.3346   53.8284   34.1938 C   0  0  0  0  0  0
   41.3420   54.5192   33.4016 N   0  0  2  0  0  0
   42.5818   54.8093   34.1204 C   0  0  0  0  0  0
   43.1251   56.0986   33.5044 C   0  0  0  0  0  0
   41.8530   56.8898   33.2361 C   0  0  0  0  0  0
   40.8719   55.7858   32.8368 C   0  0  2  0  0  0
   39.3654   56.1709   32.9093 C   0  0  0  0  0  0
   38.4822   54.9952   33.1051 N   0  0  0  0  0  0
   37.1761   55.2743   33.3392 C   0  0  0  0  0  0
   36.3648   55.2725   32.4116 O   0  0  0  0  0  0
   36.8284   55.6095   34.6215 N   0  0  0  0  0  0
   37.7620   55.4971   35.7665 C   0  0  0  0  0  0
   36.9937   56.0480   36.9161 C   0  0  0  0  0  0
   37.0824   56.3719   38.2791 C   0  0  0  0  0  0
   38.2605   56.2775   39.2351 C   0  0  0  0  0  0
   39.6392   56.5419   38.6054 C   0  0  0  0  0  0
   39.7506   57.3280   37.6593 O   0  0  0  0  0  0
   40.7891   55.7819   39.1681 C   0  0  0  0  0  0
   40.8684   55.4848   40.5372 C   0  0  0  0  0  0
   41.9744   54.7734   41.0079 C   0  0  0  0  0  0
   42.9657   54.3700   40.1125 C   0  0  0  0  0  0
   42.8200   54.7001   38.7651 C   0  0  0  0  0  0
   41.7593   55.4008   38.2891 N   0  0  0  0  0  0
   35.9051   56.7721   38.7146 N   0  0  0  0  0  0
   35.1011   56.7720   37.6424 N   0  0  0  0  0  0
   35.7493   56.3713   36.5103 C   0  0  0  0  0  0
   35.5020   56.1590   35.0426 C   0  0  0  0  0  0
   34.3330   55.1717   34.8504 C   0  0  0  0  0  0
   35.1872   57.5134   34.3672 C   0  0  0  0  0  0
   39.6076   52.3897   30.1512 H   0  0  0  0  0  0
   39.1028   54.0310   30.5421 H   0  0  0  0  0  0
   40.7125   53.4580   30.9924 H   0  0  0  0  0  0
   39.6961   51.7870   32.5457 H   0  0  0  0  0  0
   38.1104   52.2417   32.0382 H   0  0  0  0  0  0
   38.3080   53.1608   34.1154 H   0  0  0  0  0  0
   40.1639   54.4049   35.1019 H   0  0  0  0  0  0
   40.7132   52.8606   34.5259 H   0  0  0  0  0  0
   42.4191   54.9412   35.1921 H   0  0  0  0  0  0
   43.2799   53.9811   33.9737 H   0  0  0  0  0  0
   43.8009   56.6229   34.1817 H   0  0  0  0  0  0
   43.6874   55.8806   32.5950 H   0  0  0  0  0  0
   42.0243   57.6011   32.4353 H   0  0  0  0  0  0
   41.5078   57.4423   34.1116 H   0  0  0  0  0  0
   40.9902   55.6543   31.7580 H   0  0  0  0  0  0
   39.1056   56.7682   32.0340 H   0  0  0  0  0  0
   39.2668   56.7586   33.8215 H   0  0  0  0  0  0
   38.6786   56.0609   35.6094 H   0  0  0  0  0  0
   38.0287   54.4555   35.9386 H   0  0  0  0  0  0
   38.2694   55.2852   39.6880 H   0  0  0  0  0  0
   38.1441   56.9975   40.0417 H   0  0  0  0  0  0
   40.1040   55.7996   41.2323 H   0  0  0  0  0  0
   42.0571   54.5388   42.0580 H   0  0  0  0  0  0
   43.8259   53.8108   40.4474 H   0  0  0  0  0  0
   43.5625   54.3896   38.0419 H   0  0  0  0  0  0
   34.1257   57.0352   37.7061 H   0  0  0  0  0  0
   33.3901   55.5957   35.2022 H   0  0  0  0  0  0
   34.1921   54.9001   33.8044 H   0  0  0  0  0  0
   34.4925   54.2586   35.4203 H   0  0  0  0  0  0
   34.3241   57.9952   34.8292 H   0  0  0  0  0  0
   36.0217   58.2065   34.4496 H   0  0  0  0  0  0
   34.9647   57.3945   33.3069 H   0  0  0  0  0  0
  1  2  1  0  0  0
  1 33  1  0  0  0
  1 34  1  0  0  0
  1 35  1  0  0  0
  2  3  1  0  0  0
  2 36  1  0  0  0
  2 37  1  0  0  0
  3  4  1  0  0  0
  3 11  1  0  0  0
  3 38  1  0  0  0
  4  5  1  0  0  0
  4 39  1  0  0  0
  4 40  1  0  0  0
  5  6  1  0  0  0
  5  9  1  0  0  0
  6  7  1  0  0  0
  6 41  1  0  0  0
  6 42  1  0  0  0
  7  8  1  0  0  0
  7 43  1  0  0  0
  7 44  1  0  0  0
  8  9  1  0  0  0
  8 45  1  0  0  0
  8 46  1  0  0  0
  9 10  1  0  0  0
  9 47  1  0  0  0
 10 11  1  0  0  0
 10 48  1  0  0  0
 10 49  1  0  0  0
 11 12  1  0  0  0
 12 13  2  0  0  0
 12 14  1  0  0  0
 14 15  1  0  0  0
 14 30  1  0  0  0
 15 16  1  0  0  0
 15 50  1  0  0  0
 15 51  1  0  0  0
 16 17  1  0  0  0
 16 29  2  0  0  0
 17 18  1  0  0  0
 17 27  2  0  0  0
 18 19  1  0  0  0
 18 52  1  0  0  0
 18 53  1  0  0  0
 19 20  2  0  0  0
 19 21  1  0  0  0
 21 22  2  0  0  0
 21 26  1  0  0  0
 22 23  1  0  0  0
 22 54  1  0  0  0
 23 24  2  0  0  0
 23 55  1  0  0  0
 24 25  1  0  0  0
 24 56  1  0  0  0
 25 26  2  0  0  0
 25 57  1  0  0  0
 27 28  1  0  0  0
 28 29  1  0  0  0
 28 58  1  0  0  0
 29 30  1  0  0  0
 30 31  1  0  0  0
 30 32  1  0  0  0
 31 59  1  0  0  0
 31 60  1  0  0  0
 31 61  1  0  0  0
 32 62  1  0  0  0
 32 63  1  0  0  0
 32 64  1  0  0  0
M  END
> <s_m_entry_id>
3444

> <s_m_entry_name>
dock_pv.173

> <s_m_Source_Path>
/home/csk/Desktop/cluster/DUD-E-result/kpcb

> <s_m_Source_File>
dock_pv.maegz

> <i_m_Source_File_Index>
173

> <chembl_id>
CHEMBL3662800

> <chembl_pref_name>
None

> <i_lp_mmshare_version>
53161

> <i_f3d_flags>
0

> <r_lp_tautomer_probability>
0.499975

> <s_lp_Force_Field>
OPLS_2005

> <r_lp_Energy>
109.265945

> <b_lp_Chiralities_Consistent>
1

> <s_lp_Variant>
CHEMBL3045_lig551-1

> <s_i_glide_gridfile>
glide-grid_2i0e

> <i_i_glide_lignum>
846

> <i_i_glide_rotatable_bonds>
6

> <r_i_docking_score>
-7.40954191721195

> <r_i_glide_ligand_efficiency>
-0.231548184912873

> <r_i_glide_ligand_efficiency_sa>
-0.735119663774801

> <r_i_glide_ligand_efficiency_ln>
-1.65919841174814

> <r_i_glide_gscore>
-7.40954191721195

> <r_i_glide_lipo>
-2.30670056667473

> <r_i_glide_hbond>
-0.554163129072586

> <r_i_glide_metal>
0

> <r_i_glide_rewards>
-1.82766248240369

> <r_i_glide_evdw>
-44.0615921020508

> <r_i_glide_ecoul>
-5.87227439880371

> <r_i_glide_erotb>
0.366091928238552

> <r_i_glide_esite>
-0.00318690237639424

> <r_i_glide_emodel>
-62.7625026658284

> <r_i_glide_energy>
-49.9338665008545

> <r_i_glide_einternal>
16.9208469390869

> <i_i_glide_confnum>
92

> <i_i_glide_posenum>
361

> <r_i_glide_eff_state_penalty>
0

> <s_user_duplicate_titles>
CHEMBL3045_lig551

> <s_m_subgroup_title>
dock_pv

> <s_m_subgroupid>
dock_pv

> <b_m_subgroup_collapsed>
1

$$$$
CHEMBL3045_lig708
                    3D
 Schrodinger Suite 2021-1.
 63 67  0  0  1  0            999 V2000
   38.5015   56.9745   38.2501 C   0  0  0  0  0  0
   37.4489   56.9873   39.1592 C   0  0  0  0  0  0
   36.1465   56.7720   38.8368 N   0  0  0  0  0  0
   38.2372   56.7190   36.9043 C   0  0  0  0  0  0
   36.9013   56.4829   36.5156 C   0  0  0  0  0  0
   35.9192   56.5322   37.5426 C   0  0  0  0  0  0
   34.6977   56.2995   36.9564 N   0  0  0  0  0  0
   34.8699   56.0887   35.6086 C   0  0  0  0  0  0
   36.2146   56.1845   35.2777 C   0  0  0  0  0  0
   36.8202   56.0115   33.9593 C   0  0  0  0  0  0
   38.1291   56.1028   33.8613 N   0  0  0  0  0  0
   38.5874   55.9169   32.6512 C   0  0  0  0  0  0
   37.3692   55.5765   31.4733 S   0  0  0  0  0  0
   36.1815   55.7353   32.7473 C   0  0  0  0  0  0
   39.9302   55.9126   32.3001 N   0  0  0  0  0  0
   40.8981   56.5728   32.9788 C   0  0  0  0  0  0
   42.3485   56.2750   32.5879 C   0  0  0  0  0  0
   40.6828   57.3950   33.8753 O   0  0  0  0  0  0
   43.0750   55.5212   33.6939 C   0  0  0  0  0  0
   43.1616   54.1270   33.6562 C   0  0  0  0  0  0
   43.8149   53.4402   34.6767 C   0  0  0  0  0  0
   44.3797   54.1401   35.7413 C   0  0  0  0  0  0
   44.2953   55.5402   35.8020 C   0  0  0  0  0  0
   43.6362   56.2155   34.7725 C   0  0  0  0  0  0
   44.8358   56.3204   36.8073 O   0  0  0  0  0  0
   45.5183   55.7116   37.9051 C   0  0  0  0  0  0
   44.5455   55.2192   38.9962 C   0  0  0  0  0  0
   43.7023   56.3593   39.6093 C   0  0  0  0  0  0
   42.8532   55.9690   40.8443 C   0  0  0  0  0  0
   43.6954   55.5932   42.0835 C   0  0  0  0  0  0
   42.8162   55.2615   43.3086 C   0  0  0  0  0  0
   41.9012   56.3560   43.6261 N   0  0  1  0  0  0
   41.0553   56.7384   42.4912 C   0  0  0  0  0  0
   41.9071   57.1132   41.2621 C   0  0  0  0  0  0
   39.5145   57.1499   38.5829 H   0  0  0  0  0  0
   37.6506   57.1737   40.2034 H   0  0  0  0  0  0
   39.0461   56.7016   36.1890 H   0  0  0  0  0  0
   33.7960   56.2900   37.4138 H   0  0  0  0  0  0
   34.0078   55.8807   34.9902 H   0  0  0  0  0  0
   35.1276   55.6092   32.5493 H   0  0  0  0  0  0
   40.1869   55.3989   31.4692 H   0  0  0  0  0  0
   42.3952   55.7086   31.6578 H   0  0  0  0  0  0
   42.8573   57.2237   32.4218 H   0  0  0  0  0  0
   42.7349   53.5623   32.8379 H   0  0  0  0  0  0
   43.8936   52.3630   34.6362 H   0  0  0  0  0  0
   44.8812   53.5707   36.5065 H   0  0  0  0  0  0
   43.5618   57.2932   34.8183 H   0  0  0  0  0  0
   46.1903   54.9151   37.5802 H   0  0  0  0  0  0
   46.1734   56.4717   38.3343 H   0  0  0  0  0  0
   43.8886   54.4459   38.5921 H   0  0  0  0  0  0
   45.1371   54.7276   39.7684 H   0  0  0  0  0  0
   44.3585   57.1881   39.8833 H   0  0  0  0  0  0
   43.0437   56.7489   38.8301 H   0  0  0  0  0  0
   42.2293   55.1081   40.5943 H   0  0  0  0  0  0
   44.3498   54.7508   41.8618 H   0  0  0  0  0  0
   44.3820   56.4013   42.3408 H   0  0  0  0  0  0
   42.2073   54.3775   43.1182 H   0  0  0  0  0  0
   43.4384   55.0477   44.1789 H   0  0  0  0  0  0
   41.3393   56.0945   44.4259 H   0  0  0  0  0  0
   40.3959   55.9037   42.2468 H   0  0  0  0  0  0
   40.4213   57.5719   42.7845 H   0  0  0  0  0  0
   42.4637   58.0286   41.4672 H   0  0  0  0  0  0
   41.2582   57.3800   40.4281 H   0  0  0  0  0  0
  1  2  2  0  0  0
  1  4  1  0  0  0
  1 35  1  0  0  0
  2  3  1  0  0  0
  2 36  1  0  0  0
  3  6  2  0  0  0
  4  5  2  0  0  0
  4 37  1  0  0  0
  5  6  1  0  0  0
  5  9  1  0  0  0
  6  7  1  0  0  0
  7  8  1  0  0  0
  7 38  1  0  0  0
  8  9  2  0  0  0
  8 39  1  0  0  0
  9 10  1  0  0  0
 10 11  1  0  0  0
 10 14  2  0  0  0
 11 12  2  0  0  0
 12 13  1  0  0  0
 12 15  1  0  0  0
 13 14  1  0  0  0
 14 40  1  0  0  0
 15 16  1  0  0  0
 15 41  1  0  0  0
 16 17  1  0  0  0
 16 18  2  0  0  0
 17 19  1  0  0  0
 17 42  1  0  0  0
 17 43  1  0  0  0
 19 20  2  0  0  0
 19 24  1  0  0  0
 20 21  1  0  0  0
 20 44  1  0  0  0
 21 22  2  0  0  0
 21 45  1  0  0  0
 22 23  1  0  0  0
 22 46  1  0  0  0
 23 24  2  0  0  0
 23 25  1  0  0  0
 24 47  1  0  0  0
 25 26  1  0  0  0
 26 27  1  0  0  0
 26 48  1  0  0  0
 26 49  1  0  0  0
 27 28  1  0  0  0
 27 50  1  0  0  0
 27 51  1  0  0  0
 28 29  1  0  0  0
 28 52  1  0  0  0
 28 53  1  0  0  0
 29 30  1  0  0  0
 29 34  1  0  0  0
 29 54  1  0  0  0
 30 31  1  0  0  0
 30 55  1  0  0  0
 30 56  1  0  0  0
 31 32  1  0  0  0
 31 57  1  0  0  0
 31 58  1  0  0  0
 32 33  1  0  0  0
 32 59  1  0  0  0
 33 34  1  0  0  0
 33 60  1  0  0  0
 33 61  1  0  0  0
 34 62  1  0  0  0
 34 63  1  0  0  0
M  END
> <s_m_entry_id>
3445

> <s_m_entry_name>
dock_pv.174

> <s_m_Source_Path>
/home/csk/Desktop/cluster/DUD-E-result/kpcb

> <s_m_Source_File>
dock_pv.maegz

> <i_m_Source_File_Index>
174

> <chembl_id>
CHEMBL4245242

> <chembl_pref_name>
None

> <i_lp_mmshare_version>
53161

> <i_f3d_flags>
0

> <r_lp_tautomer_probability>
0.998998924059464

> <s_lp_Force_Field>
OPLS_2005

> <r_lp_Energy>
25.741433

> <b_lp_Chiralities_Consistent>
1

> <s_lp_Variant>
CHEMBL3045_lig708-1

> <s_i_glide_gridfile>
glide-grid_2i0e

> <i_i_glide_lignum>
1189

> <i_i_glide_rotatable_bonds>
10

> <r_i_docking_score>
-7.39334914162979

> <r_i_glide_ligand_efficiency>
-0.217451445342053

> <r_i_glide_ligand_efficiency_sa>
-0.704458267706901

> <r_i_glide_ligand_efficiency_ln>
-1.63339820180514

> <r_i_glide_gscore>
-7.39334914162979

> <r_i_glide_lipo>
-2.16744904581001

> <r_i_glide_hbond>
-0.688796722417938

> <r_i_glide_metal>
0

> <r_i_glide_rewards>
-1.75754023072664

> <r_i_glide_evdw>
-44.762825012207

> <r_i_glide_ecoul>
-7.36821222305298

> <r_i_glide_erotb>
0.563809941393092

> <r_i_glide_esite>
0

> <r_i_glide_emodel>
-71.5622574607498

> <r_i_glide_energy>
-52.13103723526

> <r_i_glide_einternal>
9.58101844787598

> <i_i_glide_confnum>
3

> <i_i_glide_posenum>
233

> <r_i_glide_eff_state_penalty>
0

> <s_user_duplicate_titles>
CHEMBL3045_lig708

> <s_m_subgroup_title>
dock_pv

> <s_m_subgroupid>
dock_pv

> <b_m_subgroup_collapsed>
1

$$$$
CHEMBL3045_lig265
                    3D
 Schrodinger Suite 2021-1.
 67 71  0  0  1  0            999 V2000
   40.4488   56.0459   39.7720 C   0  0  0  0  0  0
   41.7989   56.0767   40.1526 C   0  0  0  0  0  0
   42.7400   56.5740   39.2525 C   0  0  0  0  0  0
   42.3578   57.0427   37.9875 C   0  0  0  0  0  0
   41.0129   56.9937   37.6340 C   0  0  0  0  0  0
   40.0510   56.4816   38.5088 C   0  0  0  0  0  0
   38.6870   56.4118   38.1805 N   0  0  0  0  0  0
   38.0912   56.2018   36.9555 C   0  0  0  0  0  0
   38.8176   55.8767   35.9063 N   0  0  0  0  0  0
   36.7077   56.2289   36.6682 C   0  0  0  0  0  0
   36.6442   55.9661   35.2664 C   0  0  0  0  0  0
   37.9629   55.7211   34.8762 N   0  0  0  0  0  0
   38.2906   55.3268   33.6017 C   0  0  0  0  0  0
   37.2502   55.2301   32.6787 C   0  0  0  0  0  0
   35.9570   55.5321   33.0941 C   0  0  0  0  0  0
   35.6405   55.8909   34.3737 N   0  0  0  0  0  0
   35.6707   56.4746   37.6330 C   0  0  0  0  0  0
   34.4374   56.3695   37.1563 N   0  0  0  0  0  0
   35.9016   56.7715   38.8038 O   0  0  0  0  0  0
   34.8165   55.4112   32.0864 C   0  0  0  0  0  0
   39.6301   55.0360   33.3084 N   0  0  0  0  0  0
   40.0611   54.1363   32.2390 C   0  0  2  0  0  0
   43.2200   57.5672   37.0495 O   0  0  0  0  0  0
   44.6181   57.5636   37.3114 C   0  0  0  0  0  0
   42.2796   55.6461   41.3749 O   0  0  0  0  0  0
   41.3581   55.2046   42.3649 C   0  0  0  0  0  0
   40.3897   52.7278   32.7947 C   0  0  0  0  0  0
   41.2128   52.7721   33.9469 O   0  0  0  0  0  0
   41.2475   54.7484   31.4595 C   0  0  0  0  0  0
   42.4490   55.1765   32.3038 C   0  0  0  0  0  0
   33.3641   55.2511   32.4915 C   0  0  0  0  0  0
   33.8337   56.5337   31.8439 C   0  0  0  0  0  0
   43.4994   54.2862   32.5243 C   0  0  0  0  0  0
   44.5888   54.6616   33.3043 C   0  0  0  0  0  0
   44.6319   55.9418   33.8485 C   0  0  0  0  0  0
   43.5912   56.8421   33.6270 C   0  0  0  0  0  0
   42.4985   56.4578   32.8560 C   0  0  0  0  0  0
   39.6970   55.6572   40.4397 H   0  0  0  0  0  0
   43.7742   56.5920   39.5581 H   0  0  0  0  0  0
   40.7261   57.3661   36.6638 H   0  0  0  0  0  0
   38.0824   56.3834   38.9899 H   0  0  0  0  0  0
   37.4321   54.9444   31.6547 H   0  0  0  0  0  0
   34.2761   56.0938   36.1986 H   0  0  0  0  0  0
   33.6623   56.5964   37.7749 H   0  0  0  0  0  0
   35.1150   54.8828   31.1790 H   0  0  0  0  0  0
   40.2640   55.0775   34.0960 H   0  0  0  0  0  0
   39.2672   53.9914   31.5077 H   0  0  0  0  0  0
   45.1445   57.9717   36.4466 H   0  0  0  0  0  0
   44.8664   58.1861   38.1714 H   0  0  0  0  0  0
   44.9897   56.5510   37.4775 H   0  0  0  0  0  0
   41.9054   54.8745   43.2489 H   0  0  0  0  0  0
   40.7037   56.0212   42.6689 H   0  0  0  0  0  0
   40.7551   54.3648   42.0173 H   0  0  0  0  0  0
   39.4659   52.2247   33.0852 H   0  0  0  0  0  0
   40.8449   52.0959   32.0288 H   0  0  0  0  0  0
   41.4994   51.8688   34.1457 H   0  0  0  0  0  0
   40.8806   55.6075   30.9000 H   0  0  0  0  0  0
   41.5899   54.0518   30.6930 H   0  0  0  0  0  0
   32.7417   54.5622   31.9178 H   0  0  0  0  0  0
   33.1136   55.2435   33.5529 H   0  0  0  0  0  0
   33.9356   57.4416   32.4369 H   0  0  0  0  0  0
   33.5385   56.7483   30.8148 H   0  0  0  0  0  0
   43.4587   53.2858   32.1192 H   0  0  0  0  0  0
   45.3863   53.9561   33.4874 H   0  0  0  0  0  0
   45.4778   56.2387   34.4507 H   0  0  0  0  0  0
   43.6296   57.8352   34.0475 H   0  0  0  0  0  0
   41.6893   57.1545   32.6899 H   0  0  0  0  0  0
  1  6  1  0  0  0
  1  2  2  0  0  0
  1 38  1  0  0  0
  2  3  1  0  0  0
  2 25  1  0  0  0
  3  4  2  0  0  0
  3 39  1  0  0  0
  4  5  1  0  0  0
  4 23  1  0  0  0
  5  6  2  0  0  0
  5 40  1  0  0  0
  6  7  1  0  0  0
  7  8  1  0  0  0
  7 41  1  0  0  0
  8  9  2  0  0  0
  8 10  1  0  0  0
  9 12  1  0  0  0
 10 11  2  0  0  0
 10 17  1  0  0  0
 11 12  1  0  0  0
 11 16  1  0  0  0
 12 13  1  0  0  0
 13 21  1  0  0  0
 13 14  2  0  0  0
 14 15  1  0  0  0
 14 42  1  0  0  0
 15 20  1  0  0  0
 15 16  2  0  0  0
 17 18  1  0  0  0
 17 19  2  0  0  0
 18 43  1  0  0  0
 18 44  1  0  0  0
 20 31  1  0  0  0
 20 32  1  0  0  0
 20 45  1  0  0  0
 21 22  1  0  0  0
 21 46  1  0  0  0
 22 27  1  0  0  0
 22 29  1  0  0  0
 22 47  1  0  0  0
 23 24  1  0  0  0
 24 48  1  0  0  0
 24 49  1  0  0  0
 24 50  1  0  0  0
 25 26  1  0  0  0
 26 51  1  0  0  0
 26 52  1  0  0  0
 26 53  1  0  0  0
 27 28  1  0  0  0
 27 54  1  0  0  0
 27 55  1  0  0  0
 28 56  1  0  0  0
 29 30  1  0  0  0
 29 57  1  0  0  0
 29 58  1  0  0  0
 30 33  2  0  0  0
 30 37  1  0  0  0
 31 32  1  0  0  0
 31 59  1  0  0  0
 31 60  1  0  0  0
 32 61  1  0  0  0
 32 62  1  0  0  0
 33 34  1  0  0  0
 33 63  1  0  0  0
 34 35  2  0  0  0
 34 64  1  0  0  0
 35 36  1  0  0  0
 35 65  1  0  0  0
 36 37  2  0  0  0
 36 66  1  0  0  0
 37 67  1  0  0  0
M  END
> <s_m_entry_id>
3446

> <s_m_entry_name>
dock_pv.175

> <s_m_Source_Path>
/home/csk/Desktop/cluster/DUD-E-result/kpcb

> <s_m_Source_File>
dock_pv.maegz

> <i_m_Source_File_Index>
175

> <chembl_id>
CHEMBL260861

> <chembl_pref_name>
None

> <i_lp_mmshare_version>
53161

> <i_f3d_flags>
0

> <r_lp_tautomer_probability>
1

> <s_lp_Force_Field>
OPLS_2005

> <r_lp_Energy>
35.59729

> <b_lp_Chiralities_Consistent>
1

> <s_lp_Variant>
CHEMBL3045_lig265-1

> <s_i_glide_gridfile>
glide-grid_2i0e

> <i_i_glide_lignum>
425

> <i_i_glide_rotatable_bonds>
12

> <r_i_docking_score>
-7.37992888135547

> <r_i_glide_ligand_efficiency>
-0.199457537333932

> <r_i_glide_ligand_efficiency_sa>
-0.664636763579633

> <r_i_glide_ligand_efficiency_ln>
-1.60053356428618

> <r_i_glide_gscore>
-7.37992888135547

> <r_i_glide_lipo>
-2.13878913936566

> <r_i_glide_hbond>
-0.864

> <r_i_glide_metal>
0

> <r_i_glide_rewards>
-0.728654747836545

> <r_i_glide_evdw>
-46.1860771179199

> <r_i_glide_ecoul>
-12.6817655563354

> <r_i_glide_erotb>
0.566328139139277

> <r_i_glide_esite>
-0.00324444394622897

> <r_i_glide_emodel>
-81.9058495797701

> <r_i_glide_energy>
-58.8678426742554

> <r_i_glide_einternal>
8.35183238983154

> <i_i_glide_confnum>
6

> <i_i_glide_posenum>
12

> <r_i_glide_eff_state_penalty>
0

> <s_user_duplicate_titles>
CHEMBL3045_lig265

> <s_m_subgroup_title>
dock_pv

> <s_m_subgroupid>
dock_pv

> <b_m_subgroup_collapsed>
1

$$$$
CHEMBL3045_lig255
                    3D
 Schrodinger Suite 2021-1.
 63 69  0  0  1  0            999 V2000
   36.6135   56.4423   35.7994 C   0  0  0  0  0  0
   37.3181   56.3304   36.9375 C   0  0  0  0  0  0
   37.1410   56.3411   34.4279 C   0  0  0  0  0  0
   38.7347   56.0043   37.1130 C   0  0  0  0  0  0
   35.2606   56.7720   36.1565 C   0  0  0  0  0  0
   36.4439   56.6072   38.0396 C   0  0  0  0  0  0
   40.8971   56.1189   37.7965 N   0  0  0  0  0  0
   35.2386   56.7677   37.4915 N   0  0  0  0  0  0
   36.5105   55.9477   33.2569 N   0  0  0  0  0  0
   39.6324   56.6397   37.9494 C   0  0  0  0  0  0
   39.4817   54.9747   36.4393 C   0  0  0  0  0  0
   44.6740   56.2485   35.7488 C   0  0  0  0  0  0
   43.7320   55.8819   36.6461 N   0  0  0  0  0  0
   40.8378   55.0847   36.8724 C   0  0  0  0  0  0
   41.8615   54.2570   36.3827 C   0  0  0  0  0  0
   38.7106   56.3708   32.7687 N   0  0  0  0  0  0
   38.4441   56.6522   34.0195 C   0  0  0  0  0  0
   37.5184   55.9757   32.2683 C   0  0  0  0  0  0
   44.2395   56.7226   34.5428 N   0  0  0  0  0  0
   43.3208   54.4731   36.7384 C   0  0  0  0  0  0
   42.0909   56.5160   38.5436 C   0  0  0  0  0  0
   35.2238   55.5730   32.9420 C   0  0  0  0  0  0
   39.1500   53.9688   35.5217 C   0  0  0  0  0  0
   41.4640   53.2725   35.4720 C   0  0  0  0  0  0
   34.3011   57.0379   35.4418 O   0  0  0  0  0  0
   36.7010   56.6913   39.2369 O   0  0  0  0  0  0
   43.3411   56.8479   37.6877 C   0  0  0  0  0  0
   45.8669   56.2122   36.0616 O   0  0  0  0  0  0
   37.1915   55.6281   30.9521 C   0  0  0  0  0  0
   40.1478   53.1334   35.0437 C   0  0  0  0  0  0
   34.8814   55.3309   31.6153 C   0  0  0  0  0  0
   35.8599   55.3769   30.6281 C   0  0  0  0  0  0
   39.8277   52.1914   34.1327 F   0  0  0  0  0  0
   45.2258   57.1544   33.5333 C   0  0  0  0  0  0
   42.9334   56.3745   33.9475 C   0  0  0  0  0  0
   43.1529   55.1120   33.0776 C   0  0  0  0  0  0
   45.5387   55.9263   32.6434 C   0  0  0  0  0  0
   44.2629   55.3140   32.0248 C   0  0  0  0  0  0
   34.4047   56.9652   38.0278 H   0  0  0  0  0  0
   39.4694   57.4504   38.6457 H   0  0  0  0  0  0
   39.2246   57.0413   34.6575 H   0  0  0  0  0  0
   43.4202   54.1729   37.7822 H   0  0  0  0  0  0
   43.9973   53.8003   36.2052 H   0  0  0  0  0  0
   42.3210   55.7082   39.2397 H   0  0  0  0  0  0
   41.8403   57.3790   39.1607 H   0  0  0  0  0  0
   34.5019   55.5011   33.7353 H   0  0  0  0  0  0
   38.1361   53.8464   35.1750 H   0  0  0  0  0  0
   42.2081   52.6090   35.0544 H   0  0  0  0  0  0
   44.1916   56.9444   38.3645 H   0  0  0  0  0  0
   43.2291   57.8372   37.2378 H   0  0  0  0  0  0
   37.9693   55.5709   30.2104 H   0  0  0  0  0  0
   33.8602   55.0948   31.3497 H   0  0  0  0  0  0
   35.5933   55.1721   29.6004 H   0  0  0  0  0  0
   44.7591   57.9446   32.9449 H   0  0  0  0  0  0
   46.0965   57.6364   33.9813 H   0  0  0  0  0  0
   42.1292   56.3091   34.6789 H   0  0  0  0  0  0
   42.6346   57.2145   33.3190 H   0  0  0  0  0  0
   43.4094   54.2624   33.7116 H   0  0  0  0  0  0
   42.2195   54.8388   32.5842 H   0  0  0  0  0  0
   46.2298   56.2154   31.8512 H   0  0  0  0  0  0
   46.0660   55.1717   33.2308 H   0  0  0  0  0  0
   43.8967   55.9710   31.2365 H   0  0  0  0  0  0
   44.4973   54.3629   31.5421 H   0  0  0  0  0  0
  1  2  2  0  0  0
  1  3  1  0  0  0
  1  5  1  0  0  0
  2  4  1  0  0  0
  2  6  1  0  0  0
  3  9  1  0  0  0
  3 17  2  0  0  0
  4 10  2  0  0  0
  4 11  1  0  0  0
  5  8  1  0  0  0
  5 25  2  0  0  0
  6 26  2  0  0  0
  6  8  1  0  0  0
  7 10  1  0  0  0
  7 21  1  0  0  0
  7 14  1  0  0  0
  8 39  1  0  0  0
  9 18  1  0  0  0
  9 22  1  0  0  0
 10 40  1  0  0  0
 11 14  1  0  0  0
 11 23  2  0  0  0
 12 13  1  0  0  0
 12 19  1  0  0  0
 12 28  2  0  0  0
 13 20  1  0  0  0
 13 27  1  0  0  0
 14 15  2  0  0  0
 15 20  1  0  0  0
 15 24  1  0  0  0
 16 17  1  0  0  0
 16 18  2  0  0  0
 17 41  1  0  0  0
 18 29  1  0  0  0
 19 34  1  0  0  0
 19 35  1  0  0  0
 20 42  1  0  0  0
 20 43  1  0  0  0
 21 27  1  0  0  0
 21 44  1  0  0  0
 21 45  1  0  0  0
 22 31  2  0  0  0
 22 46  1  0  0  0
 23 30  1  0  0  0
 23 47  1  0  0  0
 24 30  2  0  0  0
 24 48  1  0  0  0
 27 49  1  0  0  0
 27 50  1  0  0  0
 29 32  2  0  0  0
 29 51  1  0  0  0
 30 33  1  0  0  0
 31 32  1  0  0  0
 31 52  1  0  0  0
 32 53  1  0  0  0
 34 37  1  0  0  0
 34 54  1  0  0  0
 34 55  1  0  0  0
 35 36  1  0  0  0
 35 56  1  0  0  0
 35 57  1  0  0  0
 36 38  1  0  0  0
 36 58  1  0  0  0
 36 59  1  0  0  0
 37 38  1  0  0  0
 37 60  1  0  0  0
 37 61  1  0  0  0
 38 62  1  0  0  0
 38 63  1  0  0  0
M  END
> <s_m_entry_id>
3447

> <s_m_entry_name>
dock_pv.176

> <s_m_Source_Path>
/home/csk/Desktop/cluster/DUD-E-result/kpcb

> <s_m_Source_File>
dock_pv.maegz

> <i_m_Source_File_Index>
176

> <chembl_id>
CHEMBL362558

> <chembl_pref_name>
LY-2090314

> <i_lp_mmshare_version>
53161

> <i_f3d_flags>
0

> <r_lp_tautomer_probability>
1

> <s_lp_Force_Field>
OPLS_2005

> <r_lp_Energy>
98.655448

> <b_lp_Chiralities_Consistent>
1

> <s_lp_Variant>
CHEMBL3045_lig255-1

> <s_i_glide_gridfile>
glide-grid_2i0e

> <i_i_glide_lignum>
413

> <i_i_glide_rotatable_bonds>
4

> <r_i_docking_score>
-7.37495128314424

> <r_i_glide_ligand_efficiency>
-0.194077665345901

> <r_i_glide_ligand_efficiency_sa>
-0.652484337110723

> <r_i_glide_ligand_efficiency_ln>
-1.5902564457324

> <r_i_glide_gscore>
-7.37495128314424

> <r_i_glide_lipo>
-1.75638365753149

> <r_i_glide_hbond>
-0.608

> <r_i_glide_metal>
0

> <r_i_glide_rewards>
-2.23484386997263

> <r_i_glide_evdw>
-48.0093231201172

> <r_i_glide_ecoul>
-3.53558373451233

> <r_i_glide_erotb>
0.218509251653467

> <r_i_glide_esite>
-0.0634292911108679

> <r_i_glide_emodel>
-75.1750736663071

> <r_i_glide_energy>
-51.5449068546295

> <r_i_glide_einternal>
4.43178653717041

> <i_i_glide_confnum>
103

> <i_i_glide_posenum>
217

> <r_i_glide_eff_state_penalty>
0

> <s_user_duplicate_titles>
CHEMBL3045_lig255,311715

> <s_m_subgroup_title>
dock_pv

> <s_m_subgroupid>
dock_pv

> <b_m_subgroup_collapsed>
1

$$$$
CHEMBL3045_lig448
                    3D
 Schrodinger Suite 2021-1.
 49 52  0  0  1  0            999 V2000
   36.3399   55.5761   33.6393 C   0  0  0  0  0  0
   36.2325   55.5288   32.2845 C   0  0  0  0  0  0
   34.8892   55.8118   32.1084 C   0  0  0  0  0  0
   34.3010   55.9719   33.2973 N   0  0  0  0  0  0
   35.2418   55.8429   34.2295 N   0  0  0  0  0  0
   39.7859   54.6324   34.4749 N   0  0  0  0  0  0
   40.8865   55.4967   34.9145 C   0  0  2  0  0  0
   40.5286   56.0973   36.3048 C   0  0  0  0  0  0
   36.8332   55.6259   35.7498 C   0  0  0  0  0  0
   37.5085   55.6486   37.1051 C   0  0  0  0  0  0
   38.4004   56.8942   37.3327 C   0  0  2  0  0  0
   39.4771   56.9370   36.3394 N   0  0  0  0  0  0
   38.6107   55.0143   33.7983 C   0  0  0  0  0  0
   38.6107   54.9704   32.3830 C   0  0  0  0  0  0
   37.4518   55.2325   31.6208 C   0  0  0  0  0  0
   37.3973   55.3764   34.4879 C   0  0  0  0  0  0
   35.4574   55.8868   35.5331 C   0  0  0  0  0  0
   38.8409   57.0379   38.8095 C   0  0  0  0  0  0
   41.4002   56.5666   33.8857 C   0  0  0  0  0  0
   42.8501   56.9838   34.1952 C   0  0  0  0  0  0
   40.5384   57.8264   33.6512 C   0  0  0  0  0  0
   39.6597   53.3286   35.1386 C   0  0  0  0  0  0
   37.7008   57.1720   39.6370 O   0  0  0  0  0  0
   41.1014   55.6710   37.3062 O   0  0  0  0  0  0
   34.0656   55.9583   30.8452 C   0  0  0  0  0  0
   33.4302   57.1308   30.8371 F   0  0  0  0  0  0
   34.8274   55.8963   29.7526 F   0  0  0  0  0  0
   33.1421   54.9983   30.7649 F   0  0  0  0  0  0
   41.7347   54.8236   35.0617 H   0  0  0  0  0  0
   38.1272   54.7719   37.2366 H   0  0  0  0  0  0
   36.7488   55.5783   37.8840 H   0  0  0  0  0  0
   37.8014   57.7809   37.1144 H   0  0  0  0  0  0
   39.1697   57.2636   35.4360 H   0  0  0  0  0  0
   39.5190   54.6985   31.8642 H   0  0  0  0  0  0
   37.4935   55.1713   30.5421 H   0  0  0  0  0  0
   34.6670   56.1114   36.2343 H   0  0  0  0  0  0
   39.4874   57.9066   38.9422 H   0  0  0  0  0  0
   39.4124   56.1688   39.1374 H   0  0  0  0  0  0
   41.4458   56.0513   32.9245 H   0  0  0  0  0  0
   42.9128   57.5714   35.1114 H   0  0  0  0  0  0
   43.4969   56.1143   34.3163 H   0  0  0  0  0  0
   43.2713   57.5720   33.3829 H   0  0  0  0  0  0
   40.5640   58.5067   34.5021 H   0  0  0  0  0  0
   40.9066   58.3878   32.7931 H   0  0  0  0  0  0
   39.5010   57.5714   33.4473 H   0  0  0  0  0  0
   38.8828   52.7023   34.6944 H   0  0  0  0  0  0
   40.5982   52.7763   35.0576 H   0  0  0  0  0  0
   39.4425   53.4342   36.1999 H   0  0  0  0  0  0
   37.9011   56.8052   40.5137 H   0  0  0  0  0  0
  1 16  1  0  0  0
  1  5  1  0  0  0
  1  2  2  0  0  0
  2 15  1  0  0  0
  2  3  1  0  0  0
  3  4  2  0  0  0
  3 25  1  0  0  0
  4  5  1  0  0  0
  5 17  1  0  0  0
  6  7  1  0  0  0
  6 13  1  0  0  0
  6 22  1  0  0  0
  7  8  1  0  0  0
  7 19  1  0  0  0
  7 29  1  0  0  0
  8 12  1  0  0  0
  8 24  2  0  0  0
  9 17  2  0  0  0
  9 16  1  0  0  0
  9 10  1  0  0  0
 10 11  1  0  0  0
 10 30  1  0  0  0
 10 31  1  0  0  0
 11 18  1  0  0  0
 11 12  1  0  0  0
 11 32  1  0  0  0
 12 33  1  0  0  0
 13 14  1  0  0  0
 13 16  2  0  0  0
 14 15  2  0  0  0
 14 34  1  0  0  0
 15 35  1  0  0  0
 17 36  1  0  0  0
 18 23  1  0  0  0
 18 37  1  0  0  0
 18 38  1  0  0  0
 19 20  1  0  0  0
 19 21  1  0  0  0
 19 39  1  0  0  0
 20 40  1  0  0  0
 20 41  1  0  0  0
 20 42  1  0  0  0
 21 43  1  0  0  0
 21 44  1  0  0  0
 21 45  1  0  0  0
 22 46  1  0  0  0
 22 47  1  0  0  0
 22 48  1  0  0  0
 23 49  1  0  0  0
 25 26  1  0  0  0
 25 27  1  0  0  0
 25 28  1  0  0  0
M  END
> <s_m_entry_id>
3448

> <s_m_entry_name>
dock_pv.177

> <s_m_Source_Path>
/home/csk/Desktop/cluster/DUD-E-result/kpcb

> <s_m_Source_File>
dock_pv.maegz

> <i_m_Source_File_Index>
177

> <chembl_id>
CHEMBL261387

> <chembl_pref_name>
None

> <i_lp_mmshare_version>
53161

> <i_f3d_flags>
0

> <r_lp_tautomer_probability>
1

> <s_lp_Force_Field>
OPLS_2005

> <r_lp_Energy>
117.430658

> <b_lp_Chiralities_Consistent>
1

> <s_lp_Variant>
CHEMBL3045_lig448-1

> <s_i_glide_gridfile>
glide-grid_2i0e

> <i_i_glide_lignum>
620

> <i_i_glide_rotatable_bonds>
4

> <r_i_docking_score>
-7.3579736973918

> <r_i_glide_ligand_efficiency>
-0.26278477490685

> <r_i_glide_ligand_efficiency_sa>
-0.797969348572637

> <r_i_glide_ligand_efficiency_ln>
-1.69843636885329

> <r_i_glide_gscore>
-7.3579736973918

> <r_i_glide_lipo>
-2.37179787161817

> <r_i_glide_hbond>
-0.331492168327176

> <r_i_glide_metal>
0

> <r_i_glide_rewards>
-2.00331983598897

> <r_i_glide_evdw>
-36.9312896728516

> <r_i_glide_ecoul>
-6.16516447067261

> <r_i_glide_erotb>
0.125651833841299

> <r_i_glide_esite>
-0.0056765010553126

> <r_i_glide_emodel>
-56.0032774286326

> <r_i_glide_energy>
-43.0964541435242

> <r_i_glide_einternal>
8.92448616027832

> <i_i_glide_confnum>
2

> <i_i_glide_posenum>
374

> <r_i_glide_eff_state_penalty>
0

> <s_user_duplicate_titles>
CHEMBL3045_lig448

> <s_m_subgroup_title>
dock_pv

> <s_m_subgroupid>
dock_pv

> <b_m_subgroup_collapsed>
1

$$$$
CHEMBL3045_lig318
                    3D
 Schrodinger Suite 2021-1.
 38 40  0  0  1  0            999 V2000
   36.5186   56.7716   38.8357 N   0  0  0  0  0  0
   37.8558   56.6152   38.7038 C   0  0  0  0  0  0
   38.4869   56.3737   37.4832 C   0  0  0  0  0  0
   35.7665   56.6632   37.7190 C   0  0  0  0  0  0
   36.2821   56.4192   36.4265 C   0  0  0  0  0  0
   37.6997   56.2927   36.2934 C   0  0  0  0  0  0
   38.2160   56.0612   34.9748 C   0  0  0  0  0  0
   37.3901   55.9091   33.9054 N   0  0  0  0  0  0
   36.0449   56.0189   34.0461 C   0  0  0  0  0  0
   35.4582   56.2907   35.2851 C   0  0  0  0  0  0
   35.2384   55.8593   32.7953 C   0  0  0  0  0  0
   35.7891   56.1280   31.5289 C   0  0  0  0  0  0
   35.0024   55.9719   30.3886 C   0  0  0  0  0  0
   33.7097   55.5725   30.4392 N   0  0  0  0  0  0
   33.1767   55.3053   31.6533 C   0  0  0  0  0  0
   33.9009   55.4291   32.8401 C   0  0  0  0  0  0
   39.6131   55.9880   34.7187 N   0  0  0  0  0  0
   40.3217   57.2428   34.9813 C   0  0  0  0  0  0
   40.1132   55.2602   33.5407 C   0  0  0  0  0  0
   39.6984   53.7754   33.4683 C   0  0  0  0  0  0
   40.3053   53.1629   32.2999 N   0  0  0  0  0  0
   38.4315   56.6702   39.6173 H   0  0  0  0  0  0
   39.5572   56.2331   37.4449 H   0  0  0  0  0  0
   34.7010   56.7726   37.8570 H   0  0  0  0  0  0
   34.3890   56.3986   35.3933 H   0  0  0  0  0  0
   36.8152   56.4506   31.4249 H   0  0  0  0  0  0
   35.4070   56.1573   29.4047 H   0  0  0  0  0  0
   32.1452   54.9871   31.6558 H   0  0  0  0  0  0
   33.4208   55.1886   33.7768 H   0  0  0  0  0  0
   39.9815   57.7593   35.8776 H   0  0  0  0  0  0
   41.3900   57.0581   35.1052 H   0  0  0  0  0  0
   40.1867   57.9329   34.1469 H   0  0  0  0  0  0
   39.7825   55.7740   32.6361 H   0  0  0  0  0  0
   41.2035   55.3087   33.5422 H   0  0  0  0  0  0
   40.0161   53.2400   34.3646 H   0  0  0  0  0  0
   38.6161   53.6686   33.3935 H   0  0  0  0  0  0
   41.3026   53.0549   32.4357 H   0  0  0  0  0  0
   39.9490   52.2261   32.1490 H   0  0  0  0  0  0
  1  2  2  0  0  0
  1  4  1  0  0  0
  2  3  1  0  0  0
  2 22  1  0  0  0
  3  6  2  0  0  0
  3 23  1  0  0  0
  4  5  2  0  0  0
  4 24  1  0  0  0
  5 10  1  0  0  0
  5  6  1  0  0  0
  6  7  1  0  0  0
  7  8  2  0  0  0
  7 17  1  0  0  0
  8  9  1  0  0  0
  9 11  1  0  0  0
  9 10  2  0  0  0
 10 25  1  0  0  0
 11 12  2  0  0  0
 11 16  1  0  0  0
 12 13  1  0  0  0
 12 26  1  0  0  0
 13 14  2  0  0  0
 13 27  1  0  0  0
 14 15  1  0  0  0
 15 16  2  0  0  0
 15 28  1  0  0  0
 16 29  1  0  0  0
 17 18  1  0  0  0
 17 19  1  0  0  0
 18 30  1  0  0  0
 18 31  1  0  0  0
 18 32  1  0  0  0
 19 20  1  0  0  0
 19 33  1  0  0  0
 19 34  1  0  0  0
 20 21  1  0  0  0
 20 35  1  0  0  0
 20 36  1  0  0  0
 21 37  1  0  0  0
 21 38  1  0  0  0
M  END
> <s_m_entry_id>
3449

> <s_m_entry_name>
dock_pv.178

> <s_m_Source_Path>
/home/csk/Desktop/cluster/DUD-E-result/kpcb

> <s_m_Source_File>
dock_pv.maegz

> <i_m_Source_File_Index>
178

> <chembl_id>
CHEMBL2147540

> <chembl_pref_name>
None

> <i_lp_mmshare_version>
53161

> <i_f3d_flags>
0

> <r_lp_tautomer_probability>
1

> <s_lp_Force_Field>
OPLS_2005

> <r_lp_Energy>
19.447051

> <b_lp_Chiralities_Consistent>
1

> <s_lp_Variant>
CHEMBL3045_lig318-1

> <s_i_glide_gridfile>
glide-grid_2i0e

> <i_i_glide_lignum>
481

> <i_i_glide_rotatable_bonds>
4

> <r_i_docking_score>
-7.35656865605535

> <r_i_glide_ligand_efficiency>
-0.350312793145493

> <r_i_glide_ligand_efficiency_sa>
-0.966486433323868

> <r_i_glide_ligand_efficiency_ln>
-1.81889673486302

> <r_i_glide_gscore>
-7.35656865605535

> <r_i_glide_lipo>
-3.11091708622093

> <r_i_glide_hbond>
-0.279581122615656

> <r_i_glide_metal>
0

> <r_i_glide_rewards>
-2.318145124286

> <r_i_glide_evdw>
-36.8113441467285

> <r_i_glide_ecoul>
-3.33990550041199

> <r_i_glide_erotb>
0.693627709465467

> <r_i_glide_esite>
0

> <r_i_glide_emodel>
-58.1562112595362

> <r_i_glide_energy>
-40.1512496471405

> <r_i_glide_einternal>
0.698215007781982

> <i_i_glide_confnum>
8

> <i_i_glide_posenum>
275

> <r_i_glide_eff_state_penalty>
0

> <s_user_duplicate_titles>
CHEMBL3045_lig318

> <s_m_subgroup_title>
dock_pv

> <s_m_subgroupid>
dock_pv

> <b_m_subgroup_collapsed>
1

$$$$
CHEMBL3045_lig257
                    3D
 Schrodinger Suite 2021-1.
 47 49  0  0  1  0            999 V2000
   37.2533   56.5326   36.2051 N   0  0  0  0  0  0
   39.5840   56.8503   36.8464 C   0  0  0  0  0  0
   35.9358   56.3692   36.4783 C   0  0  0  0  0  0
   38.1423   56.6933   37.2276 C   0  0  0  0  0  0
   34.9970   56.1793   35.4516 N   0  0  0  0  0  0
   36.3555   56.5408   38.8366 N   0  0  0  0  0  0
   41.8992   57.2851   37.4671 N   0  0  0  0  0  0
   40.0041   56.7188   35.5127 C   0  0  0  0  0  0
   35.1089   56.0918   34.0513 C   0  0  0  0  0  0
   34.0166   55.5698   33.3548 C   0  0  0  0  0  0
   41.3425   56.8836   35.1435 C   0  0  0  0  0  0
   41.8022   56.7634   33.8191 N   0  0  0  0  0  0
   40.5888   57.1328   37.7837 C   0  0  0  0  0  0
   34.0515   55.4377   31.9676 C   0  0  0  0  0  0
   35.4990   56.3721   37.7994 C   0  0  0  0  0  0
   39.6110   54.2413   32.1185 N   0  0  0  0  0  0
   37.6714   56.6951   38.5485 C   0  0  0  0  0  0
   32.7010   54.7721   31.1298 Cl  0  0  0  0  0  0
   40.9182   56.2925   32.7509 C   0  0  0  0  0  0
   42.2539   57.1685   36.1617 C   0  0  0  0  0  0
   36.2751   56.3697   31.9371 C   0  0  0  0  0  0
   36.2352   56.5041   33.3244 C   0  0  0  0  0  0
   40.8945   54.7523   32.6193 C   0  0  0  0  0  0
   35.1846   55.8317   31.2577 C   0  0  0  0  0  0
   39.2929   54.7169   30.7746 C   0  0  0  0  0  0
   39.6437   52.7784   32.1092 C   0  0  0  0  0  0
   34.0765   55.9639   35.7992 H   0  0  0  0  0  0
   39.2709   56.4713   34.7665 H   0  0  0  0  0  0
   33.1322   55.2553   33.8906 H   0  0  0  0  0  0
   42.7921   56.6065   33.6955 H   0  0  0  0  0  0
   40.3663   57.2520   38.8318 H   0  0  0  0  0  0
   34.4538   56.2370   38.0397 H   0  0  0  0  0  0
   38.3246   56.8000   39.4029 H   0  0  0  0  0  0
   41.2750   56.7414   31.8273 H   0  0  0  0  0  0
   39.9114   56.6933   32.8588 H   0  0  0  0  0  0
   43.3029   57.3105   35.9435 H   0  0  0  0  0  0
   37.1505   56.6818   31.3901 H   0  0  0  0  0  0
   37.0944   56.9362   33.8085 H   0  0  0  0  0  0
   41.0926   54.3019   33.5941 H   0  0  0  0  0  0
   41.6924   54.4334   31.9483 H   0  0  0  0  0  0
   35.2178   55.7187   30.1832 H   0  0  0  0  0  0
   39.2666   55.8060   30.7428 H   0  0  0  0  0  0
   38.3066   54.3720   30.4652 H   0  0  0  0  0  0
   40.0193   54.3723   30.0379 H   0  0  0  0  0  0
   39.8034   52.3888   33.1160 H   0  0  0  0  0  0
   38.6993   52.3670   31.7493 H   0  0  0  0  0  0
   40.4381   52.3934   31.4655 H   0  0  0  0  0  0
  1  3  1  0  0  0
  1  4  2  0  0  0
  2  4  1  0  0  0
  2  8  1  0  0  0
  2 13  2  0  0  0
  3  5  1  0  0  0
  3 15  2  0  0  0
  4 17  1  0  0  0
  5  9  1  0  0  0
  5 27  1  0  0  0
  6 17  2  0  0  0
  6 15  1  0  0  0
  7 13  1  0  0  0
  7 20  2  0  0  0
  8 11  2  0  0  0
  8 28  1  0  0  0
  9 10  1  0  0  0
  9 22  2  0  0  0
 10 14  2  0  0  0
 10 29  1  0  0  0
 11 12  1  0  0  0
 11 20  1  0  0  0
 12 19  1  0  0  0
 12 30  1  0  0  0
 13 31  1  0  0  0
 14 18  1  0  0  0
 14 24  1  0  0  0
 15 32  1  0  0  0
 16 23  1  0  0  0
 16 25  1  0  0  0
 16 26  1  0  0  0
 17 33  1  0  0  0
 19 23  1  0  0  0
 19 34  1  0  0  0
 19 35  1  0  0  0
 20 36  1  0  0  0
 21 22  1  0  0  0
 21 24  2  0  0  0
 21 37  1  0  0  0
 22 38  1  0  0  0
 23 39  1  0  0  0
 23 40  1  0  0  0
 24 41  1  0  0  0
 25 42  1  0  0  0
 25 43  1  0  0  0
 25 44  1  0  0  0
 26 45  1  0  0  0
 26 46  1  0  0  0
 26 47  1  0  0  0
M  END
> <s_m_entry_id>
3450

> <s_m_entry_name>
dock_pv.179

> <s_m_Source_Path>
/home/csk/Desktop/cluster/DUD-E-result/kpcb

> <s_m_Source_File>
dock_pv.maegz

> <i_m_Source_File_Index>
179

> <chembl_id>
CHEMBL190984

> <chembl_pref_name>
None

> <i_lp_mmshare_version>
53161

> <i_f3d_flags>
0

> <r_lp_tautomer_probability>
0.999999901280007

> <s_lp_Force_Field>
OPLS_2005

> <r_lp_Energy>
31.038379

> <b_lp_Chiralities_Consistent>
1

> <s_lp_Variant>
CHEMBL3045_lig257-1

> <s_i_glide_gridfile>
glide-grid_2i0e

> <i_i_glide_lignum>
415

> <i_i_glide_rotatable_bonds>
7

> <r_i_docking_score>
-7.33804720623398

> <r_i_glide_ligand_efficiency>
-0.282232584855153

> <r_i_glide_ligand_efficiency_sa>
-0.836112922101795

> <r_i_glide_ligand_efficiency_ln>
-1.72331630828727

> <r_i_glide_gscore>
-7.33804720623398

> <r_i_glide_lipo>
-3.03299383033647

> <r_i_glide_hbond>
-0.32

> <r_i_glide_metal>
0

> <r_i_glide_rewards>
-1.87959008962769

> <r_i_glide_evdw>
-45.5092964172363

> <r_i_glide_ecoul>
-4.5331597328186

> <r_i_glide_erotb>
0.849975494514791

> <r_i_glide_esite>
0

> <r_i_glide_emodel>
-69.484269780255

> <r_i_glide_energy>
-50.0424561500549

> <r_i_glide_einternal>
4.96941804885864

> <i_i_glide_confnum>
18

> <i_i_glide_posenum>
330

> <r_i_glide_eff_state_penalty>
0

> <s_user_duplicate_titles>
CHEMBL3045_lig257

> <s_m_subgroup_title>
dock_pv

> <s_m_subgroupid>
dock_pv

> <b_m_subgroup_collapsed>
1

$$$$
CHEMBL3045_lig392
                    3D
 Schrodinger Suite 2021-1.
 54 58  0  0  1  0            999 V2000
   41.1671   54.9827   36.1928 N   0  0  0  0  0  0
   42.5076   55.6470   36.0884 C   0  0  0  0  0  0
   42.8495   56.1278   37.4460 N   0  0  0  0  0  0
   41.9922   56.7402   38.2851 C   0  0  0  0  0  0
   40.5612   56.6617   37.8179 C   0  0  0  0  0  0
   39.6007   57.4102   38.5044 C   0  0  0  0  0  0
   38.2617   57.3384   38.1279 C   0  0  0  0  0  0
   37.8570   56.4604   37.1148 C   0  0  0  0  0  0
   38.8123   55.6473   36.5000 C   0  0  0  0  0  0
   40.1733   55.7533   36.8162 C   0  0  0  0  0  0
   42.3708   57.1723   39.3713 O   0  0  0  0  0  0
   40.8964   53.7078   35.4822 C   0  0  2  0  0  0
   41.6085   52.5104   36.1588 C   0  0  0  0  0  0
   40.9291   53.8101   33.9431 C   0  0  0  0  0  0
   39.9508   54.5643   33.2809 C   0  0  0  0  0  0
   39.9228   54.6406   31.8913 C   0  0  0  0  0  0
   40.8953   53.9771   31.1502 C   0  0  0  0  0  0
   41.9002   53.2629   31.7882 C   0  0  0  0  0  0
   41.9033   53.1630   33.1763 C   0  0  0  0  0  0
   34.7107   55.8627   35.5361 C   0  0  0  0  0  0
   36.0274   56.2149   35.4384 C   0  0  0  0  0  0
   36.6037   56.3482   34.1716 C   0  0  0  0  0  0
   35.8051   56.0689   33.0542 C   0  0  0  0  0  0
   34.4714   55.6766   33.2534 C   0  0  0  0  0  0
   33.9017   55.5721   34.4878 N   0  0  0  0  0  0
   35.4661   56.2390   37.6150 C   0  0  0  0  0  0
   34.3947   55.8984   36.8654 N   0  0  0  0  0  0
   36.5016   56.3440   36.7393 N   0  0  0  0  0  0
   35.5008   56.3734   38.8369 O   0  0  0  0  0  0
   43.7124   54.7661   35.6899 C   0  0  0  0  0  0
   42.4028   56.8196   35.0752 C   0  0  0  0  0  0
   43.6094   55.6656   37.9236 H   0  0  0  0  0  0
   39.8844   58.0668   39.3163 H   0  0  0  0  0  0
   37.5409   57.9530   38.6474 H   0  0  0  0  0  0
   38.4670   54.9346   35.7720 H   0  0  0  0  0  0
   39.8587   53.4507   35.6859 H   0  0  0  0  0  0
   41.0437   51.5867   36.0363 H   0  0  0  0  0  0
   42.6114   52.3140   35.7850 H   0  0  0  0  0  0
   41.6886   52.6823   37.2319 H   0  0  0  0  0  0
   39.1938   55.0880   33.8315 H   0  0  0  0  0  0
   39.1534   55.2074   31.3882 H   0  0  0  0  0  0
   40.8718   54.0258   30.0706 H   0  0  0  0  0  0
   42.6679   52.7719   31.2110 H   0  0  0  0  0  0
   42.6761   52.5638   33.6338 H   0  0  0  0  0  0
   37.6331   56.6501   34.0431 H   0  0  0  0  0  0
   36.2125   56.1482   32.0559 H   0  0  0  0  0  0
   33.8314   55.4527   32.4116 H   0  0  0  0  0  0
   33.4732   55.7304   37.2419 H   0  0  0  0  0  0
   43.8888   53.9523   36.3945 H   0  0  0  0  0  0
   43.6189   54.3487   34.6939 H   0  0  0  0  0  0
   44.6351   55.3474   35.6747 H   0  0  0  0  0  0
   41.6339   57.5441   35.3375 H   0  0  0  0  0  0
   43.3411   57.3692   35.0086 H   0  0  0  0  0  0
   42.1771   56.4545   34.0738 H   0  0  0  0  0  0
  1  2  1  0  0  0
  1 10  1  0  0  0
  1 12  1  0  0  0
  2  3  1  0  0  0
  2 30  1  0  0  0
  2 31  1  0  0  0
  3  4  1  0  0  0
  3 32  1  0  0  0
  4  5  1  0  0  0
  4 11  2  0  0  0
  5  6  1  0  0  0
  5 10  2  0  0  0
  6  7  2  0  0  0
  6 33  1  0  0  0
  7  8  1  0  0  0
  7 34  1  0  0  0
  8  9  2  0  0  0
  8 28  1  0  0  0
  9 10  1  0  0  0
  9 35  1  0  0  0
 12 13  1  0  0  0
 12 14  1  0  0  0
 12 36  1  0  0  0
 13 37  1  0  0  0
 13 38  1  0  0  0
 13 39  1  0  0  0
 14 15  1  0  0  0
 14 19  2  0  0  0
 15 16  2  0  0  0
 15 40  1  0  0  0
 16 17  1  0  0  0
 16 41  1  0  0  0
 17 18  2  0  0  0
 17 42  1  0  0  0
 18 19  1  0  0  0
 18 43  1  0  0  0
 19 44  1  0  0  0
 20 21  1  0  0  0
 20 25  2  0  0  0
 20 27  1  0  0  0
 21 22  2  0  0  0
 21 28  1  0  0  0
 22 23  1  0  0  0
 22 45  1  0  0  0
 23 24  2  0  0  0
 23 46  1  0  0  0
 24 25  1  0  0  0
 24 47  1  0  0  0
 26 27  1  0  0  0
 26 28  1  0  0  0
 26 29  2  0  0  0
 27 48  1  0  0  0
 30 49  1  0  0  0
 30 50  1  0  0  0
 30 51  1  0  0  0
 31 52  1  0  0  0
 31 53  1  0  0  0
 31 54  1  0  0  0
M  END
> <s_m_entry_id>
3451

> <s_m_entry_name>
dock_pv.180

> <s_m_Source_Path>
/home/csk/Desktop/cluster/DUD-E-result/kpcb

> <s_m_Source_File>
dock_pv.maegz

> <i_m_Source_File_Index>
180

> <chembl_id>
CHEMBL3798011

> <chembl_pref_name>
None

> <i_lp_mmshare_version>
53161

> <i_f3d_flags>
0

> <r_lp_tautomer_probability>
1

> <s_lp_Force_Field>
OPLS_2005

> <r_lp_Energy>
68.44693

> <b_lp_Chiralities_Consistent>
1

> <s_lp_Variant>
CHEMBL3045_lig392-1

> <s_i_glide_gridfile>
glide-grid_2i0e

> <i_i_glide_lignum>
557

> <i_i_glide_rotatable_bonds>
3

> <r_i_docking_score>
-7.33609237648834

> <r_i_glide_ligand_efficiency>
-0.236648141177043

> <r_i_glide_ligand_efficiency_sa>
-0.743401891267006

> <r_i_glide_ligand_efficiency_ln>
-1.65451365512909

> <r_i_glide_gscore>
-7.33609237648834

> <r_i_glide_lipo>
-1.69716610060378

> <r_i_glide_hbond>
-0.33676720019632

> <r_i_glide_metal>
0

> <r_i_glide_rewards>
-2.64577151835069

> <r_i_glide_evdw>
-42.7290382385254

> <r_i_glide_ecoul>
-5.00505399703979

> <r_i_glide_erotb>
0.242338847983747

> <r_i_glide_esite>
-0.0115163938390574

> <r_i_glide_emodel>
-67.4673598950123

> <r_i_glide_energy>
-47.7340922355652

> <r_i_glide_einternal>
2.14957666397095

> <i_i_glide_confnum>
16

> <i_i_glide_posenum>
16

> <r_i_glide_eff_state_penalty>
0

> <s_user_duplicate_titles>
CHEMBL3045_lig392

> <s_m_subgroup_title>
dock_pv

> <s_m_subgroupid>
dock_pv

> <b_m_subgroup_collapsed>
1

$$$$
CHEMBL3045_lig484
                    3D
 Schrodinger Suite 2021-1.
 71 76  0  0  1  0            999 V2000
   41.0583   54.0603   31.8835 C   0  0  0  0  0  0
   40.0449   53.7305   33.0070 C   0  0  0  0  0  0
   39.2752   52.4279   32.6979 C   0  0  0  0  0  0
   39.1319   54.8716   33.3207 N   0  0  0  0  0  0
   39.5211   55.5162   34.5943 C   0  0  0  0  0  0
   40.5310   54.5936   35.1938 C   0  0  0  0  0  0
   41.3082   54.3340   36.3353 C   0  0  0  0  0  0
   41.3666   55.1433   37.4647 N   0  0  0  0  0  0
   41.7030   54.7373   38.7120 C   0  0  0  0  0  0
   41.9060   53.5719   39.0382 O   0  0  0  0  0  0
   41.8020   55.8185   39.7583 C   0  0  0  0  0  0
   42.5417   56.9771   39.4749 C   0  0  0  0  0  0
   42.7009   57.9720   40.4370 C   0  0  0  0  0  0
   42.0920   57.8462   41.6815 C   0  0  0  0  0  0
   41.3494   56.7060   41.9749 C   0  0  0  0  0  0
   41.2074   55.6851   41.0337 C   0  0  0  0  0  0
   40.3012   54.2854   41.5152 Cl  0  0  0  0  0  0
   41.9849   53.2049   36.1698 N   0  0  0  0  0  0
   41.6655   52.7720   34.9416 N   0  0  0  0  0  0
   40.7817   53.5997   34.3143 C   0  0  0  0  0  0
   38.2220   55.4072   32.4476 C   0  0  0  0  0  0
   38.2994   55.1700   31.2387 O   0  0  0  0  0  0
   37.2317   56.2249   32.9310 N   0  0  0  0  0  0
   36.5077   57.0722   31.9383 C   0  0  0  0  0  0
   35.2124   56.3210   31.5387 C   0  0  2  0  0  0
   34.2791   57.0302   30.5923 C   0  0  0  0  0  0
   32.9099   56.4142   30.8509 C   0  0  0  0  0  0
   33.1007   55.6525   32.1568 C   0  0  0  0  0  0
   34.3764   56.0863   32.7000 N   0  0  1  0  0  0
   35.1179   55.1772   33.5511 C   0  0  0  0  0  0
   36.4025   55.8497   34.1208 C   0  0  2  0  0  0
   36.0630   57.0135   35.0988 C   0  0  0  0  0  0
   36.8174   56.9799   36.4228 C   0  0  0  0  0  0
   38.0963   57.5369   36.5214 C   0  0  0  0  0  0
   38.7999   57.4697   37.7206 C   0  0  0  0  0  0
   38.1998   56.9007   38.8376 C   0  0  0  0  0  0
   36.9121   56.3818   38.7560 C   0  0  0  0  0  0
   36.2218   56.4068   37.5486 C   0  0  0  0  0  0
   41.8319   53.2934   31.8149 H   0  0  0  0  0  0
   40.5837   54.1127   30.9030 H   0  0  0  0  0  0
   41.5594   55.0136   32.0598 H   0  0  0  0  0  0
   39.9695   51.5957   32.5719 H   0  0  0  0  0  0
   38.5842   52.1634   33.4984 H   0  0  0  0  0  0
   38.7020   52.5030   31.7733 H   0  0  0  0  0  0
   38.6795   55.5633   35.2688 H   0  0  0  0  0  0
   39.9082   56.5213   34.4222 H   0  0  0  0  0  0
   40.9554   56.0575   37.3726 H   0  0  0  0  0  0
   43.0289   57.1011   38.5178 H   0  0  0  0  0  0
   43.2879   58.8502   40.2109 H   0  0  0  0  0  0
   42.1998   58.6255   42.4216 H   0  0  0  0  0  0
   40.8898   56.6123   42.9465 H   0  0  0  0  0  0
   41.9910   51.8802   34.5755 H   0  0  0  0  0  0
   36.2041   57.9960   32.4283 H   0  0  0  0  0  0
   37.1134   57.3652   31.0794 H   0  0  0  0  0  0
   35.5430   55.4071   31.0341 H   0  0  0  0  0  0
   34.2941   58.0955   30.8368 H   0  0  0  0  0  0
   34.5591   56.7778   29.5666 H   0  0  0  0  0  0
   32.6138   55.7373   30.0473 H   0  0  0  0  0  0
   32.1495   57.1907   30.9403 H   0  0  0  0  0  0
   33.0292   54.5714   32.0228 H   0  0  0  0  0  0
   32.3193   55.9719   32.8370 H   0  0  0  0  0  0
   35.4088   54.3721   32.8841 H   0  0  0  0  0  0
   34.4896   54.7720   34.3449 H   0  0  0  0  0  0
   36.8818   55.0487   34.6824 H   0  0  0  0  0  0
   36.2358   57.9733   34.6216 H   0  0  0  0  0  0
   34.9944   57.0268   35.3240 H   0  0  0  0  0  0
   38.5669   57.9728   35.6544 H   0  0  0  0  0  0
   39.7983   57.8756   37.7910 H   0  0  0  0  0  0
   38.7315   56.8632   39.7782 H   0  0  0  0  0  0
   36.4558   55.9727   39.6368 H   0  0  0  0  0  0
   35.2260   55.9903   37.4926 H   0  0  0  0  0  0
  1  2  1  0  0  0
  1 39  1  0  0  0
  1 40  1  0  0  0
  1 41  1  0  0  0
  2  3  1  0  0  0
  2  4  1  0  0  0
  2 20  1  0  0  0
  3 42  1  0  0  0
  3 43  1  0  0  0
  3 44  1  0  0  0
  4  5  1  0  0  0
  4 21  1  0  0  0
  5  6  1  0  0  0
  5 45  1  0  0  0
  5 46  1  0  0  0
  6  7  1  0  0  0
  6 20  2  0  0  0
  7  8  1  0  0  0
  7 18  2  0  0  0
  8  9  1  0  0  0
  8 47  1  0  0  0
  9 10  2  0  0  0
  9 11  1  0  0  0
 11 12  2  0  0  0
 11 16  1  0  0  0
 12 13  1  0  0  0
 12 48  1  0  0  0
 13 14  2  0  0  0
 13 49  1  0  0  0
 14 15  1  0  0  0
 14 50  1  0  0  0
 15 16  2  0  0  0
 15 51  1  0  0  0
 16 17  1  0  0  0
 18 19  1  0  0  0
 19 20  1  0  0  0
 19 52  1  0  0  0
 21 22  2  0  0  0
 21 23  1  0  0  0
 23 24  1  0  0  0
 23 31  1  0  0  0
 24 25  1  0  0  0
 24 53  1  0  0  0
 24 54  1  0  0  0
 25 26  1  0  0  0
 25 29  1  0  0  0
 25 55  1  0  0  0
 26 27  1  0  0  0
 26 56  1  0  0  0
 26 57  1  0  0  0
 27 28  1  0  0  0
 27 58  1  0  0  0
 27 59  1  0  0  0
 28 29  1  0  0  0
 28 60  1  0  0  0
 28 61  1  0  0  0
 29 30  1  0  0  0
 30 31  1  0  0  0
 30 62  1  0  0  0
 30 63  1  0  0  0
 31 32  1  0  0  0
 31 64  1  0  0  0
 32 33  1  0  0  0
 32 65  1  0  0  0
 32 66  1  0  0  0
 33 34  2  0  0  0
 33 38  1  0  0  0
 34 35  1  0  0  0
 34 67  1  0  0  0
 35 36  2  0  0  0
 35 68  1  0  0  0
 36 37  1  0  0  0
 36 69  1  0  0  0
 37 38  2  0  0  0
 37 70  1  0  0  0
 38 71  1  0  0  0
M  END
> <s_m_entry_id>
3452

> <s_m_entry_name>
dock_pv.181

> <s_m_Source_Path>
/home/csk/Desktop/cluster/DUD-E-result/kpcb

> <s_m_Source_File>
dock_pv.maegz

> <i_m_Source_File_Index>
181

> <chembl_id>
CHEMBL3662734

> <chembl_pref_name>
None

> <i_lp_mmshare_version>
53161

> <i_f3d_flags>
0

> <r_lp_tautomer_probability>
0.5

> <s_lp_Force_Field>
OPLS_2005

> <r_lp_Energy>
121.940026

> <b_lp_Chiralities_Consistent>
1

> <s_lp_Variant>
CHEMBL3045_lig484-1

> <s_i_glide_gridfile>
glide-grid_2i0e

> <i_i_glide_lignum>
690

> <i_i_glide_rotatable_bonds>
7

> <r_i_docking_score>
-7.32197017235461

> <r_i_glide_ligand_efficiency>
-0.192683425588279

> <r_i_glide_ligand_efficiency_sa>
-0.6477969373401

> <r_i_glide_ligand_efficiency_ln>
-1.57883215969978

> <r_i_glide_gscore>
-7.32197017235461

> <r_i_glide_lipo>
-3.49288530528102

> <r_i_glide_hbond>
-0.302924070616685

> <r_i_glide_metal>
0

> <r_i_glide_rewards>
-1.01034310513654

> <r_i_glide_evdw>
-47.6001815795898

> <r_i_glide_ecoul>
-3.73832201957703

> <r_i_glide_erotb>
0.508202881344654

> <r_i_glide_esite>
-0.0832631907489649

> <r_i_glide_emodel>
-63.1917674557744

> <r_i_glide_energy>
-51.3385035991669

> <r_i_glide_einternal>
10.9766159057617

> <i_i_glide_confnum>
30

> <i_i_glide_posenum>
343

> <r_i_glide_eff_state_penalty>
0

> <s_user_duplicate_titles>
CHEMBL3045_lig484

> <s_m_subgroup_title>
dock_pv

> <s_m_subgroupid>
dock_pv

> <b_m_subgroup_collapsed>
1

$$$$
CHEMBL3045_lig44
                    3D
 Schrodinger Suite 2021-1.
 67 70  0  0  1  0            999 V2000
   42.2977   57.1719   39.9825 C   0  0  0  0  0  0
   43.2874   57.6724   40.9911 C   0  0  0  0  0  0
   43.7073   56.7782   42.1322 C   0  0  0  0  0  0
   42.5531   57.2879   38.6009 C   0  0  0  0  0  0
   41.0553   56.6535   40.3986 C   0  0  0  0  0  0
   39.3047   55.9721   37.1100 C   0  0  0  0  0  0
   36.4922   56.3097   33.4801 C   0  0  0  0  0  0
   44.2248   55.4622   41.9404 C   0  0  0  0  0  0
   40.3602   56.3688   38.0889 C   0  0  0  0  0  0
   37.7112   56.0256   32.9939 N   0  0  0  0  0  0
   39.8325   55.5249   35.9409 O   0  0  0  0  0  0
   44.5070   54.8561   40.5804 C   0  0  0  0  0  0
   40.1023   56.2689   39.4588 C   0  0  0  0  0  0
   41.5973   56.8772   37.6721 C   0  0  0  0  0  0
   38.9732   56.0807   33.7332 C   0  0  1  0  0  0
   39.0232   55.0214   34.8768 C   0  0  1  0  0  0
   35.3569   55.9645   32.5603 C   0  0  0  0  0  0
   43.7122   58.8281   40.9200 O   0  0  0  0  0  0
   43.5847   57.2752   43.4515 C   0  0  0  0  0  0
   38.0995   55.9721   37.3757 O   0  0  0  0  0  0
   36.2899   56.7458   34.6135 O   0  0  0  0  0  0
   45.0784   55.4748   39.6878 O   0  0  0  0  0  0
   35.4345   56.2416   31.1885 C   0  0  0  0  0  0
   34.2273   55.3214   33.0783 C   0  0  0  0  0  0
   43.7185   57.8270   38.1131 O   0  0  0  0  0  0
   40.7009   56.5446   41.7199 O   0  0  0  0  0  0
   44.0765   53.5719   40.4370 O   0  0  0  0  0  0
   33.2990   55.1841   30.8663 C   0  0  0  0  0  0
   34.3970   55.8620   30.3450 C   0  0  0  0  0  0
   33.2106   54.9082   32.2240 C   0  0  0  0  0  0
   43.1138   58.5366   43.7314 O   0  0  0  0  0  0
   44.5684   54.6989   43.0663 C   0  0  0  0  0  0
   32.3010   54.7676   30.0370 O   0  0  0  0  0  0
   44.4071   55.1936   44.3546 C   0  0  0  0  0  0
   43.9219   56.4801   44.5435 C   0  0  0  0  0  0
   40.1813   56.0398   32.7638 C   0  0  0  0  0  0
   39.5370   53.5990   34.5498 C   0  0  0  0  0  0
   39.2209   53.0561   33.1438 C   0  0  0  0  0  0
   40.1398   54.9797   31.6370 C   0  0  0  0  0  0
   40.2235   53.5062   32.0672 C   0  0  0  0  0  0
   37.7751   55.7003   32.0413 H   0  0  0  0  0  0
   39.1494   55.8867   39.8018 H   0  0  0  0  0  0
   41.8154   56.9779   36.6174 H   0  0  0  0  0  0
   39.0028   57.0644   34.2110 H   0  0  0  0  0  0
   38.0093   54.8804   35.2562 H   0  0  0  0  0  0
   36.2930   56.7447   30.7663 H   0  0  0  0  0  0
   34.1500   55.1046   34.1352 H   0  0  0  0  0  0
   43.7550   57.8655   37.1540 H   0  0  0  0  0  0
   39.7814   56.2695   41.8262 H   0  0  0  0  0  0
   44.3012   53.2225   39.5595 H   0  0  0  0  0  0
   34.4584   56.0652   29.2859 H   0  0  0  0  0  0
   32.3565   54.3720   32.6082 H   0  0  0  0  0  0
   42.9461   59.0490   42.9359 H   0  0  0  0  0  0
   44.9769   53.7037   42.9520 H   0  0  0  0  0  0
   32.3562   55.1720   29.1499 H   0  0  0  0  0  0
   44.6709   54.5842   45.2068 H   0  0  0  0  0  0
   43.8061   56.8636   45.5467 H   0  0  0  0  0  0
   41.1095   55.9608   33.3318 H   0  0  0  0  0  0
   40.2480   57.0168   32.2818 H   0  0  0  0  0  0
   40.6109   53.5200   34.7312 H   0  0  0  0  0  0
   39.0673   52.9188   35.2626 H   0  0  0  0  0  0
   39.2621   51.9694   33.1878 H   0  0  0  0  0  0
   38.1971   53.2914   32.8495 H   0  0  0  0  0  0
   40.9704   55.1718   30.9571 H   0  0  0  0  0  0
   39.2489   55.1211   31.0244 H   0  0  0  0  0  0
   41.2373   53.2851   32.4065 H   0  0  0  0  0  0
   40.0805   52.8850   31.1809 H   0  0  0  0  0  0
  1  2  1  0  0  0
  1  4  1  0  0  0
  1  5  2  0  0  0
  2  3  1  0  0  0
  2 18  2  0  0  0
  3  8  2  0  0  0
  3 19  1  0  0  0
  4 14  2  0  0  0
  4 25  1  0  0  0
  5 13  1  0  0  0
  5 26  1  0  0  0
  6  9  1  0  0  0
  6 11  1  0  0  0
  6 20  2  0  0  0
  7 10  1  0  0  0
  7 17  1  0  0  0
  7 21  2  0  0  0
  8 12  1  0  0  0
  8 32  1  0  0  0
  9 13  2  0  0  0
  9 14  1  0  0  0
 10 15  1  0  0  0
 10 41  1  0  0  0
 11 16  1  0  0  0
 12 22  2  0  0  0
 12 27  1  0  0  0
 13 42  1  0  0  0
 14 43  1  0  0  0
 15 16  1  0  0  0
 15 36  1  0  0  0
 15 44  1  0  0  0
 16 37  1  0  0  0
 16 45  1  0  0  0
 17 23  2  0  0  0
 17 24  1  0  0  0
 19 31  1  0  0  0
 19 35  2  0  0  0
 23 29  1  0  0  0
 23 46  1  0  0  0
 24 30  2  0  0  0
 24 47  1  0  0  0
 25 48  1  0  0  0
 26 49  1  0  0  0
 27 50  1  0  0  0
 28 30  1  0  0  0
 28 33  1  0  0  0
 28 29  2  0  0  0
 29 51  1  0  0  0
 30 52  1  0  0  0
 31 53  1  0  0  0
 32 34  2  0  0  0
 32 54  1  0  0  0
 33 55  1  0  0  0
 34 35  1  0  0  0
 34 56  1  0  0  0
 35 57  1  0  0  0
 36 39  1  0  0  0
 36 58  1  0  0  0
 36 59  1  0  0  0
 37 38  1  0  0  0
 37 60  1  0  0  0
 37 61  1  0  0  0
 38 40  1  0  0  0
 38 62  1  0  0  0
 38 63  1  0  0  0
 39 40  1  0  0  0
 39 64  1  0  0  0
 39 65  1  0  0  0
 40 66  1  0  0  0
 40 67  1  0  0  0
M  END
> <s_m_entry_id>
3453

> <s_m_entry_name>
dock_pv.182

> <s_m_Source_Path>
/home/csk/Desktop/cluster/DUD-E-result/kpcb

> <s_m_Source_File>
dock_pv.maegz

> <i_m_Source_File_Index>
182

> <chembl_id>
CHEMBL304549

> <chembl_pref_name>
None

> <i_lp_mmshare_version>
53161

> <i_f3d_flags>
0

> <r_lp_tautomer_probability>
0.999999999997365

> <s_lp_Force_Field>
OPLS_2005

> <r_lp_Energy>
52.463894

> <b_lp_Chiralities_Consistent>
1

> <s_lp_Variant>
CHEMBL3045_lig44-1

> <s_i_glide_gridfile>
glide-grid_2i0e

> <i_i_glide_lignum>
46

> <i_i_glide_rotatable_bonds>
14

> <r_i_docking_score>
-7.31937595868565

> <r_i_glide_ligand_efficiency>
-0.182984398967141

> <r_i_glide_ligand_efficiency_sa>
-0.62579784093231

> <r_i_glide_ligand_efficiency_ln>
-1.56100749236873

> <r_i_glide_gscore>
-7.31937595868565

> <r_i_glide_lipo>
-2.30015371690495

> <r_i_glide_hbond>
-0.48

> <r_i_glide_metal>
0

> <r_i_glide_rewards>
-0.348288167153198

> <r_i_glide_evdw>
-51.8432159423828

> <r_i_glide_ecoul>
-14.6742630004883

> <r_i_glide_erotb>
0.617767010723353

> <r_i_glide_esite>
-0.0154008381584731

> <r_i_glide_emodel>
-94.7967584738455

> <r_i_glide_energy>
-66.5174789428711

> <r_i_glide_einternal>
6.09598636627197

> <i_i_glide_confnum>
133

> <i_i_glide_posenum>
223

> <r_i_glide_eff_state_penalty>
0

> <s_user_duplicate_titles>
CHEMBL3045_lig44,107769

> <s_m_subgroup_title>
dock_pv

> <s_m_subgroupid>
dock_pv

> <b_m_subgroup_collapsed>
1

$$$$
CHEMBL3045_lig67
                    3D
 Schrodinger Suite 2021-1.
 72 77  0  0  1  0            999 V2000
   35.9921   55.5732   33.9405 C   0  0  0  0  0  0
   41.9719   57.2318   37.5274 C   0  0  1  0  0  0
   35.2795   55.3481   32.6370 C   0  0  0  0  0  0
   40.5058   57.5101   38.0208 C   0  0  2  0  0  0
   42.5624   56.4321   38.7259 C   0  0  2  0  0  0
   40.5334   56.9579   39.4745 C   0  0  1  0  0  0
   34.2913   56.3615   32.1219 C   0  0  0  0  0  0
   42.1132   56.4634   36.2877 N   0  0  0  0  0  0
   39.5177   56.9102   37.1809 O   0  0  0  0  0  0
   37.3900   55.4484   33.9928 C   0  0  0  0  0  0
   35.3019   55.9517   35.1106 C   0  0  0  0  0  0
   41.8818   55.0428   38.8844 C   0  0  2  0  0  0
   40.4816   55.4224   39.4209 C   0  0  1  0  0  0
   38.1761   57.0066   37.3715 C   0  0  0  0  0  0
   41.9830   57.1852   39.9196 C   0  0  0  0  0  0
   41.7524   56.8276   35.0456 C   0  0  0  0  0  0
   33.1654   56.0270   31.3014 C   0  0  0  0  0  0
   37.4130   56.3836   36.2391 C   0  0  0  0  0  0
   32.7013   54.6183   31.0224 C   0  0  0  0  0  0
   36.0121   56.3723   36.2368 C   0  0  0  0  0  0
   38.0794   55.8463   35.1284 C   0  0  0  0  0  0
   41.7508   55.7143   34.0203 C   0  0  0  0  0  0
   35.5615   54.3720   31.9565 O   0  0  0  0  0  0
   34.5127   57.7244   32.4201 C   0  0  0  0  0  0
   37.6489   57.5621   38.3396 O   0  0  0  0  0  0
   41.3536   57.9597   34.7630 O   0  0  0  0  0  0
   32.6863   53.7632   31.9060 O   0  0  0  0  0  0
   42.2988   54.4500   34.3052 C   0  0  0  0  0  0
   41.1487   55.9229   32.7712 C   0  0  0  0  0  0
   33.9311   55.9573   35.1754 O   0  0  0  0  0  0
   38.1313   55.0171   32.9227 O   0  0  0  0  0  0
   32.3026   54.3718   29.7366 O   0  0  0  0  0  0
   41.5897   53.6366   32.1579 C   0  0  0  0  0  0
   42.2162   53.4190   33.3789 C   0  0  0  0  0  0
   41.0613   54.8840   31.8473 C   0  0  0  0  0  0
   35.5659   58.2218   33.1427 O   0  0  0  0  0  0
   40.3011   54.7303   40.7702 C   0  0  0  0  0  0
   42.4921   54.1094   39.9375 C   0  0  0  0  0  0
   32.3362   57.0514   30.8366 C   0  0  0  0  0  0
   41.5032   52.6165   31.2562 O   0  0  0  0  0  0
   41.2673   53.5719   40.6672 C   0  0  0  0  0  0
   32.5161   58.3596   31.2370 C   0  0  0  0  0  0
   33.5896   58.6734   32.0370 C   0  0  0  0  0  0
   42.5267   58.1706   37.4551 H   0  0  0  0  0  0
   40.3010   58.5725   37.9736 H   0  0  0  0  0  0
   43.6520   56.3763   38.7096 H   0  0  0  0  0  0
   39.7736   57.3941   40.1242 H   0  0  0  0  0  0
   42.5141   55.5462   36.3995 H   0  0  0  0  0  0
   41.8098   54.5056   37.9372 H   0  0  0  0  0  0
   39.7003   55.0702   38.7504 H   0  0  0  0  0  0
   42.3004   58.2278   39.9831 H   0  0  0  0  0  0
   42.2265   56.7380   40.8846 H   0  0  0  0  0  0
   35.4659   56.7337   37.0981 H   0  0  0  0  0  0
   39.1557   55.7821   35.1074 H   0  0  0  0  0  0
   42.7855   54.2298   35.2441 H   0  0  0  0  0  0
   40.7233   56.8830   32.5102 H   0  0  0  0  0  0
   33.5918   56.0973   36.0633 H   0  0  0  0  0  0
   39.0685   54.9133   33.1091 H   0  0  0  0  0  0
   32.4333   55.1062   29.1108 H   0  0  0  0  0  0
   42.6349   52.4500   33.6180 H   0  0  0  0  0  0
   40.5841   55.0454   30.8904 H   0  0  0  0  0  0
   36.1731   57.5452   33.4520 H   0  0  0  0  0  0
   40.5312   55.3780   41.6172 H   0  0  0  0  0  0
   39.2794   54.3702   40.8941 H   0  0  0  0  0  0
   43.0681   53.3032   39.4826 H   0  0  0  0  0  0
   43.1596   54.6359   40.6208 H   0  0  0  0  0  0
   31.5010   56.8494   30.1963 H   0  0  0  0  0  0
   42.0751   51.8828   31.5149 H   0  0  0  0  0  0
   41.5001   53.1723   41.6370 H   0  0  0  0  0  0
   40.8143   52.7721   40.0839 H   0  0  0  0  0  0
   31.8304   59.1285   30.9290 H   0  0  0  0  0  0
   33.6987   59.6703   32.4370 H   0  0  0  0  0  0
  1  3  1  0  0  0
  1 10  1  0  0  0
  1 11  2  0  0  0
  2  4  1  0  0  0
  2  5  1  0  0  0
  2  8  1  0  0  0
  2 44  1  0  0  0
  3  7  1  0  0  0
  3 23  2  0  0  0
  4  9  1  0  0  0
  4  6  1  0  0  0
  4 45  1  0  0  0
  5 15  1  0  0  0
  5 12  1  0  0  0
  5 46  1  0  0  0
  6 13  1  0  0  0
  6 15  1  0  0  0
  6 47  1  0  0  0
  7 17  1  0  0  0
  7 24  2  0  0  0
  8 16  1  0  0  0
  8 48  1  0  0  0
  9 14  1  0  0  0
 10 21  2  0  0  0
 10 31  1  0  0  0
 11 20  1  0  0  0
 11 30  1  0  0  0
 12 13  1  0  0  0
 12 38  1  0  0  0
 12 49  1  0  0  0
 13 37  1  0  0  0
 13 50  1  0  0  0
 14 18  1  0  0  0
 14 25  2  0  0  0
 15 51  1  0  0  0
 15 52  1  0  0  0
 16 22  1  0  0  0
 16 26  2  0  0  0
 17 19  1  0  0  0
 17 39  2  0  0  0
 18 20  2  0  0  0
 18 21  1  0  0  0
 19 27  2  0  0  0
 19 32  1  0  0  0
 20 53  1  0  0  0
 21 54  1  0  0  0
 22 28  1  0  0  0
 22 29  2  0  0  0
 24 36  1  0  0  0
 24 43  1  0  0  0
 28 34  2  0  0  0
 28 55  1  0  0  0
 29 35  1  0  0  0
 29 56  1  0  0  0
 30 57  1  0  0  0
 31 58  1  0  0  0
 32 59  1  0  0  0
 33 35  2  0  0  0
 33 40  1  0  0  0
 33 34  1  0  0  0
 34 60  1  0  0  0
 35 61  1  0  0  0
 36 62  1  0  0  0
 37 41  1  0  0  0
 37 63  1  0  0  0
 37 64  1  0  0  0
 38 41  1  0  0  0
 38 65  1  0  0  0
 38 66  1  0  0  0
 39 42  1  0  0  0
 39 67  1  0  0  0
 40 68  1  0  0  0
 41 69  1  0  0  0
 41 70  1  0  0  0
 42 43  2  0  0  0
 42 71  1  0  0  0
 43 72  1  0  0  0
M  END
> <s_m_entry_id>
3455

> <s_m_entry_name>
dock_pv.184

> <s_m_Source_Path>
/home/csk/Desktop/cluster/DUD-E-result/kpcb

> <s_m_Source_File>
dock_pv.maegz

> <i_m_Source_File_Index>
184

> <chembl_id>
CHEMBL72480

> <chembl_pref_name>
None

> <i_lp_mmshare_version>
53161

> <i_f3d_flags>
0

> <r_lp_tautomer_probability>
0.999999999997365

> <s_lp_Force_Field>
OPLS_2005

> <r_lp_Energy>
102.792391

> <b_lp_Chiralities_Consistent>
1

> <s_lp_Variant>
CHEMBL3045_lig67-8

> <s_i_glide_gridfile>
glide-grid_2i0e

> <i_i_glide_lignum>
89

> <i_i_glide_rotatable_bonds>
14

> <r_i_docking_score>
-7.29617719091188

> <r_i_glide_ligand_efficiency>
-0.169678539323532

> <r_i_glide_ligand_efficiency_sa>
-0.594451464810031

> <r_i_glide_ligand_efficiency_ln>
-1.53242397160806

> <r_i_glide_gscore>
-7.29617719091188

> <r_i_glide_lipo>
-2.79324972723508

> <r_i_glide_hbond>
-0.414966293179276

> <r_i_glide_metal>
0

> <r_i_glide_rewards>
-1.02835065247629

> <r_i_glide_evdw>
-24.9801731109619

> <r_i_glide_ecoul>
-15.0011930465698

> <r_i_glide_erotb>
0.43957709451234

> <r_i_glide_esite>
0

> <r_i_glide_emodel>
-58.6088089459964

> <r_i_glide_energy>
-39.9813661575317

> <r_i_glide_einternal>
11.4452066421509

> <i_i_glide_confnum>
229

> <i_i_glide_posenum>
266

> <r_i_glide_eff_state_penalty>
0

> <s_user_duplicate_titles>
CHEMBL3045_lig67,112359

> <s_m_subgroup_title>
dock_pv

> <s_m_subgroupid>
dock_pv

> <b_m_subgroup_collapsed>
1

$$$$
CHEMBL3045_lig85
                    3D
 Schrodinger Suite 2021-1.
 62 65  0  0  1  0            999 V2000
   41.0080   54.3132   33.6438 C   0  0  0  0  0  0
   42.2070   54.0242   34.5234 C   0  0  0  0  0  0
   42.1864   54.3617   35.9892 C   0  0  0  0  0  0
   40.7530   53.5275   32.4920 C   0  0  0  0  0  0
   40.1436   55.4058   33.8852 C   0  0  0  0  0  0
   35.1899   56.3398   34.2327 C   0  0  0  0  0  0
   42.7356   55.5647   36.5372 C   0  0  0  0  0  0
   35.7264   57.1117   33.2648 N   0  0  0  0  0  0
   43.3995   56.6597   35.7124 C   0  0  0  0  0  0
   35.3501   57.2284   31.8425 C   0  0  1  0  0  0
   35.7756   56.5193   35.6140 C   0  0  0  0  0  0
   43.1804   53.4112   34.0901 O   0  0  0  0  0  0
   39.6970   53.8325   31.6335 C   0  0  0  0  0  0
   39.1256   55.7199   32.9907 C   0  0  0  0  0  0
   41.6029   53.4135   36.8574 C   0  0  0  0  0  0
   34.2448   55.5735   34.0516 O   0  0  0  0  0  0
   38.8930   54.9419   31.8663 C   0  0  0  0  0  0
   36.5131   55.1161   31.4608 O   0  0  0  0  0  0
   43.2644   56.7712   34.4966 O   0  0  0  0  0  0
   35.4863   55.9687   30.9623 C   0  0  1  0  0  0
   34.9945   56.2224   36.7378 C   0  0  0  0  0  0
   37.0876   56.9864   35.8042 C   0  0  0  0  0  0
   40.2490   56.2307   34.9754 O   0  0  0  0  0  0
   41.5009   52.4343   32.1388 O   0  0  0  0  0  0
   37.8023   55.3471   30.8949 C   0  0  0  0  0  0
   44.1095   57.5719   36.4373 O   0  0  0  0  0  0
   36.7909   56.9159   38.1846 C   0  0  0  0  0  0
   37.5968   57.1726   37.0836 C   0  0  0  0  0  0
   35.5010   56.4305   38.0160 C   0  0  0  0  0  0
   41.0992   52.2047   36.4356 O   0  0  0  0  0  0
   42.6281   55.7716   37.9250 C   0  0  0  0  0  0
   37.2550   57.1695   39.4413 O   0  0  0  0  0  0
   42.0329   54.8386   38.7590 C   0  0  0  0  0  0
   33.9021   57.6702   31.6380 C   0  0  0  0  0  0
   33.0848   56.4309   31.2458 C   0  0  0  0  0  0
   41.5308   53.6658   38.2245 C   0  0  0  0  0  0
   34.1016   55.3050   30.9918 C   0  0  0  0  0  0
   36.4720   57.7211   33.5580 H   0  0  0  0  0  0
   36.0085   58.0076   31.4590 H   0  0  0  0  0  0
   39.5276   53.2176   30.7596 H   0  0  0  0  0  0
   38.5128   56.5896   33.1527 H   0  0  0  0  0  0
   35.7214   56.2605   29.9351 H   0  0  0  0  0  0
   33.9808   55.8577   36.6310 H   0  0  0  0  0  0
   37.7294   57.2235   34.9736 H   0  0  0  0  0  0
   40.9520   55.9464   35.5661 H   0  0  0  0  0  0
   42.2774   52.2630   32.6867 H   0  0  0  0  0  0
   37.9556   56.4001   30.6509 H   0  0  0  0  0  0
   37.8905   54.7838   29.9657 H   0  0  0  0  0  0
   44.3011   58.3312   35.8715 H   0  0  0  0  0  0
   38.6033   57.5417   37.2085 H   0  0  0  0  0  0
   34.8700   56.2454   38.8685 H   0  0  0  0  0  0
   41.4313   51.8899   35.5873 H   0  0  0  0  0  0
   43.0116   56.6691   38.3919 H   0  0  0  0  0  0
   38.2057   57.2944   39.4760 H   0  0  0  0  0  0
   41.9755   55.0157   39.8229 H   0  0  0  0  0  0
   33.8767   58.3720   30.8368 H   0  0  0  0  0  0
   33.5046   58.2839   32.4370 H   0  0  0  0  0  0
   32.4832   56.6281   30.3557 H   0  0  0  0  0  0
   32.3891   56.1481   32.0378 H   0  0  0  0  0  0
   41.1008   52.9298   38.8848 H   0  0  0  0  0  0
   33.8746   54.8205   30.0423 H   0  0  0  0  0  0
   34.0530   54.5331   31.7615 H   0  0  0  0  0  0
  1  2  1  0  0  0
  1  4  1  0  0  0
  1  5  2  0  0  0
  2  3  1  0  0  0
  2 12  2  0  0  0
  3  7  1  0  0  0
  3 15  2  0  0  0
  4 13  2  0  0  0
  4 24  1  0  0  0
  5 14  1  0  0  0
  5 23  1  0  0  0
  6  8  1  0  0  0
  6 11  1  0  0  0
  6 16  2  0  0  0
  7  9  1  0  0  0
  7 31  2  0  0  0
  8 10  1  0  0  0
  8 38  1  0  0  0
  9 19  2  0  0  0
  9 26  1  0  0  0
 10 20  1  0  0  0
 10 34  1  0  0  0
 10 39  1  0  0  0
 11 21  2  0  0  0
 11 22  1  0  0  0
 13 17  1  0  0  0
 13 40  1  0  0  0
 14 17  2  0  0  0
 14 41  1  0  0  0
 15 30  1  0  0  0
 15 36  1  0  0  0
 17 25  1  0  0  0
 18 25  1  0  0  0
 18 20  1  0  0  0
 20 37  1  0  0  0
 20 42  1  0  0  0
 21 29  1  0  0  0
 21 43  1  0  0  0
 22 28  2  0  0  0
 22 44  1  0  0  0
 23 45  1  0  0  0
 24 46  1  0  0  0
 25 47  1  0  0  0
 25 48  1  0  0  0
 26 49  1  0  0  0
 27 28  1  0  0  0
 27 32  1  0  0  0
 27 29  2  0  0  0
 28 50  1  0  0  0
 29 51  1  0  0  0
 30 52  1  0  0  0
 31 33  1  0  0  0
 31 53  1  0  0  0
 32 54  1  0  0  0
 33 36  2  0  0  0
 33 55  1  0  0  0
 34 35  1  0  0  0
 34 56  1  0  0  0
 34 57  1  0  0  0
 35 37  1  0  0  0
 35 58  1  0  0  0
 35 59  1  0  0  0
 36 60  1  0  0  0
 37 61  1  0  0  0
 37 62  1  0  0  0
M  END
> <s_m_entry_id>
3456

> <s_m_entry_name>
dock_pv.185

> <s_m_Source_Path>
/home/csk/Desktop/cluster/DUD-E-result/kpcb

> <s_m_Source_File>
dock_pv.maegz

> <i_m_Source_File_Index>
185

> <chembl_id>
CHEMBL89833

> <chembl_pref_name>
None

> <i_lp_mmshare_version>
53161

> <i_f3d_flags>
0

> <r_lp_tautomer_probability>
0.999999999997365

> <s_lp_Force_Field>
OPLS_2005

> <r_lp_Energy>
57.963085

> <b_lp_Chiralities_Consistent>
1

> <s_lp_Variant>
CHEMBL3045_lig85-4

> <s_i_glide_gridfile>
glide-grid_2i0e

> <i_i_glide_lignum>
135

> <i_i_glide_rotatable_bonds>
14

> <r_i_docking_score>
-7.28749771422942

> <r_i_glide_ligand_efficiency>
-0.196959397681876

> <r_i_glide_ligand_efficiency_sa>
-0.65631240805261

> <r_i_glide_ligand_efficiency_ln>
-1.58048741103054

> <r_i_glide_gscore>
-7.28749771422942

> <r_i_glide_lipo>
-2.8510196946431

> <r_i_glide_hbond>
-0.203915275514314

> <r_i_glide_metal>
0

> <r_i_glide_rewards>
-0.760620939459479

> <r_i_glide_evdw>
-48.7521286010742

> <r_i_glide_ecoul>
-11.4469213485718

> <r_i_glide_erotb>
0.715227185350911

> <r_i_glide_esite>
-0.032524357623959

> <r_i_glide_emodel>
-81.3432568991128

> <r_i_glide_energy>
-60.199049949646

> <r_i_glide_einternal>
9.81659984588623

> <i_i_glide_confnum>
46

> <i_i_glide_posenum>
104

> <r_i_glide_eff_state_penalty>
0

> <s_user_duplicate_titles>
CHEMBL3045_lig85,143767

> <s_m_subgroup_title>
dock_pv

> <s_m_subgroupid>
dock_pv

> <b_m_subgroup_collapsed>
1

$$$$
CHEMBL3045_lig207
                    3D
 Schrodinger Suite 2021-1.
 62 65  0  0  1  0            999 V2000
   39.9495   55.6735   37.1273 C   0  0  0  0  0  0
   41.1940   55.2431   37.8681 C   0  0  0  0  0  0
   42.0396   56.2603   38.5808 C   0  0  0  0  0  0
   39.1897   56.8044   37.5131 C   0  0  0  0  0  0
   39.4567   54.8893   36.0661 C   0  0  0  0  0  0
   36.4747   56.8978   34.8497 C   0  0  0  0  0  0
   38.2863   54.7716   31.9190 C   0  0  0  0  0  0
   42.0893   56.3331   40.0038 C   0  0  0  0  0  0
   37.9660   55.8910   31.2360 N   0  0  0  0  0  0
   37.6122   56.4422   35.7085 C   0  0  0  0  0  0
   36.6132   56.4806   31.1009 C   0  0  2  0  0  0
   35.9028   56.8532   32.4403 C   0  0  2  0  0  0
   36.7392   56.5981   33.5654 O   0  0  0  0  0  0
   41.1665   55.5495   40.9224 C   0  0  0  0  0  0
   38.2934   55.2595   35.4065 C   0  0  0  0  0  0
   38.0488   57.1854   36.8030 C   0  0  0  0  0  0
   35.6181   55.5797   30.3266 C   0  0  0  0  0  0
   34.6494   55.9745   32.4675 C   0  0  0  0  0  0
   39.7449   54.4870   32.1257 C   0  0  0  0  0  0
   41.5228   54.0594   37.9567 O   0  0  0  0  0  0
   42.8387   57.1359   37.8141 C   0  0  0  0  0  0
   34.2551   55.6852   31.0108 C   0  0  1  0  0  0
   35.5106   57.5644   35.2284 O   0  0  0  0  0  0
   37.4508   54.0249   32.4368 O   0  0  0  0  0  0
   41.4917   55.1857   42.0505 O   0  0  0  0  0  0
   40.1796   53.1580   32.1243 C   0  0  0  0  0  0
   40.6514   55.5156   32.4194 C   0  0  0  0  0  0
   40.0847   53.7552   35.6116 O   0  0  0  0  0  0
   39.4964   57.5721   38.6047 O   0  0  0  0  0  0
   39.9013   55.4135   40.4370 O   0  0  0  0  0  0
   42.3929   53.8793   32.7323 C   0  0  0  0  0  0
   41.9747   55.2076   32.7275 C   0  0  0  0  0  0
   41.5010   52.8560   32.4253 C   0  0  0  0  0  0
   42.7900   57.1712   36.4407 O   0  0  0  0  0  0
   33.5447   56.7669   30.4382 O   0  0  0  0  0  0
   43.0086   57.2092   40.5988 C   0  0  0  0  0  0
   43.6908   53.5722   33.0376 O   0  0  0  0  0  0
   43.8213   58.0355   39.8285 C   0  0  0  0  0  0
   43.7220   58.0105   38.4420 C   0  0  0  0  0  0
   36.6802   57.4210   30.5507 H   0  0  0  0  0  0
   35.6522   57.9158   32.4589 H   0  0  0  0  0  0
   33.6685   54.7694   30.9128 H   0  0  0  0  0  0
   38.7145   56.3495   30.7365 H   0  0  0  0  0  0
   37.9285   54.6135   34.6310 H   0  0  0  0  0  0
   37.5169   58.0796   37.0987 H   0  0  0  0  0  0
   35.9018   54.5387   30.4332 H   0  0  0  0  0  0
   35.6070   55.7520   29.2497 H   0  0  0  0  0  0
   34.8562   55.0359   32.9819 H   0  0  0  0  0  0
   33.8780   56.4652   33.0362 H   0  0  0  0  0  0
   39.4957   52.3492   31.9044 H   0  0  0  0  0  0
   40.3337   56.5481   32.4492 H   0  0  0  0  0  0
   39.7119   53.4054   34.7992 H   0  0  0  0  0  0
   40.2294   57.2119   39.1112 H   0  0  0  0  0  0
   39.2709   55.1718   41.1268 H   0  0  0  0  0  0
   42.6731   55.9943   32.9731 H   0  0  0  0  0  0
   41.8269   51.8249   32.4332 H   0  0  0  0  0  0
   43.3775   57.8313   36.0585 H   0  0  0  0  0  0
   33.1718   56.4771   29.5915 H   0  0  0  0  0  0
   43.0850   57.2779   41.6753 H   0  0  0  0  0  0
   43.9019   52.6383   32.8374 H   0  0  0  0  0  0
   44.5152   58.7112   40.3072 H   0  0  0  0  0  0
   44.3405   58.6728   37.8527 H   0  0  0  0  0  0
  1  2  1  0  0  0
  1  4  1  0  0  0
  1  5  2  0  0  0
  2  3  1  0  0  0
  2 20  2  0  0  0
  3  8  2  0  0  0
  3 21  1  0  0  0
  4 16  2  0  0  0
  4 29  1  0  0  0
  5 15  1  0  0  0
  5 28  1  0  0  0
  6 10  1  0  0  0
  6 13  1  0  0  0
  6 23  2  0  0  0
  7  9  1  0  0  0
  7 19  1  0  0  0
  7 24  2  0  0  0
  8 14  1  0  0  0
  8 36  1  0  0  0
  9 11  1  0  0  0
  9 43  1  0  0  0
 10 16  1  0  0  0
 10 15  2  0  0  0
 11 12  1  0  0  0
 11 17  1  0  0  0
 11 40  1  0  0  0
 12 13  1  0  0  0
 12 18  1  0  0  0
 12 41  1  0  0  0
 14 25  2  0  0  0
 14 30  1  0  0  0
 15 44  1  0  0  0
 16 45  1  0  0  0
 17 22  1  0  0  0
 17 46  1  0  0  0
 17 47  1  0  0  0
 18 22  1  0  0  0
 18 48  1  0  0  0
 18 49  1  0  0  0
 19 26  1  0  0  0
 19 27  2  0  0  0
 21 34  1  0  0  0
 21 39  2  0  0  0
 22 35  1  0  0  0
 22 42  1  0  0  0
 26 33  2  0  0  0
 26 50  1  0  0  0
 27 32  1  0  0  0
 27 51  1  0  0  0
 28 52  1  0  0  0
 29 53  1  0  0  0
 30 54  1  0  0  0
 31 33  1  0  0  0
 31 37  1  0  0  0
 31 32  2  0  0  0
 32 55  1  0  0  0
 33 56  1  0  0  0
 34 57  1  0  0  0
 35 58  1  0  0  0
 36 38  2  0  0  0
 36 59  1  0  0  0
 37 60  1  0  0  0
 38 39  1  0  0  0
 38 61  1  0  0  0
 39 62  1  0  0  0
M  END
> <s_m_entry_id>
3457

> <s_m_entry_name>
dock_pv.186

> <s_m_Source_Path>
/home/csk/Desktop/cluster/DUD-E-result/kpcb

> <s_m_Source_File>
dock_pv.maegz

> <i_m_Source_File_Index>
186

> <chembl_id>
CHEMBL1794808

> <chembl_pref_name>
None

> <i_lp_mmshare_version>
53161

> <i_f3d_flags>
0

> <r_lp_tautomer_probability>
0.999999999997365

> <s_lp_Force_Field>
OPLS_2005

> <r_lp_Energy>
54.402942

> <b_lp_Chiralities_Consistent>
1

> <s_lp_Variant>
CHEMBL3045_lig207-1

> <s_i_glide_gridfile>
glide-grid_2i0e

> <i_i_glide_lignum>
364

> <i_i_glide_rotatable_bonds>
15

> <r_i_docking_score>
-7.27441685329767

> <r_i_glide_ligand_efficiency>
-0.186523509058915

> <r_i_glide_ligand_efficiency_sa>
-0.632540657539297

> <r_i_glide_ligand_efficiency_ln>
-1.55984146994922

> <r_i_glide_gscore>
-7.27441685329767

> <r_i_glide_lipo>
-2.12168598033261

> <r_i_glide_hbond>
-0.480160837998796

> <r_i_glide_metal>
0

> <r_i_glide_rewards>
-0.625628495773683

> <r_i_glide_evdw>
-49.4392547607422

> <r_i_glide_ecoul>
-14.7902898788452

> <r_i_glide_erotb>
0.643564680671319

> <r_i_glide_esite>
0

> <r_i_glide_emodel>
-83.3279694987368

> <r_i_glide_energy>
-64.2295446395874

> <r_i_glide_einternal>
17.7892208099365

> <i_i_glide_confnum>
82

> <i_i_glide_posenum>
100

> <r_i_glide_eff_state_penalty>
0

> <s_user_duplicate_titles>
CHEMBL3045_lig207,CHEMBL3045_lig206,106577,106882

> <s_m_subgroup_title>
dock_pv

> <s_m_subgroupid>
dock_pv

> <b_m_subgroup_collapsed>
1

$$$$
CHEMBL3045_lig350
                    3D
 Schrodinger Suite 2021-1.
 58 63  0  0  1  0            999 V2000
   35.8312   56.7668   37.7408 N   0  0  0  0  0  0
   35.6097   56.2585   36.5310 C   0  0  0  0  0  0
   36.9181   56.0502   35.9732 C   0  0  0  0  0  0
   37.8446   56.4128   36.8843 C   0  0  0  0  0  0
   37.1253   56.9821   37.9956 C   0  0  0  0  0  0
   34.5027   56.0410   36.0405 O   0  0  0  0  0  0
   37.5533   57.5707   38.9823 O   0  0  0  0  0  0
   42.0587   56.2511   36.1818 N   0  0  0  0  0  0
   41.1125   56.4713   35.2350 C   0  0  0  0  0  0
   39.7850   56.6054   35.4950 N   0  0  0  0  0  0
   39.3440   56.3623   36.7597 C   0  0  0  0  0  0
   40.2622   56.0437   37.8211 C   0  0  0  0  0  0
   39.9263   55.7187   39.1675 C   0  0  0  0  0  0
   40.9166   55.4444   40.1055 C   0  0  0  0  0  0
   42.2582   55.4638   39.7442 C   0  0  0  0  0  0
   42.6312   55.7479   38.4344 C   0  0  0  0  0  0
   41.6463   56.0317   37.4577 C   0  0  0  0  0  0
   41.5436   56.5919   33.9074 N   0  0  0  0  0  0
   42.9175   56.2687   33.4580 C   0  0  0  0  0  0
   43.0085   54.8537   32.8307 C   0  0  0  0  0  0
   42.1581   54.7734   31.6397 N   0  0  0  0  0  0
   40.7800   55.0571   32.0477 C   0  0  0  0  0  0
   40.6536   56.4449   32.7389 C   0  0  0  0  0  0
   42.2423   53.4402   31.0468 C   0  0  0  0  0  0
   37.7561   54.3348   32.8409 N   0  0  0  0  0  0
   37.8854   54.4571   34.2047 C   0  0  0  0  0  0
   37.0885   55.5230   34.6163 C   0  0  0  0  0  0
   36.4469   56.0570   33.4394 C   0  0  0  0  0  0
   35.5406   57.1081   33.2004 C   0  0  0  0  0  0
   35.1019   57.3449   31.9003 C   0  0  0  0  0  0
   35.5722   56.5809   30.8372 C   0  0  0  0  0  0
   36.5020   55.5611   31.0196 C   0  0  0  0  0  0
   36.9086   55.2943   32.3310 C   0  0  0  0  0  0
   38.7832   53.5112   34.9715 C   0  0  0  0  0  0
   35.0806   57.0381   38.3558 H   0  0  0  0  0  0
   38.8998   55.6460   39.4854 H   0  0  0  0  0  0
   40.6375   55.2008   41.1193 H   0  0  0  0  0  0
   43.0174   55.2396   40.4817 H   0  0  0  0  0  0
   43.6720   55.7345   38.1482 H   0  0  0  0  0  0
   43.2389   57.0164   32.7318 H   0  0  0  0  0  0
   43.6326   56.3367   34.2765 H   0  0  0  0  0  0
   44.0423   54.6480   32.5488 H   0  0  0  0  0  0
   42.7300   54.0918   33.5620 H   0  0  0  0  0  0
   40.4257   54.2704   32.7146 H   0  0  0  0  0  0
   40.1377   55.0391   31.1654 H   0  0  0  0  0  0
   39.6115   56.5981   33.0149 H   0  0  0  0  0  0
   40.8846   57.2404   32.0369 H   0  0  0  0  0  0
   41.6189   53.3758   30.1533 H   0  0  0  0  0  0
   43.2670   53.2108   30.7530 H   0  0  0  0  0  0
   41.9153   52.6651   31.7435 H   0  0  0  0  0  0
   38.2477   53.6233   32.3198 H   0  0  0  0  0  0
   35.1702   57.7138   34.0161 H   0  0  0  0  0  0
   34.3852   58.1327   31.7125 H   0  0  0  0  0  0
   35.2063   56.7721   29.8389 H   0  0  0  0  0  0
   36.8583   54.9811   30.1807 H   0  0  0  0  0  0
   38.5554   53.5159   36.0368 H   0  0  0  0  0  0
   38.6945   52.4799   34.6308 H   0  0  0  0  0  0
   39.8332   53.7855   34.8770 H   0  0  0  0  0  0
  1  2  1  0  0  0
  1  5  1  0  0  0
  1 35  1  0  0  0
  2  3  1  0  0  0
  2  6  2  0  0  0
  3  4  2  0  0  0
  3 27  1  0  0  0
  4  5  1  0  0  0
  4 11  1  0  0  0
  5  7  2  0  0  0
  8  9  1  0  0  0
  8 17  2  0  0  0
  9 10  2  0  0  0
  9 18  1  0  0  0
 10 11  1  0  0  0
 11 12  2  0  0  0
 12 13  1  0  0  0
 12 17  1  0  0  0
 13 14  2  0  0  0
 13 36  1  0  0  0
 14 15  1  0  0  0
 14 37  1  0  0  0
 15 16  2  0  0  0
 15 38  1  0  0  0
 16 17  1  0  0  0
 16 39  1  0  0  0
 18 19  1  0  0  0
 18 23  1  0  0  0
 19 20  1  0  0  0
 19 40  1  0  0  0
 19 41  1  0  0  0
 20 21  1  0  0  0
 20 42  1  0  0  0
 20 43  1  0  0  0
 21 22  1  0  0  0
 21 24  1  0  0  0
 22 23  1  0  0  0
 22 44  1  0  0  0
 22 45  1  0  0  0
 23 46  1  0  0  0
 23 47  1  0  0  0
 24 48  1  0  0  0
 24 49  1  0  0  0
 24 50  1  0  0  0
 25 26  1  0  0  0
 25 33  1  0  0  0
 25 51  1  0  0  0
 26 27  2  0  0  0
 26 34  1  0  0  0
 27 28  1  0  0  0
 28 29  1  0  0  0
 28 33  2  0  0  0
 29 30  2  0  0  0
 29 52  1  0  0  0
 30 31  1  0  0  0
 30 53  1  0  0  0
 31 32  2  0  0  0
 31 54  1  0  0  0
 32 33  1  0  0  0
 32 55  1  0  0  0
 34 56  1  0  0  0
 34 57  1  0  0  0
 34 58  1  0  0  0
M  END
> <s_m_entry_id>
3458

> <s_m_entry_name>
dock_pv.187

> <s_m_Source_Path>
/home/csk/Desktop/cluster/DUD-E-result/kpcb

> <s_m_Source_File>
dock_pv.maegz

> <i_m_Source_File_Index>
187

> <chembl_id>
CHEMBL2151414

> <chembl_pref_name>
None

> <i_lp_mmshare_version>
53161

> <i_f3d_flags>
0

> <r_lp_tautomer_probability>
1

> <s_lp_Force_Field>
OPLS_2005

> <r_lp_Energy>
45.70856

> <b_lp_Chiralities_Consistent>
1

> <s_lp_Variant>
CHEMBL3045_lig350-1

> <s_i_glide_gridfile>
glide-grid_2i0e

> <i_i_glide_lignum>
514

> <i_i_glide_rotatable_bonds>
3

> <r_i_docking_score>
-7.26747480447923

> <r_i_glide_ligand_efficiency>
-0.213749258955271

> <r_i_glide_ligand_efficiency_sa>
-0.692464621011854

> <r_i_glide_ligand_efficiency_ln>
-1.60558903007301

> <r_i_glide_gscore>
-7.26747480447923

> <r_i_glide_lipo>
-2.7115615312699

> <r_i_glide_hbond>
-0.0199601644325448

> <r_i_glide_metal>
0

> <r_i_glide_rewards>
-2.07318140311828

> <r_i_glide_evdw>
-48.8984985351562

> <r_i_glide_ecoul>
-2.07886838912964

> <r_i_glide_erotb>
0.293983479468762

> <r_i_glide_esite>
0

> <r_i_glide_emodel>
-70.1953758266529

> <r_i_glide_energy>
-50.9773669242859

> <r_i_glide_einternal>
6.21443319320679

> <i_i_glide_confnum>
4

> <i_i_glide_posenum>
108

> <r_i_glide_eff_state_penalty>
0

> <s_user_duplicate_titles>
CHEMBL3045_lig350

> <s_m_subgroup_title>
dock_pv

> <s_m_subgroupid>
dock_pv

> <b_m_subgroup_collapsed>
1

$$$$
CHEMBL3045_lig126
                    3D
 Schrodinger Suite 2021-1.
 65 68  0  0  1  0            999 V2000
   41.9826   55.0998   32.4918 C   0  0  0  0  0  0
   42.9534   54.2816   31.6824 C   0  0  0  0  0  0
   44.4158   54.2504   32.0547 C   0  0  0  0  0  0
   40.6717   54.6291   32.7095 C   0  0  0  0  0  0
   42.3425   56.3497   33.0425 C   0  0  0  0  0  0
   39.2883   57.2446   35.1095 C   0  0  0  0  0  0
   35.3160   56.6060   33.9381 C   0  0  0  0  0  0
   40.1817   56.5403   34.1367 C   0  0  0  0  0  0
   35.2202   55.9364   35.1080 N   0  0  0  0  0  0
   38.2396   56.4857   35.4853 O   0  0  0  0  0  0
   41.4481   57.0563   33.8447 C   0  0  0  0  0  0
   39.7957   55.3410   33.5222 C   0  0  0  0  0  0
   36.0568   55.9794   36.3158 C   0  0  1  0  0  0
   44.8061   54.0954   33.4074 C   0  0  0  0  0  0
   37.2245   56.9746   36.3510 C   0  0  1  0  0  0
   34.4902   56.0495   32.7984 C   0  0  0  0  0  0
   42.5435   53.6179   30.7255 O   0  0  0  0  0  0
   45.4051   54.2439   31.0502 C   0  0  0  0  0  0
   42.9648   54.3564   36.6217 C   0  0  0  0  0  0
   43.8169   54.0568   34.3790 O   0  0  0  0  0  0
   39.5013   58.3718   35.5611 O   0  0  0  0  0  0
   36.0519   57.5723   33.7561 O   0  0  0  0  0  0
   42.0421   55.0502   36.2039 O   0  0  0  0  0  0
   34.7140   56.4707   31.4812 C   0  0  0  0  0  0
   33.5010   55.0907   33.0308 C   0  0  0  0  0  0
   44.1268   53.8439   35.7580 C   0  0  0  0  0  0
   40.2031   53.4471   32.1880 O   0  0  0  0  0  0
   43.5726   56.9252   32.8378 O   0  0  0  0  0  0
   33.0129   54.9416   30.6908 C   0  0  0  0  0  0
   43.1010   53.9720   37.9218 O   0  0  0  0  0  0
   32.7800   54.5201   31.9891 C   0  0  0  0  0  0
   33.9730   55.9216   30.4364 C   0  0  0  0  0  0
   45.1045   54.3722   29.7174 O   0  0  0  0  0  0
   32.3011   54.3720   29.6655 O   0  0  0  0  0  0
   35.2802   56.3367   37.5843 C   0  0  0  0  0  0
   37.6401   57.0074   37.8282 C   0  0  0  0  0  0
   36.3462   56.7499   38.6140 C   0  0  0  0  0  0
   47.1348   53.9881   32.7115 C   0  0  0  0  0  0
   46.1718   53.9719   33.7132 C   0  0  0  0  0  0
   46.7514   54.1272   31.3843 C   0  0  0  0  0  0
   34.5151   55.2191   35.1361 H   0  0  0  0  0  0
   41.7745   57.9894   34.2841 H   0  0  0  0  0  0
   38.8149   54.9200   33.6933 H   0  0  0  0  0  0
   36.5042   54.9918   36.4367 H   0  0  0  0  0  0
   36.9120   57.9629   36.0132 H   0  0  0  0  0  0
   35.4696   57.2112   31.2574 H   0  0  0  0  0  0
   33.2748   54.7723   34.0322 H   0  0  0  0  0  0
   44.2840   52.7765   35.9273 H   0  0  0  0  0  0
   45.0053   54.4033   36.0766 H   0  0  0  0  0  0
   40.8424   53.0129   31.6125 H   0  0  0  0  0  0
   44.1991   56.3216   32.4318 H   0  0  0  0  0  0
   43.7891   53.2912   38.0372 H   0  0  0  0  0  0
   32.0320   53.7679   32.1904 H   0  0  0  0  0  0
   34.1667   56.2435   29.4247 H   0  0  0  0  0  0
   45.8826   54.2968   29.1621 H   0  0  0  0  0  0
   32.3400   54.9461   28.8766 H   0  0  0  0  0  0
   34.6365   55.5233   37.9210 H   0  0  0  0  0  0
   34.6097   57.1717   37.3773 H   0  0  0  0  0  0
   38.3962   56.2491   38.0432 H   0  0  0  0  0  0
   38.0656   57.9720   38.0970 H   0  0  0  0  0  0
   36.5150   55.9720   39.3532 H   0  0  0  0  0  0
   36.0331   57.6354   39.1608 H   0  0  0  0  0  0
   48.1789   53.8765   32.9644 H   0  0  0  0  0  0
   46.5159   53.8257   34.7238 H   0  0  0  0  0  0
   47.5095   54.1279   30.6147 H   0  0  0  0  0  0
  1  2  1  0  0  0
  1  4  1  0  0  0
  1  5  2  0  0  0
  2  3  1  0  0  0
  2 17  2  0  0  0
  3 14  1  0  0  0
  3 18  2  0  0  0
  4 12  2  0  0  0
  4 27  1  0  0  0
  5 11  1  0  0  0
  5 28  1  0  0  0
  6  8  1  0  0  0
  6 10  1  0  0  0
  6 21  2  0  0  0
  7  9  1  0  0  0
  7 16  1  0  0  0
  7 22  2  0  0  0
  8 11  2  0  0  0
  8 12  1  0  0  0
  9 13  1  0  0  0
  9 41  1  0  0  0
 10 15  1  0  0  0
 11 42  1  0  0  0
 12 43  1  0  0  0
 13 15  1  0  0  0
 13 35  1  0  0  0
 13 44  1  0  0  0
 14 20  1  0  0  0
 14 39  2  0  0  0
 15 36  1  0  0  0
 15 45  1  0  0  0
 16 24  1  0  0  0
 16 25  2  0  0  0
 18 33  1  0  0  0
 18 40  1  0  0  0
 19 26  1  0  0  0
 19 23  2  0  0  0
 19 30  1  0  0  0
 20 26  1  0  0  0
 24 32  2  0  0  0
 24 46  1  0  0  0
 25 31  1  0  0  0
 25 47  1  0  0  0
 26 48  1  0  0  0
 26 49  1  0  0  0
 27 50  1  0  0  0
 28 51  1  0  0  0
 29 31  2  0  0  0
 29 34  1  0  0  0
 29 32  1  0  0  0
 30 52  1  0  0  0
 31 53  1  0  0  0
 32 54  1  0  0  0
 33 55  1  0  0  0
 34 56  1  0  0  0
 35 37  1  0  0  0
 35 57  1  0  0  0
 35 58  1  0  0  0
 36 37  1  0  0  0
 36 59  1  0  0  0
 36 60  1  0  0  0
 37 61  1  0  0  0
 37 62  1  0  0  0
 38 40  2  0  0  0
 38 39  1  0  0  0
 38 63  1  0  0  0
 39 64  1  0  0  0
 40 65  1  0  0  0
M  END
> <s_m_entry_id>
3460

> <s_m_entry_name>
dock_pv.189

> <s_m_Source_Path>
/home/csk/Desktop/cluster/DUD-E-result/kpcb

> <s_m_Source_File>
dock_pv.maegz

> <i_m_Source_File_Index>
189

> <chembl_id>
CHEMBL89210

> <chembl_pref_name>
None

> <i_lp_mmshare_version>
53161

> <i_f3d_flags>
0

> <r_lp_tautomer_probability>
0.999999999997365

> <s_lp_Force_Field>
OPLS_2005

> <r_lp_Energy>
51.388821

> <b_lp_Chiralities_Consistent>
1

> <s_lp_Variant>
CHEMBL3045_lig126-2

> <s_i_glide_gridfile>
glide-grid_2i0e

> <i_i_glide_lignum>
231

> <i_i_glide_rotatable_bonds>
16

> <r_i_docking_score>
-7.25942474134501

> <r_i_glide_ligand_efficiency>
-0.181485618533625

> <r_i_glide_ligand_efficiency_sa>
-0.620672083957289

> <r_i_glide_ligand_efficiency_ln>
-1.54822166199554

> <r_i_glide_gscore>
-7.25942474134501

> <r_i_glide_lipo>
-2.54204303420036

> <r_i_glide_hbond>
-0.432

> <r_i_glide_metal>
0

> <r_i_glide_rewards>
-0.568212793457487

> <r_i_glide_evdw>
-42.0076484680176

> <r_i_glide_ecoul>
-14.6207408905029

> <r_i_glide_erotb>
0.679838086511259

> <r_i_glide_esite>
-0.10351344322211

> <r_i_glide_emodel>
-73.6266564030874

> <r_i_glide_energy>
-56.6283893585205

> <r_i_glide_einternal>
21.6103382110596

> <i_i_glide_confnum>
7

> <i_i_glide_posenum>
33

> <r_i_glide_eff_state_penalty>
0

> <s_user_duplicate_titles>
CHEMBL3045_lig126,143496

> <s_m_subgroup_title>
dock_pv

> <s_m_subgroupid>
dock_pv

> <b_m_subgroup_collapsed>
1

$$$$
CHEMBL3045_lig178
                    3D
 Schrodinger Suite 2021-1.
 27 29  0  0  1  0            999 V2000
   38.7747   55.9813   35.8200 C   0  0  0  0  0  0
   38.4449   56.4049   37.1008 C   0  0  0  0  0  0
   37.1206   56.5707   37.4942 C   0  0  0  0  0  0
   37.7882   55.7455   34.8658 C   0  0  0  0  0  0
   36.4273   55.9372   35.2049 C   0  0  0  0  0  0
   36.1231   56.2964   36.5551 C   0  0  0  0  0  0
   34.7496   56.2960   36.6767 N   0  0  0  0  0  0
   34.1812   55.9921   35.4689 C   0  0  0  0  0  0
   35.1624   55.8834   34.4990 C   0  0  0  0  0  0
   34.9294   55.7980   33.0308 C   0  0  0  0  0  0
   33.7844   55.1850   32.6190 N   0  0  0  0  0  0
   33.5603   55.1787   31.2811 C   0  0  0  0  0  0
   34.3649   55.7178   30.3338 N   0  0  0  0  0  0
   35.4931   56.3226   30.7774 C   0  0  0  0  0  0
   35.8145   56.3960   32.1284 C   0  0  0  0  0  0
   32.4013   54.5739   30.8265 N   0  0  0  0  0  0
   36.7008   57.1716   39.2388 Br  0  0  0  0  0  0
   38.1617   55.2940   33.6280 O   0  0  0  0  0  0
   39.8157   55.8373   35.5698 H   0  0  0  0  0  0
   39.2353   56.5945   37.8132 H   0  0  0  0  0  0
   34.2017   56.4947   37.5053 H   0  0  0  0  0  0
   33.1043   55.9701   35.3750 H   0  0  0  0  0  0
   36.1353   56.7699   30.0362 H   0  0  0  0  0  0
   36.6990   56.9179   32.4554 H   0  0  0  0  0  0
   31.6934   54.3596   31.5096 H   0  0  0  0  0  0
   32.1553   54.7745   29.8641 H   0  0  0  0  0  0
   39.1020   55.1147   33.5522 H   0  0  0  0  0  0
  1  4  1  0  0  0
  1  2  2  0  0  0
  1 19  1  0  0  0
  2  3  1  0  0  0
  2 20  1  0  0  0
  3  6  2  0  0  0
  3 17  1  0  0  0
  4  5  2  0  0  0
  4 18  1  0  0  0
  5  9  1  0  0  0
  5  6  1  0  0  0
  6  7  1  0  0  0
  7  8  1  0  0  0
  7 21  1  0  0  0
  8  9  2  0  0  0
  8 22  1  0  0  0
  9 10  1  0  0  0
 10 11  2  0  0  0
 10 15  1  0  0  0
 11 12  1  0  0  0
 12 13  2  0  0  0
 12 16  1  0  0  0
 13 14  1  0  0  0
 14 15  2  0  0  0
 14 23  1  0  0  0
 15 24  1  0  0  0
 16 25  1  0  0  0
 16 26  1  0  0  0
 18 27  1  0  0  0
M  END
> <s_m_entry_id>
3461

> <s_m_entry_name>
dock_pv.190

> <s_m_Source_Path>
/home/csk/Desktop/cluster/DUD-E-result/kpcb

> <s_m_Source_File>
dock_pv.maegz

> <i_m_Source_File_Index>
190

> <chembl_id>
CHEMBL296682

> <chembl_pref_name>
MERIDIANIN E

> <i_lp_mmshare_version>
53161

> <i_f3d_flags>
0

> <r_lp_tautomer_probability>
0.999999987636

> <s_lp_Force_Field>
OPLS_2005

> <r_lp_Energy>
3.091758

> <b_lp_Chiralities_Consistent>
1

> <s_lp_Variant>
CHEMBL3045_lig178-1

> <s_i_glide_gridfile>
glide-grid_2i0e

> <i_i_glide_lignum>
325

> <i_i_glide_rotatable_bonds>
2

> <r_i_docking_score>
-7.25205500898412

> <r_i_glide_ligand_efficiency>
-0.402891944943562

> <r_i_glide_ligand_efficiency_sa>
-1.05587559648963

> <r_i_glide_ligand_efficiency_ln>
-1.86410334546174

> <r_i_glide_gscore>
-7.25205500898412

> <r_i_glide_lipo>
-2.38022295063942

> <r_i_glide_hbond>
-0.137042886631491

> <r_i_glide_metal>
0

> <r_i_glide_rewards>
-2.44940002443124

> <r_i_glide_evdw>
-35.834056854248

> <r_i_glide_ecoul>
-4.61252355575562

> <r_i_glide_erotb>
0.198192228793784

> <r_i_glide_esite>
0

> <r_i_glide_emodel>
-57.0790354505616

> <r_i_glide_energy>
-40.4465804100037

> <r_i_glide_einternal>
2.32525587081909

> <i_i_glide_confnum>
2

> <i_i_glide_posenum>
191

> <r_i_glide_eff_state_penalty>
0

> <s_user_duplicate_titles>
CHEMBL3045_lig178

> <s_m_subgroup_title>
dock_pv

> <s_m_subgroupid>
dock_pv

> <b_m_subgroup_collapsed>
1

$$$$
CHEMBL3045_lig300
                    3D
 Schrodinger Suite 2021-1.
 61 65  0  0  1  0            999 V2000
   41.8054   57.7587   41.6368 C   0  0  0  0  0  0
   40.8965   57.2527   40.6667 O   0  0  0  0  0  0
   41.3809   56.7726   39.4606 C   0  0  0  0  0  0
   42.7457   56.7526   39.1320 C   0  0  0  0  0  0
   43.1729   56.2583   37.9020 C   0  0  0  0  0  0
   42.2605   55.7427   36.9786 C   0  0  0  0  0  0
   40.9009   55.7539   37.3102 C   0  0  0  0  0  0
   40.4495   56.2949   38.5214 C   0  0  0  0  0  0
   39.0823   56.3714   38.8477 N   0  0  0  0  0  0
   37.9030   56.3757   38.0945 C   0  0  0  0  0  0
   36.7676   56.3801   38.8337 N   0  0  0  0  0  0
   35.5985   56.3724   38.1496 C   0  0  0  0  0  0
   35.5266   56.3628   36.7557 C   0  0  0  0  0  0
   34.2113   56.3836   35.9750 C   0  0  0  0  0  0
   34.2769   55.4988   34.7034 C   0  0  0  0  0  0
   35.5412   55.8388   33.9116 C   0  0  0  0  0  0
   35.8737   55.8695   32.5365 C   0  0  0  0  0  0
   37.1461   56.1979   32.3850 N   0  0  0  0  0  0
   37.6419   56.3718   33.6172 N   0  0  0  0  0  0
   39.0359   56.7699   33.7655 C   0  0  0  0  0  0
   36.6930   56.2117   34.5959 C   0  0  0  0  0  0
   36.7596   56.3402   36.0810 C   0  0  0  0  0  0
   37.9514   56.3795   36.7349 N   0  0  0  0  0  0
   34.9616   55.5694   31.4468 C   0  0  0  0  0  0
   33.7820   55.2792   31.6313 O   0  0  0  0  0  0
   35.4808   55.5913   30.2155 N   0  0  0  0  0  0
   42.7149   55.3034   35.7433 N   0  0  0  0  0  0
   42.0081   54.2638   34.9694 C   0  0  0  0  0  0
   42.8341   53.6846   33.7972 C   0  0  0  0  0  0
   43.2816   54.7642   32.9112 N   0  0  0  0  0  0
   44.0095   54.1939   31.7808 C   0  0  0  0  0  0
   44.1609   55.6333   33.6898 C   0  0  0  0  0  0
   43.3745   56.2802   34.8528 C   0  0  0  0  0  0
   41.2447   58.0935   42.5079 H   0  0  0  0  0  0
   42.5086   56.9936   41.9712 H   0  0  0  0  0  0
   42.3599   58.6179   41.2560 H   0  0  0  0  0  0
   43.4955   57.1213   39.8153 H   0  0  0  0  0  0
   44.2275   56.2610   37.6667 H   0  0  0  0  0  0
   40.1956   55.3414   36.6105 H   0  0  0  0  0  0
   38.9098   56.3838   39.8459 H   0  0  0  0  0  0
   34.7010   56.3737   38.7464 H   0  0  0  0  0  0
   33.3826   56.0640   36.6099 H   0  0  0  0  0  0
   33.9993   57.4105   35.6811 H   0  0  0  0  0  0
   33.3718   55.6311   34.1136 H   0  0  0  0  0  0
   34.3021   54.4497   35.0025 H   0  0  0  0  0  0
   39.4863   56.1728   34.5540 H   0  0  0  0  0  0
   39.5894   56.6018   32.8405 H   0  0  0  0  0  0
   39.0921   57.8233   34.0396 H   0  0  0  0  0  0
   34.8893   55.3681   29.4281 H   0  0  0  0  0  0
   36.4730   55.7222   30.0852 H   0  0  0  0  0  0
   41.7052   53.4481   35.6280 H   0  0  0  0  0  0
   41.1057   54.6975   34.5342 H   0  0  0  0  0  0
   43.6813   53.1076   34.1767 H   0  0  0  0  0  0
   42.2142   52.9846   33.2350 H   0  0  0  0  0  0
   44.3917   54.9808   31.1299 H   0  0  0  0  0  0
   44.8532   53.5783   32.1057 H   0  0  0  0  0  0
   43.3447   53.5661   31.1832 H   0  0  0  0  0  0
   44.5628   56.4213   33.0500 H   0  0  0  0  0  0
   45.0198   55.0808   34.0785 H   0  0  0  0  0  0
   42.6060   56.9247   34.4179 H   0  0  0  0  0  0
   44.0549   56.9202   35.4161 H   0  0  0  0  0  0
  1  2  1  0  0  0
  1 34  1  0  0  0
  1 35  1  0  0  0
  1 36  1  0  0  0
  2  3  1  0  0  0
  3  4  2  0  0  0
  3  8  1  0  0  0
  4  5  1  0  0  0
  4 37  1  0  0  0
  5  6  2  0  0  0
  5 38  1  0  0  0
  6  7  1  0  0  0
  6 27  1  0  0  0
  7  8  2  0  0  0
  7 39  1  0  0  0
  8  9  1  0  0  0
  9 10  1  0  0  0
  9 40  1  0  0  0
 10 11  2  0  0  0
 10 23  1  0  0  0
 11 12  1  0  0  0
 12 13  2  0  0  0
 12 41  1  0  0  0
 13 14  1  0  0  0
 13 22  1  0  0  0
 14 15  1  0  0  0
 14 42  1  0  0  0
 14 43  1  0  0  0
 15 16  1  0  0  0
 15 44  1  0  0  0
 15 45  1  0  0  0
 16 17  1  0  0  0
 16 21  2  0  0  0
 17 18  2  0  0  0
 17 24  1  0  0  0
 18 19  1  0  0  0
 19 20  1  0  0  0
 19 21  1  0  0  0
 20 46  1  0  0  0
 20 47  1  0  0  0
 20 48  1  0  0  0
 21 22  1  0  0  0
 22 23  2  0  0  0
 24 25  2  0  0  0
 24 26  1  0  0  0
 26 49  1  0  0  0
 26 50  1  0  0  0
 27 28  1  0  0  0
 27 33  1  0  0  0
 28 29  1  0  0  0
 28 51  1  0  0  0
 28 52  1  0  0  0
 29 30  1  0  0  0
 29 53  1  0  0  0
 29 54  1  0  0  0
 30 31  1  0  0  0
 30 32  1  0  0  0
 31 55  1  0  0  0
 31 56  1  0  0  0
 31 57  1  0  0  0
 32 33  1  0  0  0
 32 58  1  0  0  0
 32 59  1  0  0  0
 33 60  1  0  0  0
 33 61  1  0  0  0
M  END
> <s_m_entry_id>
3462

> <s_m_entry_name>
dock_pv.191

> <s_m_Source_Path>
/home/csk/Desktop/cluster/DUD-E-result/kpcb

> <s_m_Source_File>
dock_pv.maegz

> <i_m_Source_File_Index>
191

> <chembl_id>
CHEMBL1094408

> <chembl_pref_name>
NMS-1286937

> <i_lp_mmshare_version>
53161

> <i_f3d_flags>
0

> <r_lp_tautomer_probability>
0.999999987636

> <s_lp_Force_Field>
OPLS_2005

> <r_lp_Energy>
43.670203

> <b_lp_Chiralities_Consistent>
1

> <s_lp_Variant>
CHEMBL3045_lig300-1

> <s_i_glide_gridfile>
glide-grid_2i0e

> <i_i_glide_lignum>
461

> <i_i_glide_rotatable_bonds>
5

> <r_i_docking_score>
-7.2408628718933

> <r_i_glide_ligand_efficiency>
-0.21942008702707

> <r_i_glide_ligand_efficiency_sa>
-0.703797461009721

> <r_i_glide_ligand_efficiency_ln>
-1.6103304115276

> <r_i_glide_gscore>
-7.2408628718933

> <r_i_glide_lipo>
-2.25071456833332

> <r_i_glide_hbond>
-0.208919030706232

> <r_i_glide_metal>
0

> <r_i_glide_rewards>
-2.04403426104305

> <r_i_glide_evdw>
-46.6515121459961

> <r_i_glide_ecoul>
-4.0303201675415

> <r_i_glide_erotb>
0.20912678218107

> <r_i_glide_esite>
-0.00919816156073532

> <r_i_glide_emodel>
-71.1154001196615

> <r_i_glide_energy>
-50.6818323135376

> <r_i_glide_einternal>
1.03661155700684

> <i_i_glide_confnum>
28

> <i_i_glide_posenum>
327

> <r_i_glide_eff_state_penalty>
0

> <s_user_duplicate_titles>
CHEMBL3045_lig300

> <s_m_subgroup_title>
dock_pv

> <s_m_subgroupid>
dock_pv

> <b_m_subgroup_collapsed>
1

$$$$
CHEMBL3045_lig317
                    3D
 Schrodinger Suite 2021-1.
 48 51  0  0  1  0            999 V2000
   33.9434   55.9710   30.4377 N   0  0  0  0  0  0
   35.1013   55.7042   29.7929 C   0  0  0  0  0  0
   36.3308   55.5719   30.4364 C   0  0  0  0  0  0
   34.0069   56.1266   31.7773 C   0  0  0  0  0  0
   35.1932   56.0160   32.5398 C   0  0  0  0  0  0
   36.4036   55.6990   31.8488 C   0  0  0  0  0  0
   37.5892   55.5707   32.6421 C   0  0  0  0  0  0
   37.5965   55.8079   33.9735 N   0  0  0  0  0  0
   36.4408   56.1189   34.6154 C   0  0  0  0  0  0
   35.2243   56.2219   33.9349 C   0  0  0  0  0  0
   36.5446   56.3726   36.0841 C   0  0  0  0  0  0
   37.7474   56.7962   36.6785 C   0  0  0  0  0  0
   37.7894   57.0352   38.0526 C   0  0  0  0  0  0
   36.7089   56.8853   38.8556 N   0  0  0  0  0  0
   35.5540   56.4707   38.2841 C   0  0  0  0  0  0
   35.4318   56.2029   36.9238 C   0  0  0  0  0  0
   38.8720   55.2687   32.1575 N   0  0  0  0  0  0
   39.1121   54.0303   31.4140 C   0  0  0  0  0  0
   40.6025   53.8086   31.0549 C   0  0  1  0  0  0
   41.5047   53.3978   32.2475 C   0  0  0  0  0  0
   40.7010   52.7719   30.0380 N   0  0  0  0  0  0
   41.5715   54.4304   33.3692 C   0  0  0  0  0  0
   41.0063   54.1441   34.6157 C   0  0  0  0  0  0
   41.0397   55.0964   35.6311 C   0  0  0  0  0  0
   41.6416   56.3316   35.3982 C   0  0  0  0  0  0
   42.2128   56.6225   34.1604 C   0  0  0  0  0  0
   42.1786   55.6694   33.1446 C   0  0  0  0  0  0
   35.0247   55.5680   28.7234 H   0  0  0  0  0  0
   37.2090   55.3584   29.8559 H   0  0  0  0  0  0
   33.0721   56.3556   32.2662 H   0  0  0  0  0  0
   34.3098   56.4845   34.4453 H   0  0  0  0  0  0
   38.6385   56.9431   36.0852 H   0  0  0  0  0  0
   38.7033   57.3573   38.5308 H   0  0  0  0  0  0
   34.7012   56.3720   38.9358 H   0  0  0  0  0  0
   34.4786   55.8665   36.5444 H   0  0  0  0  0  0
   39.5876   55.4304   32.8541 H   0  0  0  0  0  0
   38.5334   54.0254   30.4989 H   0  0  0  0  0  0
   38.7329   53.1854   31.9914 H   0  0  0  0  0  0
   40.9922   54.7235   30.6070 H   0  0  0  0  0  0
   42.5257   53.2246   31.9003 H   0  0  0  0  0  0
   41.1809   52.4360   32.6523 H   0  0  0  0  0  0
   40.4502   51.8681   30.4367 H   0  0  0  0  0  0
   40.0057   52.9348   29.3114 H   0  0  0  0  0  0
   40.5390   53.1871   34.7978 H   0  0  0  0  0  0
   40.6032   54.8743   36.5943 H   0  0  0  0  0  0
   41.6716   57.0695   36.1859 H   0  0  0  0  0  0
   42.6841   57.5799   33.9933 H   0  0  0  0  0  0
   42.6163   55.8936   32.1822 H   0  0  0  0  0  0
  1  2  2  0  0  0
  1  4  1  0  0  0
  2  3  1  0  0  0
  2 28  1  0  0  0
  3  6  2  0  0  0
  3 29  1  0  0  0
  4  5  2  0  0  0
  4 30  1  0  0  0
  5 10  1  0  0  0
  5  6  1  0  0  0
  6  7  1  0  0  0
  7  8  2  0  0  0
  7 17  1  0  0  0
  8  9  1  0  0  0
  9 11  1  0  0  0
  9 10  2  0  0  0
 10 31  1  0  0  0
 11 16  1  0  0  0
 11 12  2  0  0  0
 12 13  1  0  0  0
 12 32  1  0  0  0
 13 14  2  0  0  0
 13 33  1  0  0  0
 14 15  1  0  0  0
 15 16  2  0  0  0
 15 34  1  0  0  0
 16 35  1  0  0  0
 17 18  1  0  0  0
 17 36  1  0  0  0
 18 19  1  0  0  0
 18 37  1  0  0  0
 18 38  1  0  0  0
 19 20  1  0  0  0
 19 21  1  0  0  0
 19 39  1  0  0  0
 20 22  1  0  0  0
 20 40  1  0  0  0
 20 41  1  0  0  0
 21 42  1  0  0  0
 21 43  1  0  0  0
 22 23  2  0  0  0
 22 27  1  0  0  0
 23 24  1  0  0  0
 23 44  1  0  0  0
 24 25  2  0  0  0
 24 45  1  0  0  0
 25 26  1  0  0  0
 25 46  1  0  0  0
 26 27  2  0  0  0
 26 47  1  0  0  0
 27 48  1  0  0  0
M  END
> <s_m_entry_id>
3463

> <s_m_entry_name>
dock_pv.192

> <s_m_Source_Path>
/home/csk/Desktop/cluster/DUD-E-result/kpcb

> <s_m_Source_File>
dock_pv.maegz

> <i_m_Source_File_Index>
192

> <chembl_id>
CHEMBL2147539

> <chembl_pref_name>
None

> <i_lp_mmshare_version>
53161

> <i_f3d_flags>
0

> <r_lp_tautomer_probability>
1

> <s_lp_Force_Field>
OPLS_2005

> <r_lp_Energy>
19.815847

> <b_lp_Chiralities_Consistent>
1

> <s_lp_Variant>
CHEMBL3045_lig317-2

> <s_i_glide_gridfile>
glide-grid_2i0e

> <i_i_glide_lignum>
480

> <i_i_glide_rotatable_bonds>
6

> <r_i_docking_score>
-7.23224824994849

> <r_i_glide_ligand_efficiency>
-0.267861046294388

> <r_i_glide_ligand_efficiency_sa>
-0.803583138000339

> <r_i_glide_ligand_efficiency_ln>
-1.68354815965705

> <r_i_glide_gscore>
-7.23224824994849

> <r_i_glide_lipo>
-2.92973332058282

> <r_i_glide_hbond>
-0.63258930098877

> <r_i_glide_metal>
0

> <r_i_glide_rewards>
-1.23271495594007

> <r_i_glide_evdw>
-41.7930183410645

> <r_i_glide_ecoul>
-7.36201477050781

> <r_i_glide_erotb>
0.756742460192562

> <r_i_glide_esite>
0

> <r_i_glide_emodel>
-65.2397350597721

> <r_i_glide_energy>
-49.1550331115723

> <r_i_glide_einternal>
12.4478778839111

> <i_i_glide_confnum>
76

> <i_i_glide_posenum>
212

> <r_i_glide_eff_state_penalty>
0

> <s_user_duplicate_titles>
CHEMBL3045_lig317

> <s_m_subgroup_title>
dock_pv

> <s_m_subgroupid>
dock_pv

> <b_m_subgroup_collapsed>
1

$$$$
CHEMBL3045_lig528
                    3D
 Schrodinger Suite 2021-1.
 64 68  0  0  1  0            999 V2000
   40.5137   58.2995   34.0017 C   0  0  0  0  0  0
   40.7834   56.8581   34.4828 C   0  0  1  0  0  0
   41.7226   56.0940   33.5050 C   0  0  0  0  0  0
   43.0568   56.6668   33.5284 N   0  0  2  0  0  0
   44.0891   56.0809   32.6919 C   0  0  0  0  0  0
   45.3971   56.6391   33.2624 C   0  0  0  0  0  0
   45.0717   56.9258   34.7361 C   0  0  0  0  0  0
   43.6068   56.4955   34.8589 C   0  0  1  0  0  0
   42.7656   57.1808   35.9584 C   0  0  0  0  0  0
   41.3385   56.7613   35.8736 N   0  0  0  0  0  0
   40.6553   56.9170   37.0648 C   0  0  0  0  0  0
   41.2751   57.2221   38.0893 O   0  0  0  0  0  0
   39.3088   56.6845   37.1954 N   0  0  0  0  0  0
   38.3956   56.2665   36.1265 C   0  0  0  0  0  0
   37.0707   56.1699   36.7842 C   0  0  0  0  0  0
   35.7330   55.9865   36.5144 C   0  0  0  0  0  0
   35.0877   55.7464   35.3243 N   0  0  0  0  0  0
   35.3925   56.4289   34.2003 C   0  0  0  0  0  0
   36.1538   57.3967   34.1607 O   0  0  0  0  0  0
   34.7542   55.9420   32.9300 C   0  0  0  0  0  0
   33.4907   55.3418   32.9293 C   0  0  0  0  0  0
   32.8868   54.9760   31.7323 C   0  0  0  0  0  0
   33.5462   55.1747   30.5298 C   0  0  0  0  0  0
   34.8447   55.6811   30.5176 C   0  0  0  0  0  0
   35.6395   55.7359   29.2325 C   0  0  0  0  0  0
   35.4330   56.0935   31.7132 C   0  0  0  0  0  0
   35.1283   56.1295   37.7379 N   0  0  0  0  0  0
   36.0060   56.3709   38.7333 N   0  0  0  0  0  0
   37.1741   56.3700   38.1266 C   0  0  0  0  0  0
   38.6066   56.6539   38.5252 C   0  0  0  0  0  0
   38.5919   57.9820   39.3017 C   0  0  0  0  0  0
   39.2175   55.5605   39.4318 C   0  0  0  0  0  0
   40.2305   58.2945   32.9487 H   0  0  0  0  0  0
   39.7063   58.7724   34.5598 H   0  0  0  0  0  0
   41.4071   58.9223   34.0632 H   0  0  0  0  0  0
   39.8775   56.2813   34.3627 H   0  0  0  0  0  0
   41.7758   55.0389   33.7851 H   0  0  0  0  0  0
   41.3192   56.1136   32.4907 H   0  0  0  0  0  0
   44.0500   54.9885   32.6943 H   0  0  0  0  0  0
   43.9217   56.3739   31.6581 H   0  0  0  0  0  0
   46.2079   55.9171   33.1514 H   0  0  0  0  0  0
   45.6909   57.5489   32.7370 H   0  0  0  0  0  0
   45.2328   57.9695   35.0073 H   0  0  0  0  0  0
   45.7049   56.2976   35.3665 H   0  0  0  0  0  0
   43.6122   55.4424   35.1574 H   0  0  0  0  0  0
   42.7025   58.2557   35.7799 H   0  0  0  0  0  0
   43.2577   56.9754   36.9121 H   0  0  0  0  0  0
   38.6991   55.3096   35.7028 H   0  0  0  0  0  0
   38.3503   57.0244   35.3470 H   0  0  0  0  0  0
   34.4585   54.9613   35.2731 H   0  0  0  0  0  0
   32.9457   55.1818   33.8488 H   0  0  0  0  0  0
   31.9067   54.5317   31.7341 H   0  0  0  0  0  0
   33.0685   54.8552   29.6182 H   0  0  0  0  0  0
   36.5689   55.1722   29.3516 H   0  0  0  0  0  0
   35.1056   55.2937   28.3883 H   0  0  0  0  0  0
   35.8934   56.7751   29.0014 H   0  0  0  0  0  0
   36.4290   56.5114   31.6911 H   0  0  0  0  0  0
   34.1296   56.1229   37.8984 H   0  0  0  0  0  0
   38.2461   57.7802   40.3200 H   0  0  0  0  0  0
   39.5600   58.4681   39.3937 H   0  0  0  0  0  0
   37.9010   58.7000   38.8574 H   0  0  0  0  0  0
   38.4599   55.0729   40.0378 H   0  0  0  0  0  0
   39.7302   54.7787   38.8618 H   0  0  0  0  0  0
   39.9722   55.9654   40.1133 H   0  0  0  0  0  0
  1  2  1  0  0  0
  1 33  1  0  0  0
  1 34  1  0  0  0
  1 35  1  0  0  0
  2  3  1  0  0  0
  2 10  1  0  0  0
  2 36  1  0  0  0
  3  4  1  0  0  0
  3 37  1  0  0  0
  3 38  1  0  0  0
  4  5  1  0  0  0
  4  8  1  0  0  0
  5  6  1  0  0  0
  5 39  1  0  0  0
  5 40  1  0  0  0
  6  7  1  0  0  0
  6 41  1  0  0  0
  6 42  1  0  0  0
  7  8  1  0  0  0
  7 43  1  0  0  0
  7 44  1  0  0  0
  8  9  1  0  0  0
  8 45  1  0  0  0
  9 10  1  0  0  0
  9 46  1  0  0  0
  9 47  1  0  0  0
 10 11  1  0  0  0
 11 12  2  0  0  0
 11 13  1  0  0  0
 13 14  1  0  0  0
 13 30  1  0  0  0
 14 48  1  0  0  0
 14 49  1  0  0  0
 14 15  1  0  0  0
 15 16  2  0  0  0
 15 29  1  0  0  0
 16 27  1  0  0  0
 16 17  1  0  0  0
 17 18  1  0  0  0
 17 50  1  0  0  0
 18 19  2  0  0  0
 18 20  1  0  0  0
 20 21  2  0  0  0
 20 26  1  0  0  0
 21 22  1  0  0  0
 21 51  1  0  0  0
 22 23  2  0  0  0
 22 52  1  0  0  0
 23 24  1  0  0  0
 23 53  1  0  0  0
 24 25  1  0  0  0
 24 26  2  0  0  0
 25 54  1  0  0  0
 25 55  1  0  0  0
 25 56  1  0  0  0
 26 57  1  0  0  0
 27 28  1  0  0  0
 27 58  1  0  0  0
 28 29  2  0  0  0
 29 30  1  0  0  0
 30 31  1  0  0  0
 30 32  1  0  0  0
 31 59  1  0  0  0
 31 60  1  0  0  0
 31 61  1  0  0  0
 32 62  1  0  0  0
 32 63  1  0  0  0
 32 64  1  0  0  0
M  END
> <s_m_entry_id>
3464

> <s_m_entry_name>
dock_pv.193

> <s_m_Source_Path>
/home/csk/Desktop/cluster/DUD-E-result/kpcb

> <s_m_Source_File>
dock_pv.maegz

> <i_m_Source_File_Index>
193

> <chembl_id>
CHEMBL3662777

> <chembl_pref_name>
None

> <i_lp_mmshare_version>
53161

> <i_f3d_flags>
0

> <r_lp_tautomer_probability>
0.5

> <s_lp_Force_Field>
OPLS_2005

> <r_lp_Energy>
115.29658

> <b_lp_Chiralities_Consistent>
1

> <s_lp_Variant>
CHEMBL3045_lig528-2

> <s_i_glide_gridfile>
glide-grid_2i0e

> <i_i_glide_lignum>
793

> <i_i_glide_rotatable_bonds>
5

> <r_i_docking_score>
-7.23201210164309

> <r_i_glide_ligand_efficiency>
-0.226000378176347

> <r_i_glide_ligand_efficiency_sa>
-0.717506475295791

> <r_i_glide_ligand_efficiency_ln>
-1.61944464676227

> <r_i_glide_gscore>
-7.23201210164309

> <r_i_glide_lipo>
-2.73480377031586

> <r_i_glide_hbond>
-0.467058432304515

> <r_i_glide_metal>
0

> <r_i_glide_rewards>
-1.78072127844077

> <r_i_glide_evdw>
-40.0809783935547

> <r_i_glide_ecoul>
-4.07647752761841

> <r_i_glide_erotb>
0.366091928238552

> <r_i_glide_esite>
0

> <r_i_glide_emodel>
-58.0338286459515

> <r_i_glide_energy>
-44.1574559211731

> <r_i_glide_einternal>
9.36908626556396

> <i_i_glide_confnum>
67

> <i_i_glide_posenum>
166

> <r_i_glide_eff_state_penalty>
0

> <s_user_duplicate_titles>
CHEMBL3045_lig528

> <s_m_subgroup_title>
dock_pv

> <s_m_subgroupid>
dock_pv

> <b_m_subgroup_collapsed>
1

$$$$
CHEMBL3045_lig317
                    3D
 Schrodinger Suite 2021-1.
 48 51  0  0  1  0            999 V2000
   36.4364   56.7724   38.8308 N   0  0  0  0  0  0
   37.7593   56.9868   38.6358 C   0  0  0  0  0  0
   38.3685   56.9610   37.3795 C   0  0  0  0  0  0
   35.6773   56.5180   37.7417 C   0  0  0  0  0  0
   36.1738   56.4674   36.4196 C   0  0  0  0  0  0
   37.5712   56.6959   36.2283 C   0  0  0  0  0  0
   38.0652   56.6319   34.8945 C   0  0  0  0  0  0
   37.2563   56.3726   33.8362 N   0  0  0  0  0  0
   35.9261   56.1675   34.0200 C   0  0  0  0  0  0
   35.3515   56.2098   35.2985 C   0  0  0  0  0  0
   35.1203   55.9250   32.7763 C   0  0  0  0  0  0
   35.6362   56.2000   31.4938 C   0  0  0  0  0  0
   34.8455   55.9734   30.3655 C   0  0  0  0  0  0
   33.5794   55.5010   30.4373 N   0  0  0  0  0  0
   33.0829   55.2252   31.6628 C   0  0  0  0  0  0
   33.8110   55.4145   32.8382 C   0  0  0  0  0  0
   39.4324   56.8625   34.6346 N   0  0  0  0  0  0
   40.0364   56.5567   33.3347 C   0  0  0  0  0  0
   40.6187   55.1250   33.2616 C   0  0  2  0  0  0
   41.9848   54.9533   33.9675 C   0  0  0  0  0  0
   40.7930   54.7695   31.8659 N   0  0  0  0  0  0
   41.9331   55.1945   35.4708 C   0  0  0  0  0  0
   41.5608   54.1536   36.3283 C   0  0  0  0  0  0
   41.5067   54.3726   37.7043 C   0  0  0  0  0  0
   41.8242   55.6307   38.2195 C   0  0  0  0  0  0
   42.1973   56.6716   37.3684 C   0  0  0  0  0  0
   42.2551   56.4544   35.9914 C   0  0  0  0  0  0
   38.3428   57.1822   39.5237 H   0  0  0  0  0  0
   39.4312   57.1352   37.2854 H   0  0  0  0  0  0
   34.6236   56.3582   37.9240 H   0  0  0  0  0  0
   34.2940   56.0625   35.4549 H   0  0  0  0  0  0
   36.6379   56.5815   31.3615 H   0  0  0  0  0  0
   35.2222   56.1627   29.3699 H   0  0  0  0  0  0
   32.0702   54.8490   31.6894 H   0  0  0  0  0  0
   33.3452   55.1714   33.7817 H   0  0  0  0  0  0
   40.0599   56.7987   35.4250 H   0  0  0  0  0  0
   40.8179   57.2915   33.1367 H   0  0  0  0  0  0
   39.2994   56.7029   32.5417 H   0  0  0  0  0  0
   39.9000   54.4214   33.6887 H   0  0  0  0  0  0
   42.7296   55.6175   33.5262 H   0  0  0  0  0  0
   42.3691   53.9431   33.8060 H   0  0  0  0  0  0
   41.4859   55.3647   31.4337 H   0  0  0  0  0  0
   41.1478   53.8239   31.7916 H   0  0  0  0  0  0
   41.3187   53.1753   35.9299 H   0  0  0  0  0  0
   41.2192   53.5686   38.3685 H   0  0  0  0  0  0
   41.7843   55.7959   39.2884 H   0  0  0  0  0  0
   42.4557   57.6407   37.7748 H   0  0  0  0  0  0
   42.5571   57.2622   35.3348 H   0  0  0  0  0  0
  1  2  2  0  0  0
  1  4  1  0  0  0
  2  3  1  0  0  0
  2 28  1  0  0  0
  3  6  2  0  0  0
  3 29  1  0  0  0
  4  5  2  0  0  0
  4 30  1  0  0  0
  5 10  1  0  0  0
  5  6  1  0  0  0
  6  7  1  0  0  0
  7  8  2  0  0  0
  7 17  1  0  0  0
  8  9  1  0  0  0
  9 11  1  0  0  0
  9 10  2  0  0  0
 10 31  1  0  0  0
 11 16  1  0  0  0
 11 12  2  0  0  0
 12 13  1  0  0  0
 12 32  1  0  0  0
 13 14  2  0  0  0
 13 33  1  0  0  0
 14 15  1  0  0  0
 15 16  2  0  0  0
 15 34  1  0  0  0
 16 35  1  0  0  0
 17 18  1  0  0  0
 17 36  1  0  0  0
 18 19  1  0  0  0
 18 37  1  0  0  0
 18 38  1  0  0  0
 19 20  1  0  0  0
 19 21  1  0  0  0
 19 39  1  0  0  0
 20 22  1  0  0  0
 20 40  1  0  0  0
 20 41  1  0  0  0
 21 42  1  0  0  0
 21 43  1  0  0  0
 22 23  2  0  0  0
 22 27  1  0  0  0
 23 24  1  0  0  0
 23 44  1  0  0  0
 24 25  2  0  0  0
 24 45  1  0  0  0
 25 26  1  0  0  0
 25 46  1  0  0  0
 26 27  2  0  0  0
 26 47  1  0  0  0
 27 48  1  0  0  0
M  END
> <s_m_entry_id>
3465

> <s_m_entry_name>
dock_pv.194

> <s_m_Source_Path>
/home/csk/Desktop/cluster/DUD-E-result/kpcb

> <s_m_Source_File>
dock_pv.maegz

> <i_m_Source_File_Index>
194

> <chembl_id>
CHEMBL2147539

> <chembl_pref_name>
None

> <i_lp_mmshare_version>
53161

> <i_f3d_flags>
0

> <r_lp_tautomer_probability>
1

> <s_lp_Force_Field>
OPLS_2005

> <r_lp_Energy>
22.858261

> <b_lp_Chiralities_Consistent>
1

> <s_lp_Variant>
CHEMBL3045_lig317-1

> <s_i_glide_gridfile>
glide-grid_2i0e

> <i_i_glide_lignum>
479

> <i_i_glide_rotatable_bonds>
6

> <r_i_docking_score>
-7.22711446379111

> <r_i_glide_ligand_efficiency>
-0.267670906066338

> <r_i_glide_ligand_efficiency_sa>
-0.803012717316813

> <r_i_glide_ligand_efficiency_ln>
-1.68235309887669

> <r_i_glide_gscore>
-7.22711446379111

> <r_i_glide_lipo>
-3.28988714845265

> <r_i_glide_hbond>
-0.303950921366973

> <r_i_glide_metal>
0

> <r_i_glide_rewards>
-1.80892915489571

> <r_i_glide_evdw>
-42.8382225036621

> <r_i_glide_ecoul>
-2.92785716056824

> <r_i_glide_erotb>
0.756742460192562

> <r_i_glide_esite>
0

> <r_i_glide_emodel>
-65.1665357774797

> <r_i_glide_energy>
-45.7660796642303

> <r_i_glide_einternal>
2.45689511299133

> <i_i_glide_confnum>
27

> <i_i_glide_posenum>
89

> <r_i_glide_eff_state_penalty>
0

> <s_user_duplicate_titles>
CHEMBL3045_lig317

> <s_m_subgroup_title>
dock_pv

> <s_m_subgroupid>
dock_pv

> <b_m_subgroup_collapsed>
1

$$$$
CHEMBL3045_lig323
                    3D
 Schrodinger Suite 2021-1.
 38 40  0  0  1  0            999 V2000
   33.8225   55.9578   30.4393 N   0  0  0  0  0  0
   34.9705   55.6636   29.7879 C   0  0  0  0  0  0
   36.2122   55.5719   30.4135 C   0  0  0  0  0  0
   33.9055   56.1774   31.7695 C   0  0  0  0  0  0
   35.1058   56.1290   32.5169 C   0  0  0  0  0  0
   36.3024   55.7989   31.8140 C   0  0  0  0  0  0
   37.5004   55.6928   32.5767 C   0  0  0  0  0  0
   37.5314   55.9148   33.9143 N   0  0  0  0  0  0
   36.3888   56.2399   34.5731 C   0  0  0  0  0  0
   35.1651   56.3649   33.9072 C   0  0  0  0  0  0
   36.5116   56.4456   36.0492 C   0  0  0  0  0  0
   37.7363   56.7973   36.6487 C   0  0  0  0  0  0
   37.8015   56.9625   38.0328 C   0  0  0  0  0  0
   36.7284   56.8026   38.8447 N   0  0  0  0  0  0
   35.5509   56.4683   38.2646 C   0  0  0  0  0  0
   35.4045   56.2762   36.8943 C   0  0  0  0  0  0
   38.6888   55.2795   31.9482 N   0  0  0  0  0  0
   39.9610   55.1644   32.6564 C   0  0  0  0  0  0
   41.0336   54.4495   31.8168 C   0  0  0  0  0  0
   40.6507   52.9962   31.4933 C   0  0  0  0  0  0
   41.6549   52.3720   30.6616 N   0  0  0  0  0  0
   34.8737   55.4500   28.7307 H   0  0  0  0  0  0
   37.0800   55.2682   29.8502 H   0  0  0  0  0  0
   32.9668   56.3723   32.2673 H   0  0  0  0  0  0
   34.2603   56.6290   34.4344 H   0  0  0  0  0  0
   38.6248   56.9375   36.0499 H   0  0  0  0  0  0
   38.7342   57.2228   38.5117 H   0  0  0  0  0  0
   34.7013   56.3712   38.9215 H   0  0  0  0  0  0
   34.4328   55.9945   36.5133 H   0  0  0  0  0  0
   38.7519   55.4047   30.9486 H   0  0  0  0  0  0
   39.7884   54.6021   33.5765 H   0  0  0  0  0  0
   40.3036   56.1510   32.9745 H   0  0  0  0  0  0
   41.9843   54.4730   32.3494 H   0  0  0  0  0  0
   41.1869   54.9992   30.8868 H   0  0  0  0  0  0
   39.6985   52.9583   30.9622 H   0  0  0  0  0  0
   40.5326   52.4129   32.4093 H   0  0  0  0  0  0
   42.4886   52.1731   31.2165 H   0  0  0  0  0  0
   41.2741   51.4592   30.4361 H   0  0  0  0  0  0
  1  2  2  0  0  0
  1  4  1  0  0  0
  2  3  1  0  0  0
  2 22  1  0  0  0
  3  6  2  0  0  0
  3 23  1  0  0  0
  4  5  2  0  0  0
  4 24  1  0  0  0
  5 10  1  0  0  0
  5  6  1  0  0  0
  6  7  1  0  0  0
  7  8  2  0  0  0
  7 17  1  0  0  0
  8  9  1  0  0  0
  9 11  1  0  0  0
  9 10  2  0  0  0
 10 25  1  0  0  0
 11 12  2  0  0  0
 11 16  1  0  0  0
 12 13  1  0  0  0
 12 26  1  0  0  0
 13 14  2  0  0  0
 13 27  1  0  0  0
 14 15  1  0  0  0
 15 16  2  0  0  0
 15 28  1  0  0  0
 16 29  1  0  0  0
 17 18  1  0  0  0
 17 30  1  0  0  0
 18 19  1  0  0  0
 18 31  1  0  0  0
 18 32  1  0  0  0
 19 20  1  0  0  0
 19 33  1  0  0  0
 19 34  1  0  0  0
 20 21  1  0  0  0
 20 35  1  0  0  0
 20 36  1  0  0  0
 21 37  1  0  0  0
 21 38  1  0  0  0
M  END
> <s_m_entry_id>
3466

> <s_m_entry_name>
dock_pv.195

> <s_m_Source_Path>
/home/csk/Desktop/cluster/DUD-E-result/kpcb

> <s_m_Source_File>
dock_pv.maegz

> <i_m_Source_File_Index>
195

> <chembl_id>
CHEMBL2147544

> <chembl_pref_name>
None

> <i_lp_mmshare_version>
53161

> <i_f3d_flags>
0

> <r_lp_tautomer_probability>
1

> <s_lp_Force_Field>
OPLS_2005

> <r_lp_Energy>
11.234951

> <b_lp_Chiralities_Consistent>
1

> <s_lp_Variant>
CHEMBL3045_lig323-1

> <s_i_glide_gridfile>
glide-grid_2i0e

> <i_i_glide_lignum>
487

> <i_i_glide_rotatable_bonds>
5

> <r_i_docking_score>
-7.22452484352016

> <r_i_glide_ligand_efficiency>
-0.344024992548579

> <r_i_glide_ligand_efficiency_sa>
-0.949138868258385

> <r_i_glide_ligand_efficiency_ln>
-1.78624916903334

> <r_i_glide_gscore>
-7.22452484352016

> <r_i_glide_lipo>
-2.88924134003235

> <r_i_glide_hbond>
-0.604916354284927

> <r_i_glide_metal>
0

> <r_i_glide_rewards>
-2.02815119198148

> <r_i_glide_evdw>
-35.2108993530273

> <r_i_glide_ecoul>
-5.77671957015991

> <r_i_glide_erotb>
0.924836945953956

> <r_i_glide_esite>
0

> <r_i_glide_emodel>
-58.6323326149611

> <r_i_glide_energy>
-40.9876189231873

> <r_i_glide_einternal>
2.3747878074646

> <i_i_glide_confnum>
48

> <i_i_glide_posenum>
375

> <r_i_glide_eff_state_penalty>
0

> <s_user_duplicate_titles>
CHEMBL3045_lig323

> <s_m_subgroup_title>
dock_pv

> <s_m_subgroupid>
dock_pv

> <b_m_subgroup_collapsed>
1

$$$$
CHEMBL3045_lig256
                    3D
 Schrodinger Suite 2021-1.
 46 48  0  0  1  0            999 V2000
   37.3083   56.4182   36.1762 N   0  0  0  0  0  0
   39.6400   56.5970   36.8575 C   0  0  0  0  0  0
   35.9778   56.3337   36.4381 C   0  0  0  0  0  0
   38.1857   56.5349   37.2106 C   0  0  0  0  0  0
   35.0472   56.1782   35.3978 N   0  0  0  0  0  0
   36.3747   56.4912   38.8083 N   0  0  0  0  0  0
   41.9150   57.1948   37.4849 N   0  0  0  0  0  0
   40.1276   56.1637   35.6112 C   0  0  0  0  0  0
   35.1750   56.0148   34.0055 C   0  0  0  0  0  0
   34.0463   55.5712   33.3102 C   0  0  0  0  0  0
   41.4909   56.2590   35.2912 C   0  0  0  0  0  0
   40.5898   57.1052   37.7562 C   0  0  0  0  0  0
   34.0962   55.3473   31.9353 C   0  0  0  0  0  0
   35.5219   56.3727   37.7577 C   0  0  0  0  0  0
   42.0491   55.8690   34.0606 N   0  0  0  0  0  0
   37.7012   56.5682   38.5285 C   0  0  0  0  0  0
   32.7014   54.7718   31.1049 Cl  0  0  0  0  0  0
   42.3404   56.7822   36.2660 C   0  0  0  0  0  0
   42.3009   52.7968   30.4368 O   0  0  0  0  0  0
   36.4041   56.0437   31.9055 C   0  0  0  0  0  0
   36.3522   56.2668   33.2821 C   0  0  0  0  0  0
   35.2771   55.5784   31.2328 C   0  0  0  0  0  0
   41.3040   55.1254   33.0487 C   0  0  0  0  0  0
   40.9300   53.0067   30.7123 C   0  0  0  0  0  0
   41.4360   53.6006   33.2134 C   0  0  0  0  0  0
   40.6152   52.7706   32.2030 C   0  0  0  0  0  0
   34.1023   56.0535   35.7317 H   0  0  0  0  0  0
   39.4336   55.7554   34.8953 H   0  0  0  0  0  0
   33.1257   55.3786   33.8408 H   0  0  0  0  0  0
   40.3007   57.4672   38.7303 H   0  0  0  0  0  0
   34.4709   56.3021   37.9980 H   0  0  0  0  0  0
   43.0544   55.7714   34.0307 H   0  0  0  0  0  0
   38.3577   56.6244   39.3845 H   0  0  0  0  0  0
   43.3991   56.8895   36.0816 H   0  0  0  0  0  0
   42.6440   52.0976   31.0134 H   0  0  0  0  0  0
   37.3191   56.2306   31.3610 H   0  0  0  0  0  0
   37.2439   56.6383   33.7585 H   0  0  0  0  0  0
   35.3197   55.4016   30.1675 H   0  0  0  0  0  0
   41.6635   55.4299   32.0661 H   0  0  0  0  0  0
   40.2534   55.4114   33.0249 H   0  0  0  0  0  0
   40.7181   54.0408   30.4372 H   0  0  0  0  0  0
   40.3171   52.3719   30.0708 H   0  0  0  0  0  0
   41.1268   53.3216   34.2219 H   0  0  0  0  0  0
   42.4866   53.3145   33.1524 H   0  0  0  0  0  0
   39.5527   52.9556   32.3620 H   0  0  0  0  0  0
   40.7540   51.7115   32.4320 H   0  0  0  0  0  0
  1  3  1  0  0  0
  1  4  2  0  0  0
  2  4  1  0  0  0
  2  8  1  0  0  0
  2 12  2  0  0  0
  3  5  1  0  0  0
  3 14  2  0  0  0
  4 16  1  0  0  0
  5  9  1  0  0  0
  5 27  1  0  0  0
  6 16  2  0  0  0
  6 14  1  0  0  0
  7 12  1  0  0  0
  7 18  2  0  0  0
  8 11  2  0  0  0
  8 28  1  0  0  0
  9 10  1  0  0  0
  9 21  2  0  0  0
 10 13  2  0  0  0
 10 29  1  0  0  0
 11 15  1  0  0  0
 11 18  1  0  0  0
 12 30  1  0  0  0
 13 17  1  0  0  0
 13 22  1  0  0  0
 14 31  1  0  0  0
 15 23  1  0  0  0
 15 32  1  0  0  0
 16 33  1  0  0  0
 18 34  1  0  0  0
 19 24  1  0  0  0
 19 35  1  0  0  0
 20 21  1  0  0  0
 20 22  2  0  0  0
 20 36  1  0  0  0
 21 37  1  0  0  0
 22 38  1  0  0  0
 23 25  1  0  0  0
 23 39  1  0  0  0
 23 40  1  0  0  0
 24 26  1  0  0  0
 24 41  1  0  0  0
 24 42  1  0  0  0
 25 26  1  0  0  0
 25 43  1  0  0  0
 25 44  1  0  0  0
 26 45  1  0  0  0
 26 46  1  0  0  0
M  END
> <s_m_entry_id>
3467

> <s_m_entry_name>
dock_pv.196

> <s_m_Source_Path>
/home/csk/Desktop/cluster/DUD-E-result/kpcb

> <s_m_Source_File>
dock_pv.maegz

> <i_m_Source_File_Index>
196

> <chembl_id>
CHEMBL188386

> <chembl_pref_name>
None

> <i_lp_mmshare_version>
53161

> <i_f3d_flags>
0

> <r_lp_tautomer_probability>
0.999999901280007

> <s_lp_Force_Field>
OPLS_2005

> <r_lp_Energy>
27.804742

> <b_lp_Chiralities_Consistent>
1

> <s_lp_Variant>
CHEMBL3045_lig256-1

> <s_i_glide_gridfile>
glide-grid_2i0e

> <i_i_glide_lignum>
414

> <i_i_glide_rotatable_bonds>
9

> <r_i_docking_score>
-7.21395268682203

> <r_i_glide_ligand_efficiency>
-0.277459718723924

> <r_i_glide_ligand_efficiency_sa>
-0.821973324968351

> <r_i_glide_ligand_efficiency_ln>
-1.6941731175907

> <r_i_glide_gscore>
-7.21395268682203

> <r_i_glide_lipo>
-2.76998657552211

> <r_i_glide_hbond>
-0.451535747799993

> <r_i_glide_metal>
0

> <r_i_glide_rewards>
-1.88370809850823

> <r_i_glide_evdw>
-44.0629386901855

> <r_i_glide_ecoul>
-6.87447452545166

> <r_i_glide_erotb>
1.12791414692552

> <r_i_glide_esite>
-0.002318298590194

> <r_i_glide_emodel>
-73.0300161617732

> <r_i_glide_energy>
-50.9374132156372

> <r_i_glide_einternal>
3.96560573577881

> <i_i_glide_confnum>
120

> <i_i_glide_posenum>
285

> <r_i_glide_eff_state_penalty>
0

> <s_user_duplicate_titles>
CHEMBL3045_lig256

> <s_m_subgroup_title>
dock_pv

> <s_m_subgroupid>
dock_pv

> <b_m_subgroup_collapsed>
1

$$$$
CHEMBL3045_lig152
                    3D
 Schrodinger Suite 2021-1.
 58 61  0  0  1  0            999 V2000
   40.3501   54.0774   32.3421 C   0  0  0  0  0  0
   41.3869   53.1479   32.8922 C   0  0  0  0  0  0
   42.3241   53.6108   33.9757 C   0  0  0  0  0  0
   39.9659   53.9900   30.9843 C   0  0  0  0  0  0
   39.6561   54.9841   33.1722 C   0  0  0  0  0  0
   37.0639   56.4081   30.8371 C   0  0  0  0  0  0
   43.4176   54.4864   33.7241 C   0  0  0  0  0  0
   38.2298   55.6418   31.3280 C   0  0  0  0  0  0
   35.9298   55.7193   30.9674 O   0  0  0  0  0  0
   43.8246   54.9576   32.3474 C   0  0  0  0  0  0
   38.9210   54.7724   30.5039 C   0  0  0  0  0  0
   38.6259   55.7545   32.6504 C   0  0  0  0  0  0
   34.7316   56.4541   31.1827 C   0  0  2  0  0  0
   41.5009   52.0159   32.4367 O   0  0  0  0  0  0
   34.4500   56.4666   32.6930 C   0  0  2  0  0  0
   42.0620   53.2165   35.3064 C   0  0  0  0  0  0
   35.6387   56.6859   33.4772 O   0  0  0  0  0  0
   37.1011   57.5720   30.4372 O   0  0  0  0  0  0
   44.0698   56.1401   32.1165 O   0  0  0  0  0  0
   39.8879   55.1366   34.5167 O   0  0  0  0  0  0
   40.5799   53.1721   30.0677 O   0  0  0  0  0  0
   35.6763   56.7186   34.8652 C   0  0  0  0  0  0
   43.9664   53.9720   31.4175 O   0  0  0  0  0  0
   36.0773   56.7018   37.6398 C   0  0  0  0  0  0
   41.0331   52.3721   35.6368 O   0  0  0  0  0  0
   36.8729   57.1719   35.4315 C   0  0  0  0  0  0
   34.6473   56.3177   35.7308 C   0  0  0  0  0  0
   34.8532   56.2995   37.1107 C   0  0  0  0  0  0
   37.0867   57.1519   36.8026 C   0  0  0  0  0  0
   44.1613   54.9755   34.8080 C   0  0  0  0  0  0
   36.3010   56.6703   38.9878 O   0  0  0  0  0  0
   43.8662   54.5980   36.1123 C   0  0  0  0  0  0
   33.5603   55.7322   30.5266 C   0  0  0  0  0  0
   32.9726   54.8112   31.5925 C   0  0  0  0  0  0
   33.6481   55.1719   32.9254 C   0  0  0  0  0  0
   42.8183   53.7219   36.3575 C   0  0  0  0  0  0
   38.6559   54.7720   29.4625 H   0  0  0  0  0  0
   38.1000   56.4277   33.2881 H   0  0  0  0  0  0
   34.7946   57.4827   30.8223 H   0  0  0  0  0  0
   33.9010   57.3811   32.8371 H   0  0  0  0  0  0
   40.5071   54.4955   34.8773 H   0  0  0  0  0  0
   40.0060   53.0325   29.3026 H   0  0  0  0  0  0
   43.9010   53.0700   31.7725 H   0  0  0  0  0  0
   41.1008   51.5395   35.1389 H   0  0  0  0  0  0
   37.6630   57.5711   34.8208 H   0  0  0  0  0  0
   33.6843   56.0020   35.3806 H   0  0  0  0  0  0
   34.0608   55.9720   37.7670 H   0  0  0  0  0  0
   38.0304   57.4919   37.2029 H   0  0  0  0  0  0
   44.9899   55.6522   34.6472 H   0  0  0  0  0  0
   37.2377   56.7129   39.2002 H   0  0  0  0  0  0
   44.4588   54.9711   36.9347 H   0  0  0  0  0  0
   32.8190   56.4547   30.1806 H   0  0  0  0  0  0
   33.8785   55.1684   29.6491 H   0  0  0  0  0  0
   33.1009   53.7605   31.3406 H   0  0  0  0  0  0
   31.9010   54.9800   31.6373 H   0  0  0  0  0  0
   34.3005   54.3723   33.2671 H   0  0  0  0  0  0
   32.8623   55.3042   33.6637 H   0  0  0  0  0  0
   42.6077   53.4165   37.3724 H   0  0  0  0  0  0
  1  2  1  0  0  0
  1  4  2  0  0  0
  1  5  1  0  0  0
  2  3  1  0  0  0
  2 14  2  0  0  0
  3  7  1  0  0  0
  3 16  2  0  0  0
  4 11  1  0  0  0
  4 21  1  0  0  0
  5 12  2  0  0  0
  5 20  1  0  0  0
  6  8  1  0  0  0
  6  9  1  0  0  0
  6 18  2  0  0  0
  7 10  1  0  0  0
  7 30  2  0  0  0
  8 12  1  0  0  0
  8 11  2  0  0  0
  9 13  1  0  0  0
 10 19  2  0  0  0
 10 23  1  0  0  0
 11 37  1  0  0  0
 12 38  1  0  0  0
 13 15  1  0  0  0
 13 33  1  0  0  0
 13 39  1  0  0  0
 15 17  1  0  0  0
 15 35  1  0  0  0
 15 40  1  0  0  0
 16 25  1  0  0  0
 16 36  1  0  0  0
 17 22  1  0  0  0
 20 41  1  0  0  0
 21 42  1  0  0  0
 22 26  1  0  0  0
 22 27  2  0  0  0
 23 43  1  0  0  0
 24 28  2  0  0  0
 24 31  1  0  0  0
 24 29  1  0  0  0
 25 44  1  0  0  0
 26 29  2  0  0  0
 26 45  1  0  0  0
 27 28  1  0  0  0
 27 46  1  0  0  0
 28 47  1  0  0  0
 29 48  1  0  0  0
 30 32  1  0  0  0
 30 49  1  0  0  0
 31 50  1  0  0  0
 32 36  2  0  0  0
 32 51  1  0  0  0
 33 34  1  0  0  0
 33 52  1  0  0  0
 33 53  1  0  0  0
 34 35  1  0  0  0
 34 54  1  0  0  0
 34 55  1  0  0  0
 35 56  1  0  0  0
 35 57  1  0  0  0
 36 58  1  0  0  0
M  END
> <s_m_entry_id>
3468

> <s_m_entry_name>
dock_pv.197

> <s_m_Source_Path>
/home/csk/Desktop/cluster/DUD-E-result/kpcb

> <s_m_Source_File>
dock_pv.maegz

> <i_m_Source_File_Index>
197

> <chembl_id>
CHEMBL48988

> <chembl_pref_name>
None

> <i_lp_mmshare_version>
53161

> <i_f3d_flags>
0

> <r_lp_tautomer_probability>
1

> <s_lp_Force_Field>
OPLS_2005

> <r_lp_Energy>
57.773893

> <b_lp_Chiralities_Consistent>
1

> <s_lp_Variant>
CHEMBL3045_lig152-1

> <s_i_glide_gridfile>
glide-grid_2i0e

> <i_i_glide_lignum>
275

> <i_i_glide_rotatable_bonds>
13

> <r_i_docking_score>
-7.20616768596972

> <r_i_glide_ligand_efficiency>
-0.20017132461027

> <r_i_glide_ligand_efficiency_sa>
-0.660951150388471

> <r_i_glide_ligand_efficiency_ln>
-1.57219110092671

> <r_i_glide_gscore>
-7.20616768596972

> <r_i_glide_lipo>
-2.71082156354573

> <r_i_glide_hbond>
-0.32

> <r_i_glide_metal>
0

> <r_i_glide_rewards>
-0.723552730065673

> <r_i_glide_evdw>
-40.0628890991211

> <r_i_glide_ecoul>
-13.4453172683716

> <r_i_glide_erotb>
0.666842665177176

> <r_i_glide_esite>
-0.0986940123237

> <r_i_glide_emodel>
-63.1016977583082

> <r_i_glide_energy>
-53.5082063674927

> <r_i_glide_einternal>
23.0416603088379

> <i_i_glide_confnum>
50

> <i_i_glide_posenum>
374

> <r_i_glide_eff_state_penalty>
0

> <s_user_duplicate_titles>
CHEMBL3045_lig152,75293

> <s_m_subgroup_title>
dock_pv

> <s_m_subgroupid>
dock_pv

> <b_m_subgroup_collapsed>
1

$$$$
CHEMBL3045_lig476
                    3D
 Schrodinger Suite 2021-1.
 72 77  0  0  1  0            999 V2000
   35.3487   54.7878   36.0282 C   0  0  0  0  0  0
   35.8709   56.2322   36.1154 C   0  0  0  0  0  0
   34.6479   57.1461   35.9327 C   0  0  0  0  0  0
   36.9434   56.5043   35.1290 N   0  0  0  0  0  0
   38.2216   56.9397   35.6839 C   0  0  0  0  0  0
   37.9702   56.7863   37.1336 C   0  0  0  0  0  0
   38.6246   56.7850   38.3316 C   0  0  0  0  0  0
   39.9702   56.9480   38.5710 N   0  0  0  0  0  0
   40.6999   56.2143   39.4333 C   0  0  0  0  0  0
   40.2356   55.4322   40.2634 O   0  0  0  0  0  0
   42.1866   56.4268   39.3281 C   0  0  0  0  0  0
   42.9876   56.4702   40.4755 C   0  0  0  0  0  0
   44.3691   56.6357   40.3629 C   0  0  0  0  0  0
   44.9646   56.7281   39.1049 C   0  0  0  0  0  0
   44.1875   56.6458   37.9491 C   0  0  0  0  0  0
   44.8057   56.7068   36.7190 O   0  0  0  0  0  0
   44.4025   55.8471   35.7214 C   0  0  0  0  0  0
   43.8735   56.3784   34.5425 C   0  0  0  0  0  0
   43.4515   55.5275   33.5235 C   0  0  0  0  0  0
   43.5729   54.1470   33.6841 C   0  0  0  0  0  0
   44.1143   53.6084   34.8520 C   0  0  0  0  0  0
   44.5250   54.4593   35.8731 C   0  0  0  0  0  0
   42.7987   56.5200   38.0680 C   0  0  0  0  0  0
   37.6218   56.5482   39.2371 N   0  0  0  0  0  0
   36.4073   56.3701   38.6816 N   0  0  0  0  0  0
   36.6537   56.4643   37.3955 C   0  0  0  0  0  0
   36.7593   56.5150   33.8060 C   0  0  0  0  0  0
   36.2998   57.5158   33.2533 O   0  0  0  0  0  0
   36.9957   55.3228   33.1948 N   0  0  0  0  0  0
   38.2518   54.5845   33.4498 C   0  0  0  0  0  0
   39.3088   55.0452   32.4156 C   0  0  0  0  0  0
   38.8044   54.9688   31.0448 N   0  0  1  0  0  0
   37.4887   55.5755   30.8360 C   0  0  0  0  0  0
   36.4498   55.0597   31.8609 C   0  0  2  0  0  0
   34.9936   55.4472   31.6342 C   0  0  0  0  0  0
   34.0330   54.6217   32.2073 C   0  0  0  0  0  0
   32.7010   54.8365   31.9725 C   0  0  0  0  0  0
   32.3073   55.9865   31.3080 C   0  0  0  0  0  0
   33.2469   56.8900   30.8409 C   0  0  0  0  0  0
   34.6027   56.5925   30.9380 C   0  0  0  0  0  0
   34.7003   54.5416   36.8717 H   0  0  0  0  0  0
   34.7600   54.6255   35.1272 H   0  0  0  0  0  0
   36.1725   54.0781   36.0039 H   0  0  0  0  0  0
   34.0349   57.1720   36.8336 H   0  0  0  0  0  0
   34.9230   58.1497   35.6382 H   0  0  0  0  0  0
   34.0012   56.7920   35.1290 H   0  0  0  0  0  0
   38.4378   57.9695   35.4095 H   0  0  0  0  0  0
   39.0589   56.3305   35.3472 H   0  0  0  0  0  0
   40.4729   57.5410   37.9276 H   0  0  0  0  0  0
   42.5467   56.3786   41.4579 H   0  0  0  0  0  0
   44.9820   56.6764   41.2513 H   0  0  0  0  0  0
   46.0353   56.8396   39.0222 H   0  0  0  0  0  0
   43.7897   57.4509   34.4290 H   0  0  0  0  0  0
   43.0354   55.9296   32.6120 H   0  0  0  0  0  0
   43.2554   53.4802   32.8943 H   0  0  0  0  0  0
   44.2150   52.5357   34.9589 H   0  0  0  0  0  0
   44.9395   54.0411   36.7792 H   0  0  0  0  0  0
   42.2085   56.4560   37.1645 H   0  0  0  0  0  0
   37.7854   56.4231   40.2318 H   0  0  0  0  0  0
   38.5632   54.5657   34.4924 H   0  0  0  0  0  0
   38.0556   53.5329   33.2361 H   0  0  0  0  0  0
   39.5980   56.0801   32.6046 H   0  0  0  0  0  0
   40.2151   54.4430   32.4882 H   0  0  0  0  0  0
   39.4831   55.3015   30.3692 H   0  0  0  0  0  0
   37.5758   56.6623   30.8516 H   0  0  0  0  0  0
   37.1651   55.2926   29.8335 H   0  0  0  0  0  0
   36.3970   53.9793   31.7507 H   0  0  0  0  0  0
   34.2983   53.7826   32.8210 H   0  0  0  0  0  0
   31.9683   54.1467   32.3632 H   0  0  0  0  0  0
   31.2579   56.2226   31.2376 H   0  0  0  0  0  0
   32.8988   57.8213   30.4371 H   0  0  0  0  0  0
   35.3399   57.2799   30.5545 H   0  0  0  0  0  0
  1  2  1  0  0  0
  1 41  1  0  0  0
  1 42  1  0  0  0
  1 43  1  0  0  0
  2  3  1  0  0  0
  2  4  1  0  0  0
  2 26  1  0  0  0
  3 44  1  0  0  0
  3 45  1  0  0  0
  3 46  1  0  0  0
  4  5  1  0  0  0
  4 27  1  0  0  0
  5 47  1  0  0  0
  5 48  1  0  0  0
  5  6  1  0  0  0
  6  7  2  0  0  0
  6 26  1  0  0  0
  7 24  1  0  0  0
  7  8  1  0  0  0
  8  9  1  0  0  0
  8 49  1  0  0  0
  9 10  2  0  0  0
  9 11  1  0  0  0
 11 12  2  0  0  0
 11 23  1  0  0  0
 12 13  1  0  0  0
 12 50  1  0  0  0
 13 14  2  0  0  0
 13 51  1  0  0  0
 14 15  1  0  0  0
 14 52  1  0  0  0
 15 16  1  0  0  0
 15 23  2  0  0  0
 16 17  1  0  0  0
 17 18  2  0  0  0
 17 22  1  0  0  0
 18 19  1  0  0  0
 18 53  1  0  0  0
 19 20  2  0  0  0
 19 54  1  0  0  0
 20 21  1  0  0  0
 20 55  1  0  0  0
 21 22  2  0  0  0
 21 56  1  0  0  0
 22 57  1  0  0  0
 23 58  1  0  0  0
 24 25  1  0  0  0
 24 59  1  0  0  0
 25 26  2  0  0  0
 27 28  2  0  0  0
 27 29  1  0  0  0
 29 30  1  0  0  0
 29 34  1  0  0  0
 30 31  1  0  0  0
 30 60  1  0  0  0
 30 61  1  0  0  0
 31 32  1  0  0  0
 31 62  1  0  0  0
 31 63  1  0  0  0
 32 33  1  0  0  0
 32 64  1  0  0  0
 33 34  1  0  0  0
 33 65  1  0  0  0
 33 66  1  0  0  0
 34 35  1  0  0  0
 34 67  1  0  0  0
 35 36  2  0  0  0
 35 40  1  0  0  0
 36 37  1  0  0  0
 36 68  1  0  0  0
 37 38  2  0  0  0
 37 69  1  0  0  0
 38 39  1  0  0  0
 38 70  1  0  0  0
 39 40  2  0  0  0
 39 71  1  0  0  0
 40 72  1  0  0  0
M  END
> <s_m_entry_id>
3469

> <s_m_entry_name>
dock_pv.198

> <s_m_Source_Path>
/home/csk/Desktop/cluster/DUD-E-result/kpcb

> <s_m_Source_File>
dock_pv.maegz

> <i_m_Source_File_Index>
198

> <chembl_id>
CHEMBL3658631

> <chembl_pref_name>
None

> <i_lp_mmshare_version>
53161

> <i_f3d_flags>
0

> <r_lp_tautomer_probability>
0.5

> <s_lp_Force_Field>
OPLS_2005

> <r_lp_Energy>
108.732931

> <b_lp_Chiralities_Consistent>
1

> <s_lp_Variant>
CHEMBL3045_lig476-4

> <s_i_glide_gridfile>
glide-grid_2i0e

> <i_i_glide_lignum>
669

> <i_i_glide_rotatable_bonds>
8

> <r_i_docking_score>
-7.19245288139505

> <r_i_glide_ligand_efficiency>
-0.179811322034876

> <r_i_glide_ligand_efficiency_sa>
-0.614946070483398

> <r_i_glide_ligand_efficiency_ln>
-1.53393853516207

> <r_i_glide_gscore>
-7.19245288139505

> <r_i_glide_lipo>
-3.2816574597129

> <r_i_glide_hbond>
-0.508869615951803

> <r_i_glide_metal>
0

> <r_i_glide_rewards>
-1.2597554933247

> <r_i_glide_evdw>
-42.8067665100098

> <r_i_glide_ecoul>
-2.6895899772644

> <r_i_glide_erotb>
0.401606509684508

> <r_i_glide_esite>
0

> <r_i_glide_emodel>
-59.4172843908486

> <r_i_glide_energy>
-45.4963564872742

> <r_i_glide_einternal>
17.3010997772217

> <i_i_glide_confnum>
73

> <i_i_glide_posenum>
46

> <r_i_glide_eff_state_penalty>
0

> <s_user_duplicate_titles>
CHEMBL3045_lig476

> <s_m_subgroup_title>
dock_pv

> <s_m_subgroupid>
dock_pv

> <b_m_subgroup_collapsed>
1

$$$$
CHEMBL3045_lig292
                    3D
 Schrodinger Suite 2021-1.
 58 61  0  0  1  0            999 V2000
   40.2628   55.6992   33.6159 C   0  0  0  0  0  0
   38.9504   55.2984   33.9318 C   0  0  0  0  0  0
   38.7034   54.0309   34.4745 C   0  0  0  0  0  0
   39.7096   53.0937   34.6876 C   0  0  0  0  0  0
   41.3091   54.7775   33.8387 C   0  0  0  0  0  0
   41.0058   53.4789   34.3512 C   0  0  0  0  0  0
   42.1893   52.7729   34.3963 N   0  0  0  0  0  0
   43.2296   53.5720   33.9979 C   0  0  0  0  0  0
   42.7345   54.8142   33.6550 C   0  0  0  0  0  0
   40.5304   57.0898   33.0445 C   0  0  0  0  0  0
   37.8720   56.1593   33.6507 N   0  0  0  0  0  0
   36.5247   56.0058   34.0405 C   0  0  0  0  0  0
   36.1533   56.0694   35.4073 C   0  0  0  0  0  0
   34.8091   55.8319   35.7243 C   0  0  0  0  0  0
   33.8566   55.5720   34.8005 N   0  0  0  0  0  0
   34.2161   55.5718   33.4972 C   0  0  0  0  0  0
   35.5224   55.8041   33.0652 C   0  0  0  0  0  0
   35.7753   55.8312   31.6259 C   0  0  0  0  0  0
   35.9705   55.8593   30.4862 N   0  0  0  0  0  0
   37.1129   56.4881   36.4620 C   0  0  0  0  0  0
   36.8062   57.0401   37.6535 C   0  0  0  0  0  0
   37.7932   57.5716   38.6859 C   0  0  0  0  0  0
   39.2963   57.5618   38.3098 C   0  0  0  0  0  0
   39.9464   56.3005   38.6690 N   0  0  1  0  0  0
   41.0564   55.9858   37.7540 C   0  0  0  0  0  0
   41.7937   54.6902   38.1569 C   0  0  0  0  0  0
   42.2775   54.7471   39.6159 C   0  0  0  0  0  0
   41.0628   55.0274   40.5085 C   0  0  0  0  0  0
   40.3586   56.3250   40.0843 C   0  0  0  0  0  0
   43.0051   53.5721   40.0370 N   0  0  0  0  0  0
   37.6924   53.7354   34.7108 H   0  0  0  0  0  0
   39.4917   52.1088   35.0755 H   0  0  0  0  0  0
   42.3028   51.7887   34.6225 H   0  0  0  0  0  0
   44.2310   53.1606   33.9549 H   0  0  0  0  0  0
   43.3296   55.6338   33.2830 H   0  0  0  0  0  0
   41.5955   57.3186   33.0023 H   0  0  0  0  0  0
   40.1190   57.1684   32.0377 H   0  0  0  0  0  0
   40.0571   57.8547   33.6618 H   0  0  0  0  0  0
   38.0212   56.7097   32.8182 H   0  0  0  0  0  0
   34.4540   55.8575   36.7443 H   0  0  0  0  0  0
   33.4118   55.3993   32.7949 H   0  0  0  0  0  0
   38.1563   56.3443   36.2317 H   0  0  0  0  0  0
   35.7692   57.1721   37.9260 H   0  0  0  0  0  0
   37.6148   57.0702   39.6373 H   0  0  0  0  0  0
   37.5015   58.6097   38.8369 H   0  0  0  0  0  0
   39.8082   58.3720   38.8296 H   0  0  0  0  0  0
   39.4139   57.7875   37.2482 H   0  0  0  0  0  0
   41.7569   56.8234   37.7353 H   0  0  0  0  0  0
   40.6677   55.8892   36.7390 H   0  0  0  0  0  0
   42.6434   54.5437   37.4886 H   0  0  0  0  0  0
   41.1340   53.8379   37.9843 H   0  0  0  0  0  0
   42.9503   55.6020   39.7023 H   0  0  0  0  0  0
   40.3469   54.2040   40.4884 H   0  0  0  0  0  0
   41.3795   55.1213   41.5478 H   0  0  0  0  0  0
   41.0290   57.1713   40.2473 H   0  0  0  0  0  0
   39.5010   56.5035   40.7283 H   0  0  0  0  0  0
   42.3798   52.7847   39.9466 H   0  0  0  0  0  0
   43.7546   53.3727   39.3751 H   0  0  0  0  0  0
  1  5  1  0  0  0
  1 10  1  0  0  0
  1  2  2  0  0  0
  2 11  1  0  0  0
  2  3  1  0  0  0
  3  4  2  0  0  0
  3 31  1  0  0  0
  4  6  1  0  0  0
  4 32  1  0  0  0
  5  9  1  0  0  0
  5  6  2  0  0  0
  6  7  1  0  0  0
  7  8  1  0  0  0
  7 33  1  0  0  0
  8  9  2  0  0  0
  8 34  1  0  0  0
  9 35  1  0  0  0
 10 36  1  0  0  0
 10 37  1  0  0  0
 10 38  1  0  0  0
 11 12  1  0  0  0
 11 39  1  0  0  0
 12 17  1  0  0  0
 12 13  2  0  0  0
 13 20  1  0  0  0
 13 14  1  0  0  0
 14 15  2  0  0  0
 14 40  1  0  0  0
 15 16  1  0  0  0
 16 17  2  0  0  0
 16 41  1  0  0  0
 17 18  1  0  0  0
 18 19  3  0  0  0
 20 21  2  0  0  0
 20 42  1  0  0  0
 21 22  1  0  0  0
 21 43  1  0  0  0
 22 23  1  0  0  0
 22 44  1  0  0  0
 22 45  1  0  0  0
 23 24  1  0  0  0
 23 46  1  0  0  0
 23 47  1  0  0  0
 24 25  1  0  0  0
 24 29  1  0  0  0
 25 26  1  0  0  0
 25 48  1  0  0  0
 25 49  1  0  0  0
 26 27  1  0  0  0
 26 50  1  0  0  0
 26 51  1  0  0  0
 27 28  1  0  0  0
 27 30  1  0  0  0
 27 52  1  0  0  0
 28 29  1  0  0  0
 28 53  1  0  0  0
 28 54  1  0  0  0
 29 55  1  0  0  0
 29 56  1  0  0  0
 30 57  1  0  0  0
 30 58  1  0  0  0
M  END
> <s_m_entry_id>
3470

> <s_m_entry_name>
dock_pv.199

> <s_m_Source_Path>
/home/csk/Desktop/cluster/DUD-E-result/kpcb

> <s_m_Source_File>
dock_pv.maegz

> <i_m_Source_File_Index>
199

> <chembl_id>
CHEMBL593883

> <chembl_pref_name>
None

> <i_lp_mmshare_version>
53161

> <i_f3d_flags>
0

> <r_lp_tautomer_probability>
1

> <s_lp_Force_Field>
OPLS_2005

> <r_lp_Energy>
35.097481

> <b_lp_Chiralities_Consistent>
1

> <s_lp_Variant>
CHEMBL3045_lig292-1

> <s_i_glide_gridfile>
glide-grid_2i0e

> <i_i_glide_lignum>
453

> <i_i_glide_rotatable_bonds>
6

> <r_i_docking_score>
-7.18065296129022

> <r_i_glide_ligand_efficiency>
-0.239355098709674

> <r_i_glide_ligand_efficiency_sa>
-0.7437319423333

> <r_i_glide_ligand_efficiency_ln>
-1.63152259228564

> <r_i_glide_gscore>
-7.18065296129022

> <r_i_glide_lipo>
-2.51939403746676

> <r_i_glide_hbond>
-0.462511702516161

> <r_i_glide_metal>
0

> <r_i_glide_rewards>
-1.92636050870492

> <r_i_glide_evdw>
-40.5030822753906

> <r_i_glide_ecoul>
-5.9971170425415

> <r_i_glide_erotb>
0.733285367283166

> <r_i_glide_esite>
-0.0809504097347888

> <r_i_glide_emodel>
-62.430281218766

> <r_i_glide_energy>
-46.5001993179321

> <r_i_glide_einternal>
10.3947257995605

> <i_i_glide_confnum>
21

> <i_i_glide_posenum>
313

> <r_i_glide_eff_state_penalty>
0

> <s_user_duplicate_titles>
CHEMBL3045_lig292

> <s_m_subgroup_title>
dock_pv

> <s_m_subgroupid>
dock_pv

> <b_m_subgroup_collapsed>
1

$$$$
CHEMBL3045_lig311
                    3D
 Schrodinger Suite 2021-1.
 35 37  0  0  1  0            999 V2000
   33.9776   56.0072   30.4366 C   0  0  0  0  0  0
   35.1003   55.7274   29.7348 N   0  0  0  0  0  0
   36.2461   55.5722   30.4325 C   0  0  0  0  0  0
   33.9489   56.1549   31.8199 C   0  0  0  0  0  0
   35.1587   56.0175   32.5429 C   0  0  0  0  0  0
   36.3575   55.7072   31.8373 C   0  0  0  0  0  0
   37.5541   55.5546   32.5889 C   0  0  0  0  0  0
   37.5790   55.7048   33.9385 N   0  0  0  0  0  0
   36.4372   56.0251   34.6043 C   0  0  0  0  0  0
   35.2166   56.1849   33.9408 C   0  0  0  0  0  0
   36.5577   56.2525   36.0775 C   0  0  0  0  0  0
   37.7820   56.5994   36.6783 C   0  0  0  0  0  0
   37.8300   56.8436   38.0520 C   0  0  0  0  0  0
   36.7385   56.7699   38.8499 N   0  0  0  0  0  0
   35.5645   56.4166   38.2737 C   0  0  0  0  0  0
   35.4341   56.1513   36.9139 C   0  0  0  0  0  0
   38.7655   55.2867   31.9213 N   0  0  0  0  0  0
   39.9429   54.7424   32.5980 C   0  0  0  0  0  0
   40.0292   53.2069   32.5132 C   0  0  0  0  0  0
   40.2722   52.7767   31.1459 N   0  0  0  0  0  0
   33.0697   56.1165   29.8628 H   0  0  0  0  0  0
   37.1073   55.2902   29.8436 H   0  0  0  0  0  0
   33.0244   56.3706   32.3343 H   0  0  0  0  0  0
   34.3126   56.4537   34.4653 H   0  0  0  0  0  0
   38.6839   56.6882   36.0900 H   0  0  0  0  0  0
   38.7600   57.1078   38.5346 H   0  0  0  0  0  0
   34.7011   56.3721   38.9183 H   0  0  0  0  0  0
   34.4619   55.8771   36.5325 H   0  0  0  0  0  0
   38.7075   55.0732   30.9359 H   0  0  0  0  0  0
   40.8330   55.1891   32.1509 H   0  0  0  0  0  0
   39.9675   55.0493   33.6436 H   0  0  0  0  0  0
   40.8480   52.8450   33.1368 H   0  0  0  0  0  0
   39.1159   52.7459   32.8923 H   0  0  0  0  0  0
   40.3002   51.7575   31.1025 H   0  0  0  0  0  0
   39.5035   53.0320   30.5389 H   0  0  0  0  0  0
  1  2  2  0  0  0
  1  4  1  0  0  0
  1 21  1  0  0  0
  2  3  1  0  0  0
  3  6  2  0  0  0
  3 22  1  0  0  0
  4  5  2  0  0  0
  4 23  1  0  0  0
  5 10  1  0  0  0
  5  6  1  0  0  0
  6  7  1  0  0  0
  7  8  2  0  0  0
  7 17  1  0  0  0
  8  9  1  0  0  0
  9 10  2  0  0  0
  9 11  1  0  0  0
 10 24  1  0  0  0
 11 12  2  0  0  0
 11 16  1  0  0  0
 12 13  1  0  0  0
 12 25  1  0  0  0
 13 14  2  0  0  0
 13 26  1  0  0  0
 14 15  1  0  0  0
 15 16  2  0  0  0
 15 27  1  0  0  0
 16 28  1  0  0  0
 17 18  1  0  0  0
 17 29  1  0  0  0
 18 19  1  0  0  0
 18 30  1  0  0  0
 18 31  1  0  0  0
 19 20  1  0  0  0
 19 32  1  0  0  0
 19 33  1  0  0  0
 20 34  1  0  0  0
 20 35  1  0  0  0
M  END
> <s_m_entry_id>
3471

> <s_m_entry_name>
dock_pv.200

> <s_m_Source_Path>
/home/csk/Desktop/cluster/DUD-E-result/kpcb

> <s_m_Source_File>
dock_pv.maegz

> <i_m_Source_File_Index>
200

> <chembl_id>
CHEMBL2147533

> <chembl_pref_name>
None

> <i_lp_mmshare_version>
53161

> <i_f3d_flags>
0

> <r_lp_tautomer_probability>
1

> <s_lp_Force_Field>
OPLS_2005

> <r_lp_Energy>
-2.28344

> <b_lp_Chiralities_Consistent>
1

> <s_lp_Variant>
CHEMBL3045_lig311-1

> <s_i_glide_gridfile>
glide-grid_2i0e

> <i_i_glide_lignum>
473

> <i_i_glide_rotatable_bonds>
4

> <r_i_docking_score>
-7.15946867216716

> <r_i_glide_ligand_efficiency>
-0.357973433608358

> <r_i_glide_ligand_efficiency_sa>
-0.971689393489187

> <r_i_glide_ligand_efficiency_ln>
-1.79177887356282

> <r_i_glide_gscore>
-7.15946867216716

> <r_i_glide_lipo>
-2.58632930135181

> <r_i_glide_hbond>
-0.507921161540716

> <r_i_glide_metal>
0

> <r_i_glide_rewards>
-2.12049657125361

> <r_i_glide_evdw>
-33.9039001464844

> <r_i_glide_ecoul>
-6.71910429000854

> <r_i_glide_erotb>
0.758339012804475

> <r_i_glide_esite>
0

> <r_i_glide_emodel>
-58.0561699033886

> <r_i_glide_energy>
-40.6230044364929

> <r_i_glide_einternal>
1.21045958995819

> <i_i_glide_confnum>
6

> <i_i_glide_posenum>
386

> <r_i_glide_eff_state_penalty>
0

> <s_user_duplicate_titles>
CHEMBL3045_lig311

> <s_m_subgroup_title>
dock_pv

> <s_m_subgroupid>
dock_pv

> <b_m_subgroup_collapsed>
1

$$$$
CHEMBL3045_lig497
                    3D
 Schrodinger Suite 2021-1.
 61 65  0  0  1  0            999 V2000
   38.5894   55.3381   30.8343 C   0  0  0  0  0  0
   38.4102   54.4194   32.0399 C   0  0  1  0  0  0
   39.4643   53.2792   32.0778 C   0  0  0  0  0  0
   40.7849   53.8266   32.3581 N   0  0  2  0  0  0
   41.9008   52.9086   32.4271 C   0  0  0  0  0  0
   42.9683   53.5957   33.2855 C   0  0  0  0  0  0
   42.2400   54.7729   33.9441 C   0  0  0  0  0  0
   40.7696   54.4737   33.6557 C   0  0  1  0  0  0
   39.8306   55.6954   33.6246 C   0  0  0  0  0  0
   38.4611   55.1811   33.3051 N   0  0  0  0  0  0
   37.2663   55.7081   33.7281 C   0  0  0  0  0  0
   36.2881   55.7438   32.9709 O   0  0  0  0  0  0
   37.1021   56.0573   35.0331 N   0  0  0  0  0  0
   38.2051   56.2564   35.9767 C   0  0  0  0  0  0
   37.5512   56.5512   37.2551 C   0  0  0  0  0  0
   37.8203   56.7687   38.6027 C   0  0  0  0  0  0
   39.0322   56.6938   39.2672 N   0  0  0  0  0  0
   40.2296   57.0233   38.7329 C   0  0  0  0  0  0
   40.3612   57.5450   37.6225 O   0  0  0  0  0  0
   41.4648   56.7456   39.5669 C   0  0  0  0  0  0
   42.7026   56.6079   38.9136 C   0  0  0  0  0  0
   43.8688   56.3339   39.6277 C   0  0  0  0  0  0
   45.3722   56.1707   38.7966 Cl  0  0  0  0  0  0
   43.8196   56.1916   41.0115 C   0  0  0  0  0  0
   42.6070   56.3345   41.6802 C   0  0  0  0  0  0
   41.4395   56.6152   40.9700 C   0  0  0  0  0  0
   40.3010   56.7724   41.6766 F   0  0  0  0  0  0
   36.6885   56.9487   39.2370 N   0  0  0  0  0  0
   35.7098   56.8226   38.3216 N   0  0  0  0  0  0
   36.2158   56.6121   37.0752 C   0  0  0  0  0  0
   35.7763   56.3454   35.6610 C   0  0  0  0  0  0
   34.8082   55.1430   35.6419 C   0  0  0  0  0  0
   35.1012   57.5719   35.0157 C   0  0  0  0  0  0
   38.5436   54.7742   29.9047 H   0  0  0  0  0  0
   37.8166   56.1031   30.7800 H   0  0  0  0  0  0
   39.5636   55.8253   30.8361 H   0  0  0  0  0  0
   37.4262   53.9696   31.9395 H   0  0  0  0  0  0
   39.2020   52.5586   32.8549 H   0  0  0  0  0  0
   39.4702   52.7268   31.1363 H   0  0  0  0  0  0
   41.6074   51.9427   32.8397 H   0  0  0  0  0  0
   42.2617   52.7011   31.4183 H   0  0  0  0  0  0
   43.3609   52.9018   34.0302 H   0  0  0  0  0  0
   43.8051   53.9401   32.6767 H   0  0  0  0  0  0
   42.5500   55.7382   33.5441 H   0  0  0  0  0  0
   42.4400   54.7605   35.0155 H   0  0  0  0  0  0
   40.4024   53.8306   34.4605 H   0  0  0  0  0  0
   40.1690   56.3446   32.8174 H   0  0  0  0  0  0
   39.9909   56.2643   34.5255 H   0  0  0  0  0  0
   38.7790   57.1353   35.6860 H   0  0  0  0  0  0
   38.8501   55.3797   36.0470 H   0  0  0  0  0  0
   38.9877   56.5326   40.2661 H   0  0  0  0  0  0
   42.7705   56.7036   37.8382 H   0  0  0  0  0  0
   44.7208   55.9744   41.5663 H   0  0  0  0  0  0
   42.5718   56.2337   42.7552 H   0  0  0  0  0  0
   34.7250   56.9068   38.5447 H   0  0  0  0  0  0
   33.9132   55.3363   36.2383 H   0  0  0  0  0  0
   34.4665   54.9123   34.6325 H   0  0  0  0  0  0
   35.2823   54.2451   36.0361 H   0  0  0  0  0  0
   34.3030   57.9726   35.6375 H   0  0  0  0  0  0
   35.8185   58.3709   34.8340 H   0  0  0  0  0  0
   34.6565   57.3306   34.0509 H   0  0  0  0  0  0
  1  2  1  0  0  0
  1 34  1  0  0  0
  1 35  1  0  0  0
  1 36  1  0  0  0
  2  3  1  0  0  0
  2 10  1  0  0  0
  2 37  1  0  0  0
  3  4  1  0  0  0
  3 38  1  0  0  0
  3 39  1  0  0  0
  4  5  1  0  0  0
  4  8  1  0  0  0
  5  6  1  0  0  0
  5 40  1  0  0  0
  5 41  1  0  0  0
  6  7  1  0  0  0
  6 42  1  0  0  0
  6 43  1  0  0  0
  7  8  1  0  0  0
  7 44  1  0  0  0
  7 45  1  0  0  0
  8  9  1  0  0  0
  8 46  1  0  0  0
  9 10  1  0  0  0
  9 47  1  0  0  0
  9 48  1  0  0  0
 10 11  1  0  0  0
 11 12  2  0  0  0
 11 13  1  0  0  0
 13 14  1  0  0  0
 13 31  1  0  0  0
 14 15  1  0  0  0
 14 49  1  0  0  0
 14 50  1  0  0  0
 15 16  1  0  0  0
 15 30  2  0  0  0
 16 17  1  0  0  0
 16 28  2  0  0  0
 17 18  1  0  0  0
 17 51  1  0  0  0
 18 19  2  0  0  0
 18 20  1  0  0  0
 20 21  2  0  0  0
 20 26  1  0  0  0
 21 22  1  0  0  0
 21 52  1  0  0  0
 22 23  1  0  0  0
 22 24  2  0  0  0
 24 25  1  0  0  0
 24 53  1  0  0  0
 25 26  2  0  0  0
 25 54  1  0  0  0
 26 27  1  0  0  0
 28 29  1  0  0  0
 29 30  1  0  0  0
 29 55  1  0  0  0
 30 31  1  0  0  0
 31 32  1  0  0  0
 31 33  1  0  0  0
 32 56  1  0  0  0
 32 57  1  0  0  0
 32 58  1  0  0  0
 33 59  1  0  0  0
 33 60  1  0  0  0
 33 61  1  0  0  0
M  END
> <s_m_entry_id>
3472

> <s_m_entry_name>
dock_pv.201

> <s_m_Source_Path>
/home/csk/Desktop/cluster/DUD-E-result/kpcb

> <s_m_Source_File>
dock_pv.maegz

> <i_m_Source_File_Index>
201

> <chembl_id>
CHEMBL3662747

> <chembl_pref_name>
None

> <i_lp_mmshare_version>
53161

> <i_f3d_flags>
0

> <r_lp_tautomer_probability>
0.5

> <s_lp_Force_Field>
OPLS_2005

> <r_lp_Energy>
117.526737

> <b_lp_Chiralities_Consistent>
1

> <s_lp_Variant>
CHEMBL3045_lig497-1

> <s_i_glide_gridfile>
glide-grid_2i0e

> <i_i_glide_lignum>
724

> <i_i_glide_rotatable_bonds>
5

> <r_i_docking_score>
-7.12189008573967

> <r_i_glide_ligand_efficiency>
-0.21581485108302

> <r_i_glide_ligand_efficiency_sa>
-0.692233542964925

> <r_i_glide_ligand_efficiency_ln>
-1.58387147989516

> <r_i_glide_gscore>
-7.12189008573967

> <r_i_glide_lipo>
-2.02674795793419

> <r_i_glide_hbond>
-0.788250364371669

> <r_i_glide_metal>
0

> <r_i_glide_rewards>
-1.749802394864

> <r_i_glide_evdw>
-42.1352996826172

> <r_i_glide_ecoul>
-4.98383665084839

> <r_i_glide_erotb>
0.314008878035125

> <r_i_glide_esite>
-0.0167577648468253

> <r_i_glide_emodel>
-61.8306261842692

> <r_i_glide_energy>
-47.1191363334656

> <r_i_glide_einternal>
5.02857732772827

> <i_i_glide_confnum>
39

> <i_i_glide_posenum>
314

> <r_i_glide_eff_state_penalty>
0

> <s_user_duplicate_titles>
CHEMBL3045_lig497

> <s_m_subgroup_title>
dock_pv

> <s_m_subgroupid>
dock_pv

> <b_m_subgroup_collapsed>
1

$$$$
CHEMBL3045_lig104
                    3D
 Schrodinger Suite 2021-1.
 67 71  0  0  1  0            999 V2000
   40.4917   53.8527   34.8583 C   0  0  0  0  0  0
   41.4829   53.6482   35.9624 C   0  0  0  0  0  0
   41.9627   54.8751   36.6975 C   0  0  0  0  0  0
   40.8334   53.5720   33.5237 C   0  0  0  0  0  0
   39.2454   54.4459   35.1199 C   0  0  0  0  0  0
   37.9580   55.1652   31.6058 C   0  0  0  0  0  0
   34.7263   56.2200   34.2265 C   0  0  0  0  0  0
   34.9341   57.2263   33.3531 N   0  0  0  0  0  0
   38.7690   54.6014   32.7372 C   0  0  0  0  0  0
   42.0480   54.9346   38.1186 C   0  0  0  0  0  0
   36.7657   55.6918   31.9879 O   0  0  0  0  0  0
   34.8411   57.2259   31.8850 C   0  0  1  0  0  0
   35.9727   56.5106   31.1136 C   0  0  2  0  0  0
   38.3909   54.7755   34.0715 C   0  0  0  0  0  0
   39.9888   53.9617   32.4818 C   0  0  0  0  0  0
   42.3762   55.9889   35.9378 C   0  0  0  0  0  0
   33.8295   55.5704   30.4558 N   0  0  2  0  0  0
   35.3765   56.4382   35.5749 C   0  0  0  0  0  0
   41.8601   52.5157   36.2517 O   0  0  0  0  0  0
   42.4196   56.1564   38.7393 C   0  0  0  0  0  0
   38.3475   55.1721   30.4408 O   0  0  0  0  0  0
   34.1234   55.1789   33.9585 O   0  0  0  0  0  0
   42.7891   57.1431   36.5702 C   0  0  0  0  0  0
   42.7989   57.2353   37.9478 C   0  0  0  0  0  0
   34.8458   55.8583   36.7325 C   0  0  0  0  0  0
   36.5700   57.1724   35.6754 C   0  0  0  0  0  0
   42.0443   53.0275   33.1841 O   0  0  0  0  0  0
   38.8321   54.7717   36.3860 O   0  0  0  0  0  0
   33.5179   56.7282   31.2779 C   0  0  0  0  0  0
   35.2193   55.7165   30.0374 C   0  0  0  0  0  0
   36.6742   56.7633   38.0379 C   0  0  0  0  0  0
   37.2061   57.3486   36.8983 C   0  0  0  0  0  0
   35.5018   56.0178   37.9543 C   0  0  0  0  0  0
   42.4469   56.0098   34.5642 O   0  0  0  0  0  0
   37.3305   56.9112   39.2325 O   0  0  0  0  0  0
   41.8103   53.7136   39.0193 C   0  0  0  0  0  0
   42.3535   56.3649   40.2564 C   0  0  0  0  0  0
   41.3783   54.0672   40.4487 C   0  0  0  0  0  0
   42.3695   55.0575   41.0581 C   0  0  0  0  0  0
   35.2429   58.0960   33.7586 H   0  0  0  0  0  0
   34.9004   58.2765   31.6111 H   0  0  0  0  0  0
   36.6282   57.2589   30.6627 H   0  0  0  0  0  0
   37.4409   55.2198   34.3077 H   0  0  0  0  0  0
   40.3139   53.7920   31.4629 H   0  0  0  0  0  0
   33.2221   55.5592   29.6389 H   0  0  0  0  0  0
   43.1067   57.9720   35.9705 H   0  0  0  0  0  0
   43.0989   58.1663   38.4065 H   0  0  0  0  0  0
   33.9368   55.2737   36.6883 H   0  0  0  0  0  0
   37.0480   57.5723   34.7939 H   0  0  0  0  0  0
   42.3894   52.3813   33.8101 H   0  0  0  0  0  0
   39.4156   54.4634   37.0828 H   0  0  0  0  0  0
   33.1175   57.4747   30.5913 H   0  0  0  0  0  0
   32.7514   56.5068   32.0211 H   0  0  0  0  0  0
   35.2142   56.2905   29.1077 H   0  0  0  0  0  0
   35.7107   54.7776   29.7843 H   0  0  0  0  0  0
   38.1326   57.9009   36.9541 H   0  0  0  0  0  0
   35.1012   55.5624   38.8375 H   0  0  0  0  0  0
   42.2224   55.1784   34.1385 H   0  0  0  0  0  0
   37.2787   56.1553   39.8237 H   0  0  0  0  0  0
   42.7489   53.1720   39.0741 H   0  0  0  0  0  0
   41.1006   53.0158   38.5905 H   0  0  0  0  0  0
   41.4269   56.8979   40.4777 H   0  0  0  0  0  0
   43.1624   57.0146   40.5947 H   0  0  0  0  0  0
   40.3709   54.4886   40.4426 H   0  0  0  0  0  0
   41.3235   53.1691   41.0606 H   0  0  0  0  0  0
   42.1168   55.2553   42.1008 H   0  0  0  0  0  0
   43.3755   54.6321   41.0582 H   0  0  0  0  0  0
  1  2  1  0  0  0
  1  4  1  0  0  0
  1  5  2  0  0  0
  2  3  1  0  0  0
  2 19  2  0  0  0
  3 10  2  0  0  0
  3 16  1  0  0  0
  4 15  2  0  0  0
  4 27  1  0  0  0
  5 14  1  0  0  0
  5 28  1  0  0  0
  6  9  1  0  0  0
  6 11  1  0  0  0
  6 21  2  0  0  0
  7  8  1  0  0  0
  7 18  1  0  0  0
  7 22  2  0  0  0
  8 12  1  0  0  0
  8 40  1  0  0  0
  9 14  2  0  0  0
  9 15  1  0  0  0
 10 20  1  0  0  0
 10 36  1  0  0  0
 11 13  1  0  0  0
 12 13  1  0  0  0
 12 29  1  0  0  0
 12 41  1  0  0  0
 13 30  1  0  0  0
 13 42  1  0  0  0
 14 43  1  0  0  0
 15 44  1  0  0  0
 16 23  2  0  0  0
 16 34  1  0  0  0
 17 30  1  0  0  0
 17 29  1  0  0  0
 17 45  1  0  0  0
 18 25  2  0  0  0
 18 26  1  0  0  0
 20 37  1  0  0  0
 20 24  2  0  0  0
 23 24  1  0  0  0
 23 46  1  0  0  0
 24 47  1  0  0  0
 25 33  1  0  0  0
 25 48  1  0  0  0
 26 32  2  0  0  0
 26 49  1  0  0  0
 27 50  1  0  0  0
 28 51  1  0  0  0
 29 52  1  0  0  0
 29 53  1  0  0  0
 30 54  1  0  0  0
 30 55  1  0  0  0
 31 32  1  0  0  0
 31 35  1  0  0  0
 31 33  2  0  0  0
 32 56  1  0  0  0
 33 57  1  0  0  0
 34 58  1  0  0  0
 35 59  1  0  0  0
 36 38  1  0  0  0
 36 60  1  0  0  0
 36 61  1  0  0  0
 37 39  1  0  0  0
 37 62  1  0  0  0
 37 63  1  0  0  0
 38 39  1  0  0  0
 38 64  1  0  0  0
 38 65  1  0  0  0
 39 66  1  0  0  0
 39 67  1  0  0  0
M  END
> <s_m_entry_id>
3473

> <s_m_entry_name>
dock_pv.202

> <s_m_Source_Path>
/home/csk/Desktop/cluster/DUD-E-result/kpcb

> <s_m_Source_File>
dock_pv.maegz

> <i_m_Source_File_Index>
202

> <chembl_id>
CHEMBL91126

> <chembl_pref_name>
None

> <i_lp_mmshare_version>
53161

> <i_f3d_flags>
0

> <r_lp_tautomer_probability>
0.999999999997365

> <s_lp_Force_Field>
OPLS_2005

> <r_lp_Energy>
58.347747

> <b_lp_Chiralities_Consistent>
1

> <s_lp_Variant>
CHEMBL3045_lig104-4

> <s_i_glide_gridfile>
glide-grid_2i0e

> <i_i_glide_lignum>
182

> <i_i_glide_rotatable_bonds>
12

> <r_i_docking_score>
-7.12027967936262

> <r_i_glide_ligand_efficiency>
-0.182571273829811

> <r_i_glide_ligand_efficiency_sa>
-0.619137792221244

> <r_i_glide_ligand_efficiency_ln>
-1.52679008441367

> <r_i_glide_gscore>
-7.12027967936262

> <r_i_glide_lipo>
-3.30280541352474

> <r_i_glide_hbond>
-0.350109675780278

> <r_i_glide_metal>
0

> <r_i_glide_rewards>
-0.44334964294041

> <r_i_glide_evdw>
-56.2270393371582

> <r_i_glide_ecoul>
-5.13712453842163

> <r_i_glide_erotb>
0.581853981708377

> <r_i_glide_esite>
-0.0239482812044117

> <r_i_glide_emodel>
-61.7320595378092

> <r_i_glide_energy>
-61.3641638755798

> <r_i_glide_einternal>
13.4260244369507

> <i_i_glide_confnum>
582

> <i_i_glide_posenum>
114

> <r_i_glide_eff_state_penalty>
0

> <s_user_duplicate_titles>
CHEMBL3045_lig104,144400

> <s_m_subgroup_title>
dock_pv

> <s_m_subgroupid>
dock_pv

> <b_m_subgroup_collapsed>
1

$$$$
CHEMBL3045_lig402
                    3D
 Schrodinger Suite 2021-1.
 51 55  0  0  1  0            999 V2000
   36.7315   55.8123   36.1204 C   0  0  0  0  0  0
   35.7477   55.8622   35.2109 C   0  0  0  0  0  0
   34.5126   55.9362   35.9391 C   0  0  0  0  0  0
   34.8343   55.9948   37.2291 N   0  0  0  0  0  0
   36.1469   55.9682   37.4356 C   0  0  0  0  0  0
   35.8488   55.9308   33.7386 C   0  0  0  0  0  0
   36.9515   56.3976   33.0378 C   0  0  0  0  0  0
   36.7280   56.3628   31.6899 N   0  0  0  0  0  0
   34.8793   55.5826   32.7230 C   0  0  0  0  0  0
   35.4632   55.8890   31.4510 C   0  0  0  0  0  0
   34.7858   55.6925   30.2486 C   0  0  0  0  0  0
   33.4982   55.1730   30.3413 C   0  0  0  0  0  0
   32.9009   54.8504   31.5421 C   0  0  0  0  0  0
   33.5809   55.0441   32.7302 C   0  0  0  0  0  0
   38.1960   55.9029   35.8391 C   0  0  0  0  0  0
   38.8230   57.1054   36.1517 C   0  0  0  0  0  0
   40.1474   57.3485   35.8463 C   0  0  0  0  0  0
   40.9155   56.4049   35.1914 C   0  0  0  0  0  0
   38.9492   54.9366   35.0897 C   0  0  0  0  0  0
   40.3205   55.2011   34.7677 C   0  0  0  0  0  0
   41.0485   54.2874   33.9743 C   0  0  0  0  0  0
   40.4243   53.1691   33.4326 C   0  0  0  0  0  0
   39.0955   52.8958   33.7512 C   0  0  0  0  0  0
   38.3717   53.7522   34.5801 C   0  0  0  0  0  0
   33.3717   55.9730   35.5196 O   0  0  0  0  0  0
   36.6932   56.0246   38.5360 O   0  0  0  0  0  0
   37.9026   58.3682   36.8370 Cl  0  0  0  0  0  0
   41.1936   52.2603   32.4773 C   0  0  0  0  0  0
   41.3657   52.7815   31.1110 N   0  0  0  0  0  0
   42.3802   53.8219   30.9999 C   0  0  0  0  0  0
   40.1262   53.1695   30.4435 C   0  0  0  0  0  0
   34.1486   56.0924   37.9638 H   0  0  0  0  0  0
   37.9023   56.7709   33.3883 H   0  0  0  0  0  0
   37.4170   56.6529   31.0106 H   0  0  0  0  0  0
   35.2342   55.8983   29.2873 H   0  0  0  0  0  0
   32.9547   54.9370   29.4452 H   0  0  0  0  0  0
   31.9036   54.4369   31.5457 H   0  0  0  0  0  0
   33.0835   54.7733   33.6363 H   0  0  0  0  0  0
   40.5587   58.3071   36.0798 H   0  0  0  0  0  0
   41.9452   56.6180   34.9396 H   0  0  0  0  0  0
   42.0822   54.4960   33.7384 H   0  0  0  0  0  0
   38.6124   52.0232   33.3350 H   0  0  0  0  0  0
   37.3338   53.5724   34.7961 H   0  0  0  0  0  0
   40.7005   51.2902   32.4370 H   0  0  0  0  0  0
   42.1721   52.0557   32.9132 H   0  0  0  0  0  0
   42.6385   53.9715   29.9521 H   0  0  0  0  0  0
   43.2945   53.5355   31.5214 H   0  0  0  0  0  0
   42.0338   54.7725   31.4061 H   0  0  0  0  0  0
   40.3093   53.3799   29.3892 H   0  0  0  0  0  0
   39.3857   52.3722   30.4911 H   0  0  0  0  0  0
   39.6872   54.0612   30.8923 H   0  0  0  0  0  0
  1  2  2  0  0  0
  1  5  1  0  0  0
  1 15  1  0  0  0
  2  3  1  0  0  0
  2  6  1  0  0  0
  3  4  1  0  0  0
  3 25  2  0  0  0
  4  5  1  0  0  0
  4 32  1  0  0  0
  5 26  2  0  0  0
  6  7  2  0  0  0
  6  9  1  0  0  0
  7  8  1  0  0  0
  7 33  1  0  0  0
  8 10  1  0  0  0
  8 34  1  0  0  0
  9 10  2  0  0  0
  9 14  1  0  0  0
 10 11  1  0  0  0
 11 12  2  0  0  0
 11 35  1  0  0  0
 12 13  1  0  0  0
 12 36  1  0  0  0
 13 14  2  0  0  0
 13 37  1  0  0  0
 14 38  1  0  0  0
 15 16  2  0  0  0
 15 19  1  0  0  0
 16 17  1  0  0  0
 16 27  1  0  0  0
 17 18  2  0  0  0
 17 39  1  0  0  0
 18 20  1  0  0  0
 18 40  1  0  0  0
 19 20  1  0  0  0
 19 24  2  0  0  0
 20 21  2  0  0  0
 21 22  1  0  0  0
 21 41  1  0  0  0
 22 23  2  0  0  0
 22 28  1  0  0  0
 23 24  1  0  0  0
 23 42  1  0  0  0
 24 43  1  0  0  0
 28 29  1  0  0  0
 28 44  1  0  0  0
 28 45  1  0  0  0
 29 30  1  0  0  0
 29 31  1  0  0  0
 30 46  1  0  0  0
 30 47  1  0  0  0
 30 48  1  0  0  0
 31 49  1  0  0  0
 31 50  1  0  0  0
 31 51  1  0  0  0
M  END
> <s_m_entry_id>
3474

> <s_m_entry_name>
dock_pv.203

> <s_m_Source_Path>
/home/csk/Desktop/cluster/DUD-E-result/kpcb

> <s_m_Source_File>
dock_pv.maegz

> <i_m_Source_File_Index>
203

> <chembl_id>
CHEMBL4085837

> <chembl_pref_name>
None

> <i_lp_mmshare_version>
53161

> <i_f3d_flags>
0

> <r_lp_tautomer_probability>
1

> <s_lp_Force_Field>
OPLS_2005

> <r_lp_Energy>
30.64207

> <b_lp_Chiralities_Consistent>
1

> <s_lp_Variant>
CHEMBL3045_lig402-1

> <s_i_glide_gridfile>
glide-grid_2i0e

> <i_i_glide_lignum>
568

> <i_i_glide_rotatable_bonds>
4

> <r_i_docking_score>
-7.10459421514352

> <r_i_glide_ligand_efficiency>
-0.229180458553017

> <r_i_glide_ligand_efficiency_sa>
-0.719943057580543

> <r_i_glide_ligand_efficiency_ln>
-1.60230372517922

> <r_i_glide_gscore>
-7.10459421514352

> <r_i_glide_lipo>
-2.74802773099224

> <r_i_glide_hbond>
-0.209921793088618

> <r_i_glide_metal>
0

> <r_i_glide_rewards>
-2.17456659739089

> <r_i_glide_evdw>
-38.0912780761719

> <r_i_glide_ecoul>
-2.60108542442322

> <r_i_glide_erotb>
0.322648623800302

> <r_i_glide_esite>
0

> <r_i_glide_emodel>
-46.2078510579677

> <r_i_glide_energy>
-40.6923635005951

> <r_i_glide_einternal>
3.46469640731812

> <i_i_glide_confnum>
20

> <i_i_glide_posenum>
172

> <r_i_glide_eff_state_penalty>
0

> <s_user_duplicate_titles>
CHEMBL3045_lig402

> <s_m_subgroup_title>
dock_pv

> <s_m_subgroupid>
dock_pv

> <b_m_subgroup_collapsed>
1

$$$$
CHEMBL3045_lig179
                    3D
 Schrodinger Suite 2021-1.
 65 69  0  0  1  0            999 V2000
   42.1888   54.9637   35.6746 C   0  0  0  0  0  0
   43.2506   55.0706   36.7295 C   0  0  0  0  0  0
   42.8566   55.5818   38.0943 C   0  0  0  0  0  0
   36.2766   57.1304   32.3227 C   0  0  1  0  0  0
   36.3543   57.4397   33.7619 N   0  0  0  0  0  0
   41.5668   56.1193   35.1691 C   0  0  0  0  0  0
   41.8052   53.7107   35.1562 C   0  0  0  0  0  0
   37.1320   55.9349   31.8505 C   0  0  1  0  0  0
   35.8616   56.6883   34.7689 C   0  0  0  0  0  0
   39.1319   54.7023   32.6190 C   0  0  0  0  0  0
   43.3390   56.7939   38.6876 C   0  0  0  0  0  0
   40.1837   54.7767   33.6832 C   0  0  0  0  0  0
   34.9011   56.8650   31.7973 C   0  0  0  0  0  0
   38.1721   55.6526   32.7970 O   0  0  0  0  0  0
   34.7712   55.5098   31.5367 C   0  0  0  0  0  0
   44.3045   57.7771   38.0363 C   0  0  0  0  0  0
   40.5840   56.0182   34.1898 C   0  0  0  0  0  0
   40.8244   53.6257   34.1617 C   0  0  0  0  0  0
   36.1028   54.8196   31.6411 C   0  0  0  0  0  0
   36.6102   56.7728   36.0759 C   0  0  0  0  0  0
   44.4161   54.7688   36.4776 O   0  0  0  0  0  0
   41.9638   54.7762   38.8347 C   0  0  0  0  0  0
   34.9069   55.9209   34.6426 O   0  0  0  0  0  0
   39.1009   53.8381   31.7436 O   0  0  0  0  0  0
   44.7677   58.7477   38.6377 O   0  0  0  0  0  0
   35.9879   56.3723   37.2649 C   0  0  0  0  0  0
   37.9560   57.1723   36.1107 C   0  0  0  0  0  0
   42.3434   52.5418   35.6370 O   0  0  0  0  0  0
   41.9012   57.3859   35.5764 O   0  0  0  0  0  0
   44.5726   57.5720   36.7200 O   0  0  0  0  0  0
   38.0336   56.7750   38.4740 C   0  0  0  0  0  0
   38.6642   57.1716   37.3045 C   0  0  0  0  0  0
   36.7013   56.3728   38.4594 C   0  0  0  0  0  0
   41.5010   53.5718   38.3754 O   0  0  0  0  0  0
   42.8798   57.1334   39.9740 C   0  0  0  0  0  0
   38.7465   56.7872   39.6370 O   0  0  0  0  0  0
   33.8217   57.7249   31.6370 C   0  0  0  0  0  0
   33.5213   54.9851   31.2370 C   0  0  0  0  0  0
   41.9816   56.3344   40.6690 C   0  0  0  0  0  0
   41.5283   55.1565   40.0989 C   0  0  0  0  0  0
   32.5942   57.2091   31.2369 C   0  0  0  0  0  0
   32.4424   55.8353   31.0817 C   0  0  0  0  0  0
   36.6344   57.9720   31.7410 H   0  0  0  0  0  0
   36.9810   58.1860   34.0164 H   0  0  0  0  0  0
   37.6246   56.2021   30.9126 H   0  0  0  0  0  0
   40.1476   56.9294   33.8060 H   0  0  0  0  0  0
   40.5486   52.6527   33.7752 H   0  0  0  0  0  0
   36.3011   54.3720   30.6793 H   0  0  0  0  0  0
   36.1433   54.0776   32.4369 H   0  0  0  0  0  0
   34.9570   56.0426   37.2667 H   0  0  0  0  0  0
   38.4773   57.4708   35.2148 H   0  0  0  0  0  0
   42.1112   51.7617   35.1135 H   0  0  0  0  0  0
   42.7460   57.4245   36.0363 H   0  0  0  0  0  0
   45.0785   58.3089   36.3675 H   0  0  0  0  0  0
   39.7021   57.4717   37.3224 H   0  0  0  0  0  0
   36.2186   56.0378   39.3595 H   0  0  0  0  0  0
   41.9621   53.2401   37.5961 H   0  0  0  0  0  0
   43.2087   58.0425   40.4596 H   0  0  0  0  0  0
   38.3013   56.3720   40.3878 H   0  0  0  0  0  0
   33.9015   58.7720   31.8644 H   0  0  0  0  0  0
   33.3635   53.9386   31.0768 H   0  0  0  0  0  0
   41.6376   56.6278   41.6501 H   0  0  0  0  0  0
   40.8348   54.5305   40.6417 H   0  0  0  0  0  0
   31.7435   57.8633   31.1123 H   0  0  0  0  0  0
   31.5010   55.3989   30.8370 H   0  0  0  0  0  0
  1  2  1  0  0  0
  1  6  2  0  0  0
  1  7  1  0  0  0
  2  3  1  0  0  0
  2 21  2  0  0  0
  3 11  2  0  0  0
  3 22  1  0  0  0
  4  8  1  0  0  0
  4  5  1  0  0  0
  4 13  1  0  0  0
  4 43  1  0  0  0
  5  9  1  0  0  0
  5 44  1  0  0  0
  6 17  1  0  0  0
  6 29  1  0  0  0
  7 18  2  0  0  0
  7 28  1  0  0  0
  8 14  1  0  0  0
  8 19  1  0  0  0
  8 45  1  0  0  0
  9 20  1  0  0  0
  9 23  2  0  0  0
 10 12  1  0  0  0
 10 14  1  0  0  0
 10 24  2  0  0  0
 11 16  1  0  0  0
 11 35  1  0  0  0
 12 18  1  0  0  0
 12 17  2  0  0  0
 13 37  1  0  0  0
 13 15  2  0  0  0
 15 19  1  0  0  0
 15 38  1  0  0  0
 16 25  2  0  0  0
 16 30  1  0  0  0
 17 46  1  0  0  0
 18 47  1  0  0  0
 19 48  1  0  0  0
 19 49  1  0  0  0
 20 26  1  0  0  0
 20 27  2  0  0  0
 22 34  1  0  0  0
 22 40  2  0  0  0
 26 33  2  0  0  0
 26 50  1  0  0  0
 27 32  1  0  0  0
 27 51  1  0  0  0
 28 52  1  0  0  0
 29 53  1  0  0  0
 30 54  1  0  0  0
 31 32  2  0  0  0
 31 36  1  0  0  0
 31 33  1  0  0  0
 32 55  1  0  0  0
 33 56  1  0  0  0
 34 57  1  0  0  0
 35 39  2  0  0  0
 35 58  1  0  0  0
 36 59  1  0  0  0
 37 41  2  0  0  0
 37 60  1  0  0  0
 38 42  2  0  0  0
 38 61  1  0  0  0
 39 40  1  0  0  0
 39 62  1  0  0  0
 40 63  1  0  0  0
 41 42  1  0  0  0
 41 64  1  0  0  0
 42 65  1  0  0  0
M  END
> <s_m_entry_id>
3475

> <s_m_entry_name>
dock_pv.204

> <s_m_Source_Path>
/home/csk/Desktop/cluster/DUD-E-result/kpcb

> <s_m_Source_File>
dock_pv.maegz

> <i_m_Source_File_Index>
204

> <chembl_id>
CHEMBL177308

> <chembl_pref_name>
None

> <i_lp_mmshare_version>
53161

> <i_f3d_flags>
0

> <r_lp_tautomer_probability>
0.999999999997365

> <s_lp_Force_Field>
OPLS_2005

> <r_lp_Energy>
50.840517

> <b_lp_Chiralities_Consistent>
1

> <s_lp_Variant>
CHEMBL3045_lig179-2

> <s_i_glide_gridfile>
glide-grid_2i0e

> <i_i_glide_lignum>
327

> <i_i_glide_rotatable_bonds>
14

> <r_i_docking_score>
-7.08918514192412

> <r_i_glide_ligand_efficiency>
-0.168790122426765

> <r_i_glide_ligand_efficiency_sa>
-0.586718962218093

> <r_i_glide_ligand_efficiency_ln>
-1.49634434502691

> <r_i_glide_gscore>
-7.08918514192412

> <r_i_glide_lipo>
-3.2425607820502

> <r_i_glide_hbond>
-0.300693791943215

> <r_i_glide_metal>
0

> <r_i_glide_rewards>
-0.447123477457003

> <r_i_glide_evdw>
-46.1430778503418

> <r_i_glide_ecoul>
-8.35845947265625

> <r_i_glide_erotb>
0.488954098098436

> <r_i_glide_esite>
-0.0268383751566019

> <r_i_glide_emodel>
-59.5554860506103

> <r_i_glide_energy>
-54.501537322998

> <r_i_glide_einternal>
22.043493270874

> <i_i_glide_confnum>
60

> <i_i_glide_posenum>
88

> <r_i_glide_eff_state_penalty>
0

> <s_user_duplicate_titles>
CHEMBL3045_lig179,CHEMBL3045_lig184,294269,294270

> <s_m_subgroup_title>
dock_pv

> <s_m_subgroupid>
dock_pv

> <b_m_subgroup_collapsed>
1

$$$$
CHEMBL3045_lig223
                    3D
 Schrodinger Suite 2021-1.
 35 38  0  0  1  0            999 V2000
   36.2244   55.7539   33.6299 C   0  0  0  0  0  0
   34.7942   55.5721   33.3420 C   0  0  0  0  0  0
   38.6555   55.7115   33.2477 C   0  0  0  0  0  0
   37.2779   55.7454   32.7636 C   0  0  0  0  0  0
   40.5778   55.0129   34.0605 N   0  0  0  0  0  0
   34.0850   55.6236   34.4056 N   0  0  0  0  0  0
   39.3154   54.5963   33.7534 C   0  0  0  0  0  0
   39.4702   56.7620   33.2323 N   0  0  0  0  0  0
   40.6103   56.3415   33.7328 C   0  0  0  0  0  0
   34.1272   55.2785   32.0572 C   0  0  0  0  0  0
   36.2362   55.9308   35.0930 C   0  0  0  0  0  0
   34.9167   55.8574   35.4739 C   0  0  0  0  0  0
   34.6393   55.7970   30.9267 N   0  0  0  0  0  0
   38.9595   53.2886   33.9482 O   0  0  0  0  0  0
   33.1158   54.5723   32.0371 O   0  0  0  0  0  0
   41.7305   57.1007   33.9077 N   0  0  0  0  0  0
   37.1309   55.7905   31.2442 C   0  0  0  0  0  0
   35.8859   56.5218   30.7182 C   0  0  0  0  0  0
   37.2223   56.1807   36.0565 C   0  0  0  0  0  0
   34.5306   56.0223   36.8035 C   0  0  0  0  0  0
   36.8519   56.3637   37.3928 C   0  0  0  0  0  0
   35.5071   56.2848   37.7653 C   0  0  0  0  0  0
   41.3270   54.4553   34.4419 H   0  0  0  0  0  0
   34.1132   55.5471   30.1003 H   0  0  0  0  0  0
   39.1983   52.7483   33.1897 H   0  0  0  0  0  0
   41.7544   58.0521   33.5726 H   0  0  0  0  0  0
   42.3984   56.8871   34.6348 H   0  0  0  0  0  0
   37.1900   54.7803   30.8448 H   0  0  0  0  0  0
   37.9993   56.3126   30.8382 H   0  0  0  0  0  0
   35.9786   56.6559   29.6395 H   0  0  0  0  0  0
   35.8045   57.5328   31.1225 H   0  0  0  0  0  0
   38.2662   56.2558   35.7960 H   0  0  0  0  0  0
   33.4915   55.9694   37.0948 H   0  0  0  0  0  0
   37.6086   56.5603   38.1384 H   0  0  0  0  0  0
   35.2157   56.4244   38.7953 H   0  0  0  0  0  0
  1  2  1  0  0  0
  1  4  2  0  0  0
  1 11  1  0  0  0
  2  6  2  0  0  0
  2 10  1  0  0  0
  3  4  1  0  0  0
  3  7  2  0  0  0
  3  8  1  0  0  0
  4 17  1  0  0  0
  5  7  1  0  0  0
  5  9  1  0  0  0
  5 23  1  0  0  0
  6 12  1  0  0  0
  7 14  1  0  0  0
  8  9  2  0  0  0
  9 16  1  0  0  0
 10 13  1  0  0  0
 10 15  2  0  0  0
 11 12  2  0  0  0
 11 19  1  0  0  0
 12 20  1  0  0  0
 13 18  1  0  0  0
 13 24  1  0  0  0
 14 25  1  0  0  0
 16 26  1  0  0  0
 16 27  1  0  0  0
 17 18  1  0  0  0
 17 28  1  0  0  0
 17 29  1  0  0  0
 18 30  1  0  0  0
 18 31  1  0  0  0
 19 21  2  0  0  0
 19 32  1  0  0  0
 20 22  2  0  0  0
 20 33  1  0  0  0
 21 22  1  0  0  0
 21 34  1  0  0  0
 22 35  1  0  0  0
M  END
> <s_m_entry_id>
3477

> <s_m_entry_name>
dock_pv.206

> <s_m_Source_Path>
/home/csk/Desktop/cluster/DUD-E-result/kpcb

> <s_m_Source_File>
dock_pv.maegz

> <i_m_Source_File_Index>
206

> <chembl_id>
CHEMBL332551

> <chembl_pref_name>
None

> <i_lp_mmshare_version>
53161

> <i_f3d_flags>
0

> <r_lp_tautomer_probability>
1

> <s_lp_Force_Field>
OPLS_2005

> <r_lp_Energy>
51.427934

> <b_lp_Chiralities_Consistent>
1

> <s_lp_Variant>
CHEMBL3045_lig223-1

> <s_i_glide_gridfile>
glide-grid_2i0e

> <i_i_glide_lignum>
380

> <i_i_glide_rotatable_bonds>
2

> <r_i_docking_score>
-7.07630950559868

> <r_i_glide_ligand_efficiency>
-0.321650432072667

> <r_i_glide_ligand_efficiency_sa>
-0.901277160461284

> <r_i_glide_ligand_efficiency_ln>
-1.72970815782901

> <r_i_glide_gscore>
-7.07630950559868

> <r_i_glide_lipo>
-2.23605687043062

> <r_i_glide_hbond>
-0.191142559144573

> <r_i_glide_metal>
0

> <r_i_glide_rewards>
-2.1386503389442

> <r_i_glide_evdw>
-39.8737945556641

> <r_i_glide_ecoul>
-4.7927885055542

> <r_i_glide_erotb>
0.209887246002714

> <r_i_glide_esite>
-0.00773897946566579

> <r_i_glide_emodel>
-63.3909479964285

> <r_i_glide_energy>
-44.6665830612183

> <r_i_glide_einternal>
1.33245658874512

> <i_i_glide_confnum>
3

> <i_i_glide_posenum>
25

> <r_i_glide_eff_state_penalty>
0

> <s_user_duplicate_titles>
CHEMBL3045_lig223

> <s_m_subgroup_title>
dock_pv

> <s_m_subgroupid>
dock_pv

> <b_m_subgroup_collapsed>
1

$$$$
CHEMBL3045_lig450
                    3D
 Schrodinger Suite 2021-1.
 46 49  0  0  1  0            999 V2000
   36.0087   55.6454   32.5241 C   0  0  0  0  0  0
   36.2312   55.5932   31.1858 C   0  0  0  0  0  0
   34.9836   55.9079   30.6946 C   0  0  0  0  0  0
   34.1207   56.1228   31.6910 N   0  0  0  0  0  0
   34.8063   55.9488   32.8294 N   0  0  0  0  0  0
   39.2094   54.8271   34.1517 N   0  0  0  0  0  0
   40.0636   55.8593   34.7518 C   0  0  2  0  0  0
   39.3808   56.3246   36.0656 C   0  0  0  0  0  0
   35.9834   55.6639   34.6916 C   0  0  0  0  0  0
   36.3160   55.6235   36.1700 C   0  0  0  0  0  0
   37.0325   56.9072   36.6624 C   0  0  2  0  0  0
   38.2840   57.0908   35.9193 N   0  0  0  0  0  0
   38.1781   55.0699   33.2211 C   0  0  0  0  0  0
   38.5003   54.9796   31.8480 C   0  0  0  0  0  0
   37.5586   55.2443   30.8370 C   0  0  0  0  0  0
   36.8325   55.4267   33.6008 C   0  0  0  0  0  0
   34.7076   55.9713   34.1509 C   0  0  0  0  0  0
   37.1496   56.9980   38.2084 C   0  0  0  0  0  0
   40.4533   57.0426   33.7891 C   0  0  0  0  0  0
   41.5617   56.5891   32.8218 C   0  0  0  0  0  0
   40.8818   58.3722   34.4367 C   0  0  0  0  0  0
   39.1269   53.5155   34.8007 C   0  0  0  0  0  0
   35.9011   56.7722   38.8370 O   0  0  0  0  0  0
   39.7683   55.8611   37.1368 O   0  0  0  0  0  0
   34.6723   55.9722   29.6611 H   0  0  0  0  0  0
   41.0059   55.3869   35.0394 H   0  0  0  0  0  0
   36.9482   54.7720   36.3958 H   0  0  0  0  0  0
   35.3967   55.4588   36.7322 H   0  0  0  0  0  0
   36.4114   57.7505   36.3626 H   0  0  0  0  0  0
   38.1445   57.4525   34.9879 H   0  0  0  0  0  0
   39.4955   54.6872   31.5496 H   0  0  0  0  0  0
   37.8493   55.1394   29.8027 H   0  0  0  0  0  0
   33.7799   56.2029   34.6511 H   0  0  0  0  0  0
   37.5433   57.9717   38.5028 H   0  0  0  0  0  0
   37.8406   56.2553   38.6058 H   0  0  0  0  0  0
   39.5872   57.2903   33.1766 H   0  0  0  0  0  0
   42.5057   56.4386   33.3469 H   0  0  0  0  0  0
   41.3163   55.6498   32.3306 H   0  0  0  0  0  0
   41.7307   57.3250   32.0390 H   0  0  0  0  0  0
   41.6897   58.2188   35.1533 H   0  0  0  0  0  0
   41.2316   59.0797   33.6849 H   0  0  0  0  0  0
   40.0479   58.8505   34.9460 H   0  0  0  0  0  0
   38.6062   52.7807   34.1833 H   0  0  0  0  0  0
   40.1301   53.1281   34.9850 H   0  0  0  0  0  0
   38.6213   53.5699   35.7630 H   0  0  0  0  0  0
   35.2328   57.3373   38.4372 H   0  0  0  0  0  0
  1  2  2  0  0  0
  1 16  1  0  0  0
  1  5  1  0  0  0
  2 15  1  0  0  0
  2  3  1  0  0  0
  3  4  2  0  0  0
  3 25  1  0  0  0
  4  5  1  0  0  0
  5 17  1  0  0  0
  6  7  1  0  0  0
  6 13  1  0  0  0
  6 22  1  0  0  0
  7  8  1  0  0  0
  7 19  1  0  0  0
  7 26  1  0  0  0
  8 12  1  0  0  0
  8 24  2  0  0  0
  9 17  2  0  0  0
  9 16  1  0  0  0
  9 10  1  0  0  0
 10 11  1  0  0  0
 10 27  1  0  0  0
 10 28  1  0  0  0
 11 12  1  0  0  0
 11 18  1  0  0  0
 11 29  1  0  0  0
 12 30  1  0  0  0
 13 16  2  0  0  0
 13 14  1  0  0  0
 14 15  2  0  0  0
 14 31  1  0  0  0
 15 32  1  0  0  0
 17 33  1  0  0  0
 18 23  1  0  0  0
 18 34  1  0  0  0
 18 35  1  0  0  0
 19 20  1  0  0  0
 19 21  1  0  0  0
 19 36  1  0  0  0
 20 37  1  0  0  0
 20 38  1  0  0  0
 20 39  1  0  0  0
 21 40  1  0  0  0
 21 41  1  0  0  0
 21 42  1  0  0  0
 22 43  1  0  0  0
 22 44  1  0  0  0
 22 45  1  0  0  0
 23 46  1  0  0  0
M  END
> <s_m_entry_id>
3478

> <s_m_entry_name>
dock_pv.207

> <s_m_Source_Path>
/home/csk/Desktop/cluster/DUD-E-result/kpcb

> <s_m_Source_File>
dock_pv.maegz

> <i_m_Source_File_Index>
207

> <chembl_id>
CHEMBL271403

> <chembl_pref_name>
None

> <i_lp_mmshare_version>
53161

> <i_f3d_flags>
0

> <r_lp_tautomer_probability>
1

> <s_lp_Force_Field>
OPLS_2005

> <r_lp_Energy>
114.83332

> <b_lp_Chiralities_Consistent>
1

> <s_lp_Variant>
CHEMBL3045_lig450-1

> <s_i_glide_gridfile>
glide-grid_2i0e

> <i_i_glide_lignum>
622

> <i_i_glide_rotatable_bonds>
3

> <r_i_docking_score>
-7.05643051150075

> <r_i_glide_ligand_efficiency>
-0.294017937979198

> <r_i_glide_ligand_efficiency_sa>
-0.848094488527907

> <r_i_glide_ligand_efficiency_ln>
-1.68892761989931

> <r_i_glide_gscore>
-7.05643051150075

> <r_i_glide_lipo>
-2.67080560031444

> <r_i_glide_hbond>
-0.32

> <r_i_glide_metal>
0

> <r_i_glide_rewards>
-2.14833876246123

> <r_i_glide_evdw>
-34.3722801208496

> <r_i_glide_ecoul>
-2.48875379562378

> <r_i_glide_erotb>
0.176041663527681

> <r_i_glide_esite>
-0.00140073686671303

> <r_i_glide_emodel>
-50.416104685919

> <r_i_glide_energy>
-36.8610339164734

> <r_i_glide_einternal>
5.3727822303772

> <i_i_glide_confnum>
2

> <i_i_glide_posenum>
345

> <r_i_glide_eff_state_penalty>
0

> <s_user_duplicate_titles>
CHEMBL3045_lig450

> <s_m_subgroup_title>
dock_pv

> <s_m_subgroupid>
dock_pv

> <b_m_subgroup_collapsed>
1

$$$$
CHEMBL3045_lig209
                    3D
 Schrodinger Suite 2021-1.
 43 45  0  0  1  0            999 V2000
   37.3106   56.4045   36.0669 N   0  0  0  0  0  0
   39.6216   56.5853   36.8405 C   0  0  0  0  0  0
   35.9721   56.3274   36.2965 C   0  0  0  0  0  0
   38.1556   56.5251   37.1315 C   0  0  0  0  0  0
   35.0532   56.1767   35.2459 N   0  0  0  0  0  0
   36.3011   56.4926   38.6750 N   0  0  0  0  0  0
   41.8601   57.2205   37.5571 N   0  0  0  0  0  0
   40.1716   56.0819   35.6472 C   0  0  0  0  0  0
   35.1850   56.0062   33.8567 C   0  0  0  0  0  0
   34.0541   55.5670   33.1632 C   0  0  0  0  0  0
   41.5527   56.1494   35.4085 C   0  0  0  0  0  0
   40.5217   57.1484   37.7572 C   0  0  0  0  0  0
   34.1018   55.3453   31.7874 C   0  0  0  0  0  0
   35.4804   56.3733   37.6023 C   0  0  0  0  0  0
   42.1823   55.6599   34.2524 N   0  0  0  0  0  0
   37.6335   56.5617   38.4336 C   0  0  0  0  0  0
   32.7010   54.7721   30.9613 Cl  0  0  0  0  0  0
   42.3511   56.7302   36.3947 C   0  0  0  0  0  0
   41.4101   53.4263   33.4283 C   0  0  0  0  0  0
   41.9010   52.7718   31.1573 O   0  0  0  0  0  0
   36.4152   56.0290   31.7608 C   0  0  0  0  0  0
   41.4725   54.9484   33.1960 C   0  0  0  0  0  0
   36.3658   56.2486   33.1391 C   0  0  0  0  0  0
   40.9557   52.6264   32.1967 C   0  0  0  0  0  0
   35.2844   55.5731   31.0855 C   0  0  0  0  0  0
   34.1065   56.0543   35.5725 H   0  0  0  0  0  0
   39.5201   55.6257   34.9183 H   0  0  0  0  0  0
   33.1317   55.3779   33.6934 H   0  0  0  0  0  0
   40.1823   57.5679   38.6916 H   0  0  0  0  0  0
   34.4221   56.3121   37.8102 H   0  0  0  0  0  0
   43.1758   55.4864   34.3128 H   0  0  0  0  0  0
   38.2661   56.6187   39.3074 H   0  0  0  0  0  0
   43.4201   56.8144   36.2652 H   0  0  0  0  0  0
   40.7357   53.2228   34.2609 H   0  0  0  0  0  0
   42.3817   53.0499   33.7551 H   0  0  0  0  0  0
   42.6665   52.2206   31.3856 H   0  0  0  0  0  0
   37.3320   56.2076   31.2173 H   0  0  0  0  0  0
   41.9990   55.1601   32.2640 H   0  0  0  0  0  0
   40.4740   55.3478   33.0174 H   0  0  0  0  0  0
   37.2572   56.6102   33.6237 H   0  0  0  0  0  0
   40.0058   53.0123   31.8240 H   0  0  0  0  0  0
   40.8142   51.5718   32.4370 H   0  0  0  0  0  0
   35.3266   55.3953   30.0198 H   0  0  0  0  0  0
  1  3  1  0  0  0
  1  4  2  0  0  0
  2  4  1  0  0  0
  2  8  1  0  0  0
  2 12  2  0  0  0
  3  5  1  0  0  0
  3 14  2  0  0  0
  4 16  1  0  0  0
  5  9  1  0  0  0
  5 26  1  0  0  0
  6 16  2  0  0  0
  6 14  1  0  0  0
  7 12  1  0  0  0
  7 18  2  0  0  0
  8 11  2  0  0  0
  8 27  1  0  0  0
  9 10  1  0  0  0
  9 23  2  0  0  0
 10 13  2  0  0  0
 10 28  1  0  0  0
 11 15  1  0  0  0
 11 18  1  0  0  0
 12 29  1  0  0  0
 13 17  1  0  0  0
 13 25  1  0  0  0
 14 30  1  0  0  0
 15 22  1  0  0  0
 15 31  1  0  0  0
 16 32  1  0  0  0
 18 33  1  0  0  0
 19 22  1  0  0  0
 19 24  1  0  0  0
 19 34  1  0  0  0
 19 35  1  0  0  0
 20 24  1  0  0  0
 20 36  1  0  0  0
 21 23  1  0  0  0
 21 25  2  0  0  0
 21 37  1  0  0  0
 22 38  1  0  0  0
 22 39  1  0  0  0
 23 40  1  0  0  0
 24 41  1  0  0  0
 24 42  1  0  0  0
 25 43  1  0  0  0
M  END
> <s_m_entry_id>
3479

> <s_m_entry_name>
dock_pv.208

> <s_m_Source_Path>
/home/csk/Desktop/cluster/DUD-E-result/kpcb

> <s_m_Source_File>
dock_pv.maegz

> <i_m_Source_File_Index>
208

> <chembl_id>
CHEMBL177688

> <chembl_pref_name>
None

> <i_lp_mmshare_version>
53161

> <i_f3d_flags>
0

> <r_lp_tautomer_probability>
0.999999901280007

> <s_lp_Force_Field>
OPLS_2005

> <r_lp_Energy>
26.008631

> <b_lp_Chiralities_Consistent>
1

> <s_lp_Variant>
CHEMBL3045_lig209-1

> <s_i_glide_gridfile>
glide-grid_2i0e

> <i_i_glide_lignum>
366

> <i_i_glide_rotatable_bonds>
8

> <r_i_docking_score>
-7.04182393794045

> <r_i_glide_ligand_efficiency>
-0.281672957517618

> <r_i_glide_ligand_efficiency_sa>
-0.823616723272688

> <r_i_glide_ligand_efficiency_ln>
-1.66912329972652

> <r_i_glide_gscore>
-7.04182393794045

> <r_i_glide_lipo>
-2.73535623520408

> <r_i_glide_hbond>
-0.381806603643327

> <r_i_glide_metal>
0

> <r_i_glide_rewards>
-1.97794324926462

> <r_i_glide_evdw>
-42.2969017028809

> <r_i_glide_ecoul>
-5.88617324829102

> <r_i_glide_erotb>
1.05739671810818

> <r_i_glide_esite>
-0.00634349554891597

> <r_i_glide_emodel>
-68.7350084687884

> <r_i_glide_energy>
-48.1830749511719

> <r_i_glide_einternal>
2.84496808052063

> <i_i_glide_confnum>
44

> <i_i_glide_posenum>
395

> <r_i_glide_eff_state_penalty>
0

> <s_user_duplicate_titles>
CHEMBL3045_lig209

> <s_m_subgroup_title>
dock_pv

> <s_m_subgroupid>
dock_pv

> <b_m_subgroup_collapsed>
1

$$$$
CHEMBL3045_lig181
                    3D
 Schrodinger Suite 2021-1.
 65 69  0  0  1  0            999 V2000
   42.0069   54.6525   32.1102 C   0  0  0  0  0  0
   43.4724   54.3968   31.8694 C   0  0  0  0  0  0
   44.4545   54.6972   32.9712 C   0  0  0  0  0  0
   36.2238   57.1976   33.5653 C   0  0  1  0  0  0
   35.7349   56.8878   34.9942 C   0  0  2  0  0  0
   41.0225   53.8404   31.5017 C   0  0  0  0  0  0
   41.5715   55.7395   32.9029 C   0  0  0  0  0  0
   37.7834   55.3913   32.7314 C   0  0  0  0  0  0
   37.5202   56.6459   33.2364 O   0  0  0  0  0  0
   36.8833   56.6261   35.8591 N   0  0  0  0  0  0
   36.9361   56.5964   37.1983 C   0  0  0  0  0  0
   45.4371   55.7270   32.8709 C   0  0  0  0  0  0
   39.2428   55.1582   32.5101 C   0  0  0  0  0  0
   35.0861   56.7477   32.6862 C   0  0  0  0  0  0
   34.3006   55.8297   33.3798 C   0  0  0  0  0  0
   45.6385   56.6051   31.6494 C   0  0  0  0  0  0
   39.6682   54.0861   31.7177 C   0  0  0  0  0  0
   40.2154   55.9783   33.0899 C   0  0  0  0  0  0
   34.7965   55.6888   34.8119 C   0  0  0  0  0  0
   38.3276   56.4197   37.7749 C   0  0  0  0  0  0
   43.8907   53.9718   30.7930 O   0  0  0  0  0  0
   44.3419   53.9728   34.1796 C   0  0  0  0  0  0
   36.9258   54.5583   32.4393 O   0  0  0  0  0  0
   35.9488   56.7664   37.9154 O   0  0  0  0  0  0
   45.7431   57.8278   31.7404 O   0  0  0  0  0  0
   38.5854   56.7981   39.1005 C   0  0  0  0  0  0
   39.3838   55.8931   37.0067 C   0  0  0  0  0  0
   42.4186   56.6281   33.5170 O   0  0  0  0  0  0
   41.3368   52.7718   30.7018 O   0  0  0  0  0  0
   45.7410   55.9350   30.4712 O   0  0  0  0  0  0
   40.8949   56.1559   38.8590 C   0  0  0  0  0  0
   40.6612   55.7660   37.5452 C   0  0  0  0  0  0
   39.8638   56.6708   39.6377 C   0  0  0  0  0  0
   43.4424   52.9462   34.3505 O   0  0  0  0  0  0
   46.2333   56.0086   33.9922 C   0  0  0  0  0  0
   42.1476   56.0207   39.3921 O   0  0  0  0  0  0
   34.8285   57.0456   31.3509 C   0  0  0  0  0  0
   33.3038   55.1346   32.6931 C   0  0  0  0  0  0
   46.0952   55.2959   35.1775 C   0  0  0  0  0  0
   45.1515   54.2797   35.2695 C   0  0  0  0  0  0
   33.8066   56.3731   30.6805 C   0  0  0  0  0  0
   33.0496   55.4119   31.3479 C   0  0  0  0  0  0
   36.3591   58.2757   33.4698 H   0  0  0  0  0  0
   35.1526   57.7486   35.3307 H   0  0  0  0  0  0
   37.7477   56.4748   35.3641 H   0  0  0  0  0  0
   38.9428   53.4355   31.2479 H   0  0  0  0  0  0
   39.9312   56.8234   33.7012 H   0  0  0  0  0  0
   35.3657   54.7707   34.9142 H   0  0  0  0  0  0
   34.0142   55.6649   35.5726 H   0  0  0  0  0  0
   37.8005   57.1916   39.7276 H   0  0  0  0  0  0
   39.2373   55.5581   35.9899 H   0  0  0  0  0  0
   43.3353   56.3387   33.5347 H   0  0  0  0  0  0
   40.5806   52.2074   30.5046 H   0  0  0  0  0  0
   45.5062   55.0066   30.5750 H   0  0  0  0  0  0
   41.4594   55.3573   36.9418 H   0  0  0  0  0  0
   40.0503   56.9566   40.6624 H   0  0  0  0  0  0
   43.4352   52.3404   33.5955 H   0  0  0  0  0  0
   46.9748   56.7964   33.9572 H   0  0  0  0  0  0
   42.7637   55.5984   38.7878 H   0  0  0  0  0  0
   35.4510   57.7566   30.8371 H   0  0  0  0  0  0
   32.7009   54.3979   33.1969 H   0  0  0  0  0  0
   46.7230   55.5215   36.0272 H   0  0  0  0  0  0
   45.0556   53.7173   36.1875 H   0  0  0  0  0  0
   33.6081   56.5788   29.6373 H   0  0  0  0  0  0
   32.2642   54.8930   30.8197 H   0  0  0  0  0  0
  1  2  1  0  0  0
  1  6  2  0  0  0
  1  7  1  0  0  0
  2  3  1  0  0  0
  2 21  2  0  0  0
  3 12  2  0  0  0
  3 22  1  0  0  0
  4  9  1  0  0  0
  4  5  1  0  0  0
  4 14  1  0  0  0
  4 43  1  0  0  0
  5 10  1  0  0  0
  5 19  1  0  0  0
  5 44  1  0  0  0
  6 17  1  0  0  0
  6 29  1  0  0  0
  7 18  2  0  0  0
  7 28  1  0  0  0
  8 13  1  0  0  0
  8  9  1  0  0  0
  8 23  2  0  0  0
 10 11  1  0  0  0
 10 45  1  0  0  0
 11 20  1  0  0  0
 11 24  2  0  0  0
 12 16  1  0  0  0
 12 35  1  0  0  0
 13 18  1  0  0  0
 13 17  2  0  0  0
 14 15  2  0  0  0
 14 37  1  0  0  0
 15 38  1  0  0  0
 15 19  1  0  0  0
 16 25  2  0  0  0
 16 30  1  0  0  0
 17 46  1  0  0  0
 18 47  1  0  0  0
 19 48  1  0  0  0
 19 49  1  0  0  0
 20 26  1  0  0  0
 20 27  2  0  0  0
 22 34  1  0  0  0
 22 40  2  0  0  0
 26 33  2  0  0  0
 26 50  1  0  0  0
 27 32  1  0  0  0
 27 51  1  0  0  0
 28 52  1  0  0  0
 29 53  1  0  0  0
 30 54  1  0  0  0
 31 32  2  0  0  0
 31 36  1  0  0  0
 31 33  1  0  0  0
 32 55  1  0  0  0
 33 56  1  0  0  0
 34 57  1  0  0  0
 35 39  2  0  0  0
 35 58  1  0  0  0
 36 59  1  0  0  0
 37 41  2  0  0  0
 37 60  1  0  0  0
 38 42  2  0  0  0
 38 61  1  0  0  0
 39 40  1  0  0  0
 39 62  1  0  0  0
 40 63  1  0  0  0
 41 42  1  0  0  0
 41 64  1  0  0  0
 42 65  1  0  0  0
M  END
> <s_m_entry_id>
3480

> <s_m_entry_name>
dock_pv.209

> <s_m_Source_Path>
/home/csk/Desktop/cluster/DUD-E-result/kpcb

> <s_m_Source_File>
dock_pv.maegz

> <i_m_Source_File_Index>
209

> <chembl_id>
CHEMBL367162

> <chembl_pref_name>
None

> <i_lp_mmshare_version>
53161

> <i_f3d_flags>
0

> <r_lp_tautomer_probability>
0.999999999997365

> <s_lp_Force_Field>
OPLS_2005

> <r_lp_Energy>
58.001228

> <b_lp_Chiralities_Consistent>
1

> <s_lp_Variant>
CHEMBL3045_lig181-1

> <s_i_glide_gridfile>
glide-grid_2i0e

> <i_i_glide_lignum>
330

> <i_i_glide_rotatable_bonds>
14

> <r_i_docking_score>
-7.03562926495095

> <r_i_glide_ligand_efficiency>
-0.167514982498832

> <r_i_glide_ligand_efficiency_sa>
-0.582286541858163

> <r_i_glide_ligand_efficiency_ln>
-1.48504007915609

> <r_i_glide_gscore>
-7.03562926495095

> <r_i_glide_lipo>
-2.90744912146999

> <r_i_glide_hbond>
-0.146190953281824

> <r_i_glide_metal>
0

> <r_i_glide_rewards>
-0.514024534541095

> <r_i_glide_evdw>
-55.2987823486328

> <r_i_glide_ecoul>
-7.47561359405518

> <r_i_glide_erotb>
0.488954098098436

> <r_i_glide_esite>
-0.0706375972165563

> <r_i_glide_emodel>
-83.4240883271276

> <r_i_glide_energy>
-62.774395942688

> <r_i_glide_einternal>
14.0478763580322

> <i_i_glide_confnum>
69

> <i_i_glide_posenum>
163

> <r_i_glide_eff_state_penalty>
0

> <s_user_duplicate_titles>
CHEMBL3045_lig181,293377

> <s_m_subgroup_title>
dock_pv

> <s_m_subgroupid>
dock_pv

> <b_m_subgroup_collapsed>
1

$$$$
CHEMBL3045_lig309
                    3D
 Schrodinger Suite 2021-1.
 36 38  0  0  1  0            999 V2000
   33.6110   55.7607   30.5142 C   0  0  0  0  0  0
   34.7680   55.5964   29.7616 C   0  0  0  0  0  0
   36.0133   55.5731   30.3751 C   0  0  0  0  0  0
   33.6828   55.9072   31.8910 C   0  0  0  0  0  0
   34.9365   55.8924   32.5499 C   0  0  0  0  0  0
   36.1297   55.7175   31.7838 C   0  0  0  0  0  0
   37.3656   55.6836   32.4932 C   0  0  0  0  0  0
   37.4324   55.8115   33.8433 N   0  0  0  0  0  0
   36.2960   56.0026   34.5666 C   0  0  0  0  0  0
   35.0396   56.0452   33.9500 C   0  0  0  0  0  0
   36.4617   56.2117   36.0443 C   0  0  0  0  0  0
   35.3679   56.1207   36.9238 C   0  0  0  0  0  0
   35.5470   56.3730   38.2828 C   0  0  0  0  0  0
   36.7443   56.6973   38.8291 N   0  0  0  0  0  0
   37.8081   56.7603   37.9921 C   0  0  0  0  0  0
   37.7098   56.5335   36.6169 C   0  0  0  0  0  0
   38.5706   55.5464   31.7739 N   0  0  0  0  0  0
   39.8132   55.0696   32.3768 C   0  0  0  0  0  0
   40.0110   53.5487   32.2247 C   0  0  0  0  0  0
   40.2440   53.1719   30.8374 N   0  0  0  0  0  0
   32.6435   55.7677   30.0353 H   0  0  0  0  0  0
   34.7014   55.4611   28.6898 H   0  0  0  0  0  0
   36.8906   55.4036   29.7689 H   0  0  0  0  0  0
   32.7661   56.0271   32.4417 H   0  0  0  0  0  0
   34.1348   56.2068   34.5109 H   0  0  0  0  0  0
   34.3740   55.8751   36.5794 H   0  0  0  0  0  0
   34.7013   56.3715   38.9506 H   0  0  0  0  0  0
   38.7585   57.0065   38.4453 H   0  0  0  0  0  0
   38.5961   56.6162   36.0040 H   0  0  0  0  0  0
   38.4901   55.3793   30.7824 H   0  0  0  0  0  0
   40.6463   55.5999   31.9137 H   0  0  0  0  0  0
   39.8571   55.3349   33.4335 H   0  0  0  0  0  0
   40.8731   53.2310   32.8141 H   0  0  0  0  0  0
   39.1480   53.0041   32.6146 H   0  0  0  0  0  0
   40.3508   52.1638   30.7876 H   0  0  0  0  0  0
   39.4408   53.3766   30.2526 H   0  0  0  0  0  0
  1  2  2  0  0  0
  1  4  1  0  0  0
  1 21  1  0  0  0
  2  3  1  0  0  0
  2 22  1  0  0  0
  3  6  2  0  0  0
  3 23  1  0  0  0
  4  5  2  0  0  0
  4 24  1  0  0  0
  5 10  1  0  0  0
  5  6  1  0  0  0
  6  7  1  0  0  0
  7  8  2  0  0  0
  7 17  1  0  0  0
  8  9  1  0  0  0
  9 10  2  0  0  0
  9 11  1  0  0  0
 10 25  1  0  0  0
 11 12  2  0  0  0
 11 16  1  0  0  0
 12 13  1  0  0  0
 12 26  1  0  0  0
 13 14  2  0  0  0
 13 27  1  0  0  0
 14 15  1  0  0  0
 15 16  2  0  0  0
 15 28  1  0  0  0
 16 29  1  0  0  0
 17 18  1  0  0  0
 17 30  1  0  0  0
 18 19  1  0  0  0
 18 31  1  0  0  0
 18 32  1  0  0  0
 19 20  1  0  0  0
 19 33  1  0  0  0
 19 34  1  0  0  0
 20 35  1  0  0  0
 20 36  1  0  0  0
M  END
> <s_m_entry_id>
3481

> <s_m_entry_name>
dock_pv.210

> <s_m_Source_Path>
/home/csk/Desktop/cluster/DUD-E-result/kpcb

> <s_m_Source_File>
dock_pv.maegz

> <i_m_Source_File_Index>
210

> <chembl_id>
CHEMBL2147531

> <chembl_pref_name>
None

> <i_lp_mmshare_version>
53161

> <i_f3d_flags>
0

> <r_lp_tautomer_probability>
1

> <s_lp_Force_Field>
OPLS_2005

> <r_lp_Energy>
11.261623

> <b_lp_Chiralities_Consistent>
1

> <s_lp_Variant>
CHEMBL3045_lig309-1

> <s_i_glide_gridfile>
glide-grid_2i0e

> <i_i_glide_lignum>
471

> <i_i_glide_rotatable_bonds>
4

> <r_i_docking_score>
-7.01397587039172

> <r_i_glide_ligand_efficiency>
-0.350698793519586

> <r_i_glide_ligand_efficiency_sa>
-0.951942982297555

> <r_i_glide_ligand_efficiency_ln>
-1.75536682395219

> <r_i_glide_gscore>
-7.01397587039172

> <r_i_glide_lipo>
-2.89157236292341

> <r_i_glide_hbond>
-0.485611774841192

> <r_i_glide_metal>
0

> <r_i_glide_rewards>
-1.92834730201387

> <r_i_glide_evdw>
-34.4960670471191

> <r_i_glide_ecoul>
-4.97919416427612

> <r_i_glide_erotb>
0.763238046384128

> <r_i_glide_esite>
0

> <r_i_glide_emodel>
-55.8740278133946

> <r_i_glide_energy>
-39.4752612113953

> <r_i_glide_einternal>
1.37528479099274

> <i_i_glide_confnum>
9

> <i_i_glide_posenum>
280

> <r_i_glide_eff_state_penalty>
0

> <s_user_duplicate_titles>
CHEMBL3045_lig309

> <s_m_subgroup_title>
dock_pv

> <s_m_subgroupid>
dock_pv

> <b_m_subgroup_collapsed>
1

$$$$
CHEMBL3045_lig310
                    3D
 Schrodinger Suite 2021-1.
 35 37  0  0  1  0            999 V2000
   33.9787   56.1865   30.5078 C   0  0  0  0  0  0
   35.0759   55.7761   29.7579 C   0  0  0  0  0  0
   36.2891   55.5710   30.4068 C   0  0  0  0  0  0
   34.0256   56.4074   31.8429 N   0  0  0  0  0  0
   35.2073   56.2024   32.4877 C   0  0  0  0  0  0
   36.3863   55.7740   31.8060 C   0  0  0  0  0  0
   37.5603   55.5705   32.5842 C   0  0  0  0  0  0
   37.5832   55.7833   33.9247 N   0  0  0  0  0  0
   36.4554   56.1839   34.5654 C   0  0  0  0  0  0
   35.2583   56.4131   33.8804 C   0  0  0  0  0  0
   36.5632   56.3843   36.0428 C   0  0  0  0  0  0
   37.7841   56.7166   36.6602 C   0  0  0  0  0  0
   37.8288   56.8994   38.0431 C   0  0  0  0  0  0
   36.7368   56.7721   38.8369 N   0  0  0  0  0  0
   35.5634   56.4482   38.2406 C   0  0  0  0  0  0
   35.4380   56.2439   36.8701 C   0  0  0  0  0  0
   38.7509   55.1582   31.9522 N   0  0  0  0  0  0
   39.9866   54.8663   32.6783 C   0  0  0  0  0  0
   40.1055   53.3911   33.0964 C   0  0  0  0  0  0
   41.3782   53.1719   33.7632 N   0  0  0  0  0  0
   33.0166   56.3373   30.0369 H   0  0  0  0  0  0
   34.9779   55.5769   28.6971 H   0  0  0  0  0  0
   37.1398   55.2071   29.8466 H   0  0  0  0  0  0
   34.3679   56.7428   34.3910 H   0  0  0  0  0  0
   38.6837   56.8362   36.0739 H   0  0  0  0  0  0
   38.7554   57.1517   38.5360 H   0  0  0  0  0  0
   34.7010   56.3733   38.8834 H   0  0  0  0  0  0
   34.4703   55.9787   36.4698 H   0  0  0  0  0  0
   38.6487   54.6858   31.0640 H   0  0  0  0  0  0
   40.8205   55.1428   32.0311 H   0  0  0  0  0  0
   40.0824   55.5109   33.5538 H   0  0  0  0  0  0
   39.2945   53.1202   33.7774 H   0  0  0  0  0  0
   40.0319   52.7287   32.2295 H   0  0  0  0  0  0
   41.4484   52.2020   34.0594 H   0  0  0  0  0  0
   42.1416   53.2903   33.1069 H   0  0  0  0  0  0
  1  2  2  0  0  0
  1  4  1  0  0  0
  1 21  1  0  0  0
  2  3  1  0  0  0
  2 22  1  0  0  0
  3  6  2  0  0  0
  3 23  1  0  0  0
  4  5  2  0  0  0
  5 10  1  0  0  0
  5  6  1  0  0  0
  6  7  1  0  0  0
  7  8  2  0  0  0
  7 17  1  0  0  0
  8  9  1  0  0  0
  9 10  2  0  0  0
  9 11  1  0  0  0
 10 24  1  0  0  0
 11 12  2  0  0  0
 11 16  1  0  0  0
 12 13  1  0  0  0
 12 25  1  0  0  0
 13 14  2  0  0  0
 13 26  1  0  0  0
 14 15  1  0  0  0
 15 16  2  0  0  0
 15 27  1  0  0  0
 16 28  1  0  0  0
 17 18  1  0  0  0
 17 29  1  0  0  0
 18 19  1  0  0  0
 18 30  1  0  0  0
 18 31  1  0  0  0
 19 20  1  0  0  0
 19 32  1  0  0  0
 19 33  1  0  0  0
 20 34  1  0  0  0
 20 35  1  0  0  0
M  END
> <s_m_entry_id>
3482

> <s_m_entry_name>
dock_pv.211

> <s_m_Source_Path>
/home/csk/Desktop/cluster/DUD-E-result/kpcb

> <s_m_Source_File>
dock_pv.maegz

> <i_m_Source_File_Index>
211

> <chembl_id>
CHEMBL2147532

> <chembl_pref_name>
None

> <i_lp_mmshare_version>
53161

> <i_f3d_flags>
0

> <r_lp_tautomer_probability>
1

> <s_lp_Force_Field>
OPLS_2005

> <r_lp_Energy>
3.250686

> <b_lp_Chiralities_Consistent>
1

> <s_lp_Variant>
CHEMBL3045_lig310-1

> <s_i_glide_gridfile>
glide-grid_2i0e

> <i_i_glide_lignum>
472

> <i_i_glide_rotatable_bonds>
4

> <r_i_docking_score>
-7.01043500194301

> <r_i_glide_ligand_efficiency>
-0.35052175009715

> <r_i_glide_ligand_efficiency_sa>
-0.951462412513274

> <r_i_glide_ligand_efficiency_ln>
-1.75448066136513

> <r_i_glide_gscore>
-7.01043500194301

> <r_i_glide_lipo>
-2.61852158315675

> <r_i_glide_hbond>
-0.474653072541759

> <r_i_glide_metal>
0

> <r_i_glide_rewards>
-2.14251026965536

> <r_i_glide_evdw>
-34.6820831298828

> <r_i_glide_ecoul>
-5.32656621932983

> <r_i_glide_erotb>
0.758339012804475

> <r_i_glide_esite>
0

> <r_i_glide_emodel>
-57.4070101332211

> <r_i_glide_energy>
-40.0086493492126

> <r_i_glide_einternal>
0.911886930465698

> <i_i_glide_confnum>
9

> <i_i_glide_posenum>
174

> <r_i_glide_eff_state_penalty>
0

> <s_user_duplicate_titles>
CHEMBL3045_lig310

> <s_m_subgroup_title>
dock_pv

> <s_m_subgroupid>
dock_pv

> <b_m_subgroup_collapsed>
1

$$$$
CHEMBL3045_lig269
                    3D
 Schrodinger Suite 2021-1.
 34 36  0  0  1  0            999 V2000
   36.7002   57.1712   39.2365 O   0  0  0  0  0  0
   37.5496   56.7415   38.4605 C   0  0  0  0  0  0
   38.8327   56.6098   38.8772 N   0  0  0  0  0  0
   39.9193   55.8981   38.1559 C   0  0  0  0  0  0
   39.8918   56.1398   36.6139 C   0  0  2  0  0  0
   40.5627   57.4635   36.1975 C   0  0  0  0  0  0
   40.9541   57.5663   34.7096 C   0  0  0  0  0  0
   39.9265   57.5692   33.8634 F   0  0  0  0  0  0
   38.4378   56.1038   36.2091 C   0  0  0  0  0  0
   37.9427   55.8801   34.9567 N   0  0  0  0  0  0
   37.3852   56.3786   37.0682 C   0  0  0  0  0  0
   36.2285   56.3158   36.2721 C   0  0  0  0  0  0
   36.5780   56.0081   34.9550 C   0  0  0  0  0  0
   35.7567   55.8246   33.7276 C   0  0  0  0  0  0
   34.3854   55.5717   33.8147 C   0  0  0  0  0  0
   33.7295   55.2860   32.6176 C   0  0  0  0  0  0
   36.4156   55.8299   32.5323 N   0  0  0  0  0  0
   35.6666   55.5731   31.4307 C   0  0  0  0  0  0
   34.3453   55.2942   31.4138 N   0  0  0  0  0  0
   36.3014   55.5721   30.2020 N   0  0  0  0  0  0
   39.0052   56.8987   39.8306 H   0  0  0  0  0  0
   39.8413   54.8272   38.3590 H   0  0  0  0  0  0
   40.8782   56.1978   38.5792 H   0  0  0  0  0  0
   40.4359   55.3159   36.1486 H   0  0  0  0  0  0
   41.4767   57.5873   36.7792 H   0  0  0  0  0  0
   39.9059   58.2953   36.4652 H   0  0  0  0  0  0
   41.6014   56.7389   34.4162 H   0  0  0  0  0  0
   41.5040   58.4879   34.5197 H   0  0  0  0  0  0
   38.5044   55.6888   34.1387 H   0  0  0  0  0  0
   35.2252   56.5036   36.6301 H   0  0  0  0  0  0
   33.8650   55.5374   34.7619 H   0  0  0  0  0  0
   32.7010   55.0042   32.5975 H   0  0  0  0  0  0
   35.7973   55.1873   29.4143 H   0  0  0  0  0  0
   37.3100   55.5538   30.2066 H   0  0  0  0  0  0
  1  2  2  0  0  0
  2  3  1  0  0  0
  2 11  1  0  0  0
  3  4  1  0  0  0
  3 21  1  0  0  0
  4  5  1  0  0  0
  4 22  1  0  0  0
  4 23  1  0  0  0
  5  6  1  0  0  0
  5  9  1  0  0  0
  5 24  1  0  0  0
  6  7  1  0  0  0
  6 25  1  0  0  0
  6 26  1  0  0  0
  7  8  1  0  0  0
  7 27  1  0  0  0
  7 28  1  0  0  0
  9 11  2  0  0  0
  9 10  1  0  0  0
 10 13  1  0  0  0
 10 29  1  0  0  0
 11 12  1  0  0  0
 12 13  2  0  0  0
 12 30  1  0  0  0
 13 14  1  0  0  0
 14 17  2  0  0  0
 14 15  1  0  0  0
 15 16  2  0  0  0
 15 31  1  0  0  0
 16 19  1  0  0  0
 16 32  1  0  0  0
 17 18  1  0  0  0
 18 20  1  0  0  0
 18 19  2  0  0  0
 20 33  1  0  0  0
 20 34  1  0  0  0
M  END
> <s_m_entry_id>
3483

> <s_m_entry_name>
dock_pv.212

> <s_m_Source_Path>
/home/csk/Desktop/cluster/DUD-E-result/kpcb

> <s_m_Source_File>
dock_pv.maegz

> <i_m_Source_File_Index>
212

> <chembl_id>
CHEMBL524266

> <chembl_pref_name>
None

> <i_lp_mmshare_version>
53161

> <i_f3d_flags>
0

> <r_lp_tautomer_probability>
0.999999987636

> <s_lp_Force_Field>
OPLS_2005

> <r_lp_Energy>
7.175171

> <b_lp_Chiralities_Consistent>
1

> <s_lp_Variant>
CHEMBL3045_lig269-1

> <s_i_glide_gridfile>
glide-grid_2i0e

> <i_i_glide_lignum>
429

> <i_i_glide_rotatable_bonds>
3

> <r_i_docking_score>
-7.00878547132996

> <r_i_glide_ligand_efficiency>
-0.350439273566498

> <r_i_glide_ligand_efficiency_sa>
-0.951238536765738

> <r_i_glide_ligand_efficiency_ln>
-1.75406783825785

> <r_i_glide_gscore>
-7.00878547132996

> <r_i_glide_lipo>
-1.79900482377432

> <r_i_glide_hbond>
-0.32

> <r_i_glide_metal>
0

> <r_i_glide_rewards>
-2.95130398653057

> <r_i_glide_evdw>
-32.6317176818848

> <r_i_glide_ecoul>
-5.20800113677979

> <r_i_glide_erotb>
0.474309393586135

> <r_i_glide_esite>
0

> <r_i_glide_emodel>
-54.7876931154068

> <r_i_glide_energy>
-37.8397188186646

> <r_i_glide_einternal>
0.693777680397034

> <i_i_glide_confnum>
1

> <i_i_glide_posenum>
286

> <r_i_glide_eff_state_penalty>
0

> <s_user_duplicate_titles>
CHEMBL3045_lig269

> <s_m_subgroup_title>
dock_pv

> <s_m_subgroupid>
dock_pv

> <b_m_subgroup_collapsed>
1

$$$$
CHEMBL3045_lig324
                    3D
 Schrodinger Suite 2021-1.
 34 36  0  0  1  0            999 V2000
   34.1706   56.3720   30.3185 N   0  0  0  0  0  0
   35.2747   55.8539   29.7384 C   0  0  0  0  0  0
   36.4452   55.5720   30.4370 C   0  0  0  0  0  0
   34.2263   56.6351   31.6388 C   0  0  0  0  0  0
   35.3425   56.3532   32.4663 C   0  0  0  0  0  0
   36.4910   55.7845   31.8378 C   0  0  0  0  0  0
   37.6024   55.4475   32.6628 C   0  0  0  0  0  0
   37.5986   55.6788   34.0001 N   0  0  0  0  0  0
   36.5086   56.2337   34.5877 C   0  0  0  0  0  0
   35.3702   56.5925   33.8588 C   0  0  0  0  0  0
   36.5941   56.4290   36.0619 C   0  0  0  0  0  0
   35.4535   56.2955   36.8646 C   0  0  0  0  0  0
   35.5666   56.4717   38.2392 C   0  0  0  0  0  0
   36.7354   56.7730   38.8548 N   0  0  0  0  0  0
   37.8386   56.9005   38.0813 C   0  0  0  0  0  0
   37.8099   56.7390   36.6957 C   0  0  0  0  0  0
   38.7427   54.8398   32.0962 N   0  0  0  0  0  0
   39.7674   54.1928   32.9168 C   0  0  0  0  0  0
   39.4833   52.6981   33.1772 C   0  0  0  0  0  0
   39.9012   52.3717   34.4881 O   0  0  0  0  0  0
   35.2044   55.6372   28.6825 H   0  0  0  0  0  0
   37.2988   55.1694   29.9165 H   0  0  0  0  0  0
   33.3299   57.0756   32.0379 H   0  0  0  0  0  0
   34.5151   57.0384   34.3413 H   0  0  0  0  0  0
   34.4926   56.0445   36.4395 H   0  0  0  0  0  0
   34.7017   56.3720   38.8724 H   0  0  0  0  0  0
   38.7616   57.1303   38.5944 H   0  0  0  0  0  0
   38.7203   56.8452   36.1236 H   0  0  0  0  0  0
   38.6294   54.4592   31.1667 H   0  0  0  0  0  0
   40.7202   54.2953   32.3966 H   0  0  0  0  0  0
   39.9286   54.7305   33.8514 H   0  0  0  0  0  0
   38.4249   52.4451   33.1006 H   0  0  0  0  0  0
   40.0779   52.0679   32.5139 H   0  0  0  0  0  0
   40.5860   51.6894   34.4350 H   0  0  0  0  0  0
  1  2  2  0  0  0
  1  4  1  0  0  0
  2  3  1  0  0  0
  2 21  1  0  0  0
  3  6  2  0  0  0
  3 22  1  0  0  0
  4  5  2  0  0  0
  4 23  1  0  0  0
  5 10  1  0  0  0
  5  6  1  0  0  0
  6  7  1  0  0  0
  7  8  2  0  0  0
  7 17  1  0  0  0
  8  9  1  0  0  0
  9 10  2  0  0  0
  9 11  1  0  0  0
 10 24  1  0  0  0
 11 12  2  0  0  0
 11 16  1  0  0  0
 12 13  1  0  0  0
 12 25  1  0  0  0
 13 14  2  0  0  0
 13 26  1  0  0  0
 14 15  1  0  0  0
 15 16  2  0  0  0
 15 27  1  0  0  0
 16 28  1  0  0  0
 17 18  1  0  0  0
 17 29  1  0  0  0
 18 19  1  0  0  0
 18 30  1  0  0  0
 18 31  1  0  0  0
 19 20  1  0  0  0
 19 32  1  0  0  0
 19 33  1  0  0  0
 20 34  1  0  0  0
M  END
> <s_m_entry_id>
3484

> <s_m_entry_name>
dock_pv.213

> <s_m_Source_Path>
/home/csk/Desktop/cluster/DUD-E-result/kpcb

> <s_m_Source_File>
dock_pv.maegz

> <i_m_Source_File_Index>
213

> <chembl_id>
CHEMBL2147545

> <chembl_pref_name>
None

> <i_lp_mmshare_version>
53161

> <i_f3d_flags>
0

> <r_lp_tautomer_probability>
1

> <s_lp_Force_Field>
OPLS_2005

> <r_lp_Energy>
15.999887

> <b_lp_Chiralities_Consistent>
1

> <s_lp_Variant>
CHEMBL3045_lig324-1

> <s_i_glide_gridfile>
glide-grid_2i0e

> <i_i_glide_lignum>
488

> <i_i_glide_rotatable_bonds>
5

> <r_i_docking_score>
-6.99833615885814

> <r_i_glide_ligand_efficiency>
-0.349916807942907

> <r_i_glide_ligand_efficiency_sa>
-0.949820346874414

> <r_i_glide_ligand_efficiency_ln>
-1.75145271998754

> <r_i_glide_gscore>
-6.99833615885814

> <r_i_glide_lipo>
-2.73502232840954

> <r_i_glide_hbond>
-0.51175649530168

> <r_i_glide_metal>
0

> <r_i_glide_rewards>
-2.1006530285054

> <r_i_glide_evdw>
-35.0464706420898

> <r_i_glide_ecoul>
-6.02168083190918

> <r_i_glide_erotb>
1.00467135024935

> <r_i_glide_esite>
0

> <r_i_glide_emodel>
-56.8246493012859

> <r_i_glide_energy>
-41.068151473999

> <r_i_glide_einternal>
3.97756433486938

> <i_i_glide_confnum>
67

> <i_i_glide_posenum>
99

> <r_i_glide_eff_state_penalty>
0

> <s_user_duplicate_titles>
CHEMBL3045_lig324

> <s_m_subgroup_title>
dock_pv

> <s_m_subgroupid>
dock_pv

> <b_m_subgroup_collapsed>
1

$$$$
CHEMBL3045_lig330
                    3D
 Schrodinger Suite 2021-1.
 41 43  0  0  1  0            999 V2000
   34.7499   54.8900   31.6492 C   0  0  0  0  0  0
   34.9678   56.2416   30.9448 C   0  0  0  0  0  0
   33.7324   57.1274   31.1486 C   0  0  0  0  0  0
   40.9412   52.5904   32.4369 N   0  0  0  0  0  0
   40.4940   53.1724   31.3007 C   0  0  0  0  0  0
   39.5137   54.1619   31.2743 C   0  0  0  0  0  0
   40.3959   52.9979   33.6050 C   0  0  0  0  0  0
   39.3997   53.9952   33.7164 C   0  0  0  0  0  0
   38.9420   54.6012   32.5066 C   0  0  0  0  0  0
   37.9340   55.6000   32.6224 C   0  0  0  0  0  0
   37.4171   55.9864   33.8214 N   0  0  0  0  0  0
   37.8729   55.4095   34.9633 C   0  0  0  0  0  0
   38.8526   54.4132   34.9525 C   0  0  0  0  0  0
   37.3081   55.9166   36.2490 C   0  0  0  0  0  0
   38.1859   56.3293   37.2651 C   0  0  0  0  0  0
   37.6751   56.7483   38.4948 C   0  0  0  0  0  0
   36.3491   56.7726   38.7688 N   0  0  0  0  0  0
   35.5009   56.3739   37.7895 C   0  0  0  0  0  0
   35.9254   55.9546   36.5274 C   0  0  0  0  0  0
   37.4668   56.2378   31.4568 N   0  0  0  0  0  0
   36.2264   57.0141   31.4293 C   0  0  0  0  0  0
   35.1011   55.9720   29.5239 N   0  0  0  0  0  0
   34.7249   55.4154   35.4055 Cl  0  0  0  0  0  0
   34.6036   55.0234   32.7182 H   0  0  0  0  0  0
   35.6040   54.2272   31.5248 H   0  0  0  0  0  0
   33.8708   54.3724   31.2639 H   0  0  0  0  0  0
   33.5010   57.1667   32.2072 H   0  0  0  0  0  0
   33.8984   58.1557   30.8370 H   0  0  0  0  0  0
   32.8505   56.7498   30.6281 H   0  0  0  0  0  0
   40.9293   52.8094   30.3812 H   0  0  0  0  0  0
   39.1937   54.5748   30.3282 H   0  0  0  0  0  0
   40.7699   52.5025   34.4901 H   0  0  0  0  0  0
   39.2006   53.9621   35.8711 H   0  0  0  0  0  0
   39.2549   56.3109   37.1078 H   0  0  0  0  0  0
   38.3354   57.0531   39.2944 H   0  0  0  0  0  0
   34.4492   56.3728   38.0363 H   0  0  0  0  0  0
   37.7721   55.8439   30.5791 H   0  0  0  0  0  0
   36.3965   57.8763   30.7831 H   0  0  0  0  0  0
   36.0303   57.4501   32.4096 H   0  0  0  0  0  0
   35.7623   55.2204   29.3810 H   0  0  0  0  0  0
   34.2160   55.6419   29.1500 H   0  0  0  0  0  0
  1  2  1  0  0  0
  1 24  1  0  0  0
  1 25  1  0  0  0
  1 26  1  0  0  0
  2  3  1  0  0  0
  2 21  1  0  0  0
  2 22  1  0  0  0
  3 27  1  0  0  0
  3 28  1  0  0  0
  3 29  1  0  0  0
  4  7  1  0  0  0
  4  5  2  0  0  0
  5  6  1  0  0  0
  5 30  1  0  0  0
  6  9  2  0  0  0
  6 31  1  0  0  0
  7  8  2  0  0  0
  7 32  1  0  0  0
  8 13  1  0  0  0
  8  9  1  0  0  0
  9 10  1  0  0  0
 10 20  1  0  0  0
 10 11  2  0  0  0
 11 12  1  0  0  0
 12 13  2  0  0  0
 12 14  1  0  0  0
 13 33  1  0  0  0
 14 15  2  0  0  0
 14 19  1  0  0  0
 15 16  1  0  0  0
 15 34  1  0  0  0
 16 17  2  0  0  0
 16 35  1  0  0  0
 17 18  1  0  0  0
 18 19  2  0  0  0
 18 36  1  0  0  0
 19 23  1  0  0  0
 20 21  1  0  0  0
 20 37  1  0  0  0
 21 38  1  0  0  0
 21 39  1  0  0  0
 22 40  1  0  0  0
 22 41  1  0  0  0
M  END
> <s_m_entry_id>
3485

> <s_m_entry_name>
dock_pv.214

> <s_m_Source_Path>
/home/csk/Desktop/cluster/DUD-E-result/kpcb

> <s_m_Source_File>
dock_pv.maegz

> <i_m_Source_File_Index>
214

> <chembl_id>
CHEMBL2147551

> <chembl_pref_name>
None

> <i_lp_mmshare_version>
53161

> <i_f3d_flags>
0

> <r_lp_tautomer_probability>
1

> <s_lp_Force_Field>
OPLS_2005

> <r_lp_Energy>
20.199844

> <b_lp_Chiralities_Consistent>
1

> <s_lp_Variant>
CHEMBL3045_lig330-1

> <s_i_glide_gridfile>
glide-grid_2i0e

> <i_i_glide_lignum>
494

> <i_i_glide_rotatable_bonds>
4

> <r_i_docking_score>
-6.979094837061

> <r_i_glide_ligand_efficiency>
-0.303438905959174

> <r_i_glide_ligand_efficiency_sa>
-0.862939884157665

> <r_i_glide_ligand_efficiency_ln>
-1.68760841453455

> <r_i_glide_gscore>
-6.979094837061

> <r_i_glide_lipo>
-2.52807919804926

> <r_i_glide_hbond>
-0.341181678113531

> <r_i_glide_metal>
0

> <r_i_glide_rewards>
-2.06568243939394

> <r_i_glide_evdw>
-39.0568733215332

> <r_i_glide_ecoul>
-4.10270023345947

> <r_i_glide_erotb>
0.524097179591306

> <r_i_glide_esite>
0

> <r_i_glide_emodel>
-61.3843644587229

> <r_i_glide_energy>
-43.1595735549927

> <r_i_glide_einternal>
1.14117586612701

> <i_i_glide_confnum>
14

> <i_i_glide_posenum>
305

> <r_i_glide_eff_state_penalty>
0

> <s_user_duplicate_titles>
CHEMBL3045_lig330

> <s_m_subgroup_title>
dock_pv

> <s_m_subgroupid>
dock_pv

> <b_m_subgroup_collapsed>
1

$$$$
CHEMBL3045_lig469
                    3D
 Schrodinger Suite 2021-1.
 82 88  0  0  1  0            999 V2000
   41.6701   54.6089   31.3544 C   0  0  0  0  0  0
   40.7636   53.9139   32.3848 C   0  0  0  0  0  0
   40.2546   52.5567   31.8610 C   0  0  0  0  0  0
   39.6618   54.8028   32.8791 N   0  0  0  0  0  0
   39.9921   55.2745   34.2606 C   0  0  0  0  0  0
   41.1672   54.4185   34.6761 C   0  0  0  0  0  0
   42.0138   54.0181   35.7369 C   0  0  0  0  0  0
   41.9557   54.3145   37.0805 N   0  0  0  0  0  0
   41.5980   55.4984   37.6063 C   0  0  0  0  0  0
   41.3915   56.5185   36.9429 O   0  0  0  0  0  0
   41.5008   55.5314   39.1152 C   0  0  0  0  0  0
   41.2112   54.3752   39.8599 C   0  0  0  0  0  0
   41.0131   54.4458   41.2376 C   0  0  0  0  0  0
   41.1104   55.6718   41.8939 C   0  0  0  0  0  0
   41.4330   56.8247   41.1774 C   0  0  0  0  0  0
   41.5011   58.0436   41.8050 O   0  0  0  0  0  0
   42.7003   58.4719   42.3270 C   0  0  0  0  0  0
   43.0938   59.7877   42.0694 C   0  0  0  0  0  0
   44.2857   60.2785   42.5977 C   0  0  0  0  0  0
   45.0764   59.4522   43.3998 C   0  0  0  0  0  0
   44.6809   58.1431   43.6776 C   0  0  0  0  0  0
   43.4919   57.6520   43.1415 C   0  0  0  0  0  0
   41.6303   56.7479   39.7977 C   0  0  0  0  0  0
   42.8921   53.1195   35.3331 N   0  0  0  0  0  0
   42.6256   52.9256   34.0368 N   0  0  0  0  0  0
   41.5687   53.6828   33.6207 C   0  0  0  0  0  0
   38.6511   55.2526   32.0463 C   0  0  0  0  0  0
   38.6913   55.0155   30.8372 O   0  0  0  0  0  0
   37.6055   55.9973   32.5206 N   0  0  0  0  0  0
   36.7914   56.8248   31.5704 C   0  0  0  0  0  0
   35.3539   56.2431   31.4715 C   0  0  2  0  0  0
   34.3062   57.0275   30.6911 C   0  0  0  0  0  0
   32.9719   56.5364   31.2653 C   0  0  0  0  0  0
   33.3825   55.6272   32.4246 C   0  0  0  0  0  0
   34.7238   56.0724   32.7724 N   0  0  1  0  0  0
   35.5666   55.1764   33.5347 C   0  0  0  0  0  0
   36.9601   55.7757   33.8363 C   0  0  2  0  0  0
   36.9822   57.0569   34.6957 C   0  0  0  0  0  0
   37.0122   56.8671   36.2004 C   0  0  0  0  0  0
   38.1838   57.1745   36.8971 C   0  0  0  0  0  0
   38.2109   57.0904   38.2824 C   0  0  0  0  0  0
   37.0692   56.6905   38.9625 C   0  0  0  0  0  0
   35.8990   56.3716   38.2776 C   0  0  0  0  0  0
   35.8689   56.4586   36.8880 C   0  0  0  0  0  0
   42.5399   54.0004   31.1023 H   0  0  0  0  0  0
   41.1237   54.7782   30.4365 H   0  0  0  0  0  0
   42.0299   55.5730   31.7137 H   0  0  0  0  0  0
   41.0995   51.9057   31.6346 H   0  0  0  0  0  0
   39.6301   52.0409   32.5906 H   0  0  0  0  0  0
   39.6784   52.6577   30.9409 H   0  0  0  0  0  0
   39.2053   55.1481   34.9930 H   0  0  0  0  0  0
   40.2520   56.3345   34.2388 H   0  0  0  0  0  0
   42.4564   53.6768   37.6829 H   0  0  0  0  0  0
   41.1017   53.4139   39.3751 H   0  0  0  0  0  0
   40.7587   53.5547   41.7890 H   0  0  0  0  0  0
   40.9444   55.7301   42.9568 H   0  0  0  0  0  0
   42.4731   60.4234   41.4541 H   0  0  0  0  0  0
   44.5964   61.2935   42.3885 H   0  0  0  0  0  0
   46.0023   59.8313   43.8113 H   0  0  0  0  0  0
   45.2907   57.5121   44.3096 H   0  0  0  0  0  0
   43.1844   56.6417   43.3699 H   0  0  0  0  0  0
   41.8631   57.6510   39.2546 H   0  0  0  0  0  0
   43.1392   52.2619   33.4617 H   0  0  0  0  0  0
   36.6963   57.8118   32.0130 H   0  0  0  0  0  0
   37.2442   56.9576   30.5869 H   0  0  0  0  0  0
   35.4983   55.2941   30.9458 H   0  0  0  0  0  0
   34.4418   58.0991   30.8370 H   0  0  0  0  0  0
   34.3501   56.7722   29.6317 H   0  0  0  0  0  0
   32.3895   55.9878   30.5246 H   0  0  0  0  0  0
   32.3619   57.3706   31.6178 H   0  0  0  0  0  0
   33.3584   54.5691   32.1561 H   0  0  0  0  0  0
   32.7223   55.7206   33.2868 H   0  0  0  0  0  0
   35.7468   54.3655   32.8427 H   0  0  0  0  0  0
   35.0723   54.7762   34.4212 H   0  0  0  0  0  0
   37.4647   54.9703   34.3581 H   0  0  0  0  0  0
   37.9023   57.5730   34.4343 H   0  0  0  0  0  0
   36.1707   57.7345   34.4266 H   0  0  0  0  0  0
   39.0698   57.4992   36.3729 H   0  0  0  0  0  0
   39.1098   57.3388   38.8231 H   0  0  0  0  0  0
   37.1052   56.6254   40.0365 H   0  0  0  0  0  0
   35.0192   56.0633   38.8230 H   0  0  0  0  0  0
   34.9555   56.2346   36.3546 H   0  0  0  0  0  0
  1  2  1  0  0  0
  1 45  1  0  0  0
  1 46  1  0  0  0
  1 47  1  0  0  0
  2  3  1  0  0  0
  2  4  1  0  0  0
  2 26  1  0  0  0
  3 48  1  0  0  0
  3 49  1  0  0  0
  3 50  1  0  0  0
  4  5  1  0  0  0
  4 27  1  0  0  0
  5  6  1  0  0  0
  5 51  1  0  0  0
  5 52  1  0  0  0
  6  7  1  0  0  0
  6 26  2  0  0  0
  7  8  1  0  0  0
  7 24  2  0  0  0
  8  9  1  0  0  0
  8 53  1  0  0  0
  9 10  2  0  0  0
  9 11  1  0  0  0
 11 12  2  0  0  0
 11 23  1  0  0  0
 12 13  1  0  0  0
 12 54  1  0  0  0
 13 14  2  0  0  0
 13 55  1  0  0  0
 14 15  1  0  0  0
 14 56  1  0  0  0
 15 16  1  0  0  0
 15 23  2  0  0  0
 16 17  1  0  0  0
 17 18  2  0  0  0
 17 22  1  0  0  0
 18 19  1  0  0  0
 18 57  1  0  0  0
 19 20  2  0  0  0
 19 58  1  0  0  0
 20 21  1  0  0  0
 20 59  1  0  0  0
 21 22  2  0  0  0
 21 60  1  0  0  0
 22 61  1  0  0  0
 23 62  1  0  0  0
 24 25  1  0  0  0
 25 26  1  0  0  0
 25 63  1  0  0  0
 27 28  2  0  0  0
 27 29  1  0  0  0
 29 30  1  0  0  0
 29 37  1  0  0  0
 30 31  1  0  0  0
 30 64  1  0  0  0
 30 65  1  0  0  0
 31 32  1  0  0  0
 31 35  1  0  0  0
 31 66  1  0  0  0
 32 33  1  0  0  0
 32 67  1  0  0  0
 32 68  1  0  0  0
 33 34  1  0  0  0
 33 69  1  0  0  0
 33 70  1  0  0  0
 34 35  1  0  0  0
 34 71  1  0  0  0
 34 72  1  0  0  0
 35 36  1  0  0  0
 36 37  1  0  0  0
 36 73  1  0  0  0
 36 74  1  0  0  0
 37 38  1  0  0  0
 37 75  1  0  0  0
 38 39  1  0  0  0
 38 76  1  0  0  0
 38 77  1  0  0  0
 39 40  2  0  0  0
 39 44  1  0  0  0
 40 41  1  0  0  0
 40 78  1  0  0  0
 41 42  2  0  0  0
 41 79  1  0  0  0
 42 43  1  0  0  0
 42 80  1  0  0  0
 43 44  2  0  0  0
 43 81  1  0  0  0
 44 82  1  0  0  0
M  END
> <s_m_entry_id>
3486

> <s_m_entry_name>
dock_pv.215

> <s_m_Source_Path>
/home/csk/Desktop/cluster/DUD-E-result/kpcb

> <s_m_Source_File>
dock_pv.maegz

> <i_m_Source_File_Index>
215

> <chembl_id>
CHEMBL3658624

> <chembl_pref_name>
None

> <i_lp_mmshare_version>
53161

> <i_f3d_flags>
0

> <r_lp_tautomer_probability>
0.5

> <s_lp_Force_Field>
OPLS_2005

> <r_lp_Energy>
126.686978

> <b_lp_Chiralities_Consistent>
1

> <s_lp_Variant>
CHEMBL3045_lig469-1

> <s_i_glide_gridfile>
glide-grid_2i0e

> <i_i_glide_lignum>
648

> <i_i_glide_rotatable_bonds>
9

> <r_i_docking_score>
-6.9769139262327

> <r_i_glide_ligand_efficiency>
-0.158566225596198

> <r_i_glide_ligand_efficiency_sa>
-0.559794009866352

> <r_i_glide_ligand_efficiency_ln>
-1.45832721110568

> <r_i_glide_gscore>
-6.9769139262327

> <r_i_glide_lipo>
-3.91648914630402

> <r_i_glide_hbond>
-0.15581318074386

> <r_i_glide_metal>
0

> <r_i_glide_rewards>
-0.294649027430416

> <r_i_glide_evdw>
-54.4540634155273

> <r_i_glide_ecoul>
-1.3592916727066

> <r_i_glide_erotb>
0.431478596196778

> <r_i_glide_esite>
-0.114844246268825

> <r_i_glide_emodel>
-66.4526802682427

> <r_i_glide_energy>
-55.8133550882339

> <r_i_glide_einternal>
16.738452911377

> <i_i_glide_confnum>
44

> <i_i_glide_posenum>
134

> <r_i_glide_eff_state_penalty>
0

> <s_user_duplicate_titles>
CHEMBL3045_lig469

> <s_m_subgroup_title>
dock_pv

> <s_m_subgroupid>
dock_pv

> <b_m_subgroup_collapsed>
1

$$$$
CHEMBL3045_lig593
                    3D
 Schrodinger Suite 2021-1.
 57 61  0  0  1  0            999 V2000
   42.1032   52.7720   35.8617 C   0  0  0  0  0  0
   42.4074   54.0952   36.5899 C   0  0  1  0  0  0
   43.7210   54.7667   36.0997 C   0  0  0  0  0  0
   43.5491   55.2642   34.7384 N   0  0  2  0  0  0
   44.6627   55.9018   34.0601 C   0  0  0  0  0  0
   44.0228   56.6428   32.8785 C   0  0  0  0  0  0
   42.5607   56.8585   33.2990 C   0  0  0  0  0  0
   42.5219   56.2905   34.7165 C   0  0  1  0  0  0
   41.1423   55.7925   35.1874 C   0  0  0  0  0  0
   41.2991   55.0878   36.4855 N   0  0  0  0  0  0
   40.6191   55.4600   37.6093 C   0  0  0  0  0  0
   41.1424   55.3464   38.7239 O   0  0  0  0  0  0
   39.3246   55.8923   37.4966 N   0  0  0  0  0  0
   38.4155   55.5719   36.3705 C   0  0  0  0  0  0
   37.0684   55.9788   36.8733 C   0  0  0  0  0  0
   35.7414   56.1114   36.5132 C   0  0  0  0  0  0
   35.0944   55.8823   35.3245 N   0  0  0  0  0  0
   35.4192   56.5344   34.1849 C   0  0  0  0  0  0
   36.2777   57.4196   34.1243 O   0  0  0  0  0  0
   34.6583   56.1272   32.9426 C   0  0  0  0  0  0
   34.9384   56.7244   31.7026 C   0  0  0  0  0  0
   34.2170   56.3179   30.5787 C   0  0  0  0  0  0
   33.2402   55.3318   30.7054 C   0  0  0  0  0  0
   33.0219   54.7722   31.9592 C   0  0  0  0  0  0
   33.7000   55.1646   33.0641 N   0  0  0  0  0  0
   35.1256   56.5751   37.6494 N   0  0  0  0  0  0
   35.9822   56.7678   38.6689 N   0  0  0  0  0  0
   37.1427   56.4120   38.1695 C   0  0  0  0  0  0
   38.5462   56.2911   38.6970 C   0  0  2  0  0  0
   39.0604   57.5726   39.3697 C   0  0  0  0  0  0
   42.9436   52.0831   35.9594 H   0  0  0  0  0  0
   41.2277   52.2737   36.2794 H   0  0  0  0  0  0
   41.9493   52.9193   34.7924 H   0  0  0  0  0  0
   42.5731   53.8113   37.6327 H   0  0  0  0  0  0
   43.9792   55.5985   36.7591 H   0  0  0  0  0  0
   44.5523   54.0613   36.1535 H   0  0  0  0  0  0
   45.2242   56.5620   34.7266 H   0  0  0  0  0  0
   45.3688   55.1307   33.7452 H   0  0  0  0  0  0
   44.5392   57.5840   32.6908 H   0  0  0  0  0  0
   44.0856   56.0458   31.9667 H   0  0  0  0  0  0
   41.8564   56.3595   32.6294 H   0  0  0  0  0  0
   42.3208   57.9217   33.3130 H   0  0  0  0  0  0
   42.7678   57.1009   35.4106 H   0  0  0  0  0  0
   40.7621   55.0642   34.4715 H   0  0  0  0  0  0
   40.4934   56.6661   35.2145 H   0  0  0  0  0  0
   38.4645   54.5093   36.1279 H   0  0  0  0  0  0
   38.6382   56.1331   35.4676 H   0  0  0  0  0  0
   34.3736   55.1758   35.2981 H   0  0  0  0  0  0
   35.6995   57.4866   31.6052 H   0  0  0  0  0  0
   34.4081   56.7596   29.6134 H   0  0  0  0  0  0
   32.6749   55.0080   29.8432 H   0  0  0  0  0  0
   32.2793   54.0021   32.0998 H   0  0  0  0  0  0
   34.1362   56.7728   37.7413 H   0  0  0  0  0  0
   38.5804   55.4828   39.4304 H   0  0  0  0  0  0
   38.3013   57.9705   40.0376 H   0  0  0  0  0  0
   39.9492   57.3718   39.9688 H   0  0  0  0  0  0
   39.3182   58.3696   38.6737 H   0  0  0  0  0  0
  1  2  1  0  0  0
  1 31  1  0  0  0
  1 32  1  0  0  0
  1 33  1  0  0  0
  2  3  1  0  0  0
  2 10  1  0  0  0
  2 34  1  0  0  0
  3  4  1  0  0  0
  3 35  1  0  0  0
  3 36  1  0  0  0
  4  5  1  0  0  0
  4  8  1  0  0  0
  5  6  1  0  0  0
  5 37  1  0  0  0
  5 38  1  0  0  0
  6  7  1  0  0  0
  6 39  1  0  0  0
  6 40  1  0  0  0
  7  8  1  0  0  0
  7 41  1  0  0  0
  7 42  1  0  0  0
  8  9  1  0  0  0
  8 43  1  0  0  0
  9 10  1  0  0  0
  9 44  1  0  0  0
  9 45  1  0  0  0
 10 11  1  0  0  0
 11 12  2  0  0  0
 11 13  1  0  0  0
 13 14  1  0  0  0
 13 29  1  0  0  0
 14 46  1  0  0  0
 14 47  1  0  0  0
 14 15  1  0  0  0
 15 16  2  0  0  0
 15 28  1  0  0  0
 16 26  1  0  0  0
 16 17  1  0  0  0
 17 18  1  0  0  0
 17 48  1  0  0  0
 18 19  2  0  0  0
 18 20  1  0  0  0
 20 21  2  0  0  0
 20 25  1  0  0  0
 21 22  1  0  0  0
 21 49  1  0  0  0
 22 23  2  0  0  0
 22 50  1  0  0  0
 23 24  1  0  0  0
 23 51  1  0  0  0
 24 25  2  0  0  0
 24 52  1  0  0  0
 26 27  1  0  0  0
 26 53  1  0  0  0
 27 28  2  0  0  0
 28 29  1  0  0  0
 29 30  1  0  0  0
 29 54  1  0  0  0
 30 55  1  0  0  0
 30 56  1  0  0  0
 30 57  1  0  0  0
M  END
> <s_m_entry_id>
3487

> <s_m_entry_name>
dock_pv.216

> <s_m_Source_Path>
/home/csk/Desktop/cluster/DUD-E-result/kpcb

> <s_m_Source_File>
dock_pv.maegz

> <i_m_Source_File_Index>
216

> <chembl_id>
CHEMBL3934903

> <chembl_pref_name>
None

> <i_lp_mmshare_version>
53161

> <i_f3d_flags>
0

> <r_lp_tautomer_probability>
0.5

> <s_lp_Force_Field>
OPLS_2005

> <r_lp_Energy>
108.719639

> <b_lp_Chiralities_Consistent>
1

> <s_lp_Variant>
CHEMBL3045_lig593-4

> <s_i_glide_gridfile>
glide-grid_2i0e

> <i_i_glide_lignum>
953

> <i_i_glide_rotatable_bonds>
5

> <r_i_docking_score>
-6.96725189746845

> <r_i_glide_ligand_efficiency>
-0.232241729915615

> <r_i_glide_ligand_efficiency_sa>
-0.721629051614622

> <r_i_glide_ligand_efficiency_ln>
-1.58303554539451

> <r_i_glide_gscore>
-6.96725189746845

> <r_i_glide_lipo>
-2.24327091532283

> <r_i_glide_hbond>
-0.542285521297335

> <r_i_glide_metal>
0

> <r_i_glide_rewards>
-1.84691090931525

> <r_i_glide_evdw>
-45.5237350463867

> <r_i_glide_ecoul>
-3.11316609382629

> <r_i_glide_erotb>
0.411022077209768

> <r_i_glide_esite>
-0.00264496234953126

> <r_i_glide_emodel>
-66.414458952405

> <r_i_glide_energy>
-48.636901140213

> <r_i_glide_einternal>
4.59445095062256

> <i_i_glide_confnum>
10

> <i_i_glide_posenum>
398

> <r_i_glide_eff_state_penalty>
0

> <s_user_duplicate_titles>
CHEMBL3045_lig593

> <s_m_subgroup_title>
dock_pv

> <s_m_subgroupid>
dock_pv

> <b_m_subgroup_collapsed>
1

$$$$
CHEMBL3045_lig70
                    3D
 Schrodinger Suite 2021-1.
 74 78  0  0  1  0            999 V2000
   35.6550   55.9974   31.5410 C   0  0  1  0  0  0
   42.7781   55.7967   33.6169 C   0  0  0  0  0  0
   36.4273   55.1721   32.6171 C   0  0  2  0  0  0
   44.1781   56.3056   33.8928 C   0  0  0  0  0  0
   35.7454   55.6090   33.9452 C   0  0  2  0  0  0
   34.2002   56.0251   32.0760 C   0  0  0  0  0  0
   45.2106   55.4051   34.5221 C   0  0  0  0  0  0
   34.7010   56.6313   33.4283 C   0  0  2  0  0  0
   36.6913   56.0991   34.9474 N   0  0  0  0  0  0
   37.8484   55.3896   32.5856 O   0  0  0  0  0  0
   42.5352   54.4594   33.2426 C   0  0  0  0  0  0
   41.6745   56.6692   33.6574 C   0  0  0  0  0  0
   38.7460   54.3830   32.8086 C   0  0  0  0  0  0
   36.4295   56.3328   36.2416 C   0  0  0  0  0  0
   45.0954   54.8917   35.8486 C   0  0  0  0  0  0
   40.1455   54.8869   33.0203 C   0  0  0  0  0  0
   36.0290   57.4860   31.6595 C   0  0  0  0  0  0
   44.0117   55.3238   36.8216 C   0  0  0  0  0  0
   40.3928   56.2257   33.3468 C   0  0  0  0  0  0
   41.2386   54.0108   32.9715 C   0  0  0  0  0  0
   35.4012   57.9353   32.9899 C   0  0  0  0  0  0
   37.6362   56.5758   37.1195 C   0  0  0  0  0  0
   44.4865   57.4713   33.6368 O   0  0  0  0  0  0
   46.3058   55.0083   33.7224 C   0  0  0  0  0  0
   38.4399   53.1888   32.8368 O   0  0  0  0  0  0
   35.2882   56.3206   36.7046 O   0  0  0  0  0  0
   43.5313   56.4565   36.8117 O   0  0  0  0  0  0
   37.4596   57.0471   38.4261 C   0  0  0  0  0  0
   38.9390   56.2963   36.6699 C   0  0  0  0  0  0
   43.5683   53.5720   33.1171 O   0  0  0  0  0  0
   41.7863   57.9746   34.0466 O   0  0  0  0  0  0
   35.9150   55.4556   30.1357 C   0  0  0  0  0  0
   43.6099   54.3720   37.7145 O   0  0  0  0  0  0
   33.5012   54.6550   32.2331 C   0  0  0  0  0  0
   33.2013   56.8944   31.2371 C   0  0  0  0  0  0
   39.8427   56.9719   38.7904 C   0  0  0  0  0  0
   40.0360   56.5014   37.4978 C   0  0  0  0  0  0
   38.5599   57.2381   39.2556 C   0  0  0  0  0  0
   46.4793   55.4531   32.4332 O   0  0  0  0  0  0
   46.0733   53.9915   36.3032 C   0  0  0  0  0  0
   40.9200   57.1668   39.6102 O   0  0  0  0  0  0
   47.1293   53.5936   35.4924 C   0  0  0  0  0  0
   47.2496   54.1081   34.2096 C   0  0  0  0  0  0
   36.2528   54.1105   32.4371 H   0  0  0  0  0  0
   35.2011   54.7720   34.3723 H   0  0  0  0  0  0
   33.9264   56.7721   34.1814 H   0  0  0  0  0  0
   37.6319   56.2476   34.6175 H   0  0  0  0  0  0
   35.6541   58.0862   30.8370 H   0  0  0  0  0  0
   37.1010   57.5720   31.6350 H   0  0  0  0  0  0
   39.5835   56.9399   33.4064 H   0  0  0  0  0  0
   41.0884   52.9693   32.7165 H   0  0  0  0  0  0
   34.6890   58.7489   32.8488 H   0  0  0  0  0  0
   36.1436   58.2943   33.7011 H   0  0  0  0  0  0
   36.4706   57.2541   38.8103 H   0  0  0  0  0  0
   39.1263   55.8952   35.6864 H   0  0  0  0  0  0
   43.3881   52.6781   32.7840 H   0  0  0  0  0  0
   42.6902   58.2115   34.2885 H   0  0  0  0  0  0
   35.2433   55.8477   29.3723 H   0  0  0  0  0  0
   36.9410   55.6572   29.8545 H   0  0  0  0  0  0
   35.9010   54.3721   30.1255 H   0  0  0  0  0  0
   44.0561   53.5111   37.6370 H   0  0  0  0  0  0
   33.0765   54.3003   31.2927 H   0  0  0  0  0  0
   34.1495   53.8719   32.5985 H   0  0  0  0  0  0
   32.7010   54.7353   32.9606 H   0  0  0  0  0  0
   33.1428   56.5412   30.2066 H   0  0  0  0  0  0
   32.1892   56.8364   31.6371 H   0  0  0  0  0  0
   33.4406   57.9543   31.1914 H   0  0  0  0  0  0
   41.0255   56.2768   37.1319 H   0  0  0  0  0  0
   38.4169   57.5720   40.2718 H   0  0  0  0  0  0
   47.2024   55.0058   31.9900 H   0  0  0  0  0  0
   46.0368   53.5768   37.3008 H   0  0  0  0  0  0
   41.7450   56.9112   39.1895 H   0  0  0  0  0  0
   47.8558   52.8852   35.8624 H   0  0  0  0  0  0
   48.0746   53.7883   33.5907 H   0  0  0  0  0  0
  1  3  1  0  0  0
  1  6  1  0  0  0
  1 17  1  0  0  0
  1 32  1  0  0  0
  2 11  2  0  0  0
  2  4  1  0  0  0
  2 12  1  0  0  0
  3  5  1  0  0  0
  3 10  1  0  0  0
  3 44  1  0  0  0
  4  7  1  0  0  0
  4 23  2  0  0  0
  5  9  1  0  0  0
  5  8  1  0  0  0
  5 45  1  0  0  0
  6  8  1  0  0  0
  6 34  1  0  0  0
  6 35  1  0  0  0
  7 15  1  0  0  0
  7 24  2  0  0  0
  8 21  1  0  0  0
  8 46  1  0  0  0
  9 14  1  0  0  0
  9 47  1  0  0  0
 10 13  1  0  0  0
 11 20  1  0  0  0
 11 30  1  0  0  0
 12 19  2  0  0  0
 12 31  1  0  0  0
 13 16  1  0  0  0
 13 25  2  0  0  0
 14 22  1  0  0  0
 14 26  2  0  0  0
 15 18  1  0  0  0
 15 40  2  0  0  0
 16 19  1  0  0  0
 16 20  2  0  0  0
 17 21  1  0  0  0
 17 48  1  0  0  0
 17 49  1  0  0  0
 18 27  2  0  0  0
 18 33  1  0  0  0
 19 50  1  0  0  0
 20 51  1  0  0  0
 21 52  1  0  0  0
 21 53  1  0  0  0
 22 28  1  0  0  0
 22 29  2  0  0  0
 24 39  1  0  0  0
 24 43  1  0  0  0
 28 38  2  0  0  0
 28 54  1  0  0  0
 29 37  1  0  0  0
 29 55  1  0  0  0
 30 56  1  0  0  0
 31 57  1  0  0  0
 32 58  1  0  0  0
 32 59  1  0  0  0
 32 60  1  0  0  0
 33 61  1  0  0  0
 34 62  1  0  0  0
 34 63  1  0  0  0
 34 64  1  0  0  0
 35 65  1  0  0  0
 35 66  1  0  0  0
 35 67  1  0  0  0
 36 37  2  0  0  0
 36 41  1  0  0  0
 36 38  1  0  0  0
 37 68  1  0  0  0
 38 69  1  0  0  0
 39 70  1  0  0  0
 40 42  1  0  0  0
 40 71  1  0  0  0
 41 72  1  0  0  0
 42 43  2  0  0  0
 42 73  1  0  0  0
 43 74  1  0  0  0
M  END
> <s_m_entry_id>
3488

> <s_m_entry_name>
dock_pv.217

> <s_m_Source_Path>
/home/csk/Desktop/cluster/DUD-E-result/kpcb

> <s_m_Source_File>
dock_pv.maegz

> <i_m_Source_File_Index>
217

> <chembl_id>
CHEMBL306170

> <chembl_pref_name>
None

> <i_lp_mmshare_version>
53161

> <i_f3d_flags>
0

> <r_lp_tautomer_probability>
0.999999999997365

> <s_lp_Force_Field>
OPLS_2005

> <r_lp_Energy>
90.962379

> <b_lp_Chiralities_Consistent>
1

> <s_lp_Variant>
CHEMBL3045_lig70-3

> <s_i_glide_gridfile>
glide-grid_2i0e

> <i_i_glide_lignum>
110

> <i_i_glide_rotatable_bonds>
14

> <r_i_docking_score>
-6.9341424992873

> <r_i_glide_ligand_efficiency>
-0.161259127890402

> <r_i_glide_ligand_efficiency_sa>
-0.564954915162588

> <r_i_glide_ligand_efficiency_ln>
-1.45638543451081

> <r_i_glide_gscore>
-6.9341424992873

> <r_i_glide_lipo>
-3.17214600693161

> <r_i_glide_hbond>
-0.138058935304115

> <r_i_glide_metal>
0

> <r_i_glide_rewards>
-0.504976682603648

> <r_i_glide_evdw>
-47.5812454223633

> <r_i_glide_ecoul>
-7.65443325042725

> <r_i_glide_erotb>
0.434363979066474

> <r_i_glide_esite>
-0.0260975948321529

> <r_i_glide_emodel>
-72.194582921991

> <r_i_glide_energy>
-55.2356786727905

> <r_i_glide_einternal>
7.47287845611572

> <i_i_glide_confnum>
79

> <i_i_glide_posenum>
289

> <r_i_glide_eff_state_penalty>
0

> <s_user_duplicate_titles>
CHEMBL3045_lig70,112360

> <s_m_subgroup_title>
dock_pv

> <s_m_subgroupid>
dock_pv

> <b_m_subgroup_collapsed>
1

$$$$
CHEMBL3045_lig293
                    3D
 Schrodinger Suite 2021-1.
 64 67  0  0  1  0            999 V2000
   38.6464   54.7730   32.1505 C   0  0  0  0  0  0
   38.0718   54.8565   33.4330 C   0  0  0  0  0  0
   38.5212   54.0278   34.4681 C   0  0  0  0  0  0
   39.5840   53.1411   34.3115 C   0  0  0  0  0  0
   39.7326   53.9013   31.9634 C   0  0  0  0  0  0
   40.1890   53.1050   33.0538 C   0  0  0  0  0  0
   41.2574   52.3734   32.5900 N   0  0  0  0  0  0
   41.4997   52.6657   31.2727 C   0  0  0  0  0  0
   40.5645   53.5748   30.8405 C   0  0  0  0  0  0
   38.0900   55.5840   30.9846 C   0  0  0  0  0  0
   37.0131   55.7609   33.6271 N   0  0  0  0  0  0
   36.1392   55.9549   34.7158 C   0  0  0  0  0  0
   36.5944   56.2713   36.0210 C   0  0  0  0  0  0
   35.6263   56.3753   37.0321 C   0  0  0  0  0  0
   34.3017   56.2220   36.8261 N   0  0  0  0  0  0
   33.8893   55.9719   35.5680 C   0  0  0  0  0  0
   34.7512   55.8432   34.4840 C   0  0  0  0  0  0
   34.1652   55.5522   33.1741 C   0  0  0  0  0  0
   33.6988   55.3164   32.1407 N   0  0  0  0  0  0
   38.0271   56.5000   36.3403 C   0  0  0  0  0  0
   38.5694   56.6483   37.5651 C   0  0  0  0  0  0
   40.0455   56.8445   37.8458 C   0  0  0  0  0  0
   40.6186   55.7290   38.7464 C   0  0  0  0  0  0
   41.5506   56.2285   39.7598 N   0  0  1  0  0  0
   40.8562   56.9588   40.8361 C   0  0  0  0  0  0
   41.8443   57.4741   41.8975 C   0  0  0  0  0  0
   42.6652   56.3157   42.4858 C   0  0  0  0  0  0
   43.4021   55.6433   41.3158 C   0  0  0  0  0  0
   42.3985   55.1341   40.2629 C   0  0  0  0  0  0
   43.6694   56.9306   43.3747 N   0  0  1  0  0  0
   43.3034   57.1450   45.0773 S   0  0  0  0  0  0
   43.4869   55.4103   45.7691 C   0  0  0  0  0  0
   41.9031   57.5577   45.2097 O   0  0  0  0  0  0
   44.3823   57.9627   45.6389 O   0  0  0  0  0  0
   38.0435   54.0627   35.4350 H   0  0  0  0  0  0
   39.9251   52.5182   35.1258 H   0  0  0  0  0  0
   41.8103   51.6938   33.1052 H   0  0  0  0  0  0
   42.3006   52.1627   30.7519 H   0  0  0  0  0  0
   40.4837   53.9611   29.8355 H   0  0  0  0  0  0
   38.4515   55.1835   30.0361 H   0  0  0  0  0  0
   37.0009   55.5328   30.9441 H   0  0  0  0  0  0
   38.3807   56.6333   31.0670 H   0  0  0  0  0  0
   36.6431   56.0872   32.7482 H   0  0  0  0  0  0
   35.8861   56.6042   38.0520 H   0  0  0  0  0  0
   32.8202   55.8534   35.4517 H   0  0  0  0  0  0
   38.7040   56.5468   35.4959 H   0  0  0  0  0  0
   37.9531   56.6197   38.4511 H   0  0  0  0  0  0
   40.1563   57.8333   38.2907 H   0  0  0  0  0  0
   40.6028   56.8790   36.9105 H   0  0  0  0  0  0
   41.1160   55.0035   38.0995 H   0  0  0  0  0  0
   39.8148   55.1725   39.2374 H   0  0  0  0  0  0
   40.1141   56.3026   41.2984 H   0  0  0  0  0  0
   40.2986   57.8013   40.4273 H   0  0  0  0  0  0
   41.2935   57.9812   42.6894 H   0  0  0  0  0  0
   42.4787   58.2436   41.4490 H   0  0  0  0  0  0
   41.9525   55.6884   43.0230 H   0  0  0  0  0  0
   44.1076   56.3230   40.8329 H   0  0  0  0  0  0
   44.0040   54.8132   41.6856 H   0  0  0  0  0  0
   41.7655   54.3497   40.6827 H   0  0  0  0  0  0
   42.9411   54.6788   39.4305 H   0  0  0  0  0  0
   44.6262   56.6149   43.2051 H   0  0  0  0  0  0
   43.2317   55.4326   46.8268 H   0  0  0  0  0  0
   44.5166   55.0825   45.6372 H   0  0  0  0  0  0
   42.7983   54.7482   45.2430 H   0  0  0  0  0  0
  1  5  1  0  0  0
  1 10  1  0  0  0
  1  2  2  0  0  0
  2 11  1  0  0  0
  2  3  1  0  0  0
  3  4  2  0  0  0
  3 35  1  0  0  0
  4  6  1  0  0  0
  4 36  1  0  0  0
  5  9  1  0  0  0
  5  6  2  0  0  0
  6  7  1  0  0  0
  7  8  1  0  0  0
  7 37  1  0  0  0
  8  9  2  0  0  0
  8 38  1  0  0  0
  9 39  1  0  0  0
 10 40  1  0  0  0
 10 41  1  0  0  0
 10 42  1  0  0  0
 11 12  1  0  0  0
 11 43  1  0  0  0
 12 17  1  0  0  0
 12 13  2  0  0  0
 13 20  1  0  0  0
 13 14  1  0  0  0
 14 15  2  0  0  0
 14 44  1  0  0  0
 15 16  1  0  0  0
 16 17  2  0  0  0
 16 45  1  0  0  0
 17 18  1  0  0  0
 18 19  3  0  0  0
 20 21  2  0  0  0
 20 46  1  0  0  0
 21 22  1  0  0  0
 21 47  1  0  0  0
 22 23  1  0  0  0
 22 48  1  0  0  0
 22 49  1  0  0  0
 23 24  1  0  0  0
 23 50  1  0  0  0
 23 51  1  0  0  0
 24 25  1  0  0  0
 24 29  1  0  0  0
 25 26  1  0  0  0
 25 52  1  0  0  0
 25 53  1  0  0  0
 26 27  1  0  0  0
 26 54  1  0  0  0
 26 55  1  0  0  0
 27 28  1  0  0  0
 27 30  1  0  0  0
 27 56  1  0  0  0
 28 29  1  0  0  0
 28 57  1  0  0  0
 28 58  1  0  0  0
 29 59  1  0  0  0
 29 60  1  0  0  0
 30 31  1  0  0  0
 30 61  1  0  0  0
 31 32  1  0  0  0
 31 33  2  0  0  0
 31 34  2  0  0  0
 32 62  1  0  0  0
 32 63  1  0  0  0
 32 64  1  0  0  0
M  END
> <s_m_entry_id>
3489

> <s_m_entry_name>
dock_pv.218

> <s_m_Source_Path>
/home/csk/Desktop/cluster/DUD-E-result/kpcb

> <s_m_Source_File>
dock_pv.maegz

> <i_m_Source_File_Index>
218

> <chembl_id>
CHEMBL595048

> <chembl_pref_name>
None

> <i_lp_mmshare_version>
53161

> <i_f3d_flags>
0

> <r_lp_tautomer_probability>
1

> <s_lp_Force_Field>
OPLS_2005

> <r_lp_Energy>
25.563751

> <b_lp_Chiralities_Consistent>
1

> <s_lp_Variant>
CHEMBL3045_lig293-1

> <s_i_glide_gridfile>
glide-grid_2i0e

> <i_i_glide_lignum>
454

> <i_i_glide_rotatable_bonds>
8

> <r_i_docking_score>
-6.91726608431115

> <r_i_glide_ligand_efficiency>
-0.20344900247974

> <r_i_glide_ligand_efficiency_sa>
-0.65909578861676

> <r_i_glide_ligand_efficiency_ln>
-1.52821810076601

> <r_i_glide_gscore>
-6.91726608431115

> <r_i_glide_lipo>
-2.51103937906419

> <r_i_glide_hbond>
-0.276144729412847

> <r_i_glide_metal>
0

> <r_i_glide_rewards>
-1.3798477336766

> <r_i_glide_evdw>
-48.8722724914551

> <r_i_glide_ecoul>
-5.75723600387573

> <r_i_glide_erotb>
0.619291700966612

> <r_i_glide_esite>
-0.0623269179700048

> <r_i_glide_emodel>
-75.2011979467208

> <r_i_glide_energy>
-54.6295084953308

> <r_i_glide_einternal>
5.18240785598755

> <i_i_glide_confnum>
6

> <i_i_glide_posenum>
253

> <r_i_glide_eff_state_penalty>
0

> <s_user_duplicate_titles>
CHEMBL3045_lig293

> <s_m_subgroup_title>
dock_pv

> <s_m_subgroupid>
dock_pv

> <b_m_subgroup_collapsed>
1

$$$$
CHEMBL3045_lig109
                    3D
 Schrodinger Suite 2021-1.
 65 69  0  0  1  0            999 V2000
   41.2530   54.2446   34.9106 C   0  0  0  0  0  0
   42.2665   53.9152   35.9607 C   0  0  0  0  0  0
   42.7453   55.0271   36.8671 C   0  0  0  0  0  0
   41.5344   54.0442   33.5446 C   0  0  0  0  0  0
   39.9814   54.7288   35.2626 C   0  0  0  0  0  0
   43.5846   56.0661   36.3712 C   0  0  0  0  0  0
   38.3678   55.2852   31.8522 C   0  0  0  0  0  0
   35.2104   56.4631   34.6244 C   0  0  0  0  0  0
   35.4288   57.4269   33.7081 N   0  0  0  0  0  0
   39.3330   54.8691   32.9208 C   0  0  0  0  0  0
   37.2406   55.8634   32.3414 O   0  0  0  0  0  0
   35.2542   57.3892   32.2414 C   0  0  1  0  0  0
   42.3116   55.0824   38.2444 C   0  0  0  0  0  0
   44.2674   56.0057   35.0200 C   0  0  0  0  0  0
   36.2983   56.5301   31.4961 C   0  0  2  0  0  0
   39.0362   55.0044   34.2804 C   0  0  0  0  0  0
   40.5911   54.3698   32.5726 C   0  0  0  0  0  0
   43.8838   57.1635   37.1850 C   0  0  0  0  0  0
   34.1943   56.2298   30.4371 N   0  0  1  0  0  0
   35.9039   56.6696   35.9510 C   0  0  0  0  0  0
   42.7303   52.7804   36.0371 O   0  0  0  0  0  0
   38.5972   55.1700   30.6513 O   0  0  0  0  0  0
   34.5239   55.4631   34.4174 O   0  0  0  0  0  0
   44.7981   54.9806   34.5990 O   0  0  0  0  0  0
   42.6449   56.2236   39.0420 C   0  0  0  0  0  0
   43.4108   57.2613   38.4828 C   0  0  0  0  0  0
   35.3230   56.2121   37.1385 C   0  0  0  0  0  0
   37.1689   57.2718   36.0097 C   0  0  0  0  0  0
   42.7374   53.5720   33.0923 O   0  0  0  0  0  0
   39.6020   54.9516   36.5608 O   0  0  0  0  0  0
   33.9027   56.8742   31.7056 C   0  0  0  0  0  0
   35.4740   55.5717   30.6379 C   0  0  0  0  0  0
   44.2453   57.1723   34.3178 O   0  0  0  0  0  0
   37.2411   56.9939   38.3948 C   0  0  0  0  0  0
   35.9927   56.3698   38.3517 C   0  0  0  0  0  0
   37.8243   57.4506   37.2222 C   0  0  0  0  0  0
   37.9274   57.1698   39.5701 O   0  0  0  0  0  0
   41.5503   54.0512   38.8761 C   0  0  0  0  0  0
   42.2046   56.3045   40.3895 C   0  0  0  0  0  0
   41.1454   54.1547   40.2047 C   0  0  0  0  0  0
   41.4613   55.2761   40.9547 C   0  0  0  0  0  0
   35.8232   58.2822   34.0664 H   0  0  0  0  0  0
   35.3872   58.3836   31.8381 H   0  0  0  0  0  0
   36.8998   57.1677   30.8441 H   0  0  0  0  0  0
   38.0610   55.3353   34.5925 H   0  0  0  0  0  0
   40.8594   54.2375   31.5321 H   0  0  0  0  0  0
   44.5221   57.9615   36.8330 H   0  0  0  0  0  0
   33.4685   55.5849   30.1433 H   0  0  0  0  0  0
   43.6659   58.1217   39.0837 H   0  0  0  0  0  0
   34.3537   55.7272   37.1263 H   0  0  0  0  0  0
   37.6786   57.5720   35.1041 H   0  0  0  0  0  0
   43.2899   53.1529   33.7594 H   0  0  0  0  0  0
   40.2928   54.7902   37.2081 H   0  0  0  0  0  0
   33.1527   57.6629   31.6367 H   0  0  0  0  0  0
   33.4798   56.1169   32.3654 H   0  0  0  0  0  0
   35.9736   55.2879   29.7092 H   0  0  0  0  0  0
   35.2744   54.6608   31.2066 H   0  0  0  0  0  0
   43.8986   57.9044   34.8363 H   0  0  0  0  0  0
   35.5261   55.9844   39.2371 H   0  0  0  0  0  0
   38.8029   57.9060   37.2437 H   0  0  0  0  0  0
   37.7672   56.5237   40.2718 H   0  0  0  0  0  0
   41.2815   53.1660   38.3256 H   0  0  0  0  0  0
   42.4555   57.1728   40.9801 H   0  0  0  0  0  0
   40.5695   53.3568   40.6500 H   0  0  0  0  0  0
   41.1312   55.3495   41.9813 H   0  0  0  0  0  0
  1  2  1  0  0  0
  1  4  1  0  0  0
  1  5  2  0  0  0
  2  3  1  0  0  0
  2 21  2  0  0  0
  3  6  1  0  0  0
  3 13  2  0  0  0
  4 17  2  0  0  0
  4 29  1  0  0  0
  5 16  1  0  0  0
  5 30  1  0  0  0
  6 14  1  0  0  0
  6 18  2  0  0  0
  7 10  1  0  0  0
  7 11  1  0  0  0
  7 22  2  0  0  0
  8  9  1  0  0  0
  8 20  1  0  0  0
  8 23  2  0  0  0
  9 12  1  0  0  0
  9 42  1  0  0  0
 10 16  2  0  0  0
 10 17  1  0  0  0
 11 15  1  0  0  0
 12 15  1  0  0  0
 12 31  1  0  0  0
 12 43  1  0  0  0
 13 25  1  0  0  0
 13 38  1  0  0  0
 14 24  2  0  0  0
 14 33  1  0  0  0
 15 32  1  0  0  0
 15 44  1  0  0  0
 16 45  1  0  0  0
 17 46  1  0  0  0
 18 26  1  0  0  0
 18 47  1  0  0  0
 19 32  1  0  0  0
 19 31  1  0  0  0
 19 48  1  0  0  0
 20 27  2  0  0  0
 20 28  1  0  0  0
 25 26  2  0  0  0
 25 39  1  0  0  0
 26 49  1  0  0  0
 27 35  1  0  0  0
 27 50  1  0  0  0
 28 36  2  0  0  0
 28 51  1  0  0  0
 29 52  1  0  0  0
 30 53  1  0  0  0
 31 54  1  0  0  0
 31 55  1  0  0  0
 32 56  1  0  0  0
 32 57  1  0  0  0
 33 58  1  0  0  0
 34 36  1  0  0  0
 34 37  1  0  0  0
 34 35  2  0  0  0
 35 59  1  0  0  0
 36 60  1  0  0  0
 37 61  1  0  0  0
 38 40  2  0  0  0
 38 62  1  0  0  0
 39 41  2  0  0  0
 39 63  1  0  0  0
 40 41  1  0  0  0
 40 64  1  0  0  0
 41 65  1  0  0  0
M  END
> <s_m_entry_id>
3490

> <s_m_entry_name>
dock_pv.219

> <s_m_Source_Path>
/home/csk/Desktop/cluster/DUD-E-result/kpcb

> <s_m_Source_File>
dock_pv.maegz

> <i_m_Source_File_Index>
219

> <chembl_id>
CHEMBL421539

> <chembl_pref_name>
None

> <i_lp_mmshare_version>
53161

> <i_f3d_flags>
0

> <r_lp_tautomer_probability>
0.999999999997365

> <s_lp_Force_Field>
OPLS_2005

> <r_lp_Energy>
61.953503

> <b_lp_Chiralities_Consistent>
1

> <s_lp_Variant>
CHEMBL3045_lig109-4

> <s_i_glide_gridfile>
glide-grid_2i0e

> <i_i_glide_lignum>
193

> <i_i_glide_rotatable_bonds>
13

> <r_i_docking_score>
-6.91042267201848

> <r_i_glide_ligand_efficiency>
-0.168546894439475

> <r_i_glide_ligand_efficiency_sa>
-0.581186306499741

> <r_i_glide_ligand_efficiency_ln>
-1.46606916670104

> <r_i_glide_gscore>
-6.91042267201848

> <r_i_glide_lipo>
-2.99894083367849

> <r_i_glide_hbond>
-0.304

> <r_i_glide_metal>
0

> <r_i_glide_rewards>
-0.511538888408159

> <r_i_glide_evdw>
-57.2548713684082

> <r_i_glide_ecoul>
-4.87502479553223

> <r_i_glide_erotb>
0.527704898417652

> <r_i_glide_esite>
-0.0296505605992407

> <r_i_glide_emodel>
-81.5503609376349

> <r_i_glide_energy>
-62.1298961639404

> <r_i_glide_einternal>
15.1518440246582

> <i_i_glide_confnum>
204

> <i_i_glide_posenum>
3

> <r_i_glide_eff_state_penalty>
0

> <s_user_duplicate_titles>
CHEMBL3045_lig109

> <s_m_subgroup_title>
dock_pv

> <s_m_subgroupid>
dock_pv

> <b_m_subgroup_collapsed>
1

$$$$
CHEMBL3045_lig413
                    3D
 Schrodinger Suite 2021-1.
 58 61  0  0  1  0            999 V2000
   35.3450   55.9581   34.4333 C   0  0  0  0  0  0
   36.4787   56.2817   35.0400 N   0  0  0  0  0  0
   36.3849   56.3462   36.3462 C   0  0  0  0  0  0
   34.7968   55.9731   36.9553 S   0  0  0  0  0  0
   34.2811   55.7418   35.3151 C   0  0  0  0  0  0
   40.5040   55.4257   40.0866 C   0  0  0  0  0  0
   40.0041   56.0336   38.9293 C   0  0  0  0  0  0
   40.4791   55.6115   37.6872 C   0  0  0  0  0  0
   41.4052   54.5806   37.5745 C   0  0  0  0  0  0
   41.8995   53.9722   38.7391 C   0  0  0  0  0  0
   41.4501   54.4013   39.9907 C   0  0  0  0  0  0
   38.9898   57.1719   39.0097 C   0  0  0  0  0  0
   37.5942   56.8265   38.4569 C   0  0  0  0  0  0
   37.5012   56.6620   37.1161 N   0  0  0  0  0  0
   36.6460   56.7723   39.2368 O   0  0  0  0  0  0
   35.2877   55.8479   32.9346 C   0  0  0  0  0  0
   34.0612   55.8911   32.2526 C   0  0  0  0  0  0
   34.0553   55.8445   30.8575 C   0  0  0  0  0  0
   35.1884   55.7319   30.1208 N   0  0  0  0  0  0
   36.3660   55.6495   30.7846 C   0  0  0  0  0  0
   36.4577   55.7090   32.1767 C   0  0  0  0  0  0
   41.7552   54.2743   36.2816 O   0  0  0  0  0  0
   42.4597   53.0898   35.9387 C   0  0  0  0  0  0
   43.3286   53.3752   34.6940 C   0  0  0  0  0  0
   42.5839   53.8896   33.4317 C   0  0  0  0  0  0
   41.8229   55.1325   33.6352 N   0  0  0  0  0  0
   42.6461   56.2902   34.0221 C   0  0  0  0  0  0
   41.7260   57.4907   34.3674 C   0  0  0  0  0  0
   40.8797   57.8647   33.2362 N   0  0  0  0  0  0
   40.1139   56.7001   32.7810 C   0  0  0  0  0  0
   41.0321   55.4916   32.4540 C   0  0  0  0  0  0
   33.2612   55.4594   35.1042 H   0  0  0  0  0  0
   40.1532   55.7396   41.0593 H   0  0  0  0  0  0
   40.1209   56.0767   36.7830 H   0  0  0  0  0  0
   42.6307   53.1792   38.7035 H   0  0  0  0  0  0
   41.8218   53.9296   40.8876 H   0  0  0  0  0  0
   39.3965   58.0114   38.4517 H   0  0  0  0  0  0
   38.8862   57.5088   40.0419 H   0  0  0  0  0  0
   38.3537   56.7787   36.5909 H   0  0  0  0  0  0
   33.1272   55.9706   32.7900 H   0  0  0  0  0  0
   33.1291   55.8967   30.3003 H   0  0  0  0  0  0
   37.2512   55.5231   30.1802 H   0  0  0  0  0  0
   37.4249   55.6360   32.6490 H   0  0  0  0  0  0
   43.1008   52.7420   36.7385 H   0  0  0  0  0  0
   41.7401   52.2939   35.7341 H   0  0  0  0  0  0
   44.1525   54.0429   34.9465 H   0  0  0  0  0  0
   43.8232   52.4384   34.4333 H   0  0  0  0  0  0
   43.2939   54.0166   32.6121 H   0  0  0  0  0  0
   41.8875   53.1086   33.1178 H   0  0  0  0  0  0
   43.2441   56.0542   34.9008 H   0  0  0  0  0  0
   43.3425   56.5534   33.2240 H   0  0  0  0  0  0
   42.3014   58.3641   34.6678 H   0  0  0  0  0  0
   41.0972   57.2496   35.2225 H   0  0  0  0  0  0
   40.2554   58.6140   33.4934 H   0  0  0  0  0  0
   39.5259   56.9817   31.9065 H   0  0  0  0  0  0
   39.3904   56.4234   33.5511 H   0  0  0  0  0  0
   41.6878   55.7260   31.6144 H   0  0  0  0  0  0
   40.4179   54.6423   32.1471 H   0  0  0  0  0  0
  1  2  1  0  0  0
  1  5  2  0  0  0
  1 16  1  0  0  0
  2  3  2  0  0  0
  3  4  1  0  0  0
  3 14  1  0  0  0
  4  5  1  0  0  0
  5 32  1  0  0  0
  6  7  2  0  0  0
  6 11  1  0  0  0
  6 33  1  0  0  0
  7  8  1  0  0  0
  7 12  1  0  0  0
  8  9  2  0  0  0
  8 34  1  0  0  0
  9 10  1  0  0  0
  9 22  1  0  0  0
 10 11  2  0  0  0
 10 35  1  0  0  0
 11 36  1  0  0  0
 12 13  1  0  0  0
 12 37  1  0  0  0
 12 38  1  0  0  0
 13 14  1  0  0  0
 13 15  2  0  0  0
 14 39  1  0  0  0
 16 17  2  0  0  0
 16 21  1  0  0  0
 17 18  1  0  0  0
 17 40  1  0  0  0
 18 19  2  0  0  0
 18 41  1  0  0  0
 19 20  1  0  0  0
 20 21  2  0  0  0
 20 42  1  0  0  0
 21 43  1  0  0  0
 22 23  1  0  0  0
 23 24  1  0  0  0
 23 44  1  0  0  0
 23 45  1  0  0  0
 24 25  1  0  0  0
 24 46  1  0  0  0
 24 47  1  0  0  0
 25 26  1  0  0  0
 25 48  1  0  0  0
 25 49  1  0  0  0
 26 27  1  0  0  0
 26 31  1  0  0  0
 27 28  1  0  0  0
 27 50  1  0  0  0
 27 51  1  0  0  0
 28 29  1  0  0  0
 28 52  1  0  0  0
 28 53  1  0  0  0
 29 30  1  0  0  0
 29 54  1  0  0  0
 30 31  1  0  0  0
 30 55  1  0  0  0
 30 56  1  0  0  0
 31 57  1  0  0  0
 31 58  1  0  0  0
M  END
> <s_m_entry_id>
3491

> <s_m_entry_name>
dock_pv.220

> <s_m_Source_Path>
/home/csk/Desktop/cluster/DUD-E-result/kpcb

> <s_m_Source_File>
dock_pv.maegz

> <i_m_Source_File_Index>
220

> <chembl_id>
CHEMBL4245507

> <chembl_pref_name>
None

> <i_lp_mmshare_version>
53161

> <i_f3d_flags>
0

> <r_lp_tautomer_probability>
0.999000488399163

> <s_lp_Force_Field>
OPLS_2005

> <r_lp_Energy>
38.51461

> <b_lp_Chiralities_Consistent>
1

> <s_lp_Variant>
CHEMBL3045_lig413-1

> <s_i_glide_gridfile>
glide-grid_2i0e

> <i_i_glide_lignum>
579

> <i_i_glide_rotatable_bonds>
10

> <r_i_docking_score>
-6.90359017935192

> <r_i_glide_ligand_efficiency>
-0.222696457398449

> <r_i_glide_ligand_efficiency_sa>
-0.699574341826816

> <r_i_glide_ligand_efficiency_ln>
-1.5569711550743

> <r_i_glide_gscore>
-6.90359017935192

> <r_i_glide_lipo>
-3.2797363030396

> <r_i_glide_hbond>
-0.32

> <r_i_glide_metal>
0

> <r_i_glide_rewards>
-0.920201581651043

> <r_i_glide_evdw>
-50.4361763000488

> <r_i_glide_ecoul>
-5.3285961151123

> <r_i_glide_erotb>
0.937445937608012

> <r_i_glide_esite>
0

> <r_i_glide_emodel>
-77.9663668137702

> <r_i_glide_energy>
-55.7647724151611

> <r_i_glide_einternal>
3.5761890411377

> <i_i_glide_confnum>
65

> <i_i_glide_posenum>
168

> <r_i_glide_eff_state_penalty>
0

> <s_user_duplicate_titles>
CHEMBL3045_lig413

> <s_m_subgroup_title>
dock_pv

> <s_m_subgroupid>
dock_pv

> <b_m_subgroup_collapsed>
1

$$$$
CHEMBL3045_lig153
                    3D
 Schrodinger Suite 2021-1.
 68 71  0  0  1  0            999 V2000
   42.0346   53.4568   35.6535 S   0  0  0  0  0  0
   36.3712   55.7241   34.2910 C   0  0  0  0  0  0
   34.9168   55.3485   34.0976 C   0  0  0  0  0  0
   34.2000   55.8122   32.8479 C   0  0  0  0  0  0
   36.8407   56.0975   35.5680 C   0  0  0  0  0  0
   37.2683   55.8063   33.2033 C   0  0  0  0  0  0
   34.3009   57.1641   32.4372 C   0  0  0  0  0  0
   41.5605   54.9738   36.4173 N   0  0  1  0  0  0
   38.9700   56.8079   34.6227 C   0  0  0  0  0  0
   40.3416   57.3891   34.7816 C   0  0  0  0  0  0
   34.9147   58.2399   33.3046 C   0  0  0  0  0  0
   38.1144   56.6326   35.7193 C   0  0  0  0  0  0
   38.5362   56.3654   33.3708 C   0  0  0  0  0  0
   43.4813   53.4971   35.4142 O   0  0  0  0  0  0
   41.4244   52.3798   36.4387 O   0  0  0  0  0  0
   41.2033   53.4390   34.0662 C   0  0  0  0  0  0
   34.3010   54.7720   34.9886 O   0  0  0  0  0  0
   33.3613   54.9606   32.0943 C   0  0  0  0  0  0
   40.6493   57.5596   36.0874 O   0  0  0  0  0  0
   42.5870   56.0476   36.5987 C   0  0  1  0  0  0
   41.1314   57.5851   33.8548 O   0  0  0  0  0  0
   35.5010   59.1718   32.8370 O   0  0  0  0  0  0
   36.9454   55.3576   31.9468 O   0  0  0  0  0  0
   36.0710   56.0313   36.7033 O   0  0  0  0  0  0
   41.9830   57.4822   36.5738 C   0  0  0  0  0  0
   43.3881   55.8157   37.9129 C   0  0  0  0  0  0
   34.7012   58.1530   34.6413 O   0  0  0  0  0  0
   42.5312   55.3755   39.1029 C   0  0  0  0  0  0
   40.8015   54.4718   41.0933 C   0  0  0  0  0  0
   33.1005   53.6719   32.4370 O   0  0  0  0  0  0
   41.8608   56.2975   39.9169 C   0  0  0  0  0  0
   42.3596   54.0099   39.3205 C   0  0  0  0  0  0
   41.4993   53.5698   40.3104 C   0  0  0  0  0  0
   40.9890   55.8434   40.9117 C   0  0  0  0  0  0
   33.6724   57.5717   31.2555 C   0  0  0  0  0  0
   39.9010   53.9816   42.0029 O   0  0  0  0  0  0
   32.8750   56.7108   30.5236 C   0  0  0  0  0  0
   32.7162   55.4052   30.9451 C   0  0  0  0  0  0
   41.9169   53.6864   32.8908 C   0  0  0  0  0  0
   39.8497   53.0934   34.0096 C   0  0  0  0  0  0
   39.2134   52.9809   32.7754 C   0  0  0  0  0  0
   41.2744   53.5860   31.6589 C   0  0  0  0  0  0
   39.9290   53.2283   31.6046 C   0  0  0  0  0  0
   40.7113   55.3498   35.9910 H   0  0  0  0  0  0
   38.4227   56.9328   36.7107 H   0  0  0  0  0  0
   39.1954   56.4379   32.5158 H   0  0  0  0  0  0
   43.2772   55.9802   35.7554 H   0  0  0  0  0  0
   37.6742   55.4143   31.3250 H   0  0  0  0  0  0
   36.5519   56.2625   37.4992 H   0  0  0  0  0  0
   42.6395   58.1448   36.0161 H   0  0  0  0  0  0
   41.9527   57.8881   37.5841 H   0  0  0  0  0  0
   44.1388   55.0429   37.7322 H   0  0  0  0  0  0
   43.9712   56.6981   38.1801 H   0  0  0  0  0  0
   35.0825   58.9140   35.0781 H   0  0  0  0  0  0
   32.3010   53.3467   32.0161 H   0  0  0  0  0  0
   41.9861   57.3585   39.7616 H   0  0  0  0  0  0
   42.8491   53.2866   38.6857 H   0  0  0  0  0  0
   41.3181   52.5137   40.4277 H   0  0  0  0  0  0
   40.4460   56.5530   41.5192 H   0  0  0  0  0  0
   33.7177   58.6000   30.9415 H   0  0  0  0  0  0
   39.1948   54.6285   42.1333 H   0  0  0  0  0  0
   32.3538   57.0623   29.6445 H   0  0  0  0  0  0
   32.0812   54.7486   30.3686 H   0  0  0  0  0  0
   42.9718   53.9187   32.9253 H   0  0  0  0  0  0
   39.3011   52.8797   34.9164 H   0  0  0  0  0  0
   38.1738   52.6900   32.7229 H   0  0  0  0  0  0
   41.8254   53.7555   30.7463 H   0  0  0  0  0  0
   39.4440   53.1209   30.6437 H   0  0  0  0  0  0
  1  8  1  0  0  0
  1 14  2  0  0  0
  1 15  2  0  0  0
  1 16  1  0  0  0
  2  6  2  0  0  0
  2  3  1  0  0  0
  2  5  1  0  0  0
  3  4  1  0  0  0
  3 17  2  0  0  0
  4  7  2  0  0  0
  4 18  1  0  0  0
  5 12  2  0  0  0
  5 24  1  0  0  0
  6 13  1  0  0  0
  6 23  1  0  0  0
  7 11  1  0  0  0
  7 35  1  0  0  0
  8 20  1  0  0  0
  8 44  1  0  0  0
  9 10  1  0  0  0
  9 12  1  0  0  0
  9 13  2  0  0  0
 10 19  1  0  0  0
 10 21  2  0  0  0
 11 22  2  0  0  0
 11 27  1  0  0  0
 12 45  1  0  0  0
 13 46  1  0  0  0
 16 39  1  0  0  0
 16 40  2  0  0  0
 18 30  1  0  0  0
 18 38  2  0  0  0
 19 25  1  0  0  0
 20 25  1  0  0  0
 20 26  1  0  0  0
 20 47  1  0  0  0
 23 48  1  0  0  0
 24 49  1  0  0  0
 25 50  1  0  0  0
 25 51  1  0  0  0
 26 28  1  0  0  0
 26 52  1  0  0  0
 26 53  1  0  0  0
 27 54  1  0  0  0
 28 31  2  0  0  0
 28 32  1  0  0  0
 29 33  1  0  0  0
 29 36  1  0  0  0
 29 34  2  0  0  0
 30 55  1  0  0  0
 31 34  1  0  0  0
 31 56  1  0  0  0
 32 33  2  0  0  0
 32 57  1  0  0  0
 33 58  1  0  0  0
 34 59  1  0  0  0
 35 37  2  0  0  0
 35 60  1  0  0  0
 36 61  1  0  0  0
 37 38  1  0  0  0
 37 62  1  0  0  0
 38 63  1  0  0  0
 39 42  2  0  0  0
 39 64  1  0  0  0
 40 41  1  0  0  0
 40 65  1  0  0  0
 41 43  2  0  0  0
 41 66  1  0  0  0
 42 43  1  0  0  0
 42 67  1  0  0  0
 43 68  1  0  0  0
M  END
> <s_m_entry_id>
3492

> <s_m_entry_name>
dock_pv.221

> <s_m_Source_Path>
/home/csk/Desktop/cluster/DUD-E-result/kpcb

> <s_m_Source_File>
dock_pv.maegz

> <i_m_Source_File_Index>
221

> <chembl_id>
CHEMBL345767

> <chembl_pref_name>
None

> <i_lp_mmshare_version>
53161

> <i_f3d_flags>
0

> <r_lp_tautomer_probability>
0.999999999997365

> <s_lp_Force_Field>
OPLS_2005

> <r_lp_Energy>
37.058362

> <b_lp_Chiralities_Consistent>
1

> <s_lp_Variant>
CHEMBL3045_lig153-1

> <s_i_glide_gridfile>
glide-grid_2i0e

> <i_i_glide_lignum>
279

> <i_i_glide_rotatable_bonds>
17

> <r_i_docking_score>
-6.89976329744078

> <r_i_glide_ligand_efficiency>
-0.16045961156839

> <r_i_glide_ligand_efficiency_sa>
-0.562153891234315

> <r_i_glide_ligand_efficiency_ln>
-1.44916473363475

> <r_i_glide_gscore>
-6.89976329744078

> <r_i_glide_lipo>
-2.50326370463507

> <r_i_glide_hbond>
-0.518342748737039

> <r_i_glide_metal>
0

> <r_i_glide_rewards>
-1.31515569748328

> <r_i_glide_evdw>
-34.1690864562988

> <r_i_glide_ecoul>
-8.22322368621826

> <r_i_glide_erotb>
0.504241836472034

> <r_i_glide_esite>
-0.125305107309749

> <r_i_glide_emodel>
-34.2860456638757

> <r_i_glide_energy>
-42.3923101425171

> <r_i_glide_einternal>
16.8971405029297

> <i_i_glide_confnum>
45

> <i_i_glide_posenum>
2

> <r_i_glide_eff_state_penalty>
0

> <s_user_duplicate_titles>
CHEMBL3045_lig153,CHEMBL3045_lig165

> <s_m_subgroup_title>
dock_pv

> <s_m_subgroupid>
dock_pv

> <b_m_subgroup_collapsed>
1

$$$$
CHEMBL3045_lig82
                    3D
 Schrodinger Suite 2021-1.
 67 70  0  0  1  0            999 V2000
   42.6357   55.3688   32.9670 C   0  0  0  0  0  0
   44.0587   55.3276   33.4601 C   0  0  0  0  0  0
   44.3576   55.6504   34.9022 C   0  0  0  0  0  0
   41.7131   56.3370   33.4371 C   0  0  0  0  0  0
   42.2107   54.4811   31.9556 C   0  0  0  0  0  0
   38.6320   55.5409   31.3216 C   0  0  0  0  0  0
   36.7396   55.1699   34.4210 C   0  0  0  0  0  0
   45.3288   56.6250   35.2783 C   0  0  0  0  0  0
   39.9959   55.5029   31.9366 C   0  0  0  0  0  0
   35.6841   55.5151   33.6575 N   0  0  0  0  0  0
   37.7629   56.4500   31.8226 O   0  0  0  0  0  0
   46.0891   57.4768   34.2810 C   0  0  0  0  0  0
   40.9054   54.5406   31.4794 C   0  0  0  0  0  0
   40.4136   56.3904   32.9305 C   0  0  0  0  0  0
   35.6421   55.2790   32.2097 C   0  0  2  0  0  0
   36.3638   56.4287   31.4631 C   0  0  1  0  0  0
   36.8174   55.7610   35.7937 C   0  0  0  0  0  0
   44.9894   55.0514   32.7021 O   0  0  0  0  0  0
   43.6832   54.9290   35.9157 C   0  0  0  0  0  0
   38.3018   54.7724   30.4371 O   0  0  0  0  0  0
   37.6375   54.4260   34.0232 O   0  0  0  0  0  0
   45.5600   57.9729   33.2877 O   0  0  0  0  0  0
   38.0598   55.7773   36.4409 C   0  0  0  0  0  0
   35.6801   56.2668   36.4371 C   0  0  0  0  0  0
   42.0310   57.3030   34.3616 O   0  0  0  0  0  0
   43.0433   53.5719   31.3411 O   0  0  0  0  0  0
   47.4099   57.6251   34.5819 O   0  0  0  0  0  0
   37.0223   56.7397   38.3607 C   0  0  0  0  0  0
   35.7887   56.7613   37.7266 C   0  0  0  0  0  0
   38.1626   56.2675   37.7312 C   0  0  0  0  0  0
   42.7618   53.9415   35.6561 O   0  0  0  0  0  0
   45.5575   56.8626   36.6429 C   0  0  0  0  0  0
   37.1038   57.1711   39.6371 O   0  0  0  0  0  0
   44.8740   56.1524   37.6221 C   0  0  0  0  0  0
   43.9439   55.1890   37.2571 C   0  0  0  0  0  0
   34.2502   54.9192   31.6379 C   0  0  0  0  0  0
   35.7886   57.8386   31.7192 C   0  0  0  0  0  0
   34.3181   57.9724   32.1052 C   0  0  0  0  0  0
   33.0485   55.8390   31.7905 C   0  0  0  0  0  0
   33.2976   57.2314   31.2384 C   0  0  0  0  0  0
   34.8944   55.9762   34.0789 H   0  0  0  0  0  0
   40.6182   53.8465   30.6995 H   0  0  0  0  0  0
   39.7369   57.1468   33.3037 H   0  0  0  0  0  0
   36.2107   54.3709   31.9971 H   0  0  0  0  0  0
   36.3024   56.2527   30.3868 H   0  0  0  0  0  0
   38.9508   55.3936   35.9606 H   0  0  0  0  0  0
   34.7057   56.2607   35.9699 H   0  0  0  0  0  0
   42.9426   57.2794   34.6671 H   0  0  0  0  0  0
   43.1928   52.7091   31.7696 H   0  0  0  0  0  0
   47.6399   57.0828   35.3372 H   0  0  0  0  0  0
   34.9149   57.1346   38.2383 H   0  0  0  0  0  0
   39.1171   56.2595   38.2360 H   0  0  0  0  0  0
   42.7465   53.6283   34.7503 H   0  0  0  0  0  0
   46.2596   57.6179   36.9673 H   0  0  0  0  0  0
   37.8973   56.8777   40.1019 H   0  0  0  0  0  0
   45.0660   56.3444   38.6670 H   0  0  0  0  0  0
   43.4313   54.6221   38.0213 H   0  0  0  0  0  0
   33.9516   53.9718   32.0606 H   0  0  0  0  0  0
   34.3825   54.7721   30.5668 H   0  0  0  0  0  0
   36.3009   58.3183   32.5477 H   0  0  0  0  0  0
   35.9649   58.4335   30.8335 H   0  0  0  0  0  0
   34.2964   57.6475   33.1440 H   0  0  0  0  0  0
   34.0109   59.0133   32.1789 H   0  0  0  0  0  0
   32.7448   55.8868   32.8370 H   0  0  0  0  0  0
   32.1999   55.3998   31.2621 H   0  0  0  0  0  0
   32.3545   57.7810   31.2339 H   0  0  0  0  0  0
   33.6210   57.1713   30.1987 H   0  0  0  0  0  0
  1  2  1  0  0  0
  1  4  1  0  0  0
  1  5  2  0  0  0
  2  3  1  0  0  0
  2 18  2  0  0  0
  3  8  2  0  0  0
  3 19  1  0  0  0
  4 14  2  0  0  0
  4 25  1  0  0  0
  5 13  1  0  0  0
  5 26  1  0  0  0
  6  9  1  0  0  0
  6 11  1  0  0  0
  6 20  2  0  0  0
  7 10  1  0  0  0
  7 17  1  0  0  0
  7 21  2  0  0  0
  8 12  1  0  0  0
  8 32  1  0  0  0
  9 13  2  0  0  0
  9 14  1  0  0  0
 10 15  1  0  0  0
 10 41  1  0  0  0
 11 16  1  0  0  0
 12 22  2  0  0  0
 12 27  1  0  0  0
 13 42  1  0  0  0
 14 43  1  0  0  0
 15 16  1  0  0  0
 15 36  1  0  0  0
 15 44  1  0  0  0
 16 37  1  0  0  0
 16 45  1  0  0  0
 17 23  2  0  0  0
 17 24  1  0  0  0
 19 31  1  0  0  0
 19 35  2  0  0  0
 23 30  1  0  0  0
 23 46  1  0  0  0
 24 29  2  0  0  0
 24 47  1  0  0  0
 25 48  1  0  0  0
 26 49  1  0  0  0
 27 50  1  0  0  0
 28 29  1  0  0  0
 28 33  1  0  0  0
 28 30  2  0  0  0
 29 51  1  0  0  0
 30 52  1  0  0  0
 31 53  1  0  0  0
 32 34  2  0  0  0
 32 54  1  0  0  0
 33 55  1  0  0  0
 34 35  1  0  0  0
 34 56  1  0  0  0
 35 57  1  0  0  0
 36 39  1  0  0  0
 36 58  1  0  0  0
 36 59  1  0  0  0
 37 38  1  0  0  0
 37 60  1  0  0  0
 37 61  1  0  0  0
 38 40  1  0  0  0
 38 62  1  0  0  0
 38 63  1  0  0  0
 39 40  1  0  0  0
 39 64  1  0  0  0
 39 65  1  0  0  0
 40 66  1  0  0  0
 40 67  1  0  0  0
M  END
> <s_m_entry_id>
3494

> <s_m_entry_name>
dock_pv.223

> <s_m_Source_Path>
/home/csk/Desktop/cluster/DUD-E-result/kpcb

> <s_m_Source_File>
dock_pv.maegz

> <i_m_Source_File_Index>
223

> <chembl_id>
CHEMBL302998

> <chembl_pref_name>
None

> <i_lp_mmshare_version>
53161

> <i_f3d_flags>
0

> <r_lp_tautomer_probability>
0.999999999997365

> <s_lp_Force_Field>
OPLS_2005

> <r_lp_Energy>
51.908495

> <b_lp_Chiralities_Consistent>
1

> <s_lp_Variant>
CHEMBL3045_lig82-1

> <s_i_glide_gridfile>
glide-grid_2i0e

> <i_i_glide_lignum>
128

> <i_i_glide_rotatable_bonds>
14

> <r_i_docking_score>
-6.88163765083763

> <r_i_glide_ligand_efficiency>
-0.172040941270941

> <r_i_glide_ligand_efficiency_sa>
-0.588371742110376

> <r_i_glide_ligand_efficiency_ln>
-1.46765079336808

> <r_i_glide_gscore>
-6.88163765083763

> <r_i_glide_lipo>
-3.32779213664273

> <r_i_glide_hbond>
-0.409387363505112

> <r_i_glide_metal>
0

> <r_i_glide_rewards>
-0.442249074536607

> <r_i_glide_evdw>
-38.5087432861328

> <r_i_glide_ecoul>
-9.1556978225708

> <r_i_glide_erotb>
0.617767010723353

> <r_i_glide_esite>
-0.0211842491842692

> <r_i_glide_emodel>
-65.7850503811543

> <r_i_glide_energy>
-47.6644411087036

> <r_i_glide_einternal>
14.5710945129395

> <i_i_glide_confnum>
29

> <i_i_glide_posenum>
319

> <r_i_glide_eff_state_penalty>
0

> <s_user_duplicate_titles>
CHEMBL3045_lig82,107133

> <s_m_subgroup_title>
dock_pv

> <s_m_subgroupid>
dock_pv

> <b_m_subgroup_collapsed>
1

$$$$
CHEMBL3045_lig384
                    3D
 Schrodinger Suite 2021-1.
 46 50  0  0  1  0            999 V2000
   38.0136   57.4528   38.8954 C   0  0  0  0  0  0
   37.0749   56.2354   38.8697 C   0  0  0  0  0  0
   35.8675   56.4006   38.0607 N   0  0  0  0  0  0
   38.2914   55.7489   33.9446 N   0  0  0  0  0  0
   38.3196   55.6310   32.5891 C   0  0  0  0  0  0
   37.1568   55.6470   31.8614 N   0  0  0  0  0  0
   35.9192   55.7693   32.4682 C   0  0  0  0  0  0
   35.8486   55.8799   33.8803 C   0  0  0  0  0  0
   34.6382   55.9998   34.6020 C   0  0  0  0  0  0
   34.6796   56.1673   35.9857 C   0  0  0  0  0  0
   35.8916   56.1769   36.6760 C   0  0  0  0  0  0
   37.0900   55.9964   35.9784 C   0  0  0  0  0  0
   37.0909   55.8694   34.5808 C   0  0  0  0  0  0
   36.9742   55.5719   30.5346 N   0  0  0  0  0  0
   35.6644   55.6498   30.4239 C   0  0  0  0  0  0
   34.9435   55.7705   31.5287 N   0  0  0  0  0  0
   39.6733   55.5042   31.8832 C   0  0  0  0  0  0
   44.1261   54.8478   35.2734 O   0  0  0  0  0  0
   44.0909   53.4468   35.3847 C   0  0  0  0  0  0
   42.9583   52.9856   34.6982 O   0  0  0  0  0  0
   42.4087   54.0690   34.0951 C   0  0  0  0  0  0
   43.1010   55.1903   34.4523 C   0  0  0  0  0  0
   41.3013   54.1246   33.2563 C   0  0  0  0  0  0
   40.8930   55.3878   32.7949 C   0  0  0  0  0  0
   41.6096   56.5426   33.1681 C   0  0  0  0  0  0
   42.7290   56.4555   34.0085 C   0  0  0  0  0  0
   35.1009   55.5720   29.1953 N   0  0  0  0  0  0
   39.1792   57.1728   39.6371 O   0  0  0  0  0  0
   37.4937   58.3415   39.2366 H   0  0  0  0  0  0
   38.2640   57.7563   37.8798 H   0  0  0  0  0  0
   37.6336   55.3573   38.5398 H   0  0  0  0  0  0
   36.7886   55.9720   39.8844 H   0  0  0  0  0  0
   35.0537   56.8693   38.4396 H   0  0  0  0  0  0
   33.6943   55.9721   34.0766 H   0  0  0  0  0  0
   33.7506   56.2844   36.5280 H   0  0  0  0  0  0
   38.0483   55.9858   36.4759 H   0  0  0  0  0  0
   39.6438   54.6410   31.2156 H   0  0  0  0  0  0
   39.7962   56.3718   31.2370 H   0  0  0  0  0  0
   44.9807   53.0072   34.9278 H   0  0  0  0  0  0
   44.0088   53.1723   36.4359 H   0  0  0  0  0  0
   40.7646   53.2259   32.9864 H   0  0  0  0  0  0
   41.2893   57.5124   32.8156 H   0  0  0  0  0  0
   43.2712   57.3414   34.3049 H   0  0  0  0  0  0
   34.0991   55.6316   29.0545 H   0  0  0  0  0  0
   35.6188   55.1379   28.4409 H   0  0  0  0  0  0
   38.9213   56.8580   40.5127 H   0  0  0  0  0  0
  1  2  1  0  0  0
  1 28  1  0  0  0
  1 29  1  0  0  0
  1 30  1  0  0  0
  2  3  1  0  0  0
  2 31  1  0  0  0
  2 32  1  0  0  0
  3 11  1  0  0  0
  3 33  1  0  0  0
  4  5  2  0  0  0
  4 13  1  0  0  0
  5  6  1  0  0  0
  5 17  1  0  0  0
  6  7  1  0  0  0
  6 14  1  0  0  0
  7  8  1  0  0  0
  7 16  2  0  0  0
  8  9  1  0  0  0
  8 13  2  0  0  0
  9 10  2  0  0  0
  9 34  1  0  0  0
 10 11  1  0  0  0
 10 35  1  0  0  0
 11 12  2  0  0  0
 12 13  1  0  0  0
 12 36  1  0  0  0
 14 15  2  0  0  0
 15 16  1  0  0  0
 15 27  1  0  0  0
 17 24  1  0  0  0
 17 37  1  0  0  0
 17 38  1  0  0  0
 18 19  1  0  0  0
 18 22  1  0  0  0
 19 20  1  0  0  0
 19 39  1  0  0  0
 19 40  1  0  0  0
 20 21  1  0  0  0
 21 22  1  0  0  0
 21 23  2  0  0  0
 22 26  2  0  0  0
 23 24  1  0  0  0
 23 41  1  0  0  0
 24 25  2  0  0  0
 25 26  1  0  0  0
 25 42  1  0  0  0
 26 43  1  0  0  0
 27 44  1  0  0  0
 27 45  1  0  0  0
 28 46  1  0  0  0
M  END
> <s_m_entry_id>
3495

> <s_m_entry_name>
dock_pv.224

> <s_m_Source_Path>
/home/csk/Desktop/cluster/DUD-E-result/kpcb

> <s_m_Source_File>
dock_pv.maegz

> <i_m_Source_File_Index>
224

> <chembl_id>
CHEMBL3309998

> <chembl_pref_name>
None

> <i_lp_mmshare_version>
53161

> <i_f3d_flags>
0

> <r_lp_tautomer_probability>
1

> <s_lp_Force_Field>
OPLS_2005

> <r_lp_Energy>
37.183916

> <b_lp_Chiralities_Consistent>
1

> <s_lp_Variant>
CHEMBL3045_lig384-1

> <s_i_glide_gridfile>
glide-grid_2i0e

> <i_i_glide_lignum>
549

> <i_i_glide_rotatable_bonds>
6

> <r_i_docking_score>
-6.88156992074058

> <r_i_glide_ligand_efficiency>
-0.245770354312164

> <r_i_glide_ligand_efficiency_sa>
-0.746303546689345

> <r_i_glide_ligand_efficiency_ln>
-1.58846838937949

> <r_i_glide_gscore>
-6.88156992074058

> <r_i_glide_lipo>
-2.17554407338467

> <r_i_glide_hbond>
-0.442330084984725

> <r_i_glide_metal>
0

> <r_i_glide_rewards>
-1.79254495021339

> <r_i_glide_evdw>
-41.5785331726074

> <r_i_glide_ecoul>
-6.63114643096924

> <r_i_glide_erotb>
0.67674554336758

> <r_i_glide_esite>
-0.0742977322496195

> <r_i_glide_emodel>
-67.7625498229946

> <r_i_glide_energy>
-48.2096796035767

> <r_i_glide_einternal>
4.24794006347656

> <i_i_glide_confnum>
13

> <i_i_glide_posenum>
86

> <r_i_glide_eff_state_penalty>
0

> <s_user_duplicate_titles>
CHEMBL3045_lig384

> <s_m_subgroup_title>
dock_pv

> <s_m_subgroupid>
dock_pv

> <b_m_subgroup_collapsed>
1

$$$$
CHEMBL3045_lig486
                    3D
 Schrodinger Suite 2021-1.
 68 73  0  0  1  0            999 V2000
   38.4233   57.5741   39.6428 C   0  0  0  0  0  0
   38.2615   56.3990   38.6739 C   0  0  2  0  0  0
   39.1636   56.4581   37.5147 N   0  0  0  0  0  0
   38.4803   56.3795   36.2192 C   0  0  0  0  0  0
   37.0464   56.2889   36.6432 C   0  0  0  0  0  0
   35.7576   56.0971   36.1909 C   0  0  0  0  0  0
   35.2474   55.7914   34.9611 N   0  0  0  0  0  0
   35.3159   56.6025   33.8893 C   0  0  0  0  0  0
   35.8611   57.7081   33.8867 O   0  0  0  0  0  0
   34.6172   56.0624   32.6652 C   0  0  0  0  0  0
   33.5008   55.2204   32.8091 C   0  0  0  0  0  0
   32.7808   54.7796   31.7058 C   0  0  0  0  0  0
   33.1744   55.1702   30.4372 C   0  0  0  0  0  0
   34.3037   55.9681   30.2649 C   0  0  0  0  0  0
   35.0263   56.4185   31.3695 C   0  0  0  0  0  0
   36.1175   57.1907   31.1555 F   0  0  0  0  0  0
   34.9740   56.2029   37.3127 N   0  0  0  0  0  0
   35.6810   56.3718   38.4365 N   0  0  0  0  0  0
   36.9203   56.3723   38.0128 C   0  0  0  0  0  0
   40.5024   56.5006   37.6494 C   0  0  0  0  0  0
   41.1033   57.5718   37.6358 O   0  0  0  0  0  0
   41.0921   55.3137   37.9403 N   0  0  0  0  0  0
   40.7409   54.1265   37.1221 C   0  0  0  0  0  0
   41.7576   54.0647   35.9608 C   0  0  2  0  0  0
   41.6706   52.8273   35.0780 C   0  0  0  0  0  0
   43.1122   52.6380   34.5862 C   0  0  0  0  0  0
   43.9242   53.7109   35.3083 C   0  0  0  0  0  0
   43.1212   54.0413   36.4658 N   0  0  1  0  0  0
   43.4336   55.2232   37.2631 C   0  0  0  0  0  0
   42.4715   55.2986   38.4884 C   0  0  2  0  0  0
   42.7055   54.1968   39.5599 C   0  0  0  0  0  0
   42.8853   54.7722   40.9558 C   0  0  0  0  0  0
   44.1474   54.7711   41.5550 C   0  0  0  0  0  0
   44.3029   55.2800   42.8411 C   0  0  0  0  0  0
   43.2001   55.7969   43.5199 C   0  0  0  0  0  0
   41.9430   55.8104   42.9188 C   0  0  0  0  0  0
   41.7825   55.2931   41.6371 C   0  0  0  0  0  0
   37.6810   57.5217   40.4346 H   0  0  0  0  0  0
   39.4045   57.5603   40.1191 H   0  0  0  0  0  0
   38.3011   58.5391   39.1595 H   0  0  0  0  0  0
   38.4344   55.4689   39.2171 H   0  0  0  0  0  0
   38.8007   55.5148   35.6350 H   0  0  0  0  0  0
   38.6799   57.2748   35.6286 H   0  0  0  0  0  0
   34.8688   54.8661   34.8343 H   0  0  0  0  0  0
   33.1299   54.9507   33.7825 H   0  0  0  0  0  0
   31.9044   54.1617   31.8334 H   0  0  0  0  0  0
   32.6103   54.8159   29.5905 H   0  0  0  0  0  0
   34.6176   56.2400   29.2657 H   0  0  0  0  0  0
   33.9643   56.1474   37.3217 H   0  0  0  0  0  0
   40.9205   53.2389   37.7284 H   0  0  0  0  0  0
   39.6928   54.0380   36.8371 H   0  0  0  0  0  0
   41.5581   54.9432   35.3417 H   0  0  0  0  0  0
   41.2942   51.9716   35.6372 H   0  0  0  0  0  0
   41.0252   53.0025   34.2146 H   0  0  0  0  0  0
   43.1809   52.7714   33.5085 H   0  0  0  0  0  0
   43.5001   51.6457   34.8265 H   0  0  0  0  0  0
   44.1373   54.5857   34.6900 H   0  0  0  0  0  0
   44.8978   53.3463   35.6440 H   0  0  0  0  0  0
   43.3157   56.1105   36.6368 H   0  0  0  0  0  0
   44.4736   55.2071   37.5917 H   0  0  0  0  0  0
   42.6854   56.2560   38.9669 H   0  0  0  0  0  0
   41.8779   53.4882   39.6057 H   0  0  0  0  0  0
   43.5610   53.5726   39.3034 H   0  0  0  0  0  0
   45.0019   54.3660   41.0292 H   0  0  0  0  0  0
   45.2742   55.2697   43.3107 H   0  0  0  0  0  0
   43.3221   56.1929   44.5183 H   0  0  0  0  0  0
   41.1013   56.2244   43.4492 H   0  0  0  0  0  0
   40.8045   55.3001   41.1746 H   0  0  0  0  0  0
  1  2  1  0  0  0
  1 38  1  0  0  0
  1 39  1  0  0  0
  1 40  1  0  0  0
  2  3  1  0  0  0
  2 41  1  0  0  0
  2 19  1  0  0  0
  3  4  1  0  0  0
  3 20  1  0  0  0
  4 42  1  0  0  0
  4 43  1  0  0  0
  4  5  1  0  0  0
  5  6  2  0  0  0
  5 19  1  0  0  0
  6 17  1  0  0  0
  6  7  1  0  0  0
  7  8  1  0  0  0
  7 44  1  0  0  0
  8  9  2  0  0  0
  8 10  1  0  0  0
 10 11  2  0  0  0
 10 15  1  0  0  0
 11 12  1  0  0  0
 11 45  1  0  0  0
 12 13  2  0  0  0
 12 46  1  0  0  0
 13 14  1  0  0  0
 13 47  1  0  0  0
 14 15  2  0  0  0
 14 48  1  0  0  0
 15 16  1  0  0  0
 17 18  1  0  0  0
 17 49  1  0  0  0
 18 19  2  0  0  0
 20 21  2  0  0  0
 20 22  1  0  0  0
 22 23  1  0  0  0
 22 30  1  0  0  0
 23 24  1  0  0  0
 23 50  1  0  0  0
 23 51  1  0  0  0
 24 25  1  0  0  0
 24 28  1  0  0  0
 24 52  1  0  0  0
 25 26  1  0  0  0
 25 53  1  0  0  0
 25 54  1  0  0  0
 26 27  1  0  0  0
 26 55  1  0  0  0
 26 56  1  0  0  0
 27 28  1  0  0  0
 27 57  1  0  0  0
 27 58  1  0  0  0
 28 29  1  0  0  0
 29 30  1  0  0  0
 29 59  1  0  0  0
 29 60  1  0  0  0
 30 31  1  0  0  0
 30 61  1  0  0  0
 31 32  1  0  0  0
 31 62  1  0  0  0
 31 63  1  0  0  0
 32 33  2  0  0  0
 32 37  1  0  0  0
 33 34  1  0  0  0
 33 64  1  0  0  0
 34 35  2  0  0  0
 34 65  1  0  0  0
 35 36  1  0  0  0
 35 66  1  0  0  0
 36 37  2  0  0  0
 36 67  1  0  0  0
 37 68  1  0  0  0
M  END
> <s_m_entry_id>
3496

> <s_m_entry_name>
dock_pv.225

> <s_m_Source_Path>
/home/csk/Desktop/cluster/DUD-E-result/kpcb

> <s_m_Source_File>
dock_pv.maegz

> <i_m_Source_File_Index>
225

> <chembl_id>
CHEMBL3949655

> <chembl_pref_name>
None

> <i_lp_mmshare_version>
53161

> <i_f3d_flags>
0

> <r_lp_tautomer_probability>
0.5

> <s_lp_Force_Field>
OPLS_2005

> <r_lp_Energy>
115.05211

> <b_lp_Chiralities_Consistent>
1

> <s_lp_Variant>
CHEMBL3045_lig486-3

> <s_i_glide_gridfile>
glide-grid_2i0e

> <i_i_glide_lignum>
696

> <i_i_glide_rotatable_bonds>
7

> <r_i_docking_score>
-6.87178949590995

> <r_i_glide_ligand_efficiency>
-0.185724040429999

> <r_i_glide_ligand_efficiency_sa>
-0.618873705151917

> <r_i_glide_ligand_efficiency_ln>
-1.4903300440604

> <r_i_glide_gscore>
-6.87178949590995

> <r_i_glide_lipo>
-2.89573886190285

> <r_i_glide_hbond>
-0.144210492822734

> <r_i_glide_metal>
0

> <r_i_glide_rewards>
-1.33435838909082

> <r_i_glide_evdw>
-50.5777893066406

> <r_i_glide_ecoul>
-3.5658848285675

> <r_i_glide_erotb>
0.566290437523618

> <r_i_glide_esite>
0

> <r_i_glide_emodel>
-68.0693971851119

> <r_i_glide_energy>
-54.1436741352081

> <r_i_glide_einternal>
13.9404611587524

> <i_i_glide_confnum>
41

> <i_i_glide_posenum>
359

> <r_i_glide_eff_state_penalty>
0

> <s_user_duplicate_titles>
CHEMBL3045_lig486

> <s_m_subgroup_title>
dock_pv

> <s_m_subgroupid>
dock_pv

> <b_m_subgroup_collapsed>
1

$$$$
CHEMBL3045_lig600
                    3D
 Schrodinger Suite 2021-1.
 69 72  0  0  1  0            999 V2000
   41.2357   57.0199   32.5848 C   0  0  0  0  0  0
   41.6916   56.2643   33.8442 C   0  0  2  0  0  0
   41.8687   57.3362   34.9469 C   0  0  0  0  0  0
   42.1032   56.6388   36.2233 N   0  0  0  0  0  0
   43.3784   55.8722   36.2212 C   0  0  1  0  0  0
   43.7812   55.0736   37.4858 C   0  0  0  0  0  0
   43.3166   54.9049   35.0066 C   0  0  0  0  0  0
   42.9646   55.5373   33.7163 N   0  0  1  0  0  0
   42.9193   54.4783   32.6849 C   0  0  0  0  0  0
   44.2348   54.3701   31.8837 C   0  0  0  0  0  0
   45.4851   53.9650   32.6876 C   0  0  0  0  0  0
   46.6275   53.4517   31.8041 C   0  0  0  0  0  0
   47.8301   53.1129   32.5788 C   0  0  0  0  0  0
   48.7788   52.8459   33.1864 N   0  0  0  0  0  0
   41.4760   57.0663   37.3590 C   0  0  0  0  0  0
   42.1152   57.3106   38.3781 O   0  0  0  0  0  0
   40.1027   56.9827   37.3895 N   0  0  0  0  0  0
   39.2467   56.8083   36.1999 C   0  0  0  0  0  0
   37.8921   56.5637   36.7430 C   0  0  0  0  0  0
   36.6007   56.3491   36.3499 C   0  0  0  0  0  0
   36.1233   56.2477   35.0604 N   0  0  0  0  0  0
   34.8491   56.0825   34.6683 C   0  0  0  0  0  0
   33.8996   55.9709   35.4461 O   0  0  0  0  0  0
   34.6564   56.0295   33.1641 C   0  0  0  0  0  0
   35.6060   56.5656   32.2709 C   0  0  0  0  0  0
   35.3698   56.4932   30.8998 C   0  0  0  0  0  0
   34.1889   55.9154   30.4369 C   0  0  0  0  0  0
   33.2819   55.4132   31.3688 C   0  0  0  0  0  0
   33.5038   55.4556   32.7070 N   0  0  0  0  0  0
   35.9076   56.2701   37.5381 N   0  0  0  0  0  0
   36.7034   56.3728   38.6232 N   0  0  0  0  0  0
   37.9060   56.5299   38.1082 C   0  0  0  0  0  0
   39.3175   56.7146   38.6372 C   0  0  0  0  0  0
   39.8371   55.4434   39.3404 C   0  0  0  0  0  0
   39.3117   57.8721   39.6377 C   0  0  0  0  0  0
   40.3177   57.5842   32.7766 H   0  0  0  0  0  0
   41.9968   57.7375   32.2842 H   0  0  0  0  0  0
   41.0155   56.3723   31.7385 H   0  0  0  0  0  0
   40.9049   55.5564   34.1042 H   0  0  0  0  0  0
   42.7225   57.9680   34.6968 H   0  0  0  0  0  0
   41.0488   58.0483   34.9927 H   0  0  0  0  0  0
   44.1814   56.5886   36.0491 H   0  0  0  0  0  0
   44.6440   54.4365   37.2836 H   0  0  0  0  0  0
   44.0853   55.7256   38.3019 H   0  0  0  0  0  0
   42.9801   54.4153   37.8241 H   0  0  0  0  0  0
   42.5970   54.1097   35.2266 H   0  0  0  0  0  0
   44.2898   54.4308   34.9230 H   0  0  0  0  0  0
   42.1299   54.6431   31.9594 H   0  0  0  0  0  0
   42.6770   53.5073   33.1194 H   0  0  0  0  0  0
   44.4100   55.2876   31.3207 H   0  0  0  0  0  0
   44.0702   53.6019   31.1267 H   0  0  0  0  0  0
   45.2229   53.1670   33.3880 H   0  0  0  0  0  0
   45.8306   54.8097   33.2858 H   0  0  0  0  0  0
   46.9067   54.1966   31.0629 H   0  0  0  0  0  0
   46.3191   52.5560   31.2648 H   0  0  0  0  0  0
   39.2278   57.7001   35.5803 H   0  0  0  0  0  0
   39.5719   55.9582   35.6091 H   0  0  0  0  0  0
   36.8275   56.2695   34.3383 H   0  0  0  0  0  0
   36.5156   57.0366   32.6130 H   0  0  0  0  0  0
   36.0956   56.8884   30.2010 H   0  0  0  0  0  0
   33.9865   55.8485   29.3808 H   0  0  0  0  0  0
   32.3520   54.9665   31.0433 H   0  0  0  0  0  0
   34.9091   56.1342   37.6062 H   0  0  0  0  0  0
   39.1018   55.0447   40.0366 H   0  0  0  0  0  0
   40.0772   54.6765   38.6108 H   0  0  0  0  0  0
   40.7489   55.6295   39.9087 H   0  0  0  0  0  0
   38.7018   57.5731   40.4888 H   0  0  0  0  0  0
   40.3015   58.1079   40.0262 H   0  0  0  0  0  0
   38.8600   58.7725   39.2442 H   0  0  0  0  0  0
  1  2  1  0  0  0
  1 36  1  0  0  0
  1 37  1  0  0  0
  1 38  1  0  0  0
  2  3  1  0  0  0
  2  8  1  0  0  0
  2 39  1  0  0  0
  3  4  1  0  0  0
  3 40  1  0  0  0
  3 41  1  0  0  0
  4  5  1  0  0  0
  4 15  1  0  0  0
  5  6  1  0  0  0
  5  7  1  0  0  0
  5 42  1  0  0  0
  6 43  1  0  0  0
  6 44  1  0  0  0
  6 45  1  0  0  0
  7  8  1  0  0  0
  7 46  1  0  0  0
  7 47  1  0  0  0
  8  9  1  0  0  0
  9 10  1  0  0  0
  9 48  1  0  0  0
  9 49  1  0  0  0
 10 11  1  0  0  0
 10 50  1  0  0  0
 10 51  1  0  0  0
 11 12  1  0  0  0
 11 52  1  0  0  0
 11 53  1  0  0  0
 12 13  1  0  0  0
 12 54  1  0  0  0
 12 55  1  0  0  0
 13 14  3  0  0  0
 15 16  2  0  0  0
 15 17  1  0  0  0
 17 18  1  0  0  0
 17 33  1  0  0  0
 18 56  1  0  0  0
 18 57  1  0  0  0
 18 19  1  0  0  0
 19 20  2  0  0  0
 19 32  1  0  0  0
 20 30  1  0  0  0
 20 21  1  0  0  0
 21 22  1  0  0  0
 21 58  1  0  0  0
 22 23  2  0  0  0
 22 24  1  0  0  0
 24 25  2  0  0  0
 24 29  1  0  0  0
 25 26  1  0  0  0
 25 59  1  0  0  0
 26 27  2  0  0  0
 26 60  1  0  0  0
 27 28  1  0  0  0
 27 61  1  0  0  0
 28 29  2  0  0  0
 28 62  1  0  0  0
 30 31  1  0  0  0
 30 63  1  0  0  0
 31 32  2  0  0  0
 32 33  1  0  0  0
 33 34  1  0  0  0
 33 35  1  0  0  0
 34 64  1  0  0  0
 34 65  1  0  0  0
 34 66  1  0  0  0
 35 67  1  0  0  0
 35 68  1  0  0  0
 35 69  1  0  0  0
M  END
> <s_m_entry_id>
3497

> <s_m_entry_name>
dock_pv.226

> <s_m_Source_Path>
/home/csk/Desktop/cluster/DUD-E-result/kpcb

> <s_m_Source_File>
dock_pv.maegz

> <i_m_Source_File_Index>
226

> <chembl_id>
CHEMBL3662849

> <chembl_pref_name>
None

> <i_lp_mmshare_version>
53161

> <i_f3d_flags>
0

> <r_lp_tautomer_probability>
0.5

> <s_lp_Force_Field>
OPLS_2005

> <r_lp_Energy>
94.524732

> <b_lp_Chiralities_Consistent>
1

> <s_lp_Variant>
CHEMBL3045_lig600-2

> <s_i_glide_gridfile>
glide-grid_2i0e

> <i_i_glide_lignum>
967

> <i_i_glide_rotatable_bonds>
9

> <r_i_docking_score>
-6.86981252647007

> <r_i_glide_ligand_efficiency>
-0.196280357899145

> <r_i_glide_ligand_efficiency_sa>
-0.642046065314753

> <r_i_glide_ligand_efficiency_ln>
-1.50807631683449

> <r_i_glide_gscore>
-6.86981252647007

> <r_i_glide_lipo>
-2.25519285531706

> <r_i_glide_hbond>
-0.0635564668986142

> <r_i_glide_metal>
0

> <r_i_glide_rewards>
-1.60616162966279

> <r_i_glide_evdw>
-43.7074508666992

> <r_i_glide_ecoul>
-9.78231525421143

> <r_i_glide_erotb>
0.707818256875063

> <r_i_glide_esite>
0

> <r_i_glide_emodel>
-69.346201780937

> <r_i_glide_energy>
-53.4897661209106

> <r_i_glide_einternal>
10.4695072174072

> <i_i_glide_confnum>
36

> <i_i_glide_posenum>
354

> <r_i_glide_eff_state_penalty>
0

> <s_user_duplicate_titles>
CHEMBL3045_lig600

> <s_m_subgroup_title>
dock_pv

> <s_m_subgroupid>
dock_pv

> <b_m_subgroup_collapsed>
1

$$$$
CHEMBL3045_lig563
                    3D
 Schrodinger Suite 2021-1.
 70 73  0  0  1  0            999 V2000
   45.1297   55.4248   31.4209 C   0  0  0  0  0  0
   44.3561   54.1283   31.7216 C   0  0  0  0  0  0
   42.8528   54.3281   32.0081 C   0  0  0  0  0  0
   42.6045   55.2328   33.1386 N   0  0  1  0  0  0
   41.2234   55.7192   33.1520 C   0  0  0  0  0  0
   41.0482   56.8801   34.1706 C   0  0  2  0  0  0
   41.7399   58.1404   33.6606 C   0  0  0  0  0  0
   41.5521   56.4461   35.5105 N   0  0  0  0  0  0
   42.9234   55.8737   35.4725 C   0  0  0  0  0  0
   42.9495   54.6906   34.4643 C   0  0  1  0  0  0
   42.1681   53.4277   34.9370 C   0  0  0  0  0  0
   42.6769   52.8079   36.2435 C   0  0  0  0  0  0
   42.3020   53.5716   37.3730 O   0  0  0  0  0  0
   41.1352   56.9865   36.7044 C   0  0  0  0  0  0
   41.9560   57.3655   37.5455 O   0  0  0  0  0  0
   39.8070   56.9274   37.0349 N   0  0  0  0  0  0
   38.7401   56.7544   36.0404 C   0  0  0  0  0  0
   37.5186   56.5463   36.8348 C   0  0  0  0  0  0
   36.1768   56.3066   36.6956 C   0  0  0  0  0  0
   35.4370   56.0448   35.5681 N   0  0  0  0  0  0
   35.4247   56.8448   34.4770 C   0  0  0  0  0  0
   35.9008   57.9718   34.4430 O   0  0  0  0  0  0
   34.7389   56.2826   33.2607 C   0  0  0  0  0  0
   33.6963   55.3730   33.4282 C   0  0  0  0  0  0
   33.1002   54.7730   32.3308 C   0  0  0  0  0  0
   33.4337   55.1708   31.0531 C   0  0  0  0  0  0
   32.7390   54.6336   30.0349 F   0  0  0  0  0  0
   34.4616   56.0841   30.8495 C   0  0  0  0  0  0
   35.1291   56.6288   31.9502 C   0  0  0  0  0  0
   36.1449   57.4895   31.7183 F   0  0  0  0  0  0
   35.7166   56.2709   37.9884 N   0  0  0  0  0  0
   36.7024   56.4014   38.8992 N   0  0  0  0  0  0
   37.7901   56.5499   38.1742 C   0  0  0  0  0  0
   39.2835   56.7009   38.4293 C   0  0  0  0  0  0
   39.8960   55.4060   39.0036 C   0  0  0  0  0  0
   39.5347   57.8191   39.4660 C   0  0  0  0  0  0
   46.1728   55.2091   31.1898 H   0  0  0  0  0  0
   45.1135   56.1018   32.2761 H   0  0  0  0  0  0
   44.7005   55.9539   30.5699 H   0  0  0  0  0  0
   44.4450   53.4679   30.8580 H   0  0  0  0  0  0
   44.8292   53.5721   32.5304 H   0  0  0  0  0  0
   42.4105   54.7705   31.1147 H   0  0  0  0  0  0
   42.3523   53.3684   32.1421 H   0  0  0  0  0  0
   40.9249   56.0593   32.1585 H   0  0  0  0  0  0
   40.5426   54.9024   33.3952 H   0  0  0  0  0  0
   39.9989   57.1279   34.1428 H   0  0  0  0  0  0
   41.4190   58.3771   32.6464 H   0  0  0  0  0  0
   41.5008   58.9978   34.2871 H   0  0  0  0  0  0
   42.8164   57.9721   33.6365 H   0  0  0  0  0  0
   43.5940   56.6439   35.0943 H   0  0  0  0  0  0
   43.2884   55.5708   36.4523 H   0  0  0  0  0  0
   43.9959   54.3917   34.3986 H   0  0  0  0  0  0
   41.1000   53.6219   35.0304 H   0  0  0  0  0  0
   42.2582   52.6562   34.1731 H   0  0  0  0  0  0
   42.3392   51.7779   36.3552 H   0  0  0  0  0  0
   43.7646   52.7706   36.2079 H   0  0  0  0  0  0
   42.8955   53.3013   38.0825 H   0  0  0  0  0  0
   38.6371   57.6551   35.4366 H   0  0  0  0  0  0
   38.9250   55.8935   35.3963 H   0  0  0  0  0  0
   34.9990   55.1419   35.5054 H   0  0  0  0  0  0
   33.3183   55.1721   34.4186 H   0  0  0  0  0  0
   32.3031   54.0539   32.4381 H   0  0  0  0  0  0
   34.7413   56.3541   29.8426 H   0  0  0  0  0  0
   34.7509   56.1300   38.2531 H   0  0  0  0  0  0
   39.3510   55.0553   39.8812 H   0  0  0  0  0  0
   39.9019   54.6290   38.2444 H   0  0  0  0  0  0
   40.9328   55.5462   39.3095 H   0  0  0  0  0  0
   39.1209   57.5198   40.4307 H   0  0  0  0  0  0
   40.5985   57.9712   39.6359 H   0  0  0  0  0  0
   39.0685   58.7716   39.2374 H   0  0  0  0  0  0
  1  2  1  0  0  0
  1 37  1  0  0  0
  1 38  1  0  0  0
  1 39  1  0  0  0
  2  3  1  0  0  0
  2 40  1  0  0  0
  2 41  1  0  0  0
  3  4  1  0  0  0
  3 42  1  0  0  0
  3 43  1  0  0  0
  4  5  1  0  0  0
  4 10  1  0  0  0
  5  6  1  0  0  0
  5 44  1  0  0  0
  5 45  1  0  0  0
  6  7  1  0  0  0
  6  8  1  0  0  0
  6 46  1  0  0  0
  7 47  1  0  0  0
  7 48  1  0  0  0
  7 49  1  0  0  0
  8  9  1  0  0  0
  8 14  1  0  0  0
  9 10  1  0  0  0
  9 50  1  0  0  0
  9 51  1  0  0  0
 10 11  1  0  0  0
 10 52  1  0  0  0
 11 12  1  0  0  0
 11 53  1  0  0  0
 11 54  1  0  0  0
 12 13  1  0  0  0
 12 55  1  0  0  0
 12 56  1  0  0  0
 13 57  1  0  0  0
 14 15  2  0  0  0
 14 16  1  0  0  0
 16 17  1  0  0  0
 16 34  1  0  0  0
 17 58  1  0  0  0
 17 59  1  0  0  0
 17 18  1  0  0  0
 18 19  2  0  0  0
 18 33  1  0  0  0
 19 31  1  0  0  0
 19 20  1  0  0  0
 20 21  1  0  0  0
 20 60  1  0  0  0
 21 22  2  0  0  0
 21 23  1  0  0  0
 23 24  2  0  0  0
 23 29  1  0  0  0
 24 25  1  0  0  0
 24 61  1  0  0  0
 25 26  2  0  0  0
 25 62  1  0  0  0
 26 27  1  0  0  0
 26 28  1  0  0  0
 28 29  2  0  0  0
 28 63  1  0  0  0
 29 30  1  0  0  0
 31 32  1  0  0  0
 31 64  1  0  0  0
 32 33  2  0  0  0
 33 34  1  0  0  0
 34 35  1  0  0  0
 34 36  1  0  0  0
 35 65  1  0  0  0
 35 66  1  0  0  0
 35 67  1  0  0  0
 36 68  1  0  0  0
 36 69  1  0  0  0
 36 70  1  0  0  0
M  END
> <s_m_entry_id>
3498

> <s_m_entry_name>
dock_pv.227

> <s_m_Source_Path>
/home/csk/Desktop/cluster/DUD-E-result/kpcb

> <s_m_Source_File>
dock_pv.maegz

> <i_m_Source_File_Index>
227

> <chembl_id>
CHEMBL3662812

> <chembl_pref_name>
None

> <i_lp_mmshare_version>
53161

> <i_f3d_flags>
0

> <r_lp_tautomer_probability>
0.5

> <s_lp_Force_Field>
OPLS_2005

> <r_lp_Energy>
110.258831

> <b_lp_Chiralities_Consistent>
1

> <s_lp_Variant>
CHEMBL3045_lig563-2

> <s_i_glide_gridfile>
glide-grid_2i0e

> <i_i_glide_lignum>
877

> <i_i_glide_rotatable_bonds>
10

> <r_i_docking_score>
-6.86596783699367

> <r_i_glide_ligand_efficiency>
-0.19072132880538

> <r_i_glide_ligand_efficiency_sa>
-0.629747951775637

> <r_i_glide_ligand_efficiency_ln>
-1.49796868501788

> <r_i_glide_gscore>
-6.86596783699367

> <r_i_glide_lipo>
-2.72702518897447

> <r_i_glide_hbond>
-0.301654934439874

> <r_i_glide_metal>
0

> <r_i_glide_rewards>
-1.65292770875273

> <r_i_glide_evdw>
-43.6550559997559

> <r_i_glide_ecoul>
-3.71573543548584

> <r_i_glide_erotb>
0.642515846852616

> <r_i_glide_esite>
-0.0867627363685495

> <r_i_glide_emodel>
-60.5685461470403

> <r_i_glide_energy>
-47.3707914352417

> <r_i_glide_einternal>
10.9402904510498

> <i_i_glide_confnum>
89

> <i_i_glide_posenum>
216

> <r_i_glide_eff_state_penalty>
0

> <s_user_duplicate_titles>
CHEMBL3045_lig563

> <s_m_subgroup_title>
dock_pv

> <s_m_subgroupid>
dock_pv

> <b_m_subgroup_collapsed>
1

$$$$
CHEMBL3045_lig380
                    3D
 Schrodinger Suite 2021-1.
 41 44  0  0  1  0            999 V2000
   35.7484   56.5159   38.1925 N   0  0  0  0  0  0
   34.7580   56.1832   37.3003 N   0  0  0  0  0  0
   34.8538   55.9004   35.9780 C   0  0  0  0  0  0
   36.3088   56.0472   35.4336 C   0  0  2  0  0  0
   37.3470   56.3137   36.4812 N   0  0  0  0  0  0
   38.7220   56.2814   36.1162 C   0  0  0  0  0  0
   39.1884   55.7891   34.8927 C   0  0  0  0  0  0
   40.5576   55.7552   34.5834 C   0  0  0  0  0  0
   41.4860   56.2610   35.5130 C   0  0  0  0  0  0
   41.0239   56.7646   36.7364 C   0  0  0  0  0  0
   39.6643   56.7631   37.0369 C   0  0  0  0  0  0
   39.2927   57.3218   38.2457 O   0  0  0  0  0  0
   38.0715   56.8309   38.8334 C   0  0  0  0  0  0
   36.9649   56.5640   37.8047 C   0  0  0  0  0  0
   33.8972   55.5731   35.2791 O   0  0  0  0  0  0
   42.9908   56.2774   35.2085 C   0  0  0  0  0  0
   43.7124   56.7710   36.2154 F   0  0  0  0  0  0
   43.4210   55.0401   34.9638 F   0  0  0  0  0  0
   43.2226   57.0292   34.1323 F   0  0  0  0  0  0
   36.2722   57.1720   34.3864 C   0  0  0  0  0  0
   41.0069   55.2169   33.3604 N   0  0  0  0  0  0
   39.6727   52.7720   31.4414 N   0  0  2  0  0  0
   40.6910   53.8060   31.2621 C   0  0  0  0  0  0
   40.0849   54.5627   32.4345 C   0  0  0  0  0  0
   39.5528   53.1919   32.8310 C   0  0  0  0  0  0
   33.8288   56.1629   37.7015 H   0  0  0  0  0  0
   36.5105   55.0969   34.9400 H   0  0  0  0  0  0
   38.4822   55.3977   34.1839 H   0  0  0  0  0  0
   41.7123   57.1677   37.4637 H   0  0  0  0  0  0
   38.2868   55.9012   39.3666 H   0  0  0  0  0  0
   37.7368   57.5487   39.5819 H   0  0  0  0  0  0
   35.5793   56.9194   33.5787 H   0  0  0  0  0  0
   35.9412   58.1105   34.8354 H   0  0  0  0  0  0
   37.2486   57.3414   33.9360 H   0  0  0  0  0  0
   41.9472   54.8466   33.3752 H   0  0  0  0  0  0
   39.9010   51.7960   31.2358 H   0  0  0  0  0  0
   41.7021   53.4386   31.4588 H   0  0  0  0  0  0
   40.6611   54.3027   30.2898 H   0  0  0  0  0  0
   39.3141   55.2715   32.1268 H   0  0  0  0  0  0
   38.5408   53.1470   33.2318 H   0  0  0  0  0  0
   40.2277   52.6454   33.4938 H   0  0  0  0  0  0
  1  2  1  0  0  0
  1 14  2  0  0  0
  2  3  1  0  0  0
  2 26  1  0  0  0
  3  4  1  0  0  0
  3 15  2  0  0  0
  4  5  1  0  0  0
  4 20  1  0  0  0
  4 27  1  0  0  0
  5  6  1  0  0  0
  5 14  1  0  0  0
  6  7  1  0  0  0
  6 11  2  0  0  0
  7  8  2  0  0  0
  7 28  1  0  0  0
  8  9  1  0  0  0
  8 21  1  0  0  0
  9 10  2  0  0  0
  9 16  1  0  0  0
 10 11  1  0  0  0
 10 29  1  0  0  0
 11 12  1  0  0  0
 12 13  1  0  0  0
 13 14  1  0  0  0
 13 30  1  0  0  0
 13 31  1  0  0  0
 16 17  1  0  0  0
 16 18  1  0  0  0
 16 19  1  0  0  0
 20 32  1  0  0  0
 20 33  1  0  0  0
 20 34  1  0  0  0
 21 24  1  0  0  0
 21 35  1  0  0  0
 22 23  1  0  0  0
 22 25  1  0  0  0
 22 36  1  0  0  0
 23 24  1  0  0  0
 23 37  1  0  0  0
 23 38  1  0  0  0
 24 25  1  0  0  0
 24 39  1  0  0  0
 25 40  1  0  0  0
 25 41  1  0  0  0
M  END
> <s_m_entry_id>
3499

> <s_m_entry_name>
dock_pv.228

> <s_m_Source_Path>
/home/csk/Desktop/cluster/DUD-E-result/kpcb

> <s_m_Source_File>
dock_pv.maegz

> <i_m_Source_File_Index>
228

> <chembl_id>
CHEMBL3356474

> <chembl_pref_name>
None

> <i_lp_mmshare_version>
53161

> <i_f3d_flags>
0

> <r_lp_tautomer_probability>
0.999999579783417

> <s_lp_Force_Field>
OPLS_2005

> <r_lp_Energy>
44.373296

> <b_lp_Chiralities_Consistent>
1

> <s_lp_Variant>
CHEMBL3045_lig380-1

> <s_i_glide_gridfile>
glide-grid_2i0e

> <i_i_glide_lignum>
545

> <i_i_glide_rotatable_bonds>
3

> <r_i_docking_score>
-6.85692285418713

> <r_i_glide_ligand_efficiency>
-0.274276914167485

> <r_i_glide_ligand_efficiency_sa>
-0.801990561347512

> <r_i_glide_ligand_efficiency_ln>
-1.62529620183864

> <r_i_glide_gscore>
-6.85692285418713

> <r_i_glide_lipo>
-0.959156770158874

> <r_i_glide_hbond>
-0.499235200779537

> <r_i_glide_metal>
0

> <r_i_glide_rewards>
-2.92087873375473

> <r_i_glide_evdw>
-37.4136199951172

> <r_i_glide_ecoul>
-5.93579292297363

> <r_i_glide_erotb>
0.302879913982563

> <r_i_glide_esite>
-0.0194821252746554

> <r_i_glide_emodel>
-60.6041400022056

> <r_i_glide_energy>
-43.3494129180908

> <r_i_glide_einternal>
1.5107569694519

> <i_i_glide_confnum>
3

> <i_i_glide_posenum>
324

> <r_i_glide_eff_state_penalty>
0

> <s_user_duplicate_titles>
CHEMBL3045_lig380

> <s_m_subgroup_title>
dock_pv

> <s_m_subgroupid>
dock_pv

> <b_m_subgroup_collapsed>
1

$$$$
CHEMBL3045_lig315
                    3D
 Schrodinger Suite 2021-1.
 38 40  0  0  1  0            999 V2000
   33.9170   55.9915   30.4372 N   0  0  0  0  0  0
   35.0716   55.7026   29.7930 C   0  0  0  0  0  0
   36.3013   55.5702   30.4370 C   0  0  0  0  0  0
   33.9800   56.1673   31.7754 C   0  0  0  0  0  0
   35.1654   56.0685   32.5384 C   0  0  0  0  0  0
   36.3726   55.7474   31.8446 C   0  0  0  0  0  0
   37.5603   55.6060   32.6201 C   0  0  0  0  0  0
   37.5707   55.8075   33.9635 N   0  0  0  0  0  0
   36.4209   56.1295   34.6117 C   0  0  0  0  0  0
   35.2054   56.2661   33.9357 C   0  0  0  0  0  0
   36.5373   56.3549   36.0839 C   0  0  0  0  0  0
   35.4228   56.2109   36.9262 C   0  0  0  0  0  0
   35.5594   56.4487   38.2915 C   0  0  0  0  0  0
   36.7331   56.8085   38.8681 N   0  0  0  0  0  0
   37.8133   56.9345   38.0612 C   0  0  0  0  0  0
   37.7574   56.7238   36.6821 C   0  0  0  0  0  0
   38.7762   55.2627   31.9937 N   0  0  0  0  0  0
   39.9851   54.9110   32.7431 C   0  0  0  0  0  0
   40.1554   53.3938   32.9888 C   0  0  1  0  0  0
   41.4080   53.1716   33.6864 N   0  0  0  0  0  0
   39.0260   52.7485   33.8104 C   0  0  0  0  0  0
   34.9891   55.5267   28.7299 H   0  0  0  0  0  0
   37.1770   55.2843   29.8781 H   0  0  0  0  0  0
   33.0407   56.3756   32.2660 H   0  0  0  0  0  0
   34.2968   56.5324   34.4540 H   0  0  0  0  0  0
   34.4542   55.9212   36.5499 H   0  0  0  0  0  0
   34.7017   56.3719   38.9408 H   0  0  0  0  0  0
   38.7414   57.2128   38.5411 H   0  0  0  0  0  0
   38.6531   56.8462   36.0909 H   0  0  0  0  0  0
   38.7090   54.8636   31.0676 H   0  0  0  0  0  0
   40.0192   55.4492   33.6891 H   0  0  0  0  0  0
   40.8383   55.2900   32.1767 H   0  0  0  0  0  0
   40.2227   52.8886   32.0228 H   0  0  0  0  0  0
   41.3434   53.4885   34.6417 H   0  0  0  0  0  0
   41.6026   52.1752   33.7440 H   0  0  0  0  0  0
   38.0860   52.7799   33.2596 H   0  0  0  0  0  0
   38.8718   53.2665   34.7591 H   0  0  0  0  0  0
   39.2346   51.7034   34.0372 H   0  0  0  0  0  0
  1  2  2  0  0  0
  1  4  1  0  0  0
  2  3  1  0  0  0
  2 22  1  0  0  0
  3  6  2  0  0  0
  3 23  1  0  0  0
  4  5  2  0  0  0
  4 24  1  0  0  0
  5 10  1  0  0  0
  5  6  1  0  0  0
  6  7  1  0  0  0
  7  8  2  0  0  0
  7 17  1  0  0  0
  8  9  1  0  0  0
  9 11  1  0  0  0
  9 10  2  0  0  0
 10 25  1  0  0  0
 11 12  2  0  0  0
 11 16  1  0  0  0
 12 13  1  0  0  0
 12 26  1  0  0  0
 13 14  2  0  0  0
 13 27  1  0  0  0
 14 15  1  0  0  0
 15 16  2  0  0  0
 15 28  1  0  0  0
 16 29  1  0  0  0
 17 18  1  0  0  0
 17 30  1  0  0  0
 18 19  1  0  0  0
 18 31  1  0  0  0
 18 32  1  0  0  0
 19 20  1  0  0  0
 19 21  1  0  0  0
 19 33  1  0  0  0
 20 34  1  0  0  0
 20 35  1  0  0  0
 21 36  1  0  0  0
 21 37  1  0  0  0
 21 38  1  0  0  0
M  END
> <s_m_entry_id>
3500

> <s_m_entry_name>
dock_pv.229

> <s_m_Source_Path>
/home/csk/Desktop/cluster/DUD-E-result/kpcb

> <s_m_Source_File>
dock_pv.maegz

> <i_m_Source_File_Index>
229

> <chembl_id>
CHEMBL2147537

> <chembl_pref_name>
None

> <i_lp_mmshare_version>
53161

> <i_f3d_flags>
0

> <r_lp_tautomer_probability>
1

> <s_lp_Force_Field>
OPLS_2005

> <r_lp_Energy>
16.414907

> <b_lp_Chiralities_Consistent>
1

> <s_lp_Variant>
CHEMBL3045_lig315-1

> <s_i_glide_gridfile>
glide-grid_2i0e

> <i_i_glide_lignum>
477

> <i_i_glide_rotatable_bonds>
4

> <r_i_docking_score>
-6.84089007328573

> <r_i_glide_ligand_efficiency>
-0.325756670156463

> <r_i_glide_ligand_efficiency_sa>
-0.898737952000001

> <r_i_glide_ligand_efficiency_ln>
-1.69139624729992

> <r_i_glide_gscore>
-6.84089007328573

> <r_i_glide_lipo>
-2.93922627087922

> <r_i_glide_hbond>
-0.469232527348192

> <r_i_glide_metal>
0

> <r_i_glide_rewards>
-1.75968573165513

> <r_i_glide_evdw>
-36.3535423278809

> <r_i_glide_ecoul>
-3.65797424316406

> <r_i_glide_erotb>
0.693627709465467

> <r_i_glide_esite>
0

> <r_i_glide_emodel>
-57.1024132747065

> <r_i_glide_energy>
-40.0115165710449

> <r_i_glide_einternal>
0.665767014026642

> <i_i_glide_confnum>
1

> <i_i_glide_posenum>
109

> <r_i_glide_eff_state_penalty>
0

> <s_user_duplicate_titles>
CHEMBL3045_lig315

> <s_m_subgroup_title>
dock_pv

> <s_m_subgroupid>
dock_pv

> <b_m_subgroup_collapsed>
1

$$$$
CHEMBL3045_lig291
                    3D
 Schrodinger Suite 2021-1.
 55 58  0  0  1  0            999 V2000
   39.8131   55.9473   33.4016 C   0  0  0  0  0  0
   38.6243   55.7370   34.1319 C   0  0  0  0  0  0
   37.9783   54.4976   34.0753 C   0  0  0  0  0  0
   38.4281   53.4426   33.2841 C   0  0  0  0  0  0
   40.3333   54.8707   32.6506 C   0  0  0  0  0  0
   39.6225   53.6339   32.5970 C   0  0  0  0  0  0
   40.3498   52.7727   31.8020 N   0  0  0  0  0  0
   41.4975   53.3909   31.3801 C   0  0  0  0  0  0
   41.5205   54.6819   31.8665 C   0  0  0  0  0  0
   40.5633   57.2794   33.4660 C   0  0  0  0  0  0
   38.1512   56.7697   34.9689 N   0  0  0  0  0  0
   37.2986   56.7305   36.0976 C   0  0  0  0  0  0
   37.8583   57.0122   37.3669 C   0  0  0  0  0  0
   37.0303   56.9034   38.4913 C   0  0  0  0  0  0
   35.7185   56.5784   38.4285 N   0  0  0  0  0  0
   35.1779   56.3710   37.2042 C   0  0  0  0  0  0
   35.9165   56.4399   36.0173 C   0  0  0  0  0  0
   35.2218   56.2300   34.7506 C   0  0  0  0  0  0
   34.6776   56.0573   33.7451 N   0  0  0  0  0  0
   39.3063   57.2872   37.5259 C   0  0  0  0  0  0
   40.0481   57.0436   38.6198 C   0  0  0  0  0  0
   41.5550   57.1663   38.6400 C   0  0  0  0  0  0
   42.2908   55.8068   38.5601 C   0  0  0  0  0  0
   42.0238   54.9978   37.3519 N   0  0  0  0  0  0
   40.7845   54.2011   37.4559 C   0  0  0  0  0  0
   40.5681   53.3172   36.2021 C   0  0  0  0  0  0
   41.6666   52.3723   36.0372 N   0  0  0  0  0  0
   42.9200   53.1190   35.9532 C   0  0  0  0  0  0
   43.1036   54.0101   37.2112 C   0  0  0  0  0  0
   37.0974   54.3251   34.6689 H   0  0  0  0  0  0
   37.9016   52.5021   33.2370 H   0  0  0  0  0  0
   40.1242   51.8147   31.5516 H   0  0  0  0  0  0
   42.2066   52.8479   30.7677 H   0  0  0  0  0  0
   42.3104   55.3947   31.6870 H   0  0  0  0  0  0
   41.0899   57.4678   32.5291 H   0  0  0  0  0  0
   39.9006   58.1302   33.6192 H   0  0  0  0  0  0
   41.2986   57.2600   34.2732 H   0  0  0  0  0  0
   38.8484   57.4958   35.0395 H   0  0  0  0  0  0
   37.4187   57.0658   39.4872 H   0  0  0  0  0  0
   34.1179   56.1475   37.2015 H   0  0  0  0  0  0
   39.8252   57.6792   36.6616 H   0  0  0  0  0  0
   39.5956   56.6769   39.5297 H   0  0  0  0  0  0
   41.8444   57.6694   39.5615 H   0  0  0  0  0  0
   41.8947   57.8014   37.8200 H   0  0  0  0  0  0
   42.0988   55.2244   39.4629 H   0  0  0  0  0  0
   43.3533   56.0433   38.5966 H   0  0  0  0  0  0
   39.9028   54.8216   37.5515 H   0  0  0  0  0  0
   40.8141   53.5751   38.3503 H   0  0  0  0  0  0
   39.6300   52.7662   36.2720 H   0  0  0  0  0  0
   40.4870   53.9388   35.3130 H   0  0  0  0  0  0
   41.5490   51.7643   35.2263 H   0  0  0  0  0  0
   43.7417   52.4098   35.8568 H   0  0  0  0  0  0
   42.9385   53.7194   35.0426 H   0  0  0  0  0  0
   43.1002   53.3900   38.1082 H   0  0  0  0  0  0
   44.0755   54.5026   37.1591 H   0  0  0  0  0  0
  1  5  1  0  0  0
  1 10  1  0  0  0
  1  2  2  0  0  0
  2 11  1  0  0  0
  2  3  1  0  0  0
  3  4  2  0  0  0
  3 30  1  0  0  0
  4  6  1  0  0  0
  4 31  1  0  0  0
  5  9  1  0  0  0
  5  6  2  0  0  0
  6  7  1  0  0  0
  7  8  1  0  0  0
  7 32  1  0  0  0
  8  9  2  0  0  0
  8 33  1  0  0  0
  9 34  1  0  0  0
 10 35  1  0  0  0
 10 36  1  0  0  0
 10 37  1  0  0  0
 11 12  1  0  0  0
 11 38  1  0  0  0
 12 17  1  0  0  0
 12 13  2  0  0  0
 13 14  1  0  0  0
 13 20  1  0  0  0
 14 15  2  0  0  0
 14 39  1  0  0  0
 15 16  1  0  0  0
 16 17  2  0  0  0
 16 40  1  0  0  0
 17 18  1  0  0  0
 18 19  3  0  0  0
 20 21  2  0  0  0
 20 41  1  0  0  0
 21 22  1  0  0  0
 21 42  1  0  0  0
 22 23  1  0  0  0
 22 43  1  0  0  0
 22 44  1  0  0  0
 23 24  1  0  0  0
 23 45  1  0  0  0
 23 46  1  0  0  0
 24 25  1  0  0  0
 24 29  1  0  0  0
 25 26  1  0  0  0
 25 47  1  0  0  0
 25 48  1  0  0  0
 26 27  1  0  0  0
 26 49  1  0  0  0
 26 50  1  0  0  0
 27 28  1  0  0  0
 27 51  1  0  0  0
 28 29  1  0  0  0
 28 52  1  0  0  0
 28 53  1  0  0  0
 29 54  1  0  0  0
 29 55  1  0  0  0
M  END
> <s_m_entry_id>
3501

> <s_m_entry_name>
dock_pv.230

> <s_m_Source_Path>
/home/csk/Desktop/cluster/DUD-E-result/kpcb

> <s_m_Source_File>
dock_pv.maegz

> <i_m_Source_File_Index>
230

> <chembl_id>
CHEMBL603418

> <chembl_pref_name>
None

> <i_lp_mmshare_version>
53161

> <i_f3d_flags>
0

> <r_lp_tautomer_probability>
1

> <s_lp_Force_Field>
OPLS_2005

> <r_lp_Energy>
44.458648

> <b_lp_Chiralities_Consistent>
1

> <s_lp_Variant>
CHEMBL3045_lig291-1

> <s_i_glide_gridfile>
glide-grid_2i0e

> <i_i_glide_lignum>
452

> <i_i_glide_rotatable_bonds>
6

> <r_i_docking_score>
-6.8387467487342

> <r_i_glide_ligand_efficiency>
-0.235818853404627

> <r_i_glide_ligand_efficiency_sa>
-0.724510230315768

> <r_i_glide_ligand_efficiency_ln>
-1.56589958980529

> <r_i_glide_gscore>
-6.8387467487342

> <r_i_glide_lipo>
-1.91625193357209

> <r_i_glide_hbond>
-0.721101396304485

> <r_i_glide_metal>
0

> <r_i_glide_rewards>
-1.51475651361002

> <r_i_glide_evdw>
-40.0539207458496

> <r_i_glide_ecoul>
-8.55454540252686

> <r_i_glide_erotb>
0.651505947502759

> <r_i_glide_esite>
-0.0522650050788465

> <r_i_glide_emodel>
-65.5810286200571

> <r_i_glide_energy>
-48.6084661483765

> <r_i_glide_einternal>
3.52995920181274

> <i_i_glide_confnum>
106

> <i_i_glide_posenum>
100

> <r_i_glide_eff_state_penalty>
0

> <s_user_duplicate_titles>
CHEMBL3045_lig291

> <s_m_subgroup_title>
dock_pv

> <s_m_subgroupid>
dock_pv

> <b_m_subgroup_collapsed>
1

$$$$
CHEMBL3045_lig122
                    3D
 Schrodinger Suite 2021-1.
 60 63  0  0  1  0            999 V2000
   42.6853   56.3550   39.2273 C   0  0  0  0  0  0
   43.7986   56.2526   38.2213 C   0  0  0  0  0  0
   41.2591   56.4944   38.7424 C   0  0  0  0  0  0
   37.1820   56.4571   37.2527 C   0  0  0  0  0  0
   38.1497   55.2316   32.1850 C   0  0  0  0  0  0
   44.7250   57.3094   37.9950 C   0  0  0  0  0  0
   37.6336   55.5359   33.3885 N   0  0  0  0  0  0
   40.1587   56.5250   39.6237 C   0  0  0  0  0  0
   37.1010   56.3918   35.8938 O   0  0  0  0  0  0
   44.7414   58.5911   38.7983 C   0  0  0  0  0  0
   38.5958   56.5754   37.7467 C   0  0  0  0  0  0
   40.9946   56.5814   37.3638 C   0  0  0  0  0  0
   38.8543   56.5676   39.1227 C   0  0  0  0  0  0
   36.2156   55.7959   33.6746 C   0  0  1  0  0  0
   35.9161   55.9719   35.1973 C   0  0  2  0  0  0
   39.6246   54.9236   32.1739 C   0  0  0  0  0  0
   42.9776   56.3564   40.4238 O   0  0  0  0  0  0
   43.9192   55.0587   37.4757 C   0  0  0  0  0  0
   36.2061   56.3720   38.0037 O   0  0  0  0  0  0
   37.4734   55.1720   31.1595 O   0  0  0  0  0  0
   39.6912   56.6175   36.8745 C   0  0  0  0  0  0
   44.7948   58.6126   40.0249 O   0  0  0  0  0  0
   40.5236   55.6905   32.9299 C   0  0  0  0  0  0
   40.1074   53.8537   31.4079 C   0  0  0  0  0  0
   40.3010   56.4861   40.9884 O   0  0  0  0  0  0
   44.7010   59.7163   38.0370 O   0  0  0  0  0  0
   42.3434   54.2893   32.2017 C   0  0  0  0  0  0
   41.4624   53.5269   31.4375 C   0  0  0  0  0  0
   41.8802   55.3770   32.9364 C   0  0  0  0  0  0
   43.1010   53.9720   37.6833 O   0  0  0  0  0  0
   45.7005   57.1531   36.9990 C   0  0  0  0  0  0
   43.6753   53.9720   32.2415 O   0  0  0  0  0  0
   35.6608   57.0590   32.9724 C   0  0  0  0  0  0
   45.7888   55.9794   36.2568 C   0  0  0  0  0  0
   34.8008   57.0302   35.2335 C   0  0  0  0  0  0
   35.1328   57.9718   34.0784 C   0  0  0  0  0  0
   44.9090   54.9330   36.5041 C   0  0  0  0  0  0
   38.2297   55.4172   34.1933 H   0  0  0  0  0  0
   41.7929   56.5844   36.6353 H   0  0  0  0  0  0
   38.0295   56.5535   39.8198 H   0  0  0  0  0  0
   35.6082   54.9452   33.3603 H   0  0  0  0  0  0
   35.6034   55.0124   35.6145 H   0  0  0  0  0  0
   39.5534   56.6384   35.8037 H   0  0  0  0  0  0
   40.1821   56.5358   33.5094 H   0  0  0  0  0  0
   39.4367   53.2536   30.8056 H   0  0  0  0  0  0
   39.4468   56.3712   41.4301 H   0  0  0  0  0  0
   44.5878   59.5141   37.1006 H   0  0  0  0  0  0
   41.8218   52.6811   30.8690 H   0  0  0  0  0  0
   42.5716   55.9637   33.5230 H   0  0  0  0  0  0
   43.6065   53.1399   37.6370 H   0  0  0  0  0  0
   46.4208   57.9352   36.8006 H   0  0  0  0  0  0
   43.8500   53.0368   32.0370 H   0  0  0  0  0  0
   34.8320   56.7805   32.3193 H   0  0  0  0  0  0
   36.3977   57.5720   32.3557 H   0  0  0  0  0  0
   46.5517   55.8713   35.4997 H   0  0  0  0  0  0
   33.8307   56.5513   35.0968 H   0  0  0  0  0  0
   34.7578   57.5720   36.1760 H   0  0  0  0  0  0
   34.3010   58.5885   33.7522 H   0  0  0  0  0  0
   35.9010   58.6676   34.3966 H   0  0  0  0  0  0
   44.9976   54.0168   35.9367 H   0  0  0  0  0  0
  1  2  1  0  0  0
  1  3  1  0  0  0
  1 17  2  0  0  0
  2  6  1  0  0  0
  2 18  2  0  0  0
  3  8  1  0  0  0
  3 12  2  0  0  0
  4 11  1  0  0  0
  4  9  1  0  0  0
  4 19  2  0  0  0
  5  7  1  0  0  0
  5 16  1  0  0  0
  5 20  2  0  0  0
  6 10  1  0  0  0
  6 31  2  0  0  0
  7 14  1  0  0  0
  7 38  1  0  0  0
  8 13  2  0  0  0
  8 25  1  0  0  0
  9 15  1  0  0  0
 10 22  2  0  0  0
 10 26  1  0  0  0
 11 21  2  0  0  0
 11 13  1  0  0  0
 12 21  1  0  0  0
 12 39  1  0  0  0
 13 40  1  0  0  0
 14 15  1  0  0  0
 14 33  1  0  0  0
 14 41  1  0  0  0
 15 35  1  0  0  0
 15 42  1  0  0  0
 16 23  2  0  0  0
 16 24  1  0  0  0
 18 30  1  0  0  0
 18 37  1  0  0  0
 21 43  1  0  0  0
 23 29  1  0  0  0
 23 44  1  0  0  0
 24 28  2  0  0  0
 24 45  1  0  0  0
 25 46  1  0  0  0
 26 47  1  0  0  0
 27 28  1  0  0  0
 27 32  1  0  0  0
 27 29  2  0  0  0
 28 48  1  0  0  0
 29 49  1  0  0  0
 30 50  1  0  0  0
 31 34  1  0  0  0
 31 51  1  0  0  0
 32 52  1  0  0  0
 33 36  1  0  0  0
 33 53  1  0  0  0
 33 54  1  0  0  0
 34 37  2  0  0  0
 34 55  1  0  0  0
 35 36  1  0  0  0
 35 56  1  0  0  0
 35 57  1  0  0  0
 36 58  1  0  0  0
 36 59  1  0  0  0
 37 60  1  0  0  0
M  END
> <s_m_entry_id>
3502

> <s_m_entry_name>
dock_pv.231

> <s_m_Source_Path>
/home/csk/Desktop/cluster/DUD-E-result/kpcb

> <s_m_Source_File>
dock_pv.maegz

> <i_m_Source_File_Index>
231

> <chembl_id>
CHEMBL90330

> <chembl_pref_name>
None

> <i_lp_mmshare_version>
53161

> <i_f3d_flags>
0

> <r_lp_tautomer_probability>
0.999999999997365

> <s_lp_Force_Field>
OPLS_2005

> <r_lp_Energy>
50.273086

> <b_lp_Chiralities_Consistent>
1

> <s_lp_Variant>
CHEMBL3045_lig122-4

> <s_i_glide_gridfile>
glide-grid_2i0e

> <i_i_glide_lignum>
223

> <i_i_glide_rotatable_bonds>
13

> <r_i_docking_score>
-6.83154366892489

> <r_i_glide_ligand_efficiency>
-0.184636315376348

> <r_i_glide_ligand_efficiency_sa>
-0.615249163963924

> <r_i_glide_ligand_efficiency_ln>
-1.48160166768339

> <r_i_glide_gscore>
-6.83154366892489

> <r_i_glide_lipo>
-1.84960091907414

> <r_i_glide_hbond>
-0.32

> <r_i_glide_metal>
0

> <r_i_glide_rewards>
-0.538648066597766

> <r_i_glide_evdw>
-43.5608253479004

> <r_i_glide_ecoul>
-17.7714920043945

> <r_i_glide_erotb>
0.720470384801212

> <r_i_glide_esite>
0

> <r_i_glide_emodel>
-81.5963285190893

> <r_i_glide_energy>
-61.3323173522949

> <r_i_glide_einternal>
12.8480968475342

> <i_i_glide_confnum>
529

> <i_i_glide_posenum>
393

> <r_i_glide_eff_state_penalty>
0

> <s_user_duplicate_titles>
CHEMBL3045_lig122

> <s_m_subgroup_title>
dock_pv

> <s_m_subgroupid>
dock_pv

> <b_m_subgroup_collapsed>
1

$$$$
CHEMBL3045_lig417 
                    3D
 Schrodinger Suite 2021-1.
 44 47  0  0  1  0            999 V2000
   38.8707   55.9622   36.4005 C   0  0  0  0  0  0
   38.9577   56.5467   37.6688 C   0  0  0  0  0  0
   37.8322   56.8667   38.3692 N   0  0  0  0  0  0
   37.6192   55.6752   35.8358 C   0  0  0  0  0  0
   36.4578   55.9720   36.5790 C   0  0  0  0  0  0
   36.6210   56.5774   37.8290 C   0  0  0  0  0  0
   37.5824   55.0987   34.5464 N   0  0  0  0  0  0
   40.2766   56.7688   38.3516 C   0  0  0  0  0  0
   40.3754   56.6637   39.7493 C   0  0  0  0  0  0
   41.5915   56.8148   40.4123 C   0  0  0  0  0  0
   42.7485   57.0767   39.6841 C   0  0  0  0  0  0
   42.6801   57.1935   38.2978 C   0  0  0  0  0  0
   41.4594   57.0497   37.6361 C   0  0  0  0  0  0
   41.4494   57.2017   36.2918 F   0  0  0  0  0  0
   38.3010   53.9980   34.1734 C   0  0  0  0  0  0
   38.3961   54.0693   32.8167 N   0  0  0  0  0  0
   37.0849   55.7390   33.4209 C   0  0  0  0  0  0
   37.6379   55.1152   32.3366 C   0  0  0  0  0  0
   37.3467   55.5721   31.0500 C   0  0  0  0  0  0
   36.4707   56.5908   30.8373 N   0  0  0  0  0  0
   35.9004   57.1764   31.9260 C   0  0  0  0  0  0
   36.1958   56.8037   33.2424 C   0  0  0  0  0  0
   38.7968   53.1457   34.9135 O   0  0  0  0  0  0
   39.1459   53.0825   32.0179 C   0  0  0  0  0  0
   41.6588   56.6692   42.1310 Cl  0  0  0  0  0  0
   35.0504   55.5958   36.1288 C   0  0  0  0  0  0
   40.6584   53.3657   32.0195 C   0  0  0  0  0  0
   41.4266   52.3720   31.5828 N   0  0  0  0  0  0
   41.1334   54.4330   32.4020 O   0  0  0  0  0  0
   39.7658   55.6839   35.8640 H   0  0  0  0  0  0
   35.7607   56.8177   38.4367 H   0  0  0  0  0  0
   39.5010   56.4437   40.3377 H   0  0  0  0  0  0
   43.6960   57.1901   40.1904 H   0  0  0  0  0  0
   43.5738   57.4053   37.7286 H   0  0  0  0  0  0
   37.7782   55.1187   30.1700 H   0  0  0  0  0  0
   35.2006   57.9723   31.7246 H   0  0  0  0  0  0
   35.7436   57.3278   34.0700 H   0  0  0  0  0  0
   38.9645   52.0715   32.3852 H   0  0  0  0  0  0
   38.8141   53.1120   30.9817 H   0  0  0  0  0  0
   34.4904   56.4760   35.8141 H   0  0  0  0  0  0
   35.0477   54.8524   35.3315 H   0  0  0  0  0  0
   34.5025   55.1484   36.9608 H   0  0  0  0  0  0
   42.4383   52.4271   31.6378 H   0  0  0  0  0  0
   40.9966   51.5053   31.2779 H   0  0  0  0  0  0
  1  2  2  0  0  0
  1  4  1  0  0  0
  1 30  1  0  0  0
  2  3  1  0  0  0
  2  8  1  0  0  0
  3  6  2  0  0  0
  4  5  2  0  0  0
  4  7  1  0  0  0
  5  6  1  0  0  0
  5 26  1  0  0  0
  6 31  1  0  0  0
  7 15  1  0  0  0
  7 17  1  0  0  0
  8  9  2  0  0  0
  8 13  1  0  0  0
  9 10  1  0  0  0
  9 32  1  0  0  0
 10 11  2  0  0  0
 10 25  1  0  0  0
 11 12  1  0  0  0
 11 33  1  0  0  0
 12 13  2  0  0  0
 12 34  1  0  0  0
 13 14  1  0  0  0
 15 16  1  0  0  0
 15 23  2  0  0  0
 16 18  1  0  0  0
 16 24  1  0  0  0
 17 18  2  0  0  0
 17 22  1  0  0  0
 18 19  1  0  0  0
 19 20  2  0  0  0
 19 35  1  0  0  0
 20 21  1  0  0  0
 21 22  2  0  0  0
 21 36  1  0  0  0
 22 37  1  0  0  0
 24 27  1  0  0  0
 24 38  1  0  0  0
 24 39  1  0  0  0
 26 40  1  0  0  0
 26 41  1  0  0  0
 26 42  1  0  0  0
 27 28  1  0  0  0
 27 29  2  0  0  0
 28 43  1  0  0  0
 28 44  1  0  0  0
M  END
> <s_m_entry_id>
3503

> <s_m_entry_name>
dock_pv.232

> <s_m_Source_Path>
/home/csk/Desktop/cluster/DUD-E-result/kpcb

> <s_m_Source_File>
dock_pv.maegz

> <i_m_Source_File_Index>
232

> <chembl_id>
CHEMBL4564126

> <chembl_pref_name>
None

> <i_lp_mmshare_version>
53161

> <i_f3d_flags>
0

> <r_lp_tautomer_probability>
1

> <s_lp_Force_Field>
OPLS_2005

> <r_lp_Energy>
52.434716

> <b_lp_Chiralities_Consistent>
1

> <s_lp_Variant>
CHEMBL3045_lig417 -1

> <s_i_glide_gridfile>
glide-grid_2i0e

> <i_i_glide_lignum>
583

> <i_i_glide_rotatable_bonds>
4

> <r_i_docking_score>
-6.82356385049852

> <r_i_glide_ligand_efficiency>
-0.235295305189604

> <r_i_glide_ligand_efficiency_sa>
-0.722901724327499

> <r_i_glide_ligand_efficiency_ln>
-1.56242309111441

> <r_i_glide_gscore>
-6.82356385049852

> <r_i_glide_lipo>
-2.54345992772984

> <r_i_glide_hbond>
-0.398603935701462

> <r_i_glide_metal>
0

> <r_i_glide_rewards>
-1.11682377246944

> <r_i_glide_evdw>
-43.5919609069824

> <r_i_glide_ecoul>
-5.54864072799683

> <r_i_glide_erotb>
0.34871393893625

> <r_i_glide_esite>
-0.101495998985386

> <r_i_glide_emodel>
-68.3434747624793

> <r_i_glide_energy>
-49.1406016349792

> <r_i_glide_einternal>
3.03971076011658

> <i_i_glide_confnum>
2

> <i_i_glide_posenum>
322

> <r_i_glide_eff_state_penalty>
0

> <s_user_duplicate_titles>
CHEMBL3045_lig417 

> <s_m_subgroup_title>
dock_pv

> <s_m_subgroupid>
dock_pv

> <b_m_subgroup_collapsed>
1

$$$$
CHEMBL3045_lig85
                    3D
 Schrodinger Suite 2021-1.
 62 65  0  0  1  0            999 V2000
   39.7505   56.9732   37.2602 C   0  0  0  0  0  0
   41.0297   56.8732   38.0415 C   0  0  0  0  0  0
   41.1731   55.7602   39.0285 C   0  0  0  0  0  0
   39.8086   57.1140   35.8614 C   0  0  0  0  0  0
   38.4750   56.9674   37.8721 C   0  0  0  0  0  0
   37.8729   55.0446   31.9530 C   0  0  0  0  0  0
   41.5067   54.4338   38.6348 C   0  0  0  0  0  0
   37.5505   56.1434   31.2387 N   0  0  0  0  0  0
   41.8898   54.0436   37.2120 C   0  0  0  0  0  0
   36.2368   56.8285   31.1373 C   0  0  2  0  0  0
   39.3244   54.6490   31.9612 C   0  0  0  0  0  0
   42.0136   57.5597   37.7539 O   0  0  0  0  0  0
   38.6422   57.1688   35.1072 C   0  0  0  0  0  0
   37.3149   57.0386   37.0988 C   0  0  0  0  0  0
   40.8982   56.0240   40.3855 C   0  0  0  0  0  0
   37.0667   54.3751   32.5964 O   0  0  0  0  0  0
   37.3798   57.1200   35.7100 C   0  0  0  0  0  0
   36.4544   57.1716   33.5039 O   0  0  0  0  0  0
   42.4886   54.7981   36.4508 O   0  0  0  0  0  0
   35.4831   57.0999   32.4719 C   0  0  2  0  0  0
   39.6821   53.2907   31.9783 C   0  0  0  0  0  0
   40.3274   55.6251   32.0045 C   0  0  0  0  0  0
   38.2935   56.9435   39.2331 O   0  0  0  0  0  0
   40.9933   57.1868   35.1694 O   0  0  0  0  0  0
   36.0958   57.1687   34.8776 C   0  0  0  0  0  0
   41.4996   52.7933   36.8375 O   0  0  0  0  0  0
   42.0059   53.9032   32.0508 C   0  0  0  0  0  0
   41.6648   55.2509   32.0527 C   0  0  0  0  0  0
   41.0247   52.9190   32.0048 C   0  0  0  0  0  0
   40.6519   57.2864   40.8359 O   0  0  0  0  0  0
   41.5006   53.4359   39.6232 C   0  0  0  0  0  0
   43.3279   53.5720   32.1047 O   0  0  0  0  0  0
   41.1064   53.7019   40.9261 C   0  0  0  0  0  0
   35.2276   56.0635   30.2728 C   0  0  0  0  0  0
   34.3898   55.2447   31.2485 C   0  0  0  0  0  0
   40.8319   54.9976   41.3172 C   0  0  0  0  0  0
   34.4327   55.9704   32.5989 C   0  0  0  0  0  0
   38.2738   56.4799   30.6178 H   0  0  0  0  0  0
   36.4672   57.7593   30.6129 H   0  0  0  0  0  0
   38.7435   57.2498   34.0367 H   0  0  0  0  0  0
   36.3523   57.0418   37.5869 H   0  0  0  0  0  0
   35.0119   58.0876   32.4239 H   0  0  0  0  0  0
   38.9191   52.5218   31.9612 H   0  0  0  0  0  0
   40.0798   56.6767   32.0215 H   0  0  0  0  0  0
   39.1211   56.9119   39.7221 H   0  0  0  0  0  0
   41.7494   57.1040   35.7603 H   0  0  0  0  0  0
   35.5123   56.2850   35.1320 H   0  0  0  0  0  0
   35.4993   58.0480   35.1263 H   0  0  0  0  0  0
   41.8205   52.5774   35.9600 H   0  0  0  0  0  0
   42.4434   56.0001   32.1237 H   0  0  0  0  0  0
   41.2922   51.8703   31.9996 H   0  0  0  0  0  0
   40.5002   57.3294   41.7844 H   0  0  0  0  0  0
   41.6691   52.3987   39.4095 H   0  0  0  0  0  0
   43.5011   52.6035   32.0379 H   0  0  0  0  0  0
   41.0228   52.8940   41.6359 H   0  0  0  0  0  0
   35.6943   55.4829   29.4758 H   0  0  0  0  0  0
   34.5548   56.7673   29.7802 H   0  0  0  0  0  0
   34.8576   54.2733   31.3583 H   0  0  0  0  0  0
   33.3740   55.0847   30.8914 H   0  0  0  0  0  0
   40.5586   55.1892   42.3423 H   0  0  0  0  0  0
   34.6750   55.2533   33.3845 H   0  0  0  0  0  0
   33.4528   56.3710   32.8369 H   0  0  0  0  0  0
  1  2  1  0  0  0
  1  4  1  0  0  0
  1  5  2  0  0  0
  2  3  1  0  0  0
  2 12  2  0  0  0
  3  7  1  0  0  0
  3 15  2  0  0  0
  4 13  2  0  0  0
  4 24  1  0  0  0
  5 14  1  0  0  0
  5 23  1  0  0  0
  6  8  1  0  0  0
  6 11  1  0  0  0
  6 16  2  0  0  0
  7  9  1  0  0  0
  7 31  2  0  0  0
  8 10  1  0  0  0
  8 38  1  0  0  0
  9 19  2  0  0  0
  9 26  1  0  0  0
 10 20  1  0  0  0
 10 34  1  0  0  0
 10 39  1  0  0  0
 11 21  2  0  0  0
 11 22  1  0  0  0
 13 17  1  0  0  0
 13 40  1  0  0  0
 14 17  2  0  0  0
 14 41  1  0  0  0
 15 30  1  0  0  0
 15 36  1  0  0  0
 17 25  1  0  0  0
 18 25  1  0  0  0
 18 20  1  0  0  0
 20 37  1  0  0  0
 20 42  1  0  0  0
 21 29  1  0  0  0
 21 43  1  0  0  0
 22 28  2  0  0  0
 22 44  1  0  0  0
 23 45  1  0  0  0
 24 46  1  0  0  0
 25 47  1  0  0  0
 25 48  1  0  0  0
 26 49  1  0  0  0
 27 28  1  0  0  0
 27 32  1  0  0  0
 27 29  2  0  0  0
 28 50  1  0  0  0
 29 51  1  0  0  0
 30 52  1  0  0  0
 31 33  1  0  0  0
 31 53  1  0  0  0
 32 54  1  0  0  0
 33 36  2  0  0  0
 33 55  1  0  0  0
 34 35  1  0  0  0
 34 56  1  0  0  0
 34 57  1  0  0  0
 35 37  1  0  0  0
 35 58  1  0  0  0
 35 59  1  0  0  0
 36 60  1  0  0  0
 37 61  1  0  0  0
 37 62  1  0  0  0
M  END
> <s_m_entry_id>
3504

> <s_m_entry_name>
dock_pv.233

> <s_m_Source_Path>
/home/csk/Desktop/cluster/DUD-E-result/kpcb

> <s_m_Source_File>
dock_pv.maegz

> <i_m_Source_File_Index>
233

> <chembl_id>
CHEMBL89833

> <chembl_pref_name>
None

> <i_lp_mmshare_version>
53161

> <i_f3d_flags>
0

> <r_lp_tautomer_probability>
0.999999999997365

> <s_lp_Force_Field>
OPLS_2005

> <r_lp_Energy>
55.174038

> <b_lp_Chiralities_Consistent>
1

> <s_lp_Variant>
CHEMBL3045_lig85-1

> <s_i_glide_gridfile>
glide-grid_2i0e

> <i_i_glide_lignum>
132

> <i_i_glide_rotatable_bonds>
14

> <r_i_docking_score>
-6.80047851266944

> <r_i_glide_ligand_efficiency>
-0.183796716558633

> <r_i_glide_ligand_efficiency_sa>
-0.612451434440285

> <r_i_glide_ligand_efficiency_ln>
-1.47486436356217

> <r_i_glide_gscore>
-6.80047851266944

> <r_i_glide_lipo>
-3.09987878921345

> <r_i_glide_hbond>
-0.16

> <r_i_glide_metal>
0

> <r_i_glide_rewards>
-0.321440320456375

> <r_i_glide_evdw>
-44.3729286193848

> <r_i_glide_ecoul>
-11.2511405944824

> <r_i_glide_erotb>
0.715227185350911

> <r_i_glide_esite>
-0.0280690682089232

> <r_i_glide_emodel>
-62.7403386441064

> <r_i_glide_energy>
-55.6240692138672

> <r_i_glide_einternal>
19.6888179779053

> <i_i_glide_confnum>
159

> <i_i_glide_posenum>
16

> <r_i_glide_eff_state_penalty>
0

> <s_user_duplicate_titles>
CHEMBL3045_lig85

> <s_m_subgroup_title>
dock_pv

> <s_m_subgroupid>
dock_pv

> <b_m_subgroup_collapsed>
1

$$$$
259100
                    3D
 Schrodinger Suite 2021-1.
 56 61  0  0  1  0            999 V2000
   39.4514   52.8125   34.7840 C   0  0  0  0  0  0
   39.1013   53.3312   33.4624 N   0  0  0  0  0  0
   38.7023   52.2130   32.6135 C   0  0  0  0  0  0
   40.2532   54.0132   32.8630 C   0  0  0  0  0  0
   39.8845   54.8853   31.6384 C   0  0  0  0  0  0
   39.1470   56.2119   31.9354 C   0  0  0  0  0  0
   37.8299   56.0489   32.5557 N   0  0  0  0  0  0
   36.6467   55.8259   31.8531 C   0  0  0  0  0  0
   36.4198   55.6489   30.4844 C   0  0  0  0  0  0
   35.1008   55.5724   30.0432 C   0  0  0  0  0  0
   34.0317   55.5772   30.9299 C   0  0  0  0  0  0
   34.2486   55.6741   32.3048 C   0  0  0  0  0  0
   35.5683   55.8195   32.7796 C   0  0  0  0  0  0
   36.1222   55.9686   34.0643 C   0  0  0  0  0  0
   37.5156   56.1347   33.9067 C   0  0  0  0  0  0
   38.3307   56.3387   35.0299 C   0  0  0  0  0  0
   37.7852   56.3508   36.3288 C   0  0  0  0  0  0
   38.8690   56.4864   37.2266 C   0  0  0  0  0  0
   38.9690   56.4870   38.6292 C   0  0  0  0  0  0
   40.2161   56.6222   39.2255 C   0  0  0  0  0  0
   41.3623   56.7715   38.4495 C   0  0  0  0  0  0
   41.3138   56.7753   37.0528 C   0  0  0  0  0  0
   40.0571   56.6194   36.4526 C   0  0  0  0  0  0
   39.6923   56.5401   35.1194 N   0  0  0  0  0  0
   40.3027   56.5927   40.5936 O   0  0  0  0  0  0
   36.3931   56.2110   36.4633 C   0  0  0  0  0  0
   35.5810   55.9983   35.3569 C   0  0  0  0  0  0
   34.1662   55.8342   35.8056 C   0  0  0  0  0  0
   34.3008   56.0346   37.2355 N   0  0  0  0  0  0
   35.5350   56.2769   37.6786 C   0  0  0  0  0  0
   35.8408   56.5227   38.8370 O   0  0  0  0  0  0
   32.7579   55.4561   30.4370 O   0  0  0  0  0  0
   40.3300   56.5731   34.3389 H   0  0  0  0  0  0
   39.7416   53.6228   35.4551 H   0  0  0  0  0  0
   38.5943   52.3131   35.2390 H   0  0  0  0  0  0
   40.2757   52.0986   34.7393 H   0  0  0  0  0  0
   38.3441   52.5416   31.6418 H   0  0  0  0  0  0
   39.5632   51.5720   32.4373 H   0  0  0  0  0  0
   37.9051   51.6162   33.0557 H   0  0  0  0  0  0
   41.0406   53.3025   32.6023 H   0  0  0  0  0  0
   40.7001   54.6637   33.6159 H   0  0  0  0  0  0
   39.3153   54.3129   30.9076 H   0  0  0  0  0  0
   40.8125   55.1383   31.1254 H   0  0  0  0  0  0
   38.9948   56.7594   31.0097 H   0  0  0  0  0  0
   39.7530   56.8669   32.5576 H   0  0  0  0  0  0
   37.2337   55.5694   29.7890 H   0  0  0  0  0  0
   34.9134   55.4542   28.9853 H   0  0  0  0  0  0
   33.4101   55.6593   32.9837 H   0  0  0  0  0  0
   38.1112   56.3502   39.2607 H   0  0  0  0  0  0
   42.3180   56.8754   38.9415 H   0  0  0  0  0  0
   42.2178   56.8758   36.4692 H   0  0  0  0  0  0
   39.4640   56.3744   41.0234 H   0  0  0  0  0  0
   33.7644   54.8438   35.5944 H   0  0  0  0  0  0
   33.5008   56.5767   35.3710 H   0  0  0  0  0  0
   33.5001   56.1578   37.8452 H   0  0  0  0  0  0
   32.7015   55.5725   29.4739 H   0  0  0  0  0  0
  1  2  1  0  0  0
  1 34  1  0  0  0
  1 35  1  0  0  0
  1 36  1  0  0  0
  2  3  1  0  0  0
  2  4  1  0  0  0
  3 37  1  0  0  0
  3 38  1  0  0  0
  3 39  1  0  0  0
  4  5  1  0  0  0
  4 40  1  0  0  0
  4 41  1  0  0  0
  5  6  1  0  0  0
  5 42  1  0  0  0
  5 43  1  0  0  0
  6  7  1  0  0  0
  6 44  1  0  0  0
  6 45  1  0  0  0
  7 15  1  0  0  0
  7  8  1  0  0  0
  8 13  2  0  0  0
  8  9  1  0  0  0
  9 10  2  0  0  0
  9 46  1  0  0  0
 10 11  1  0  0  0
 10 47  1  0  0  0
 11 12  2  0  0  0
 11 32  1  0  0  0
 12 13  1  0  0  0
 12 48  1  0  0  0
 13 14  1  0  0  0
 14 27  2  0  0  0
 14 15  1  0  0  0
 15 16  2  0  0  0
 16 24  1  0  0  0
 16 17  1  0  0  0
 17 18  1  0  0  0
 17 26  2  0  0  0
 18 23  2  0  0  0
 18 19  1  0  0  0
 19 20  2  0  0  0
 19 49  1  0  0  0
 20 21  1  0  0  0
 20 25  1  0  0  0
 21 22  2  0  0  0
 21 50  1  0  0  0
 22 23  1  0  0  0
 22 51  1  0  0  0
 23 24  1  0  0  0
 24 33  1  0  0  0
 25 52  1  0  0  0
 26 30  1  0  0  0
 26 27  1  0  0  0
 27 28  1  0  0  0
 28 29  1  0  0  0
 28 53  1  0  0  0
 28 54  1  0  0  0
 29 30  1  0  0  0
 29 55  1  0  0  0
 30 31  2  0  0  0
 32 56  1  0  0  0
M  END
> <s_m_entry_id>
4231

> <s_m_entry_name>
ligand_docking-pose.1

> <s_m_Source_Path>
/home/csk/Desktop/cluster/DUD-E-result/kpcb

> <s_m_Source_File>
ligand_docking-pose.sdf

> <i_m_Source_File_Index>
1

> <i_lp_mmshare_version>
53161

> <r_lp_tautomer_probability>
1

> <s_lp_Force_Field>
OPLS_2005

> <r_lp_Energy>
78.753168

> <b_lp_Chiralities_Consistent>
1

> <s_lp_Variant>
259100-1

> <s_i_glide_gridfile>
glide-grid_2i0e

> <i_i_glide_lignum>
513

> <i_i_glide_rotatable_bonds>
6

> <r_i_docking_score>
-10.6908632180153

> <r_i_glide_ligand_efficiency>
-0.334089475562978

> <r_i_glide_ligand_efficiency_sa>
-1.06066796869502

> <r_i_glide_ligand_efficiency_ln>
-2.39397569643848

> <r_i_glide_gscore>
-10.6908632180153

> <r_i_glide_lipo>
-3.31448259495016

> <r_i_glide_hbond>
-1.06271746210013

> <r_i_glide_metal>
0

> <r_i_glide_rewards>
-1.94444531492461

> <r_i_glide_evdw>
-47.3362731933594

> <r_i_glide_ecoul>
-14.864070892334

> <r_i_glide_erotb>
0.227206447477669

> <r_i_glide_esite>
0

> <r_i_glide_emodel>
-99.546538397886

> <r_i_glide_energy>
-62.2003440856934

> <r_i_glide_einternal>
5.08347511291504

> <i_i_glide_confnum>
47

> <i_i_glide_posenum>
293

> <r_i_glide_eff_state_penalty>
0

> <i_f3d_flags>
0

> <s_user_duplicate_titles>
259100

> <s_m_subgroup_title>
dock_pv

> <s_m_subgroupid>
dock_pv1

> <b_m_subgroup_collapsed>
0

$$$$
263
                    3D
 Schrodinger Suite 2021-1.
 59 63  0  0  1  0            999 V2000
   38.8594   55.1286   31.3049 C   0  0  0  0  0  0
   37.7050   55.3676   32.1562 N   0  0  0  0  0  0
   37.7372   55.5317   33.5156 C   0  0  0  0  0  0
   36.4874   55.8177   34.0445 C   0  0  0  0  0  0
   35.5964   55.7737   32.8857 C   0  0  0  0  0  0
   36.4150   55.5717   31.7236 C   0  0  0  0  0  0
   35.9009   55.5720   30.4216 C   0  0  0  0  0  0
   34.5305   55.7406   30.2740 C   0  0  0  0  0  0
   33.6941   55.8841   31.3690 C   0  0  0  0  0  0
   34.2073   55.8945   32.6630 C   0  0  0  0  0  0
   36.2409   56.1215   35.4879 C   0  0  0  0  0  0
   37.0773   56.5891   36.4459 C   0  0  0  0  0  0
   36.3382   56.7561   37.6712 C   0  0  0  0  0  0
   36.7013   57.1721   38.7718 O   0  0  0  0  0  0
   35.1010   56.3718   37.3754 N   0  0  0  0  0  0
   34.9517   55.9772   36.1117 C   0  0  0  0  0  0
   33.8990   55.5718   35.6454 O   0  0  0  0  0  0
   38.5097   56.8974   36.3788 C   0  0  0  0  0  0
   39.1343   57.5542   35.3430 C   0  0  0  0  0  0
   40.4961   57.5490   35.5045 N   0  0  0  0  0  0
   40.7950   57.0062   36.7445 C   0  0  0  0  0  0
   39.5557   56.5844   37.3259 C   0  0  0  0  0  0
   39.5905   55.9720   38.5916 C   0  0  0  0  0  0
   40.8095   55.8084   39.2436 C   0  0  0  0  0  0
   41.9972   56.2298   38.6575 C   0  0  0  0  0  0
   42.0232   56.8320   37.4008 C   0  0  0  0  0  0
   41.4439   58.0640   34.5236 C   0  0  0  0  0  0
   41.3852   57.3112   33.1766 C   0  0  0  0  0  0
   42.1175   55.9547   33.1476 C   0  0  0  0  0  0
   41.5241   55.0245   34.0964 N   0  0  0  0  0  0
   41.4432   53.7760   33.8541 C   0  0  0  0  0  0
   41.9011   53.1708   32.6639 N   0  0  0  0  0  0
   40.9205   52.7720   34.6302 N   0  0  0  0  0  0
   39.6443   52.7537   35.2035 N   0  3  0  0  0  0
   39.1751   53.7967   35.6377 O   0  5  0  0  0  0
   39.1011   51.6576   35.2372 O   0  0  0  0  0  0
   38.6097   54.3996   30.5329 H   0  0  0  0  0  0
   39.1609   56.0638   30.8370 H   0  0  0  0  0  0
   39.6839   54.7332   31.8912 H   0  0  0  0  0  0
   38.6926   55.4419   34.0057 H   0  0  0  0  0  0
   36.5297   55.3998   29.5619 H   0  0  0  0  0  0
   34.1042   55.7197   29.2814 H   0  0  0  0  0  0
   32.6291   55.9823   31.2098 H   0  0  0  0  0  0
   33.5015   55.9762   33.4648 H   0  0  0  0  0  0
   34.3392   56.3931   38.0372 H   0  0  0  0  0  0
   38.7117   57.9618   34.4373 H   0  0  0  0  0  0
   38.6860   55.6154   39.0603 H   0  0  0  0  0  0
   40.8332   55.3353   40.2150 H   0  0  0  0  0  0
   42.9264   56.0755   39.1871 H   0  0  0  0  0  0
   42.9606   57.1392   36.9613 H   0  0  0  0  0  0
   42.4510   57.9721   34.9290 H   0  0  0  0  0  0
   41.2331   59.1241   34.3816 H   0  0  0  0  0  0
   41.8626   57.9504   32.4371 H   0  0  0  0  0  0
   40.3576   57.1965   32.8310 H   0  0  0  0  0  0
   43.1638   56.1137   33.4148 H   0  0  0  0  0  0
   42.1148   55.5938   32.1163 H   0  0  0  0  0  0
   42.3654   53.7852   32.0151 H   0  0  0  0  0  0
   42.4808   52.3416   32.7541 H   0  0  0  0  0  0
   41.2328   51.8246   34.4366 H   0  0  0  0  0  0
  1  2  1  0  0  0
  1 37  1  0  0  0
  1 38  1  0  0  0
  1 39  1  0  0  0
  2  6  1  0  0  0
  2  3  1  0  0  0
  3  4  2  0  0  0
  3 40  1  0  0  0
  4  5  1  0  0  0
  4 11  1  0  0  0
  5 10  2  0  0  0
  5  6  1  0  0  0
  6  7  2  0  0  0
  7  8  1  0  0  0
  7 41  1  0  0  0
  8  9  2  0  0  0
  8 42  1  0  0  0
  9 10  1  0  0  0
  9 43  1  0  0  0
 10 44  1  0  0  0
 11 16  1  0  0  0
 11 12  2  0  0  0
 12 13  1  0  0  0
 12 18  1  0  0  0
 13 14  2  0  0  0
 13 15  1  0  0  0
 15 16  1  0  0  0
 15 45  1  0  0  0
 16 17  2  0  0  0
 18 22  1  0  0  0
 18 19  2  0  0  0
 19 20  1  0  0  0
 19 46  1  0  0  0
 20 21  1  0  0  0
 20 27  1  0  0  0
 21 26  1  0  0  0
 21 22  2  0  0  0
 22 23  1  0  0  0
 23 24  2  0  0  0
 23 47  1  0  0  0
 24 25  1  0  0  0
 24 48  1  0  0  0
 25 26  2  0  0  0
 25 49  1  0  0  0
 26 50  1  0  0  0
 27 28  1  0  0  0
 27 51  1  0  0  0
 27 52  1  0  0  0
 28 29  1  0  0  0
 28 53  1  0  0  0
 28 54  1  0  0  0
 29 30  1  0  0  0
 29 55  1  0  0  0
 29 56  1  0  0  0
 30 31  2  0  0  0
 31 32  1  0  0  0
 31 33  1  0  0  0
 32 57  1  0  0  0
 32 58  1  0  0  0
 33 34  1  0  0  0
 33 59  1  0  0  0
 34 35  1  0  0  0
 34 36  2  0  0  0
M  CHG  2  34   1  35  -1
M  END
> <s_m_entry_id>
4232

> <s_m_entry_name>
ligand_docking-pose.2

> <s_m_Source_Path>
/home/csk/Desktop/cluster/DUD-E-result/kpcb

> <s_m_Source_File>
ligand_docking-pose.sdf

> <i_m_Source_File_Index>
2

> <i_lp_mmshare_version>
53161

> <r_lp_tautomer_probability>
1

> <s_lp_Force_Field>
OPLS_2005

> <r_lp_Energy>
26.761642

> <b_lp_Chiralities_Consistent>
1

> <s_lp_Variant>
263-1

> <s_i_glide_gridfile>
glide-grid_2i0e

> <i_i_glide_lignum>
476

> <i_i_glide_rotatable_bonds>
8

> <r_i_docking_score>
-10.4191798523878

> <r_i_glide_ligand_efficiency>
-0.289421662566328

> <r_i_glide_ligand_efficiency_sa>
-0.955649272906616

> <r_i_glide_ligand_efficiency_ln>
-2.27318355008202

> <r_i_glide_gscore>
-10.4191798523878

> <r_i_glide_lipo>
-2.89881129377141

> <r_i_glide_hbond>
-0.740997849650107

> <r_i_glide_metal>
0

> <r_i_glide_rewards>
-2.27771459372131

> <r_i_glide_evdw>
-57.6384391784668

> <r_i_glide_ecoul>
-12.6490564346313

> <r_i_glide_erotb>
0.422332821634567

> <r_i_glide_esite>
-0.14470851276151

> <r_i_glide_emodel>
-109.677264471179

> <r_i_glide_energy>
-70.2874956130981

> <r_i_glide_einternal>
11.6883172988892

> <i_i_glide_confnum>
75

> <i_i_glide_posenum>
116

> <r_i_glide_eff_state_penalty>
0

> <i_f3d_flags>
0

> <s_user_duplicate_titles>
263

> <s_m_subgroup_title>
dock_pv

> <s_m_subgroupid>
dock_pv1

> <b_m_subgroup_collapsed>
0

$$$$
215443
                    3D
 Schrodinger Suite 2021-1.
 62 69  0  0  1  0            999 V2000
   42.0669   57.2323   33.4659 C   0  0  0  0  0  0
   40.9057   56.2220   33.5376 C   0  0  2  0  0  0
   41.4411   54.7513   33.3287 C   0  0  2  0  0  0
   41.0560   54.2090   31.9259 C   0  0  2  0  0  0
   39.5426   54.3648   31.7649 C   0  0  0  0  0  0
   39.1345   55.8334   31.9026 C   0  0  2  0  0  0
   40.1334   56.6668   32.4369 O   0  0  0  0  0  0
   37.8934   55.9720   32.6084 N   0  0  0  0  0  0
   36.6172   55.8598   32.0623 C   0  0  0  0  0  0
   36.1995   55.6505   30.7400 C   0  0  0  0  0  0
   34.8270   55.5888   30.4973 C   0  0  0  0  0  0
   33.8964   55.6977   31.5251 C   0  0  0  0  0  0
   34.3048   55.8786   32.8437 C   0  0  0  0  0  0
   35.6791   55.9715   33.1229 C   0  0  0  0  0  0
   36.4084   56.1497   34.3113 C   0  0  0  0  0  0
   37.7682   56.1600   33.9715 C   0  0  0  0  0  0
   38.7582   56.3180   34.9491 C   0  0  0  0  0  0
   40.1471   56.3521   34.8053 N   0  0  0  0  0  0
   40.6723   56.4381   36.1056 C   0  0  0  0  0  0
   41.9991   56.3896   36.5745 C   0  0  0  0  0  0
   42.2245   56.5539   37.9386 C   0  0  0  0  0  0
   41.1822   56.7450   38.8335 C   0  0  0  0  0  0
   39.8633   56.7549   38.3987 C   0  0  0  0  0  0
   39.5881   56.5846   37.0294 C   0  0  0  0  0  0
   38.3871   56.4750   36.3071 C   0  0  0  0  0  0
   37.0126   56.4578   36.6440 C   0  0  0  0  0  0
   36.0517   56.2715   35.6575 C   0  0  0  0  0  0
   34.7068   56.1127   36.2745 C   0  0  2  0  0  0
   35.0010   56.4855   37.6369 N   0  0  0  0  0  0
   36.2967   56.5813   37.9593 C   0  0  0  0  0  0
   36.7230   56.7726   39.0941 O   0  0  0  0  0  0
   34.3010   54.7718   36.1680 O   0  0  0  0  0  0
   41.5013   52.8450   31.6442 N   0  0  1  0  0  0
   41.4146   52.4565   30.2430 C   0  0  0  0  0  0
   40.9817   53.8599   34.3589 O   0  0  0  0  0  0
   41.9683   53.0125   34.9387 C   0  0  0  0  0  0
   42.5319   54.7872   33.3809 H   0  0  0  0  0  0
   41.5370   54.8553   31.1884 H   0  0  0  0  0  0
   38.9362   56.3004   30.9369 H   0  0  0  0  0  0
   33.9752   56.8014   35.8479 H   0  0  0  0  0  0
   42.9308   56.9310   34.0496 H   0  0  0  0  0  0
   42.4169   57.3236   32.4375 H   0  0  0  0  0  0
   41.7359   58.2172   33.8006 H   0  0  0  0  0  0
   39.0381   53.7580   32.5209 H   0  0  0  0  0  0
   39.1871   54.0118   30.7961 H   0  0  0  0  0  0
   36.9038   55.5317   29.9324 H   0  0  0  0  0  0
   34.4746   55.4368   29.4860 H   0  0  0  0  0  0
   32.8427   55.6357   31.2944 H   0  0  0  0  0  0
   33.5690   55.9458   33.6299 H   0  0  0  0  0  0
   42.8440   56.2043   35.9360 H   0  0  0  0  0  0
   43.2376   56.5186   38.3127 H   0  0  0  0  0  0
   41.3975   56.8625   39.8855 H   0  0  0  0  0  0
   39.0797   56.8695   39.1271 H   0  0  0  0  0  0
   34.2538   56.6331   38.3073 H   0  0  0  0  0  0
   33.3736   54.6829   36.4370 H   0  0  0  0  0  0
   42.4018   52.5881   32.0448 H   0  0  0  0  0  0
   40.3793   52.3726   29.9110 H   0  0  0  0  0  0
   41.9393   53.1613   29.5976 H   0  0  0  0  0  0
   41.8745   51.4770   30.1150 H   0  0  0  0  0  0
   41.5003   52.3717   35.6857 H   0  0  0  0  0  0
   42.4445   52.3724   34.1951 H   0  0  0  0  0  0
   42.7426   53.5941   35.4414 H   0  0  0  0  0  0
  1  2  1  0  0  0
  1 41  1  0  0  0
  1 42  1  0  0  0
  1 43  1  0  0  0
  2  7  1  0  0  0
  2 18  1  0  0  0
  2  3  1  0  0  0
  3 37  1  0  0  0
  3  4  1  0  0  0
  3 35  1  0  0  0
  4 38  1  0  0  0
  4  5  1  0  0  0
  4 33  1  0  0  0
  5  6  1  0  0  0
  5 44  1  0  0  0
  5 45  1  0  0  0
  6 39  1  0  0  0
  6  7  1  0  0  0
  6  8  1  0  0  0
  8 16  1  0  0  0
  8  9  1  0  0  0
  9 14  2  0  0  0
  9 10  1  0  0  0
 10 11  2  0  0  0
 10 46  1  0  0  0
 11 12  1  0  0  0
 11 47  1  0  0  0
 12 13  2  0  0  0
 12 48  1  0  0  0
 13 14  1  0  0  0
 13 49  1  0  0  0
 14 15  1  0  0  0
 15 27  2  0  0  0
 15 16  1  0  0  0
 16 17  2  0  0  0
 17 25  1  0  0  0
 17 18  1  0  0  0
 18 19  1  0  0  0
 19 24  1  0  0  0
 19 20  2  0  0  0
 20 21  1  0  0  0
 20 50  1  0  0  0
 21 22  2  0  0  0
 21 51  1  0  0  0
 22 23  1  0  0  0
 22 52  1  0  0  0
 23 24  2  0  0  0
 23 53  1  0  0  0
 24 25  1  0  0  0
 25 26  2  0  0  0
 26 30  1  0  0  0
 26 27  1  0  0  0
 27 28  1  0  0  0
 28 40  1  0  0  0
 28 29  1  0  0  0
 28 32  1  0  0  0
 29 30  1  0  0  0
 29 54  1  0  0  0
 30 31  2  0  0  0
 32 55  1  0  0  0
 33 34  1  0  0  0
 33 56  1  0  0  0
 34 57  1  0  0  0
 34 58  1  0  0  0
 34 59  1  0  0  0
 35 36  1  0  0  0
 36 60  1  0  0  0
 36 61  1  0  0  0
 36 62  1  0  0  0
M  END
> <s_m_entry_id>
4233

> <s_m_entry_name>
ligand_docking-pose.3

> <s_m_Source_Path>
/home/csk/Desktop/cluster/DUD-E-result/kpcb

> <s_m_Source_File>
ligand_docking-pose.sdf

> <i_m_Source_File_Index>
3

> <i_lp_mmshare_version>
53161

> <r_lp_tautomer_probability>
1

> <s_lp_Force_Field>
OPLS_2005

> <r_lp_Energy>
123.506481

> <b_lp_Chiralities_Consistent>
1

> <s_lp_Variant>
215443-1

> <s_i_glide_gridfile>
glide-grid_2i0e

> <i_i_glide_lignum>
237

> <i_i_glide_rotatable_bonds>
3

> <r_i_docking_score>
-10.3224791610743

> <r_i_glide_ligand_efficiency>
-0.286735532252063

> <r_i_glide_ligand_efficiency_sa>
-0.946779866038457

> <r_i_glide_ligand_efficiency_ln>
-2.25208607178816

> <r_i_glide_gscore>
-10.3224791610743

> <r_i_glide_lipo>
-2.76269238763523

> <r_i_glide_hbond>
-0.906705149058709

> <r_i_glide_metal>
0

> <r_i_glide_rewards>
-2.3845557855284

> <r_i_glide_evdw>
-50.1348648071289

> <r_i_glide_ecoul>
-11.7452173233032

> <r_i_glide_erotb>
0

> <r_i_glide_esite>
0

> <r_i_glide_emodel>
-98.5811161275743

> <r_i_glide_energy>
-61.8800821304321

> <r_i_glide_einternal>
0.680466651916504

> <i_i_glide_confnum>
2

> <i_i_glide_posenum>
136

> <r_i_glide_eff_state_penalty>
0

> <i_f3d_flags>
0

> <s_user_duplicate_titles>
215443

> <s_m_subgroup_title>
dock_pv

> <s_m_subgroupid>
dock_pv1

> <b_m_subgroup_collapsed>
0

$$$$
160533
                    3D
 Schrodinger Suite 2021-1.
 53 58  0  0  1  0            999 V2000
   41.8887   56.6407   38.8968 C   0  0  0  0  0  0
   40.8142   56.7675   37.9242 N   0  0  0  0  0  0
   39.4775   56.6164   38.1985 C   0  0  0  0  0  0
   38.7190   56.7096   37.0413 C   0  0  0  0  0  0
   39.6586   57.0522   35.9960 C   0  0  0  0  0  0
   40.9688   56.9963   36.5694 C   0  0  0  0  0  0
   42.1263   57.1720   35.7991 C   0  0  0  0  0  0
   41.9569   57.4415   34.4432 C   0  0  0  0  0  0
   40.6974   57.5710   33.8720 C   0  0  0  0  0  0
   39.5474   57.3917   34.6363 C   0  0  0  0  0  0
   37.2687   56.4620   36.9581 C   0  0  0  0  0  0
   36.5207   56.0132   35.9322 C   0  0  0  0  0  0
   35.1485   55.9731   36.3572 C   0  0  0  0  0  0
   34.1515   55.6337   35.7239 O   0  0  0  0  0  0
   35.1626   56.3882   37.6268 N   0  0  0  0  0  0
   36.3844   56.7035   38.0701 C   0  0  0  0  0  0
   36.6500   57.1220   39.1966 O   0  0  0  0  0  0
   36.9311   55.5614   34.5958 C   0  0  0  0  0  0
   36.3492   55.9802   33.3486 C   0  0  0  0  0  0
   35.2946   56.8416   32.9944 C   0  0  0  0  0  0
   34.9851   57.0253   31.6486 C   0  0  0  0  0  0
   35.7260   56.3940   30.6556 C   0  0  0  0  0  0
   36.8098   55.5716   30.9568 C   0  0  0  0  0  0
   37.0948   55.3536   32.3117 C   0  0  0  0  0  0
   38.0665   54.5717   32.9132 N   0  0  0  0  0  0
   37.9462   54.6497   34.2983 C   0  0  0  0  0  0
   38.8251   53.7771   35.1973 C   0  0  0  0  0  0
   40.1431   53.4488   34.4727 C   0  0  0  0  0  0
   39.8699   52.8533   33.0838 C   0  0  1  0  0  0
   39.1331   53.8671   32.1821 C   0  0  0  0  0  0
   41.0767   52.3722   32.4366 N   0  0  0  0  0  0
   41.4819   56.5641   39.9058 H   0  0  0  0  0  0
   42.4715   55.7467   38.6726 H   0  0  0  0  0  0
   42.5343   57.5181   38.8371 H   0  0  0  0  0  0
   39.1674   56.3849   39.2093 H   0  0  0  0  0  0
   43.1150   57.1133   36.2309 H   0  0  0  0  0  0
   42.8317   57.5769   33.8235 H   0  0  0  0  0  0
   40.6118   57.8022   32.8199 H   0  0  0  0  0  0
   38.5806   57.5009   34.1725 H   0  0  0  0  0  0
   34.3257   56.4806   38.1854 H   0  0  0  0  0  0
   34.7141   57.3428   33.7543 H   0  0  0  0  0  0
   34.1603   57.6660   31.3670 H   0  0  0  0  0  0
   35.4589   56.5498   29.6203 H   0  0  0  0  0  0
   37.3800   55.1008   30.1675 H   0  0  0  0  0  0
   39.0395   54.2434   36.1567 H   0  0  0  0  0  0
   38.3005   52.8504   35.4324 H   0  0  0  0  0  0
   40.7678   54.3404   34.3872 H   0  0  0  0  0  0
   40.7139   52.7396   35.0752 H   0  0  0  0  0  0
   39.2202   51.9851   33.2104 H   0  0  0  0  0  0
   38.7062   53.3642   31.3156 H   0  0  0  0  0  0
   39.8234   54.6139   31.7853 H   0  0  0  0  0  0
   41.5850   51.7469   33.0540 H   0  0  0  0  0  0
   40.8237   51.8059   31.6334 H   0  0  0  0  0  0
  1  2  1  0  0  0
  1 32  1  0  0  0
  1 33  1  0  0  0
  1 34  1  0  0  0
  2  6  1  0  0  0
  2  3  1  0  0  0
  3  4  2  0  0  0
  3 35  1  0  0  0
  4  5  1  0  0  0
  4 11  1  0  0  0
  5 10  2  0  0  0
  5  6  1  0  0  0
  6  7  2  0  0  0
  7  8  1  0  0  0
  7 36  1  0  0  0
  8  9  2  0  0  0
  8 37  1  0  0  0
  9 10  1  0  0  0
  9 38  1  0  0  0
 10 39  1  0  0  0
 11 16  1  0  0  0
 11 12  2  0  0  0
 12 13  1  0  0  0
 12 18  1  0  0  0
 13 14  2  0  0  0
 13 15  1  0  0  0
 15 16  1  0  0  0
 15 40  1  0  0  0
 16 17  2  0  0  0
 18 26  2  0  0  0
 18 19  1  0  0  0
 19 24  2  0  0  0
 19 20  1  0  0  0
 20 21  2  0  0  0
 20 41  1  0  0  0
 21 22  1  0  0  0
 21 42  1  0  0  0
 22 23  2  0  0  0
 22 43  1  0  0  0
 23 24  1  0  0  0
 23 44  1  0  0  0
 24 25  1  0  0  0
 25 30  1  0  0  0
 25 26  1  0  0  0
 26 27  1  0  0  0
 27 28  1  0  0  0
 27 45  1  0  0  0
 27 46  1  0  0  0
 28 29  1  0  0  0
 28 47  1  0  0  0
 28 48  1  0  0  0
 29 30  1  0  0  0
 29 31  1  0  0  0
 29 49  1  0  0  0
 30 50  1  0  0  0
 30 51  1  0  0  0
 31 52  1  0  0  0
 31 53  1  0  0  0
M  END
> <s_m_entry_id>
4234

> <s_m_entry_name>
ligand_docking-pose.4

> <s_m_Source_Path>
/home/csk/Desktop/cluster/DUD-E-result/kpcb

> <s_m_Source_File>
ligand_docking-pose.sdf

> <i_m_Source_File_Index>
4

> <i_lp_mmshare_version>
53161

> <r_lp_tautomer_probability>
1

> <s_lp_Force_Field>
OPLS_2005

> <r_lp_Energy>
28.843171

> <b_lp_Chiralities_Consistent>
1

> <s_lp_Variant>
160533-1

> <s_i_glide_gridfile>
glide-grid_2i0e

> <i_i_glide_lignum>
437

> <i_i_glide_rotatable_bonds>
2

> <r_i_docking_score>
-10.2946087481348

> <r_i_glide_ligand_efficiency>
-0.332084153165638

> <r_i_glide_ligand_efficiency_sa>
-1.0432027325262

> <r_i_glide_ligand_efficiency_ln>
-2.32174976457338

> <r_i_glide_gscore>
-10.2946087481348

> <r_i_glide_lipo>
-2.89345645652764

> <r_i_glide_hbond>
-1.19409354331595

> <r_i_glide_metal>
0

> <r_i_glide_rewards>
-2.60329036499546

> <r_i_glide_evdw>
-50.5652236938477

> <r_i_glide_ecoul>
-8.26137638092041

> <r_i_glide_erotb>
0.163699258534719

> <r_i_glide_esite>
0

> <r_i_glide_emodel>
-95.032960489183

> <r_i_glide_energy>
-58.8266000747681

> <r_i_glide_einternal>
1.41954362392426

> <i_i_glide_confnum>
10

> <i_i_glide_posenum>
367

> <r_i_glide_eff_state_penalty>
0

> <i_f3d_flags>
0

> <s_user_duplicate_titles>
160533

> <s_m_subgroup_title>
dock_pv

> <s_m_subgroupid>
dock_pv1

> <b_m_subgroup_collapsed>
0

$$$$
240
                    3D
 Schrodinger Suite 2021-1.
 55 59  0  0  1  0            999 V2000
   41.6951   57.4644   35.0298 C   0  0  0  0  0  0
   40.6816   57.1723   36.0298 N   0  0  0  0  0  0
   39.3316   57.1484   35.7898 C   0  0  0  0  0  0
   38.6312   56.7240   36.9044 C   0  0  0  0  0  0
   39.6322   56.4656   37.9130 C   0  0  0  0  0  0
   40.9097   56.7536   37.3291 C   0  0  0  0  0  0
   42.1085   56.5944   38.0392 C   0  0  0  0  0  0
   42.0166   56.1413   39.3543 C   0  0  0  0  0  0
   40.7923   55.8479   39.9437 C   0  0  0  0  0  0
   39.6017   55.9981   39.2375 C   0  0  0  0  0  0
   37.1705   56.5552   36.9417 C   0  0  0  0  0  0
   36.3635   56.1669   35.9411 C   0  0  0  0  0  0
   35.0082   56.1873   36.4098 C   0  0  0  0  0  0
   33.9675   55.9565   35.7974 O   0  0  0  0  0  0
   35.1010   56.5252   37.6985 N   0  0  0  0  0  0
   36.3536   56.7727   38.1055 C   0  0  0  0  0  0
   36.6762   57.1495   39.2331 O   0  0  0  0  0  0
   36.7215   55.7722   34.5811 C   0  0  0  0  0  0
   37.7071   54.8626   34.2667 C   0  0  0  0  0  0
   37.8106   54.7013   32.9044 N   0  0  0  0  0  0
   36.8139   55.4515   32.2955 C   0  0  0  0  0  0
   36.1345   56.1696   33.3312 C   0  0  0  0  0  0
   35.1011   57.0493   32.9749 C   0  0  0  0  0  0
   34.7128   57.1389   31.6405 C   0  0  0  0  0  0
   35.3609   56.4005   30.6558 C   0  0  0  0  0  0
   36.4413   55.5720   30.9483 C   0  0  0  0  0  0
   38.7291   53.7831   32.2378 C   0  0  0  0  0  0
   40.1833   53.9317   32.7396 C   0  0  0  0  0  0
   41.1314   52.9108   32.0916 C   0  0  0  0  0  0
   41.3752   53.1516   30.5908 C   0  0  0  0  0  0
   41.9982   51.9717   30.0370 N   0  0  0  0  0  0
   42.5361   57.9701   35.5007 H   0  0  0  0  0  0
   42.0430   56.5300   34.5871 H   0  0  0  0  0  0
   41.2852   58.1091   34.2512 H   0  0  0  0  0  0
   38.9654   57.4220   34.8103 H   0  0  0  0  0  0
   43.0699   56.8078   37.5949 H   0  0  0  0  0  0
   42.9217   56.0051   39.9290 H   0  0  0  0  0  0
   40.7625   55.4894   40.9628 H   0  0  0  0  0  0
   38.6688   55.7381   39.7109 H   0  0  0  0  0  0
   34.2837   56.6353   38.2870 H   0  0  0  0  0  0
   38.3609   54.3114   34.9279 H   0  0  0  0  0  0
   34.5896   57.6212   33.7337 H   0  0  0  0  0  0
   33.8922   57.7858   31.3638 H   0  0  0  0  0  0
   35.0244   56.4807   29.6324 H   0  0  0  0  0  0
   36.9426   55.0298   30.1593 H   0  0  0  0  0  0
   38.3611   52.7666   32.3907 H   0  0  0  0  0  0
   38.6985   53.9697   31.1648 H   0  0  0  0  0  0
   40.5454   54.9443   32.5536 H   0  0  0  0  0  0
   40.2300   53.7841   33.8188 H   0  0  0  0  0  0
   42.0901   52.9223   32.6138 H   0  0  0  0  0  0
   40.7217   51.9129   32.2608 H   0  0  0  0  0  0
   40.4468   53.3221   30.0456 H   0  0  0  0  0  0
   42.0133   54.0223   30.4360 H   0  0  0  0  0  0
   42.8000   51.7368   30.6272 H   0  0  0  0  0  0
   41.3330   51.2171   30.1849 H   0  0  0  0  0  0
  1  2  1  0  0  0
  1 32  1  0  0  0
  1 33  1  0  0  0
  1 34  1  0  0  0
  2  6  1  0  0  0
  2  3  1  0  0  0
  3  4  2  0  0  0
  3 35  1  0  0  0
  4  5  1  0  0  0
  4 11  1  0  0  0
  5 10  2  0  0  0
  5  6  1  0  0  0
  6  7  2  0  0  0
  7  8  1  0  0  0
  7 36  1  0  0  0
  8  9  2  0  0  0
  8 37  1  0  0  0
  9 10  1  0  0  0
  9 38  1  0  0  0
 10 39  1  0  0  0
 11 16  1  0  0  0
 11 12  2  0  0  0
 12 13  1  0  0  0
 12 18  1  0  0  0
 13 14  2  0  0  0
 13 15  1  0  0  0
 15 16  1  0  0  0
 15 40  1  0  0  0
 16 17  2  0  0  0
 18 22  1  0  0  0
 18 19  2  0  0  0
 19 20  1  0  0  0
 19 41  1  0  0  0
 20 21  1  0  0  0
 20 27  1  0  0  0
 21 26  1  0  0  0
 21 22  2  0  0  0
 22 23  1  0  0  0
 23 24  2  0  0  0
 23 42  1  0  0  0
 24 25  1  0  0  0
 24 43  1  0  0  0
 25 26  2  0  0  0
 25 44  1  0  0  0
 26 45  1  0  0  0
 27 28  1  0  0  0
 27 46  1  0  0  0
 27 47  1  0  0  0
 28 29  1  0  0  0
 28 48  1  0  0  0
 28 49  1  0  0  0
 29 30  1  0  0  0
 29 50  1  0  0  0
 29 51  1  0  0  0
 30 31  1  0  0  0
 30 52  1  0  0  0
 30 53  1  0  0  0
 31 54  1  0  0  0
 31 55  1  0  0  0
M  END
> <s_m_entry_id>
4236

> <s_m_entry_name>
ligand_docking-pose.6

> <s_m_Source_Path>
/home/csk/Desktop/cluster/DUD-E-result/kpcb

> <s_m_Source_File>
ligand_docking-pose.sdf

> <i_m_Source_File_Index>
6

> <i_lp_mmshare_version>
53161

> <r_lp_tautomer_probability>
1

> <s_lp_Force_Field>
OPLS_2005

> <r_lp_Energy>
25.749421

> <b_lp_Chiralities_Consistent>
1

> <s_lp_Variant>
240-1

> <s_i_glide_gridfile>
glide-grid_2i0e

> <i_i_glide_lignum>
468

> <i_i_glide_rotatable_bonds>
6

> <r_i_docking_score>
-10.2128574877275

> <r_i_glide_ligand_efficiency>
-0.329447015733146

> <r_i_glide_ligand_efficiency_sa>
-1.03491848002756

> <r_i_glide_ligand_efficiency_ln>
-2.3033123499763

> <r_i_glide_gscore>
-10.2128574877275

> <r_i_glide_lipo>
-2.72503455572888

> <r_i_glide_hbond>
-1.12

> <r_i_glide_metal>
0

> <r_i_glide_rewards>
-2.62384606771504

> <r_i_glide_evdw>
-49.5584487915039

> <r_i_glide_ecoul>
-11.1446704864502

> <r_i_glide_erotb>
0.405646148259108

> <r_i_glide_esite>
0

> <r_i_glide_emodel>
-95.0973498434934

> <r_i_glide_energy>
-60.7031192779541

> <r_i_glide_einternal>
11.5345659255981

> <i_i_glide_confnum>
154

> <i_i_glide_posenum>
9

> <r_i_glide_eff_state_penalty>
0

> <i_f3d_flags>
0

> <s_user_duplicate_titles>
240

> <s_m_subgroup_title>
dock_pv

> <s_m_subgroupid>
dock_pv1

> <b_m_subgroup_collapsed>
0

$$$$
92710
                    3D
 Schrodinger Suite 2021-1.
 46 51  0  0  1  0            999 V2000
   40.7337   56.7735   39.6742 C   0  0  0  0  0  0
   41.8922   56.7714   38.9042 C   0  0  0  0  0  0
   41.8494   56.6638   37.5150 C   0  0  0  0  0  0
   40.5874   56.5484   36.9216 C   0  0  0  0  0  0
   39.3826   56.5593   37.6827 C   0  0  0  0  0  0
   39.4766   56.6758   39.0827 C   0  0  0  0  0  0
   38.3006   56.4215   36.7732 C   0  0  0  0  0  0
   36.8957   56.3700   36.8816 C   0  0  0  0  0  0
   36.0981   56.1662   35.7619 C   0  0  0  0  0  0
   36.6692   56.0475   34.4847 C   0  0  0  0  0  0
   36.1316   55.8806   33.2002 C   0  0  0  0  0  0
   34.8083   55.7763   32.7371 C   0  0  0  0  0  0
   34.5829   55.6325   31.3718 C   0  0  0  0  0  0
   35.6446   55.5732   30.4776 C   0  0  0  0  0  0
   36.9707   55.6596   30.9010 C   0  0  0  0  0  0
   37.2165   55.8274   32.2747 C   0  0  0  0  0  0
   38.4072   55.9725   32.9980 N   0  0  0  0  0  0
   38.0699   56.1158   34.3448 C   0  0  0  0  0  0
   38.8681   56.3029   35.4844 C   0  0  0  0  0  0
   40.2391   56.3957   35.5969 N   0  0  0  0  0  0
   39.7632   56.0966   32.4296 C   0  0  0  0  0  0
   40.1961   55.0142   31.4122 C   0  0  0  0  0  0
   39.9006   53.5493   31.7357 C   0  0  0  0  0  0
   39.3748   53.1412   32.7669 O   0  0  0  0  0  0
   40.3011   52.7720   30.6992 O   0  0  0  0  0  0
   34.6579   56.1291   36.1724 C   0  0  0  0  0  0
   34.7636   56.3718   37.5983 N   0  0  0  0  0  0
   36.0072   56.5236   38.0724 C   0  0  0  0  0  0
   36.3008   56.7718   39.2365 O   0  0  0  0  0  0
   40.8974   56.3338   34.8358 H   0  0  0  0  0  0
   40.8089   56.8498   40.7490 H   0  0  0  0  0  0
   42.8507   56.8506   39.3958 H   0  0  0  0  0  0
   42.7584   56.6554   36.9311 H   0  0  0  0  0  0
   38.6069   56.6671   39.7165 H   0  0  0  0  0  0
   33.9737   55.8146   33.4209 H   0  0  0  0  0  0
   33.5711   55.5607   30.9989 H   0  0  0  0  0  0
   35.4361   55.4386   29.4255 H   0  0  0  0  0  0
   37.7571   55.5761   30.1718 H   0  0  0  0  0  0
   39.8197   57.0836   31.9670 H   0  0  0  0  0  0
   40.5077   56.0953   33.2156 H   0  0  0  0  0  0
   39.7844   55.2339   30.4368 H   0  0  0  0  0  0
   41.2769   55.0844   31.2846 H   0  0  0  0  0  0
   40.0869   51.8370   30.8360 H   0  0  0  0  0  0
   34.1817   55.1661   35.9808 H   0  0  0  0  0  0
   34.0584   56.9072   35.6986 H   0  0  0  0  0  0
   33.9480   56.5572   38.1770 H   0  0  0  0  0  0
  1  6  1  0  0  0
  1  2  2  0  0  0
  1 31  1  0  0  0
  2  3  1  0  0  0
  2 32  1  0  0  0
  3  4  2  0  0  0
  3 33  1  0  0  0
  4 20  1  0  0  0
  4  5  1  0  0  0
  5  6  2  0  0  0
  5  7  1  0  0  0
  6 34  1  0  0  0
  7 19  2  0  0  0
  7  8  1  0  0  0
  8 28  1  0  0  0
  8  9  2  0  0  0
  9 10  1  0  0  0
  9 26  1  0  0  0
 10 18  2  0  0  0
 10 11  1  0  0  0
 11 16  2  0  0  0
 11 12  1  0  0  0
 12 13  2  0  0  0
 12 35  1  0  0  0
 13 14  1  0  0  0
 13 36  1  0  0  0
 14 15  2  0  0  0
 14 37  1  0  0  0
 15 16  1  0  0  0
 15 38  1  0  0  0
 16 17  1  0  0  0
 17 18  1  0  0  0
 17 21  1  0  0  0
 18 19  1  0  0  0
 19 20  1  0  0  0
 20 30  1  0  0  0
 21 22  1  0  0  0
 21 39  1  0  0  0
 21 40  1  0  0  0
 22 23  1  0  0  0
 22 41  1  0  0  0
 22 42  1  0  0  0
 23 24  2  0  0  0
 23 25  1  0  0  0
 25 43  1  0  0  0
 26 27  1  0  0  0
 26 44  1  0  0  0
 26 45  1  0  0  0
 27 28  1  0  0  0
 27 46  1  0  0  0
 28 29  2  0  0  0
M  END
> <s_m_entry_id>
4237

> <s_m_entry_name>
ligand_docking-pose.7

> <s_m_Source_Path>
/home/csk/Desktop/cluster/DUD-E-result/kpcb

> <s_m_Source_File>
ligand_docking-pose.sdf

> <i_m_Source_File_Index>
7

> <i_lp_mmshare_version>
53161

> <r_lp_tautomer_probability>
1

> <s_lp_Force_Field>
OPLS_2005

> <r_lp_Energy>
76.2154

> <b_lp_Chiralities_Consistent>
1

> <s_lp_Variant>
92710-1

> <s_i_glide_gridfile>
glide-grid_2i0e

> <i_i_glide_lignum>
33

> <i_i_glide_rotatable_bonds>
4

> <r_i_docking_score>
-10.1062804979722

> <r_i_glide_ligand_efficiency>
-0.348492430964558

> <r_i_glide_ligand_efficiency_sa>
-1.07067915807481

> <r_i_glide_ligand_efficiency_ln>
-2.31408196087405

> <r_i_glide_gscore>
-10.1062804979722

> <r_i_glide_lipo>
-3.08773974302717

> <r_i_glide_hbond>
-0.576

> <r_i_glide_metal>
0

> <r_i_glide_rewards>
-2.32380826782111

> <r_i_glide_evdw>
-42.6318969726562

> <r_i_glide_ecoul>
-14.2412385940552

> <r_i_glide_erotb>
0.185070255592857

> <r_i_glide_esite>
-0.0360221049756642

> <r_i_glide_emodel>
-90.2062132126791

> <r_i_glide_energy>
-56.8731355667114

> <r_i_glide_einternal>
1.96212184429169

> <i_i_glide_confnum>
1

> <i_i_glide_posenum>
106

> <r_i_glide_eff_state_penalty>
0

> <i_f3d_flags>
0

> <s_user_duplicate_titles>
92710

> <s_m_subgroup_title>
dock_pv

> <s_m_subgroupid>
dock_pv1

> <b_m_subgroup_collapsed>
0

$$$$
219
                    3D
 Schrodinger Suite 2021-1.
 58 62  0  0  1  0            999 V2000
   41.7214   56.1720   39.2472 C   0  0  0  0  0  0
   40.7285   56.4236   38.2143 N   0  0  0  0  0  0
   39.3680   56.3726   38.3940 C   0  0  0  0  0  0
   38.6968   56.5806   37.1971 C   0  0  0  0  0  0
   39.7293   56.8934   36.2351 C   0  0  0  0  0  0
   40.9923   56.7097   36.8871 C   0  0  0  0  0  0
   42.2111   56.8304   36.2051 C   0  0  0  0  0  0
   42.1553   57.1721   34.8550 C   0  0  0  0  0  0
   40.9486   57.4338   34.2153 C   0  0  0  0  0  0
   39.7383   57.3077   34.8903 C   0  0  0  0  0  0
   37.2344   56.4726   37.0238 C   0  0  0  0  0  0
   36.5017   56.1183   35.9513 C   0  0  0  0  0  0
   35.1111   56.1662   36.3137 C   0  0  0  0  0  0
   34.1153   55.9145   35.6370 O   0  0  0  0  0  0
   35.1011   56.5496   37.5917 N   0  0  0  0  0  0
   36.3182   56.7644   38.0935 C   0  0  0  0  0  0
   36.5574   57.1478   39.2370 O   0  0  0  0  0  0
   36.9426   55.6845   34.6256 C   0  0  0  0  0  0
   37.9701   54.7950   34.3723 C   0  0  0  0  0  0
   38.1694   54.6409   33.0191 N   0  0  0  0  0  0
   37.2175   55.4010   32.3476 C   0  0  0  0  0  0
   36.4115   56.0510   33.3392 C   0  0  0  0  0  0
   35.3456   56.8659   32.9147 C   0  0  0  0  0  0
   35.0718   56.9772   31.5552 C   0  0  0  0  0  0
   35.8647   56.3341   30.6131 C   0  0  0  0  0  0
   36.9723   55.5722   30.9788 C   0  0  0  0  0  0
   39.1975   53.7751   32.4321 C   0  0  0  0  0  0
   40.2609   54.5636   31.6277 C   0  0  0  0  0  0
   41.5068   53.7332   31.2376 C   0  0  0  0  0  0
   41.2103   52.4682   30.3848 C   0  0  0  0  0  0
   41.9216   52.4161   29.0380 C   0  0  0  0  0  0
   43.1777   52.3737   29.0220 N   0  0  0  0  0  0
   41.1011   52.3762   27.9400 N   0  0  0  0  0  0
   42.2755   55.2654   39.0001 H   0  0  0  0  0  0
   42.4130   57.0130   39.2924 H   0  0  0  0  0  0
   41.2395   56.0514   40.2196 H   0  0  0  0  0  0
   38.9749   56.1216   39.3704 H   0  0  0  0  0  0
   43.1616   56.6711   36.6950 H   0  0  0  0  0  0
   43.0775   57.2673   34.2986 H   0  0  0  0  0  0
   40.9520   57.7253   33.1737 H   0  0  0  0  0  0
   38.8136   57.5046   34.3736 H   0  0  0  0  0  0
   34.2434   56.6906   38.1127 H   0  0  0  0  0  0
   38.6140   54.2734   35.0669 H   0  0  0  0  0  0
   34.7100   57.3702   33.6293 H   0  0  0  0  0  0
   34.2255   57.5662   31.2308 H   0  0  0  0  0  0
   35.6119   56.4097   29.5666 H   0  0  0  0  0  0
   37.5809   55.0980   30.2251 H   0  0  0  0  0  0
   38.7017   53.0280   31.8136 H   0  0  0  0  0  0
   39.6844   53.2211   33.2367 H   0  0  0  0  0  0
   40.5960   55.4189   32.2144 H   0  0  0  0  0  0
   39.8154   54.9786   30.7236 H   0  0  0  0  0  0
   42.0138   53.4216   32.1528 H   0  0  0  0  0  0
   42.2221   54.3891   30.7401 H   0  0  0  0  0  0
   40.1352   52.3709   30.2311 H   0  0  0  0  0  0
   41.5010   51.5863   30.9590 H   0  0  0  0  0  0
   43.5625   52.3755   29.9593 H   0  0  0  0  0  0
   41.4947   52.3744   27.0122 H   0  0  0  0  0  0
   40.0923   52.4986   28.0380 H   0  0  0  0  0  0
  1  2  1  0  0  0
  1 34  1  0  0  0
  1 35  1  0  0  0
  1 36  1  0  0  0
  2  6  1  0  0  0
  2  3  1  0  0  0
  3  4  2  0  0  0
  3 37  1  0  0  0
  4  5  1  0  0  0
  4 11  1  0  0  0
  5 10  2  0  0  0
  5  6  1  0  0  0
  6  7  2  0  0  0
  7  8  1  0  0  0
  7 38  1  0  0  0
  8  9  2  0  0  0
  8 39  1  0  0  0
  9 10  1  0  0  0
  9 40  1  0  0  0
 10 41  1  0  0  0
 11 16  1  0  0  0
 11 12  2  0  0  0
 12 13  1  0  0  0
 12 18  1  0  0  0
 13 14  2  0  0  0
 13 15  1  0  0  0
 15 16  1  0  0  0
 15 42  1  0  0  0
 16 17  2  0  0  0
 18 22  1  0  0  0
 18 19  2  0  0  0
 19 20  1  0  0  0
 19 43  1  0  0  0
 20 21  1  0  0  0
 20 27  1  0  0  0
 21 26  1  0  0  0
 21 22  2  0  0  0
 22 23  1  0  0  0
 23 24  2  0  0  0
 23 44  1  0  0  0
 24 25  1  0  0  0
 24 45  1  0  0  0
 25 26  2  0  0  0
 25 46  1  0  0  0
 26 47  1  0  0  0
 27 28  1  0  0  0
 27 48  1  0  0  0
 27 49  1  0  0  0
 28 29  1  0  0  0
 28 50  1  0  0  0
 28 51  1  0  0  0
 29 30  1  0  0  0
 29 52  1  0  0  0
 29 53  1  0  0  0
 30 31  1  0  0  0
 30 54  1  0  0  0
 30 55  1  0  0  0
 31 32  2  3  0  0
 31 33  1  0  0  0
 32 56  1  0  0  0
 33 57  1  0  0  0
 33 58  1  0  0  0
M  END
> <s_m_entry_id>
4238

> <s_m_entry_name>
ligand_docking-pose.8

> <s_m_Source_Path>
/home/csk/Desktop/cluster/DUD-E-result/kpcb

> <s_m_Source_File>
ligand_docking-pose.sdf

> <i_m_Source_File_Index>
8

> <i_lp_mmshare_version>
53161

> <r_lp_tautomer_probability>
1

> <s_lp_Force_Field>
OPLS_2005

> <r_lp_Energy>
25.055993

> <b_lp_Chiralities_Consistent>
1

> <s_lp_Variant>
219-2

> <s_i_glide_gridfile>
glide-grid_2i0e

> <i_i_glide_lignum>
464

> <i_i_glide_rotatable_bonds>
7

> <r_i_docking_score>
-10.1035262322566

> <r_i_glide_ligand_efficiency>
-0.306167461583532

> <r_i_glide_ligand_efficiency_sa>
-0.982042642612284

> <r_i_glide_ligand_efficiency_ln>
-2.24697192079477

> <r_i_glide_gscore>
-10.1035262322566

> <r_i_glide_lipo>
-2.77389339467642

> <r_i_glide_hbond>
-0.72

> <r_i_glide_metal>
0

> <r_i_glide_rewards>
-2.39152719965922

> <r_i_glide_evdw>
-53.5031089782715

> <r_i_glide_ecoul>
-12.493275642395

> <r_i_glide_erotb>
0.506285742920476

> <r_i_glide_esite>
-0.175244585568567

> <r_i_glide_emodel>
-103.864371759573

> <r_i_glide_energy>
-65.9963846206665

> <r_i_glide_einternal>
10.7053413391113

> <i_i_glide_confnum>
43

> <i_i_glide_posenum>
338

> <r_i_glide_eff_state_penalty>
0

> <i_f3d_flags>
0

> <s_user_duplicate_titles>
219

> <s_m_subgroup_title>
dock_pv

> <s_m_subgroupid>
dock_pv1

> <b_m_subgroup_collapsed>
0

$$$$
92605
                    3D
 Schrodinger Suite 2021-1.
 49 54  0  0  1  0            999 V2000
   39.0979   53.6771   32.2762 C   0  0  0  0  0  0
   38.7590   55.0718   31.7316 C   0  0  0  0  0  0
   37.5678   55.6288   32.4047 N   0  0  0  0  0  0
   36.3260   55.6952   31.7729 C   0  0  0  0  0  0
   35.9693   55.5718   30.4205 C   0  0  0  0  0  0
   34.6159   55.6234   30.0969 C   0  0  0  0  0  0
   33.6334   55.7648   31.0670 C   0  0  0  0  0  0
   33.9744   55.8744   32.4100 C   0  0  0  0  0  0
   35.3329   55.8642   32.7717 C   0  0  0  0  0  0
   35.9861   55.9767   34.0052 C   0  0  0  0  0  0
   37.3787   55.9842   33.7533 C   0  0  0  0  0  0
   38.2619   56.2492   34.8280 C   0  0  0  0  0  0
   37.7763   56.2968   36.1646 C   0  0  0  0  0  0
   38.9063   56.3920   37.0069 C   0  0  0  0  0  0
   39.0783   56.3722   38.4045 C   0  0  0  0  0  0
   40.3593   56.4790   38.9338 C   0  0  0  0  0  0
   41.4670   56.6036   38.1056 C   0  0  0  0  0  0
   41.3428   56.6407   36.7180 C   0  0  0  0  0  0
   40.0507   56.5446   36.1746 C   0  0  0  0  0  0
   39.6045   56.6254   34.8569 N   0  0  0  0  0  0
   40.4043   57.1103   33.7343 C   0  0  0  0  0  0
   41.0889   58.4529   34.0322 C   0  0  0  0  0  0
   36.3848   56.2374   36.3844 C   0  0  0  0  0  0
   35.5115   56.0901   35.3179 C   0  0  0  0  0  0
   34.1041   56.0689   35.8180 C   0  0  0  0  0  0
   34.3030   56.2727   37.2363 N   0  0  0  0  0  0
   35.5746   56.3722   37.6436 C   0  0  0  0  0  0
   35.9268   56.5683   38.8059 O   0  0  0  0  0  0
   40.0075   53.2948   31.8089 H   0  0  0  0  0  0
   39.2614   53.6842   33.3560 H   0  0  0  0  0  0
   38.3024   52.9670   32.0510 H   0  0  0  0  0  0
   38.5703   54.9895   30.6617 H   0  0  0  0  0  0
   39.6156   55.7231   31.7820 H   0  0  0  0  0  0
   36.6975   55.4162   29.6405 H   0  0  0  0  0  0
   34.3165   55.5204   29.0646 H   0  0  0  0  0  0
   32.5959   55.7855   30.7668 H   0  0  0  0  0  0
   33.1988   55.9708   33.1520 H   0  0  0  0  0  0
   38.2491   56.2458   39.0806 H   0  0  0  0  0  0
   40.4961   56.4492   40.0040 H   0  0  0  0  0  0
   42.4504   56.6708   38.5469 H   0  0  0  0  0  0
   42.2261   56.7262   36.1050 H   0  0  0  0  0  0
   41.1076   56.3372   33.4224 H   0  0  0  0  0  0
   39.7209   57.3475   32.9270 H   0  0  0  0  0  0
   41.4986   58.8740   33.1170 H   0  0  0  0  0  0
   40.3792   59.1705   34.4375 H   0  0  0  0  0  0
   41.9069   58.3711   34.7407 H   0  0  0  0  0  0
   33.5012   56.8702   35.3991 H   0  0  0  0  0  0
   33.5907   55.1251   35.6322 H   0  0  0  0  0  0
   33.5379   56.4805   37.8746 H   0  0  0  0  0  0
  1  2  1  0  0  0
  1 29  1  0  0  0
  1 30  1  0  0  0
  1 31  1  0  0  0
  2  3  1  0  0  0
  2 32  1  0  0  0
  2 33  1  0  0  0
  3 11  1  0  0  0
  3  4  1  0  0  0
  4  9  2  0  0  0
  4  5  1  0  0  0
  5  6  2  0  0  0
  5 34  1  0  0  0
  6  7  1  0  0  0
  6 35  1  0  0  0
  7  8  2  0  0  0
  7 36  1  0  0  0
  8  9  1  0  0  0
  8 37  1  0  0  0
  9 10  1  0  0  0
 10 24  2  0  0  0
 10 11  1  0  0  0
 11 12  2  0  0  0
 12 20  1  0  0  0
 12 13  1  0  0  0
 13 14  1  0  0  0
 13 23  2  0  0  0
 14 19  2  0  0  0
 14 15  1  0  0  0
 15 16  2  0  0  0
 15 38  1  0  0  0
 16 17  1  0  0  0
 16 39  1  0  0  0
 17 18  2  0  0  0
 17 40  1  0  0  0
 18 19  1  0  0  0
 18 41  1  0  0  0
 19 20  1  0  0  0
 20 21  1  0  0  0
 21 22  1  0  0  0
 21 42  1  0  0  0
 21 43  1  0  0  0
 22 44  1  0  0  0
 22 45  1  0  0  0
 22 46  1  0  0  0
 23 27  1  0  0  0
 23 24  1  0  0  0
 24 25  1  0  0  0
 25 26  1  0  0  0
 25 47  1  0  0  0
 25 48  1  0  0  0
 26 27  1  0  0  0
 26 49  1  0  0  0
 27 28  2  0  0  0
M  END
> <s_m_entry_id>
4239

> <s_m_entry_name>
ligand_docking-pose.9

> <s_m_Source_Path>
/home/csk/Desktop/cluster/DUD-E-result/kpcb

> <s_m_Source_File>
ligand_docking-pose.sdf

> <i_m_Source_File_Index>
9

> <i_lp_mmshare_version>
53161

> <r_lp_tautomer_probability>
1

> <s_lp_Force_Field>
OPLS_2005

> <r_lp_Energy>
96.381664

> <b_lp_Chiralities_Consistent>
1

> <s_lp_Variant>
92605-1

> <s_i_glide_gridfile>
glide-grid_2i0e

> <i_i_glide_lignum>
377

> <i_i_glide_rotatable_bonds>
2

> <r_i_docking_score>
-10.0217185968743

> <r_i_glide_ligand_efficiency>
-0.357918521316939

> <r_i_glide_ligand_efficiency_sa>
-1.08685143345386

> <r_i_glide_ligand_efficiency_ln>
-2.31330690260257

> <r_i_glide_gscore>
-10.0217185968743

> <r_i_glide_lipo>
-3.54181628674115

> <r_i_glide_hbond>
-0.608

> <r_i_glide_metal>
0

> <r_i_glide_rewards>
-2.50381306338326

> <r_i_glide_evdw>
-42.9680595397949

> <r_i_glide_ecoul>
-8.13124179840088

> <r_i_glide_erotb>
0

> <r_i_glide_esite>
0

> <r_i_glide_emodel>
-81.2664915177131

> <r_i_glide_energy>
-51.0993013381958

> <r_i_glide_einternal>
0.648615300655365

> <i_i_glide_confnum>
1

> <i_i_glide_posenum>
364

> <r_i_glide_eff_state_penalty>
0

> <i_f3d_flags>
0

> <s_user_duplicate_titles>
92605

> <s_m_subgroup_title>
dock_pv

> <s_m_subgroupid>
dock_pv1

> <b_m_subgroup_collapsed>
0

$$$$
230
                    3D
 Schrodinger Suite 2021-1.
 48 52  0  0  1  0            999 V2000
   41.7967   56.2959   39.0372 C   0  0  0  0  0  0
   40.7512   56.5103   38.0481 N   0  0  0  0  0  0
   39.4054   56.3717   38.2815 C   0  0  0  0  0  0
   38.6771   56.5568   37.1156 C   0  0  0  0  0  0
   39.6479   56.9437   36.1167 C   0  0  0  0  0  0
   40.9432   56.8375   36.7166 C   0  0  0  0  0  0
   42.1200   57.0575   35.9870 C   0  0  0  0  0  0
   41.9821   57.4032   34.6430 C   0  0  0  0  0  0
   40.7384   57.5803   34.0525 C   0  0  0  0  0  0
   39.5714   57.3710   34.7799 C   0  0  0  0  0  0
   37.2200   56.3801   36.9873 C   0  0  0  0  0  0
   36.4763   56.0121   35.9284 C   0  0  0  0  0  0
   35.0946   56.0138   36.3197 C   0  0  0  0  0  0
   34.0957   55.7479   35.6542 O   0  0  0  0  0  0
   35.1009   56.3732   37.6053 N   0  0  0  0  0  0
   36.3228   56.6113   38.0885 C   0  0  0  0  0  0
   36.5749   56.9714   39.2369 O   0  0  0  0  0  0
   36.8982   55.6030   34.5878 C   0  0  0  0  0  0
   37.9489   54.7548   34.3014 C   0  0  0  0  0  0
   38.1232   54.6161   32.9416 N   0  0  0  0  0  0
   37.1455   55.3690   32.3016 C   0  0  0  0  0  0
   36.3512   55.9928   33.3169 C   0  0  0  0  0  0
   35.2915   56.8258   32.9257 C   0  0  0  0  0  0
   34.9931   56.9661   31.5734 C   0  0  0  0  0  0
   35.7661   56.3375   30.6054 C   0  0  0  0  0  0
   36.8802   55.5721   30.9385 C   0  0  0  0  0  0
   39.2414   53.9188   32.2924 C   0  0  0  0  0  0
   39.4675   52.4627   32.7489 C   0  0  0  0  0  0
   39.9012   52.3722   34.0932 O   0  0  0  0  0  0
   42.4341   57.1799   39.0865 H   0  0  0  0  0  0
   41.3609   56.1123   40.0199 H   0  0  0  0  0  0
   42.3981   55.4338   38.7396 H   0  0  0  0  0  0
   39.0649   56.0850   39.2685 H   0  0  0  0  0  0
   43.0974   56.9646   36.4375 H   0  0  0  0  0  0
   42.8708   57.5699   34.0506 H   0  0  0  0  0  0
   40.6781   57.8766   33.0146 H   0  0  0  0  0  0
   38.6149   57.5129   34.3069 H   0  0  0  0  0  0
   34.2528   56.4838   38.1468 H   0  0  0  0  0  0
   38.6326   54.2703   34.9832 H   0  0  0  0  0  0
   34.7010   57.3328   33.6710 H   0  0  0  0  0  0
   34.1504   57.5724   31.2725 H   0  0  0  0  0  0
   35.5003   56.4378   29.5642 H   0  0  0  0  0  0
   37.4856   55.1335   30.1602 H   0  0  0  0  0  0
   39.0032   53.8583   31.2309 H   0  0  0  0  0  0
   40.1524   54.5157   32.3415 H   0  0  0  0  0  0
   38.5319   51.9056   32.6782 H   0  0  0  0  0  0
   40.1790   51.9719   32.0851 H   0  0  0  0  0  0
   40.5216   51.6344   34.1701 H   0  0  0  0  0  0
  1  2  1  0  0  0
  1 30  1  0  0  0
  1 31  1  0  0  0
  1 32  1  0  0  0
  2  6  1  0  0  0
  2  3  1  0  0  0
  3  4  2  0  0  0
  3 33  1  0  0  0
  4  5  1  0  0  0
  4 11  1  0  0  0
  5 10  2  0  0  0
  5  6  1  0  0  0
  6  7  2  0  0  0
  7  8  1  0  0  0
  7 34  1  0  0  0
  8  9  2  0  0  0
  8 35  1  0  0  0
  9 10  1  0  0  0
  9 36  1  0  0  0
 10 37  1  0  0  0
 11 16  1  0  0  0
 11 12  2  0  0  0
 12 13  1  0  0  0
 12 18  1  0  0  0
 13 14  2  0  0  0
 13 15  1  0  0  0
 15 16  1  0  0  0
 15 38  1  0  0  0
 16 17  2  0  0  0
 18 22  1  0  0  0
 18 19  2  0  0  0
 19 20  1  0  0  0
 19 39  1  0  0  0
 20 21  1  0  0  0
 20 27  1  0  0  0
 21 26  1  0  0  0
 21 22  2  0  0  0
 22 23  1  0  0  0
 23 24  2  0  0  0
 23 40  1  0  0  0
 24 25  1  0  0  0
 24 41  1  0  0  0
 25 26  2  0  0  0
 25 42  1  0  0  0
 26 43  1  0  0  0
 27 28  1  0  0  0
 27 44  1  0  0  0
 27 45  1  0  0  0
 28 29  1  0  0  0
 28 46  1  0  0  0
 28 47  1  0  0  0
 29 48  1  0  0  0
M  END
> <s_m_entry_id>
4240

> <s_m_entry_name>
ligand_docking-pose.10

> <s_m_Source_Path>
/home/csk/Desktop/cluster/DUD-E-result/kpcb

> <s_m_Source_File>
ligand_docking-pose.sdf

> <i_m_Source_File_Index>
10

> <i_lp_mmshare_version>
53161

> <r_lp_tautomer_probability>
1

> <s_lp_Force_Field>
OPLS_2005

> <r_lp_Energy>
27.635831

> <b_lp_Chiralities_Consistent>
1

> <s_lp_Variant>
230-1

> <s_i_glide_gridfile>
glide-grid_2i0e

> <i_i_glide_lignum>
481

> <i_i_glide_rotatable_bonds>
5

> <r_i_docking_score>
-10.0148651787326

> <r_i_glide_ligand_efficiency>
-0.345340178576985

> <r_i_glide_ligand_efficiency_sa>
-1.06099444003653

> <r_i_glide_ligand_efficiency_ln>
-2.29315017086067

> <r_i_glide_gscore>
-10.0148651787326

> <r_i_glide_lipo>
-2.74072901666364

> <r_i_glide_hbond>
-0.864

> <r_i_glide_metal>
0

> <r_i_glide_rewards>
-2.74476258233246

> <r_i_glide_evdw>
-49.5494651794434

> <r_i_glide_ecoul>
-10.3638381958008

> <r_i_glide_erotb>
0.36667540860581

> <r_i_glide_esite>
0

> <r_i_glide_emodel>
-94.2186209171572

> <r_i_glide_energy>
-59.9133033752441

> <r_i_glide_einternal>
5.41539096832275

> <i_i_glide_confnum>
73

> <i_i_glide_posenum>
356

> <r_i_glide_eff_state_penalty>
0

> <i_f3d_flags>
0

> <s_user_duplicate_titles>
230

> <s_m_subgroup_title>
dock_pv

> <s_m_subgroupid>
dock_pv1

> <b_m_subgroup_collapsed>
0

$$$$
160443
                    3D
 Schrodinger Suite 2021-1.
 56 61  0  0  1  0            999 V2000
   41.5500   56.4765   39.1727 C   0  0  0  0  0  0
   40.5457   56.6243   38.1318 N   0  0  0  0  0  0
   39.1957   56.4459   38.3054 C   0  0  0  0  0  0
   38.5182   56.5858   37.1041 C   0  0  0  0  0  0
   39.5227   56.9668   36.1384 C   0  0  0  0  0  0
   40.7894   56.9256   36.8038 C   0  0  0  0  0  0
   41.9924   57.1713   36.1285 C   0  0  0  0  0  0
   41.9107   57.4815   34.7716 C   0  0  0  0  0  0
   40.6943   57.5850   34.1121 C   0  0  0  0  0  0
   39.5006   57.3465   34.7840 C   0  0  0  0  0  0
   37.0744   56.3740   36.9078 C   0  0  0  0  0  0
   36.3952   55.9861   35.8136 C   0  0  0  0  0  0
   34.9927   55.9759   36.1294 C   0  0  0  0  0  0
   34.0352   55.6815   35.4158 O   0  0  0  0  0  0
   34.9251   56.3682   37.4032 N   0  0  0  0  0  0
   36.1177   56.5929   37.9604 C   0  0  0  0  0  0
   36.3045   56.9371   39.1264 O   0  0  0  0  0  0
   36.8838   55.5521   34.5008 C   0  0  0  0  0  0
   36.4089   56.0323   33.2332 C   0  0  0  0  0  0
   35.4417   56.9763   32.8468 C   0  0  0  0  0  0
   35.1887   57.1747   31.4936 C   0  0  0  0  0  0
   35.9025   56.4788   30.5244 C   0  0  0  0  0  0
   36.9067   55.5721   30.8586 C   0  0  0  0  0  0
   37.1382   55.3421   32.2235 C   0  0  0  0  0  0
   38.0067   54.4767   32.8711 N   0  0  0  0  0  0
   37.8478   54.5767   34.2443 C   0  0  0  0  0  0
   38.6186   53.6327   35.1679 C   0  0  0  0  0  0
   39.9769   53.1431   34.5685 C   0  0  1  0  0  0
   40.2137   53.5121   33.0786 C   0  0  0  0  0  0
   38.9186   53.5212   32.2411 C   0  0  0  0  0  0
   41.1820   53.4357   35.4934 C   0  0  0  0  0  0
   42.3925   52.7721   35.0418 N   0  0  0  0  0  0
   39.8587   52.0570   34.5392 H   0  0  0  0  0  0
   41.0750   56.3198   40.1422 H   0  0  0  0  0  0
   42.1863   55.6223   38.9385 H   0  0  0  0  0  0
   42.1609   57.3788   39.2165 H   0  0  0  0  0  0
   38.8199   56.1759   39.2840 H   0  0  0  0  0  0
   42.9500   57.1240   36.6266 H   0  0  0  0  0  0
   42.8228   57.6696   34.2232 H   0  0  0  0  0  0
   40.6762   57.8510   33.0645 H   0  0  0  0  0  0
   38.5697   57.4486   34.2531 H   0  0  0  0  0  0
   34.0540   56.4783   37.9050 H   0  0  0  0  0  0
   34.8776   57.5205   33.5888 H   0  0  0  0  0  0
   34.4239   57.8762   31.1929 H   0  0  0  0  0  0
   35.6784   56.6476   29.4820 H   0  0  0  0  0  0
   37.4529   55.0464   30.0873 H   0  0  0  0  0  0
   38.7725   54.0854   36.1460 H   0  0  0  0  0  0
   37.9835   52.7725   35.3630 H   0  0  0  0  0  0
   40.6169   54.5266   33.0378 H   0  0  0  0  0  0
   40.9846   52.8791   32.6351 H   0  0  0  0  0  0
   38.4616   52.5301   32.2603 H   0  0  0  0  0  0
   39.1203   53.7945   31.2043 H   0  0  0  0  0  0
   41.3678   54.5068   35.5480 H   0  0  0  0  0  0
   40.9649   53.0967   36.5069 H   0  0  0  0  0  0
   43.1095   52.7762   35.7563 H   0  0  0  0  0  0
   42.2087   51.7913   34.8321 H   0  0  0  0  0  0
  1  2  1  0  0  0
  1 34  1  0  0  0
  1 35  1  0  0  0
  1 36  1  0  0  0
  2  6  1  0  0  0
  2  3  1  0  0  0
  3  4  2  0  0  0
  3 37  1  0  0  0
  4  5  1  0  0  0
  4 11  1  0  0  0
  5 10  2  0  0  0
  5  6  1  0  0  0
  6  7  2  0  0  0
  7  8  1  0  0  0
  7 38  1  0  0  0
  8  9  2  0  0  0
  8 39  1  0  0  0
  9 10  1  0  0  0
  9 40  1  0  0  0
 10 41  1  0  0  0
 11 16  1  0  0  0
 11 12  2  0  0  0
 12 13  1  0  0  0
 12 18  1  0  0  0
 13 14  2  0  0  0
 13 15  1  0  0  0
 15 16  1  0  0  0
 15 42  1  0  0  0
 16 17  2  0  0  0
 18 26  2  0  0  0
 18 19  1  0  0  0
 19 24  2  0  0  0
 19 20  1  0  0  0
 20 21  2  0  0  0
 20 43  1  0  0  0
 21 22  1  0  0  0
 21 44  1  0  0  0
 22 23  2  0  0  0
 22 45  1  0  0  0
 23 24  1  0  0  0
 23 46  1  0  0  0
 24 25  1  0  0  0
 25 30  1  0  0  0
 25 26  1  0  0  0
 26 27  1  0  0  0
 27 28  1  0  0  0
 27 47  1  0  0  0
 27 48  1  0  0  0
 28 33  1  0  0  0
 28 29  1  0  0  0
 28 31  1  0  0  0
 29 30  1  0  0  0
 29 49  1  0  0  0
 29 50  1  0  0  0
 30 51  1  0  0  0
 30 52  1  0  0  0
 31 32  1  0  0  0
 31 53  1  0  0  0
 31 54  1  0  0  0
 32 55  1  0  0  0
 32 56  1  0  0  0
M  END
> <s_m_entry_id>
4241

> <s_m_entry_name>
ligand_docking-pose.11

> <s_m_Source_Path>
/home/csk/Desktop/cluster/DUD-E-result/kpcb

> <s_m_Source_File>
ligand_docking-pose.sdf

> <i_m_Source_File_Index>
11

> <i_lp_mmshare_version>
53161

> <r_lp_tautomer_probability>
1

> <s_lp_Force_Field>
OPLS_2005

> <r_lp_Energy>
31.859287

> <b_lp_Chiralities_Consistent>
1

> <s_lp_Variant>
160443-1

> <s_i_glide_gridfile>
glide-grid_2i0e

> <i_i_glide_lignum>
449

> <i_i_glide_rotatable_bonds>
3

> <r_i_docking_score>
-10.0011475806292

> <r_i_glide_ligand_efficiency>
-0.312535861894662

> <r_i_glide_ligand_efficiency_sa>
-0.992239510752467

> <r_i_glide_ligand_efficiency_ln>
-2.23952956428953

> <r_i_glide_gscore>
-10.0011475806292

> <r_i_glide_lipo>
-2.82893234639977

> <r_i_glide_hbond>
-0.864

> <r_i_glide_metal>
0

> <r_i_glide_rewards>
-2.52354888603993

> <r_i_glide_evdw>
-48.8153419494629

> <r_i_glide_ecoul>
-9.9863748550415

> <r_i_glide_erotb>
0.154056977539903

> <r_i_glide_esite>
0

> <r_i_glide_emodel>
-93.5084035325786

> <r_i_glide_energy>
-58.8017168045044

> <r_i_glide_einternal>
3.26636815071106

> <i_i_glide_confnum>
1

> <i_i_glide_posenum>
222

> <r_i_glide_eff_state_penalty>
0

> <i_f3d_flags>
0

> <s_user_duplicate_titles>
160443,160485

> <s_m_subgroup_title>
dock_pv

> <s_m_subgroupid>
dock_pv1

> <b_m_subgroup_collapsed>
0

$$$$
225
                    3D
 Schrodinger Suite 2021-1.
 57 61  0  0  1  0            999 V2000
   38.8732   54.8708   31.3557 C   0  0  0  0  0  0
   37.6884   55.1714   32.1467 N   0  0  0  0  0  0
   37.6384   55.2785   33.5162 C   0  0  0  0  0  0
   36.4095   55.7319   33.9571 C   0  0  0  0  0  0
   35.6089   55.8375   32.7443 C   0  0  0  0  0  0
   36.4579   55.5216   31.6356 C   0  0  0  0  0  0
   36.0177   55.5723   30.3065 C   0  0  0  0  0  0
   34.6960   55.9366   30.0812 C   0  0  0  0  0  0
   33.8351   56.2254   31.1275 C   0  0  0  0  0  0
   34.2746   56.1735   32.4461 C   0  0  0  0  0  0
   36.0880   56.0472   35.3755 C   0  0  0  0  0  0
   36.8806   56.4825   36.3854 C   0  0  0  0  0  0
   36.0440   56.7019   37.5435 C   0  0  0  0  0  0
   36.3267   57.1323   38.6615 O   0  0  0  0  0  0
   34.8161   56.3685   37.1587 N   0  0  0  0  0  0
   34.7482   55.9535   35.8956 C   0  0  0  0  0  0
   33.7196   55.5724   35.3491 O   0  0  0  0  0  0
   38.3397   56.7304   36.4347 C   0  0  0  0  0  0
   39.1199   57.2486   35.4138 C   0  0  0  0  0  0
   40.4464   57.3137   35.7795 N   0  0  0  0  0  0
   40.5715   56.8599   37.0795 C   0  0  0  0  0  0
   39.2645   56.4812   37.5248 C   0  0  0  0  0  0
   39.1441   55.9733   38.8315 C   0  0  0  0  0  0
   40.2690   55.8764   39.6468 C   0  0  0  0  0  0
   41.5215   56.2586   39.1868 C   0  0  0  0  0  0
   41.7067   56.7518   37.8983 C   0  0  0  0  0  0
   41.5525   57.7712   34.9356 C   0  0  0  0  0  0
   42.4545   56.6491   34.3723 C   0  0  0  0  0  0
   41.7640   55.6121   33.4785 C   0  0  0  0  0  0
   40.9421   54.7578   34.3126 N   0  0  0  0  0  0
   40.9677   53.5007   34.1916 C   0  0  0  0  0  0
   40.3835   52.6671   35.1540 N   0  0  0  0  0  0
   41.5010   52.7718   33.1145 N   0  0  0  0  0  0
   39.3655   55.8045   31.0804 H   0  0  0  0  0  0
   39.5566   54.2466   31.9265 H   0  0  0  0  0  0
   38.6008   54.3334   30.4475 H   0  0  0  0  0  0
   38.5143   55.0422   34.0928 H   0  0  0  0  0  0
   36.6597   55.2910   29.4850 H   0  0  0  0  0  0
   34.3098   55.9559   29.0732 H   0  0  0  0  0  0
   32.8067   56.4769   30.9125 H   0  0  0  0  0  0
   33.5591   56.3719   33.2160 H   0  0  0  0  0  0
   34.0127   56.4334   37.7668 H   0  0  0  0  0  0
   38.8327   57.5687   34.4235 H   0  0  0  0  0  0
   38.1915   55.6422   39.2156 H   0  0  0  0  0  0
   40.1614   55.4907   40.6506 H   0  0  0  0  0  0
   42.3742   56.1639   39.8448 H   0  0  0  0  0  0
   42.6909   57.0369   37.5537 H   0  0  0  0  0  0
   42.1924   58.3718   35.5698 H   0  0  0  0  0  0
   41.1546   58.4078   34.1436 H   0  0  0  0  0  0
   42.9774   56.1425   35.1852 H   0  0  0  0  0  0
   43.2422   57.1245   33.7866 H   0  0  0  0  0  0
   42.5297   55.0730   32.9147 H   0  0  0  0  0  0
   41.1423   56.1242   32.7409 H   0  0  0  0  0  0
   40.2021   53.0924   36.0484 H   0  0  0  0  0  0
   40.8102   51.7568   35.2624 H   0  0  0  0  0  0
   42.1387   53.2546   32.5014 H   0  0  0  0  0  0
   41.8648   51.8468   33.3154 H   0  0  0  0  0  0
  1  2  1  0  0  0
  1 34  1  0  0  0
  1 35  1  0  0  0
  1 36  1  0  0  0
  2  6  1  0  0  0
  2  3  1  0  0  0
  3  4  2  0  0  0
  3 37  1  0  0  0
  4  5  1  0  0  0
  4 11  1  0  0  0
  5 10  2  0  0  0
  5  6  1  0  0  0
  6  7  2  0  0  0
  7  8  1  0  0  0
  7 38  1  0  0  0
  8  9  2  0  0  0
  8 39  1  0  0  0
  9 10  1  0  0  0
  9 40  1  0  0  0
 10 41  1  0  0  0
 11 16  1  0  0  0
 11 12  2  0  0  0
 12 13  1  0  0  0
 12 18  1  0  0  0
 13 14  2  0  0  0
 13 15  1  0  0  0
 15 16  1  0  0  0
 15 42  1  0  0  0
 16 17  2  0  0  0
 18 22  1  0  0  0
 18 19  2  0  0  0
 19 20  1  0  0  0
 19 43  1  0  0  0
 20 21  1  0  0  0
 20 27  1  0  0  0
 21 26  1  0  0  0
 21 22  2  0  0  0
 22 23  1  0  0  0
 23 24  2  0  0  0
 23 44  1  0  0  0
 24 25  1  0  0  0
 24 45  1  0  0  0
 25 26  2  0  0  0
 25 46  1  0  0  0
 26 47  1  0  0  0
 27 28  1  0  0  0
 27 48  1  0  0  0
 27 49  1  0  0  0
 28 29  1  0  0  0
 28 50  1  0  0  0
 28 51  1  0  0  0
 29 30  1  0  0  0
 29 52  1  0  0  0
 29 53  1  0  0  0
 30 31  2  3  0  0
 31 32  1  0  0  0
 31 33  1  0  0  0
 32 54  1  0  0  0
 32 55  1  0  0  0
 33 56  1  0  0  0
 33 57  1  0  0  0
M  END
> <s_m_entry_id>
4242

> <s_m_entry_name>
ligand_docking-pose.12

> <s_m_Source_Path>
/home/csk/Desktop/cluster/DUD-E-result/kpcb

> <s_m_Source_File>
ligand_docking-pose.sdf

> <i_m_Source_File_Index>
12

> <i_lp_mmshare_version>
53161

> <r_lp_tautomer_probability>
1

> <s_lp_Force_Field>
OPLS_2005

> <r_lp_Energy>
26.51984

> <b_lp_Chiralities_Consistent>
1

> <s_lp_Variant>
225-1

> <s_i_glide_gridfile>
glide-grid_2i0e

> <i_i_glide_lignum>
475

> <i_i_glide_rotatable_bonds>
6

> <r_i_docking_score>
-9.99477258352572

> <r_i_glide_ligand_efficiency>
-0.302871896470476

> <r_i_glide_ligand_efficiency_sa>
-0.971472004387742

> <r_i_glide_ligand_efficiency_ln>
-2.22278567241329

> <r_i_glide_gscore>
-9.99477258352572

> <r_i_glide_lipo>
-2.7851255737504

> <r_i_glide_hbond>
-0.963159130800734

> <r_i_glide_metal>
0

> <r_i_glide_rewards>
-2.46035966353498

> <r_i_glide_evdw>
-49.8877983093262

> <r_i_glide_ecoul>
-10.7171306610107

> <r_i_glide_erotb>
0.432194289791805

> <r_i_glide_esite>
-0.116362990613484

> <r_i_glide_emodel>
-96.3693826424551

> <r_i_glide_energy>
-60.6049289703369

> <r_i_glide_einternal>
7.30624008178711

> <i_i_glide_confnum>
39

> <i_i_glide_posenum>
47

> <r_i_glide_eff_state_penalty>
0

> <i_f3d_flags>
0

> <s_user_duplicate_titles>
225

> <s_m_subgroup_title>
dock_pv

> <s_m_subgroupid>
dock_pv1

> <b_m_subgroup_collapsed>
0

$$$$
247
                    3D
 Schrodinger Suite 2021-1.
 59 63  0  0  1  0            999 V2000
   39.1288   53.9735   32.2144 C   0  0  0  0  0  0
   38.0252   54.6875   32.8384 N   0  0  0  0  0  0
   37.8145   54.7876   34.1931 C   0  0  0  0  0  0
   36.7176   55.5890   34.4598 C   0  0  0  0  0  0
   36.1519   55.9249   33.1739 C   0  0  0  0  0  0
   37.0229   55.3803   32.1779 C   0  0  0  0  0  0
   36.7930   55.5721   30.8085 C   0  0  0  0  0  0
   35.6372   56.2553   30.4397 C   0  0  0  0  0  0
   34.7643   56.7796   31.3845 C   0  0  0  0  0  0
   35.0168   56.6392   32.7466 C   0  0  0  0  0  0
   36.2773   55.9703   35.8043 C   0  0  0  0  0  0
   37.0074   56.3298   36.8790 C   0  0  0  0  0  0
   36.0998   56.5006   37.9834 C   0  0  0  0  0  0
   36.3379   56.7930   39.1533 O   0  0  0  0  0  0
   34.8842   56.2914   37.4733 N   0  0  0  0  0  0
   34.8924   55.9612   36.1816 C   0  0  0  0  0  0
   33.9011   55.7000   35.5052 O   0  0  0  0  0  0
   38.4632   56.5306   37.0227 C   0  0  0  0  0  0
   39.1958   56.3042   38.1781 C   0  0  0  0  0  0
   40.5428   56.4712   37.9570 N   0  0  0  0  0  0
   40.7227   56.8922   36.6506 C   0  0  0  0  0  0
   39.4296   56.9723   36.0446 C   0  0  0  0  0  0
   39.3553   57.4301   34.7186 C   0  0  0  0  0  0
   40.5210   57.6958   34.0076 C   0  0  0  0  0  0
   41.7631   57.5714   34.6096 C   0  0  0  0  0  0
   41.8933   57.2025   35.9456 C   0  0  0  0  0  0
   41.5963   56.1361   38.9146 C   0  0  0  0  0  0
   42.0383   54.6555   38.7827 C   0  0  0  0  0  0
   42.7049   54.2554   37.4427 C   0  0  0  0  0  0
   44.1667   54.7363   37.2664 C   0  0  0  0  0  0
   44.6755   55.2727   35.5950 S   0  0  0  0  0  0
   44.4405   53.8075   34.5690 C   0  0  0  0  0  0
   44.4121   53.9720   33.3242 N   0  0  0  0  0  0
   44.3775   52.6171   35.2372 N   0  0  0  0  0  0
   39.7290   54.6755   31.6346 H   0  0  0  0  0  0
   39.7554   53.4977   32.9701 H   0  0  0  0  0  0
   38.7371   53.2063   31.5459 H   0  0  0  0  0  0
   38.5086   54.3143   34.8755 H   0  0  0  0  0  0
   37.4596   55.1719   30.0582 H   0  0  0  0  0  0
   35.4107   56.3707   29.3893 H   0  0  0  0  0  0
   33.8762   57.2994   31.0552 H   0  0  0  0  0  0
   34.3172   57.0465   33.4580 H   0  0  0  0  0  0
   34.0377   56.3834   38.0174 H   0  0  0  0  0  0
   38.8603   55.9565   39.1463 H   0  0  0  0  0  0
   38.3998   57.5458   34.2382 H   0  0  0  0  0  0
   40.4628   58.0020   32.9728 H   0  0  0  0  0  0
   42.6532   57.7809   34.0372 H   0  0  0  0  0  0
   42.8655   57.1653   36.4086 H   0  0  0  0  0  0
   41.2206   56.3360   39.9200 H   0  0  0  0  0  0
   42.4320   56.8186   38.7621 H   0  0  0  0  0  0
   41.1657   54.0188   38.9376 H   0  0  0  0  0  0
   42.7173   54.4099   39.5996 H   0  0  0  0  0  0
   42.0876   54.5609   36.6005 H   0  0  0  0  0  0
   42.7007   53.1690   37.3838 H   0  0  0  0  0  0
   44.8666   53.9838   37.6361 H   0  0  0  0  0  0
   44.3334   55.6125   37.8938 H   0  0  0  0  0  0
   44.3066   53.0801   32.8430 H   0  0  0  0  0  0
   44.5477   51.7767   34.6919 H   0  0  0  0  0  0
   44.5623   52.5642   36.2331 H   0  0  0  0  0  0
  1  2  1  0  0  0
  1 35  1  0  0  0
  1 36  1  0  0  0
  1 37  1  0  0  0
  2  6  1  0  0  0
  2  3  1  0  0  0
  3  4  2  0  0  0
  3 38  1  0  0  0
  4  5  1  0  0  0
  4 11  1  0  0  0
  5 10  2  0  0  0
  5  6  1  0  0  0
  6  7  2  0  0  0
  7  8  1  0  0  0
  7 39  1  0  0  0
  8  9  2  0  0  0
  8 40  1  0  0  0
  9 10  1  0  0  0
  9 41  1  0  0  0
 10 42  1  0  0  0
 11 16  1  0  0  0
 11 12  2  0  0  0
 12 13  1  0  0  0
 12 18  1  0  0  0
 13 14  2  0  0  0
 13 15  1  0  0  0
 15 16  1  0  0  0
 15 43  1  0  0  0
 16 17  2  0  0  0
 18 22  1  0  0  0
 18 19  2  0  0  0
 19 20  1  0  0  0
 19 44  1  0  0  0
 20 21  1  0  0  0
 20 27  1  0  0  0
 21 26  1  0  0  0
 21 22  2  0  0  0
 22 23  1  0  0  0
 23 24  2  0  0  0
 23 45  1  0  0  0
 24 25  1  0  0  0
 24 46  1  0  0  0
 25 26  2  0  0  0
 25 47  1  0  0  0
 26 48  1  0  0  0
 27 28  1  0  0  0
 27 49  1  0  0  0
 27 50  1  0  0  0
 28 29  1  0  0  0
 28 51  1  0  0  0
 28 52  1  0  0  0
 29 30  1  0  0  0
 29 53  1  0  0  0
 29 54  1  0  0  0
 30 31  1  0  0  0
 30 55  1  0  0  0
 30 56  1  0  0  0
 31 32  1  0  0  0
 32 33  2  3  0  0
 32 34  1  0  0  0
 33 57  1  0  0  0
 34 58  1  0  0  0
 34 59  1  0  0  0
M  END
> <s_m_entry_id>
4243

> <s_m_entry_name>
ligand_docking-pose.13

> <s_m_Source_Path>
/home/csk/Desktop/cluster/DUD-E-result/kpcb

> <s_m_Source_File>
ligand_docking-pose.sdf

> <i_m_Source_File_Index>
13

> <i_lp_mmshare_version>
53161

> <r_lp_tautomer_probability>
1

> <s_lp_Force_Field>
OPLS_2005

> <r_lp_Energy>
17.035633

> <b_lp_Chiralities_Consistent>
1

> <s_lp_Variant>
247-1

> <s_i_glide_gridfile>
glide-grid_2i0e

> <i_i_glide_lignum>
470

> <i_i_glide_rotatable_bonds>
8

> <r_i_docking_score>
-9.98617654756142

> <r_i_glide_ligand_efficiency>
-0.293711074928277

> <r_i_glide_ligand_efficiency_sa>
-0.951509863385086

> <r_i_glide_ligand_efficiency_ln>
-2.20622650212076

> <r_i_glide_gscore>
-9.98617654756142

> <r_i_glide_lipo>
-2.78870821410587

> <r_i_glide_hbond>
-1.07177811237846

> <r_i_glide_metal>
0

> <r_i_glide_rewards>
-2.17020828336439

> <r_i_glide_evdw>
-48.2943458557129

> <r_i_glide_ecoul>
-12.903284072876

> <r_i_glide_erotb>
0.509014451862169

> <r_i_glide_esite>
-0.114286485857834

> <r_i_glide_emodel>
-99.8995951982876

> <r_i_glide_energy>
-61.1976299285889

> <r_i_glide_einternal>
7.08576059341431

> <i_i_glide_confnum>
90

> <i_i_glide_posenum>
221

> <r_i_glide_eff_state_penalty>
0

> <i_f3d_flags>
0

> <s_user_duplicate_titles>
247

> <s_m_subgroup_title>
dock_pv

> <s_m_subgroupid>
dock_pv1

> <b_m_subgroup_collapsed>
0

$$$$
160504
                    3D
 Schrodinger Suite 2021-1.
 53 58  0  0  1  0            999 V2000
   41.8183   56.3062   39.0312 C   0  0  0  0  0  0
   40.7651   56.4939   38.0461 N   0  0  0  0  0  0
   39.4198   56.3708   38.2941 C   0  0  0  0  0  0
   38.6852   56.5340   37.1312 C   0  0  0  0  0  0
   39.6481   56.9009   36.1190 C   0  0  0  0  0  0
   40.9477   56.8089   36.7114 C   0  0  0  0  0  0
   42.1194   57.0345   35.9755 C   0  0  0  0  0  0
   41.9734   57.3834   34.6331 C   0  0  0  0  0  0
   40.7247   57.5360   34.0456 C   0  0  0  0  0  0
   39.5629   57.3063   34.7756 C   0  0  0  0  0  0
   37.2284   56.3595   37.0096 C   0  0  0  0  0  0
   36.4921   55.9820   35.9526 C   0  0  0  0  0  0
   35.1056   56.0006   36.3270 C   0  0  0  0  0  0
   34.1140   55.7382   35.6490 O   0  0  0  0  0  0
   35.1012   56.3758   37.6080 N   0  0  0  0  0  0
   36.3223   56.6186   38.0959 C   0  0  0  0  0  0
   36.5697   57.0024   39.2370 O   0  0  0  0  0  0
   36.9175   55.5376   34.6290 C   0  0  0  0  0  0
   36.4299   56.0318   33.3678 C   0  0  0  0  0  0
   35.4773   56.9969   32.9980 C   0  0  0  0  0  0
   35.2093   57.2031   31.6474 C   0  0  0  0  0  0
   35.9020   56.5011   30.6674 C   0  0  0  0  0  0
   36.8900   55.5718   30.9818 C   0  0  0  0  0  0
   37.1280   55.3297   32.3380 C   0  0  0  0  0  0
   37.9623   54.4286   32.9681 N   0  0  0  0  0  0
   37.8461   54.5501   34.3299 C   0  0  0  0  0  0
   38.7974   53.5719   34.9845 C   0  0  0  0  0  0
   39.6195   53.0214   33.7991 C   0  0  1  0  0  0
   38.7341   53.2686   32.5709 C   0  0  0  0  0  0
   41.0273   53.6384   33.6653 C   0  0  0  0  0  0
   41.8761   53.1725   34.7478 N   0  0  0  0  0  0
   42.4501   55.4711   38.7252 H   0  0  0  0  0  0
   42.4226   57.2120   39.0904 H   0  0  0  0  0  0
   41.3924   56.0933   40.0129 H   0  0  0  0  0  0
   39.0867   56.1066   39.2891 H   0  0  0  0  0  0
   43.1003   56.9517   36.4207 H   0  0  0  0  0  0
   42.8578   57.5645   34.0387 H   0  0  0  0  0  0
   40.6582   57.8274   33.0068 H   0  0  0  0  0  0
   38.6064   57.4352   34.3026 H   0  0  0  0  0  0
   34.2499   56.4983   38.1404 H   0  0  0  0  0  0
   34.9355   57.5491   33.7510 H   0  0  0  0  0  0
   34.4519   57.9169   31.3565 H   0  0  0  0  0  0
   35.6712   56.6748   29.6298 H   0  0  0  0  0  0
   37.4336   55.0577   30.2043 H   0  0  0  0  0  0
   39.4355   54.0400   35.7345 H   0  0  0  0  0  0
   38.2682   52.7744   35.5006 H   0  0  0  0  0  0
   39.7502   51.9442   33.9146 H   0  0  0  0  0  0
   38.0594   52.4204   32.4390 H   0  0  0  0  0  0
   39.2555   53.4123   31.6234 H   0  0  0  0  0  0
   41.4828   53.3350   32.7209 H   0  0  0  0  0  0
   40.9825   54.7279   33.6656 H   0  0  0  0  0  0
   41.9024   52.1562   34.7289 H   0  0  0  0  0  0
   42.8306   53.4629   34.5858 H   0  0  0  0  0  0
  1  2  1  0  0  0
  1 32  1  0  0  0
  1 33  1  0  0  0
  1 34  1  0  0  0
  2  6  1  0  0  0
  2  3  1  0  0  0
  3  4  2  0  0  0
  3 35  1  0  0  0
  4  5  1  0  0  0
  4 11  1  0  0  0
  5 10  2  0  0  0
  5  6  1  0  0  0
  6  7  2  0  0  0
  7  8  1  0  0  0
  7 36  1  0  0  0
  8  9  2  0  0  0
  8 37  1  0  0  0
  9 10  1  0  0  0
  9 38  1  0  0  0
 10 39  1  0  0  0
 11 16  1  0  0  0
 11 12  2  0  0  0
 12 13  1  0  0  0
 12 18  1  0  0  0
 13 14  2  0  0  0
 13 15  1  0  0  0
 15 16  1  0  0  0
 15 40  1  0  0  0
 16 17  2  0  0  0
 18 26  2  0  0  0
 18 19  1  0  0  0
 19 24  2  0  0  0
 19 20  1  0  0  0
 20 21  2  0  0  0
 20 41  1  0  0  0
 21 22  1  0  0  0
 21 42  1  0  0  0
 22 23  2  0  0  0
 22 43  1  0  0  0
 23 24  1  0  0  0
 23 44  1  0  0  0
 24 25  1  0  0  0
 25 29  1  0  0  0
 25 26  1  0  0  0
 26 27  1  0  0  0
 27 28  1  0  0  0
 27 45  1  0  0  0
 27 46  1  0  0  0
 28 29  1  0  0  0
 28 30  1  0  0  0
 28 47  1  0  0  0
 29 48  1  0  0  0
 29 49  1  0  0  0
 30 31  1  0  0  0
 30 50  1  0  0  0
 30 51  1  0  0  0
 31 52  1  0  0  0
 31 53  1  0  0  0
M  END
> <s_m_entry_id>
4244

> <s_m_entry_name>
ligand_docking-pose.14

> <s_m_Source_Path>
/home/csk/Desktop/cluster/DUD-E-result/kpcb

> <s_m_Source_File>
ligand_docking-pose.sdf

> <i_m_Source_File_Index>
14

> <i_lp_mmshare_version>
53161

> <r_lp_tautomer_probability>
1

> <s_lp_Force_Field>
OPLS_2005

> <r_lp_Energy>
43.603319

> <b_lp_Chiralities_Consistent>
1

> <s_lp_Variant>
160504-1

> <s_i_glide_gridfile>
glide-grid_2i0e

> <i_i_glide_lignum>
420

> <i_i_glide_rotatable_bonds>
3

> <r_i_docking_score>
-9.96528260397865

> <r_i_glide_ligand_efficiency>
-0.321460729160602

> <r_i_glide_ligand_efficiency_sa>
-1.00983051393283

> <r_i_glide_ligand_efficiency_ln>
-2.24747662643194

> <r_i_glide_gscore>
-9.96528260397865

> <r_i_glide_lipo>
-2.915201086318

> <r_i_glide_hbond>
-0.864

> <r_i_glide_metal>
0

> <r_i_glide_rewards>
-2.60202052801116

> <r_i_glide_evdw>
-50.3130111694336

> <r_i_glide_ecoul>
-8.2140645980835

> <r_i_glide_erotb>
0.163699258534719

> <r_i_glide_esite>
0

> <r_i_glide_emodel>
-93.7680151184963

> <r_i_glide_energy>
-58.5270757675171

> <r_i_glide_einternal>
1.80348587036133

> <i_i_glide_confnum>
14

> <i_i_glide_posenum>
120

> <r_i_glide_eff_state_penalty>
0

> <i_f3d_flags>
0

> <s_user_duplicate_titles>
160504

> <s_m_subgroup_title>
dock_pv

> <s_m_subgroupid>
dock_pv1

> <b_m_subgroup_collapsed>
0

$$$$
259106
                    3D
 Schrodinger Suite 2021-1.
 58 63  0  0  1  0            999 V2000
   40.6232   57.4523   33.9352 C   0  0  0  0  0  0
   39.7644   56.9589   35.0082 N   0  0  0  0  0  0
   40.1652   56.9319   36.3368 C   0  0  0  0  0  0
   41.4239   57.1699   36.9100 C   0  0  0  0  0  0
   41.5272   57.0717   38.2947 C   0  0  0  0  0  0
   40.4271   56.7726   39.0928 C   0  0  0  0  0  0
   39.1728   56.5600   38.5326 C   0  0  0  0  0  0
   39.0238   56.6349   37.1350 C   0  0  0  0  0  0
   37.9243   56.4863   36.2601 C   0  0  0  0  0  0
   38.4502   56.4894   34.9417 C   0  0  0  0  0  0
   37.6166   56.1468   33.8529 C   0  0  0  0  0  0
   36.2218   56.0467   34.0487 C   0  0  0  0  0  0
   35.6300   55.8987   32.7882 C   0  0  0  0  0  0
   34.2906   55.8619   32.3658 C   0  0  0  0  0  0
   34.0181   55.7130   31.0093 C   0  0  0  0  0  0
   35.0479   55.5763   30.0886 C   0  0  0  0  0  0
   36.3875   55.5733   30.4766 C   0  0  0  0  0  0
   36.6763   55.7490   31.8372 C   0  0  0  0  0  0
   37.8879   55.7747   32.5321 N   0  0  0  0  0  0
   39.2007   55.4313   31.9699 C   0  0  0  0  0  0
   39.3022   54.0193   31.3365 C   0  0  1  0  0  0
   40.7384   53.6867   30.8547 C   0  0  0  0  0  0
   41.8119   53.7984   31.8551 N   0  0  0  0  0  0
   41.7197   52.7723   32.8975 C   0  0  0  0  0  0
   43.1022   53.6619   31.1825 C   0  0  0  0  0  0
   38.8028   53.0197   32.2137 O   0  0  0  0  0  0
   35.7009   56.1296   35.3449 C   0  0  0  0  0  0
   36.5338   56.3203   36.4373 C   0  0  0  0  0  0
   35.6869   56.3715   37.6698 C   0  0  0  0  0  0
   36.0057   56.5765   38.8369 O   0  0  0  0  0  0
   34.4376   56.1634   37.2360 N   0  0  0  0  0  0
   34.2830   55.9993   35.8050 C   0  0  0  0  0  0
   41.1270   58.3608   34.2664 H   0  0  0  0  0  0
   41.3839   56.7108   33.6910 H   0  0  0  0  0  0
   40.0300   57.7098   33.0607 H   0  0  0  0  0  0
   42.2927   57.4061   36.3106 H   0  0  0  0  0  0
   42.4856   57.2349   38.7642 H   0  0  0  0  0  0
   40.5486   56.7057   40.1631 H   0  0  0  0  0  0
   38.3487   56.3149   39.1798 H   0  0  0  0  0  0
   33.4816   55.9599   33.0694 H   0  0  0  0  0  0
   32.9949   55.6973   30.6641 H   0  0  0  0  0  0
   34.7988   55.4339   29.0451 H   0  0  0  0  0  0
   37.1540   55.4061   29.7400 H   0  0  0  0  0  0
   39.5039   56.2095   31.2704 H   0  0  0  0  0  0
   39.9099   55.4018   32.7834 H   0  0  0  0  0  0
   38.6932   53.9753   30.4370 H   0  0  0  0  0  0
   40.7485   52.6941   30.4017 H   0  0  0  0  0  0
   40.9604   54.3717   30.0345 H   0  0  0  0  0  0
   42.6082   52.7663   33.5309 H   0  0  0  0  0  0
   40.8772   52.9630   33.5635 H   0  0  0  0  0  0
   41.6012   51.7736   32.4674 H   0  0  0  0  0  0
   43.9261   53.5944   31.8958 H   0  0  0  0  0  0
   43.1378   52.7716   30.5536 H   0  0  0  0  0  0
   43.2962   54.5221   30.5440 H   0  0  0  0  0  0
   39.0032   52.1588   31.8329 H   0  0  0  0  0  0
   33.6463   56.2647   37.8598 H   0  0  0  0  0  0
   33.8539   55.0230   35.5790 H   0  0  0  0  0  0
   33.6257   56.7669   35.3993 H   0  0  0  0  0  0
  1  2  1  0  0  0
  1 33  1  0  0  0
  1 34  1  0  0  0
  1 35  1  0  0  0
  2 10  1  0  0  0
  2  3  1  0  0  0
  3  8  2  0  0  0
  3  4  1  0  0  0
  4  5  2  0  0  0
  4 36  1  0  0  0
  5  6  1  0  0  0
  5 37  1  0  0  0
  6  7  2  0  0  0
  6 38  1  0  0  0
  7  8  1  0  0  0
  7 39  1  0  0  0
  8  9  1  0  0  0
  9 28  2  0  0  0
  9 10  1  0  0  0
 10 11  2  0  0  0
 11 19  1  0  0  0
 11 12  1  0  0  0
 12 13  1  0  0  0
 12 27  2  0  0  0
 13 18  2  0  0  0
 13 14  1  0  0  0
 14 15  2  0  0  0
 14 40  1  0  0  0
 15 16  1  0  0  0
 15 41  1  0  0  0
 16 17  2  0  0  0
 16 42  1  0  0  0
 17 18  1  0  0  0
 17 43  1  0  0  0
 18 19  1  0  0  0
 19 20  1  0  0  0
 20 21  1  0  0  0
 20 44  1  0  0  0
 20 45  1  0  0  0
 21 22  1  0  0  0
 21 26  1  0  0  0
 21 46  1  0  0  0
 22 23  1  0  0  0
 22 47  1  0  0  0
 22 48  1  0  0  0
 23 24  1  0  0  0
 23 25  1  0  0  0
 24 49  1  0  0  0
 24 50  1  0  0  0
 24 51  1  0  0  0
 25 52  1  0  0  0
 25 53  1  0  0  0
 25 54  1  0  0  0
 26 55  1  0  0  0
 27 32  1  0  0  0
 27 28  1  0  0  0
 28 29  1  0  0  0
 29 30  2  0  0  0
 29 31  1  0  0  0
 31 32  1  0  0  0
 31 56  1  0  0  0
 32 57  1  0  0  0
 32 58  1  0  0  0
M  END
> <s_m_entry_id>
4245

> <s_m_entry_name>
ligand_docking-pose.15

> <s_m_Source_Path>
/home/csk/Desktop/cluster/DUD-E-result/kpcb

> <s_m_Source_File>
ligand_docking-pose.sdf

> <i_m_Source_File_Index>
15

> <i_lp_mmshare_version>
53161

> <r_lp_tautomer_probability>
1

> <s_lp_Force_Field>
OPLS_2005

> <r_lp_Energy>
99.515426

> <b_lp_Chiralities_Consistent>
1

> <s_lp_Variant>
259106-2

> <s_i_glide_gridfile>
glide-grid_2i0e

> <i_i_glide_lignum>
405

> <i_i_glide_rotatable_bonds>
5

> <r_i_docking_score>
-9.96152618515164

> <r_i_glide_ligand_efficiency>
-0.311297693285989

> <r_i_glide_ligand_efficiency_sa>
-0.988308570453166

> <r_i_glide_ligand_efficiency_ln>
-2.23065725380366

> <r_i_glide_gscore>
-9.96152618515164

> <r_i_glide_lipo>
-3.48843476102228

> <r_i_glide_hbond>
-0.601411002559289

> <r_i_glide_metal>
0

> <r_i_glide_rewards>
-2.19589010252406

> <r_i_glide_evdw>
-47.8813056945801

> <r_i_glide_ecoul>
-10.0722513198853

> <r_i_glide_erotb>
0.229112663665773

> <r_i_glide_esite>
0

> <r_i_glide_emodel>
-92.648732713551

> <r_i_glide_energy>
-57.9535570144653

> <r_i_glide_einternal>
0.949266970157623

> <i_i_glide_confnum>
8

> <i_i_glide_posenum>
130

> <r_i_glide_eff_state_penalty>
0

> <i_f3d_flags>
0

> <s_user_duplicate_titles>
259106

> <s_m_subgroup_title>
dock_pv

> <s_m_subgroupid>
dock_pv1

> <b_m_subgroup_collapsed>
0

$$$$
160454
                    3D
 Schrodinger Suite 2021-1.
 53 58  0  0  1  0            999 V2000
   41.5459   56.7174   39.0806 C   0  0  0  0  0  0
   40.5404   56.8390   38.0372 N   0  0  0  0  0  0
   39.1879   56.7050   38.2260 C   0  0  0  0  0  0
   38.5052   56.7772   37.0216 C   0  0  0  0  0  0
   39.5130   57.1039   36.0356 C   0  0  0  0  0  0
   40.7844   57.0365   36.6906 C   0  0  0  0  0  0
   41.9900   57.1722   35.9901 C   0  0  0  0  0  0
   41.9098   57.4293   34.6228 C   0  0  0  0  0  0
   40.6911   57.5692   33.9714 C   0  0  0  0  0  0
   39.4936   57.4166   34.6628 C   0  0  0  0  0  0
   37.0631   56.5141   36.8517 C   0  0  0  0  0  0
   36.3795   56.0608   35.7852 C   0  0  0  0  0  0
   34.9882   55.9730   36.1409 C   0  0  0  0  0  0
   34.0329   55.6094   35.4596 O   0  0  0  0  0  0
   34.9323   56.3718   37.4111 N   0  0  0  0  0  0
   36.1156   56.7236   37.9170 C   0  0  0  0  0  0
   36.3039   57.1474   39.0568 O   0  0  0  0  0  0
   36.8491   55.6172   34.4710 C   0  0  0  0  0  0
   36.3154   56.0419   33.2100 C   0  0  0  0  0  0
   35.2850   56.9199   32.8265 C   0  0  0  0  0  0
   34.9935   57.0771   31.4732 C   0  0  0  0  0  0
   35.7298   56.4042   30.5038 C   0  0  0  0  0  0
   36.7953   55.5720   30.8372 C   0  0  0  0  0  0
   37.0658   55.3801   32.1989 C   0  0  0  0  0  0
   38.0041   54.5873   32.8352 N   0  0  0  0  0  0
   37.8570   54.6903   34.2152 C   0  0  0  0  0  0
   38.7377   53.8815   35.1730 C   0  0  0  0  0  0
   39.7863   53.0075   34.4487 C   0  0  1  0  0  0
   40.1947   53.5691   33.0786 C   0  0  0  0  0  0
   38.9612   53.6982   32.1674 C   0  0  0  0  0  0
   40.9377   52.7722   35.2925 N   0  0  0  0  0  0
   41.0777   56.7336   40.0655 H   0  0  0  0  0  0
   42.0849   55.7796   38.9501 H   0  0  0  0  0  0
   42.2450   57.5509   39.0103 H   0  0  0  0  0  0
   38.8167   56.4807   39.2164 H   0  0  0  0  0  0
   42.9503   57.1005   36.4808 H   0  0  0  0  0  0
   42.8239   57.5495   34.0576 H   0  0  0  0  0  0
   40.6734   57.7860   32.9132 H   0  0  0  0  0  0
   38.5596   57.5225   34.1339 H   0  0  0  0  0  0
   34.0691   56.4386   37.9333 H   0  0  0  0  0  0
   34.7025   57.4424   33.5704 H   0  0  0  0  0  0
   34.1848   57.7282   31.1750 H   0  0  0  0  0  0
   35.4757   56.5391   29.4638 H   0  0  0  0  0  0
   37.3623   55.0702   30.0634 H   0  0  0  0  0  0
   39.2574   54.5555   35.8439 H   0  0  0  0  0  0
   38.1267   53.2486   35.8106 H   0  0  0  0  0  0
   39.3198   52.0350   34.2759 H   0  0  0  0  0  0
   40.6871   54.5379   33.1913 H   0  0  0  0  0  0
   40.9215   52.9064   32.6035 H   0  0  0  0  0  0
   38.4936   52.7224   32.0365 H   0  0  0  0  0  0
   39.2331   54.0869   31.1844 H   0  0  0  0  0  0
   40.6450   52.3657   36.1692 H   0  0  0  0  0  0
   41.5198   52.0692   34.8463 H   0  0  0  0  0  0
  1  2  1  0  0  0
  1 32  1  0  0  0
  1 33  1  0  0  0
  1 34  1  0  0  0
  2  6  1  0  0  0
  2  3  1  0  0  0
  3  4  2  0  0  0
  3 35  1  0  0  0
  4  5  1  0  0  0
  4 11  1  0  0  0
  5 10  2  0  0  0
  5  6  1  0  0  0
  6  7  2  0  0  0
  7  8  1  0  0  0
  7 36  1  0  0  0
  8  9  2  0  0  0
  8 37  1  0  0  0
  9 10  1  0  0  0
  9 38  1  0  0  0
 10 39  1  0  0  0
 11 16  1  0  0  0
 11 12  2  0  0  0
 12 13  1  0  0  0
 12 18  1  0  0  0
 13 14  2  0  0  0
 13 15  1  0  0  0
 15 16  1  0  0  0
 15 40  1  0  0  0
 16 17  2  0  0  0
 18 26  2  0  0  0
 18 19  1  0  0  0
 19 24  2  0  0  0
 19 20  1  0  0  0
 20 21  2  0  0  0
 20 41  1  0  0  0
 21 22  1  0  0  0
 21 42  1  0  0  0
 22 23  2  0  0  0
 22 43  1  0  0  0
 23 24  1  0  0  0
 23 44  1  0  0  0
 24 25  1  0  0  0
 25 30  1  0  0  0
 25 26  1  0  0  0
 26 27  1  0  0  0
 27 28  1  0  0  0
 27 45  1  0  0  0
 27 46  1  0  0  0
 28 29  1  0  0  0
 28 31  1  0  0  0
 28 47  1  0  0  0
 29 30  1  0  0  0
 29 48  1  0  0  0
 29 49  1  0  0  0
 30 50  1  0  0  0
 30 51  1  0  0  0
 31 52  1  0  0  0
 31 53  1  0  0  0
M  END
> <s_m_entry_id>
4247

> <s_m_entry_name>
ligand_docking-pose.17

> <s_m_Source_Path>
/home/csk/Desktop/cluster/DUD-E-result/kpcb

> <s_m_Source_File>
ligand_docking-pose.sdf

> <i_m_Source_File_Index>
17

> <i_lp_mmshare_version>
53161

> <r_lp_tautomer_probability>
1

> <s_lp_Force_Field>
OPLS_2005

> <r_lp_Energy>
32.211948

> <b_lp_Chiralities_Consistent>
1

> <s_lp_Variant>
160454-1

> <s_i_glide_gridfile>
glide-grid_2i0e

> <i_i_glide_lignum>
435

> <i_i_glide_rotatable_bonds>
2

> <r_i_docking_score>
-9.93649328878824

> <r_i_glide_ligand_efficiency>
-0.320532041573814

> <r_i_glide_ligand_efficiency_sa>
-1.00691315271892

> <r_i_glide_ligand_efficiency_ln>
-2.24098375356995

> <r_i_glide_gscore>
-9.93649328878824

> <r_i_glide_lipo>
-2.93423931825668

> <r_i_glide_hbond>
-0.838629178778985

> <r_i_glide_metal>
0

> <r_i_glide_rewards>
-2.63534197173504

> <r_i_glide_evdw>
-48.839542388916

> <r_i_glide_ecoul>
-8.33336639404297

> <r_i_glide_erotb>
0.163699258534719

> <r_i_glide_esite>
0

> <r_i_glide_emodel>
-92.189008452489

> <r_i_glide_energy>
-57.172908782959

> <r_i_glide_einternal>
0.269571721553802

> <i_i_glide_confnum>
1

> <i_i_glide_posenum>
231

> <r_i_glide_eff_state_penalty>
0

> <i_f3d_flags>
0

> <s_user_duplicate_titles>
160454

> <s_m_subgroup_title>
dock_pv

> <s_m_subgroupid>
dock_pv1

> <b_m_subgroup_collapsed>
0

$$$$
222
                    3D
 Schrodinger Suite 2021-1.
 52 56  0  0  1  0            999 V2000
   41.3003   57.8094   34.6145 C   0  0  0  0  0  0
   40.3037   57.4652   35.6148 N   0  0  0  0  0  0
   38.9650   57.3404   35.3626 C   0  0  0  0  0  0
   38.2781   56.8638   36.4610 C   0  0  0  0  0  0
   39.2785   56.7162   37.4968 C   0  0  0  0  0  0
   40.5416   57.0886   36.9245 C   0  0  0  0  0  0
   41.7387   57.0349   37.6527 C   0  0  0  0  0  0
   41.6602   56.6140   38.9789 C   0  0  0  0  0  0
   40.4520   56.2493   39.5614 C   0  0  0  0  0  0
   39.2639   56.2877   38.8369 C   0  0  0  0  0  0
   36.8357   56.5552   36.4657 C   0  0  0  0  0  0
   36.0652   56.0653   35.4685 C   0  0  0  0  0  0
   34.7220   55.9594   35.9661 C   0  0  0  0  0  0
   33.7102   55.5724   35.3914 O   0  0  0  0  0  0
   34.7807   56.3707   37.2359 N   0  0  0  0  0  0
   36.0042   56.7358   37.6275 C   0  0  0  0  0  0
   36.2940   57.1534   38.7489 O   0  0  0  0  0  0
   36.4373   55.7161   34.0798 C   0  0  0  0  0  0
   37.6613   55.1844   33.7375 C   0  0  0  0  0  0
   37.8141   55.0587   32.3753 N   0  0  0  0  0  0
   36.6425   55.4855   31.7788 C   0  0  0  0  0  0
   35.7221   55.8267   32.8235 C   0  0  0  0  0  0
   34.4164   56.1870   32.4443 C   0  0  0  0  0  0
   34.0736   56.2604   31.0966 C   0  0  0  0  0  0
   35.0046   55.9703   30.1100 C   0  0  0  0  0  0
   36.3004   55.5720   30.4244 C   0  0  0  0  0  0
   39.0206   54.6106   31.6614 C   0  0  0  0  0  0
   40.0102   53.8252   32.5523 C   0  0  0  0  0  0
   39.3864   52.5675   33.1932 C   0  0  0  0  0  0
   39.9011   52.3717   34.5332 N   0  0  0  0  0  0
   42.1057   58.3714   35.0793 H   0  0  0  0  0  0
   41.7040   56.8950   34.1809 H   0  0  0  0  0  0
   40.8533   58.4207   33.8302 H   0  0  0  0  0  0
   38.5953   57.5717   34.3744 H   0  0  0  0  0  0
   42.6877   57.3106   37.2160 H   0  0  0  0  0  0
   42.5636   56.5618   39.5694 H   0  0  0  0  0  0
   40.4329   55.9181   40.5904 H   0  0  0  0  0  0
   38.3503   55.9683   39.3140 H   0  0  0  0  0  0
   33.9726   56.4218   37.8406 H   0  0  0  0  0  0
   38.4728   54.9084   34.3934 H   0  0  0  0  0  0
   33.6615   56.3721   33.1823 H   0  0  0  0  0  0
   33.0666   56.5293   30.8082 H   0  0  0  0  0  0
   34.6997   56.0054   29.0741 H   0  0  0  0  0  0
   36.9861   55.2699   29.6454 H   0  0  0  0  0  0
   38.7022   53.9729   30.8357 H   0  0  0  0  0  0
   39.5008   55.4872   31.2244 H   0  0  0  0  0  0
   40.8751   53.5225   31.9594 H   0  0  0  0  0  0
   40.4134   54.5083   33.3022 H   0  0  0  0  0  0
   38.3016   52.6453   33.2686 H   0  0  0  0  0  0
   39.5829   51.6918   32.5740 H   0  0  0  0  0  0
   40.7131   51.7567   34.4879 H   0  0  0  0  0  0
   40.2212   53.2401   34.9351 H   0  0  0  0  0  0
  1  2  1  0  0  0
  1 31  1  0  0  0
  1 32  1  0  0  0
  1 33  1  0  0  0
  2  6  1  0  0  0
  2  3  1  0  0  0
  3  4  2  0  0  0
  3 34  1  0  0  0
  4  5  1  0  0  0
  4 11  1  0  0  0
  5 10  2  0  0  0
  5  6  1  0  0  0
  6  7  2  0  0  0
  7  8  1  0  0  0
  7 35  1  0  0  0
  8  9  2  0  0  0
  8 36  1  0  0  0
  9 10  1  0  0  0
  9 37  1  0  0  0
 10 38  1  0  0  0
 11 16  1  0  0  0
 11 12  2  0  0  0
 12 13  1  0  0  0
 12 18  1  0  0  0
 13 14  2  0  0  0
 13 15  1  0  0  0
 15 16  1  0  0  0
 15 39  1  0  0  0
 16 17  2  0  0  0
 18 22  1  0  0  0
 18 19  2  0  0  0
 19 20  1  0  0  0
 19 40  1  0  0  0
 20 21  1  0  0  0
 20 27  1  0  0  0
 21 26  1  0  0  0
 21 22  2  0  0  0
 22 23  1  0  0  0
 23 24  2  0  0  0
 23 41  1  0  0  0
 24 25  1  0  0  0
 24 42  1  0  0  0
 25 26  2  0  0  0
 25 43  1  0  0  0
 26 44  1  0  0  0
 27 28  1  0  0  0
 27 45  1  0  0  0
 27 46  1  0  0  0
 28 29  1  0  0  0
 28 47  1  0  0  0
 28 48  1  0  0  0
 29 30  1  0  0  0
 29 49  1  0  0  0
 29 50  1  0  0  0
 30 51  1  0  0  0
 30 52  1  0  0  0
M  END
> <s_m_entry_id>
4248

> <s_m_entry_name>
ligand_docking-pose.18

> <s_m_Source_Path>
/home/csk/Desktop/cluster/DUD-E-result/kpcb

> <s_m_Source_File>
ligand_docking-pose.sdf

> <i_m_Source_File_Index>
18

> <i_lp_mmshare_version>
53161

> <r_lp_tautomer_probability>
1

> <s_lp_Force_Field>
OPLS_2005

> <r_lp_Energy>
26.603854

> <b_lp_Chiralities_Consistent>
1

> <s_lp_Variant>
222-1

> <s_i_glide_gridfile>
glide-grid_2i0e

> <i_i_glide_lignum>
472

> <i_i_glide_rotatable_bonds>
5

> <r_i_docking_score>
-9.92194556946858

> <r_i_glide_ligand_efficiency>
-0.330731518982286

> <r_i_glide_ligand_efficiency_sa>
-1.02765972536016

> <r_i_glide_ligand_efficiency_ln>
-2.25437414163903

> <r_i_glide_gscore>
-9.92194556946858

> <r_i_glide_lipo>
-2.90369513006706

> <r_i_glide_hbond>
-0.794905374082414

> <r_i_glide_metal>
0

> <r_i_glide_rewards>
-2.79825000024165

> <r_i_glide_evdw>
-48.3470077514648

> <r_i_glide_ecoul>
-9.02092456817627

> <r_i_glide_erotb>
0.34539400772223

> <r_i_glide_esite>
0

> <r_i_glide_emodel>
-90.1929263654181

> <r_i_glide_energy>
-57.3679323196411

> <r_i_glide_einternal>
8.8627815246582

> <i_i_glide_confnum>
60

> <i_i_glide_posenum>
192

> <r_i_glide_eff_state_penalty>
0

> <i_f3d_flags>
0

> <s_user_duplicate_titles>
222

> <s_m_subgroup_title>
dock_pv

> <s_m_subgroupid>
dock_pv1

> <b_m_subgroup_collapsed>
0

$$$$
231
                    3D
 Schrodinger Suite 2021-1.
 51 55  0  0  1  0            999 V2000
   41.4585   56.1138   39.3871 C   0  0  0  0  0  0
   40.5089   56.3830   38.3196 N   0  0  0  0  0  0
   39.1441   56.3413   38.4455 C   0  0  0  0  0  0
   38.5141   56.5376   37.2243 C   0  0  0  0  0  0
   39.5866   56.8782   36.3115 C   0  0  0  0  0  0
   40.8238   56.6838   37.0081 C   0  0  0  0  0  0
   42.0689   56.8119   36.3777 C   0  0  0  0  0  0
   42.0663   57.1719   35.0325 C   0  0  0  0  0  0
   40.8880   57.4494   34.3509 C   0  0  0  0  0  0
   39.6529   57.3223   34.9795 C   0  0  0  0  0  0
   37.0564   56.4116   36.9966 C   0  0  0  0  0  0
   36.3468   56.1964   35.8785 C   0  0  0  0  0  0
   34.9472   56.1575   36.1971 C   0  0  0  0  0  0
   33.9784   55.9736   35.4602 O   0  0  0  0  0  0
   34.9007   56.3719   37.5085 N   0  0  0  0  0  0
   36.1012   56.5524   38.0579 C   0  0  0  0  0  0
   36.3011   56.8084   39.2370 O   0  0  0  0  0  0
   36.7887   55.9154   34.5356 C   0  0  0  0  0  0
   36.3369   56.5963   33.4331 C   0  0  0  0  0  0
   36.9611   56.1324   32.3086 N   0  0  0  0  0  0
   37.8382   55.1135   32.6562 C   0  0  0  0  0  0
   37.7522   54.9552   34.0749 C   0  0  0  0  0  0
   38.5474   53.9789   34.6988 C   0  0  0  0  0  0
   39.3883   53.1897   33.9177 C   0  0  0  0  0  0
   39.4605   53.3653   32.5408 C   0  0  0  0  0  0
   38.7025   54.3308   31.8780 C   0  0  0  0  0  0
   36.6791   56.6168   30.9722 C   0  0  0  0  0  0
   35.5168   55.8297   30.3184 C   0  0  0  0  0  0
   34.1547   56.0167   31.0270 C   0  0  0  0  0  0
   33.1340   55.2450   30.4369 O   0  0  0  0  0  0
   42.0326   55.2211   39.1400 H   0  0  0  0  0  0
   42.1381   56.9603   39.4885 H   0  0  0  0  0  0
   40.9367   55.9562   40.3321 H   0  0  0  0  0  0
   38.7212   56.0818   39.4066 H   0  0  0  0  0  0
   42.9956   56.6398   36.9043 H   0  0  0  0  0  0
   43.0083   57.2674   34.5128 H   0  0  0  0  0  0
   40.9345   57.7551   33.3144 H   0  0  0  0  0  0
   38.7565   57.5537   34.4328 H   0  0  0  0  0  0
   34.0374   56.4438   38.0298 H   0  0  0  0  0  0
   35.6092   57.3910   33.3585 H   0  0  0  0  0  0
   38.5054   53.8423   35.7675 H   0  0  0  0  0  0
   39.9975   52.4281   34.3872 H   0  0  0  0  0  0
   40.1263   52.7326   31.9678 H   0  0  0  0  0  0
   38.7792   54.4442   30.8050 H   0  0  0  0  0  0
   36.4417   57.6813   31.0313 H   0  0  0  0  0  0
   37.6202   56.5461   30.4362 H   0  0  0  0  0  0
   35.4232   56.1443   29.2780 H   0  0  0  0  0  0
   35.7767   54.7723   30.2864 H   0  0  0  0  0  0
   34.2194   55.7317   32.0766 H   0  0  0  0  0  0
   33.8727   57.0717   31.0357 H   0  0  0  0  0  0
   32.9730   55.5716   29.5353 H   0  0  0  0  0  0
  1  2  1  0  0  0
  1 31  1  0  0  0
  1 32  1  0  0  0
  1 33  1  0  0  0
  2  6  1  0  0  0
  2  3  1  0  0  0
  3  4  2  0  0  0
  3 34  1  0  0  0
  4  5  1  0  0  0
  4 11  1  0  0  0
  5 10  2  0  0  0
  5  6  1  0  0  0
  6  7  2  0  0  0
  7  8  1  0  0  0
  7 35  1  0  0  0
  8  9  2  0  0  0
  8 36  1  0  0  0
  9 10  1  0  0  0
  9 37  1  0  0  0
 10 38  1  0  0  0
 11 16  1  0  0  0
 11 12  2  0  0  0
 12 13  1  0  0  0
 12 18  1  0  0  0
 13 14  2  0  0  0
 13 15  1  0  0  0
 15 16  1  0  0  0
 15 39  1  0  0  0
 16 17  2  0  0  0
 18 22  1  0  0  0
 18 19  2  0  0  0
 19 20  1  0  0  0
 19 40  1  0  0  0
 20 21  1  0  0  0
 20 27  1  0  0  0
 21 26  1  0  0  0
 21 22  2  0  0  0
 22 23  1  0  0  0
 23 24  2  0  0  0
 23 41  1  0  0  0
 24 25  1  0  0  0
 24 42  1  0  0  0
 25 26  2  0  0  0
 25 43  1  0  0  0
 26 44  1  0  0  0
 27 28  1  0  0  0
 27 45  1  0  0  0
 27 46  1  0  0  0
 28 29  1  0  0  0
 28 47  1  0  0  0
 28 48  1  0  0  0
 29 30  1  0  0  0
 29 49  1  0  0  0
 29 50  1  0  0  0
 30 51  1  0  0  0
M  END
> <s_m_entry_id>
4249

> <s_m_entry_name>
ligand_docking-pose.19

> <s_m_Source_Path>
/home/csk/Desktop/cluster/DUD-E-result/kpcb

> <s_m_Source_File>
ligand_docking-pose.sdf

> <i_m_Source_File_Index>
19

> <i_lp_mmshare_version>
53161

> <r_lp_tautomer_probability>
1

> <s_lp_Force_Field>
OPLS_2005

> <r_lp_Energy>
26.649717

> <b_lp_Chiralities_Consistent>
1

> <s_lp_Variant>
231-1

> <s_i_glide_gridfile>
glide-grid_2i0e

> <i_i_glide_lignum>
477

> <i_i_glide_rotatable_bonds>
6

> <r_i_docking_score>
-9.91263120191899

> <r_i_glide_ligand_efficiency>
-0.330421040063966

> <r_i_glide_ligand_efficiency_sa>
-1.02669499517384

> <r_i_glide_ligand_efficiency_ln>
-2.2522578158436

> <r_i_glide_gscore>
-9.91263120191899

> <r_i_glide_lipo>
-2.76505345655161

> <r_i_glide_hbond>
-0.72

> <r_i_glide_metal>
0

> <r_i_glide_rewards>
-2.73699066441641

> <r_i_glide_evdw>
-49.8935012817383

> <r_i_glide_ecoul>
-10.8382730484009

> <r_i_glide_erotb>
0.429828940396074

> <r_i_glide_esite>
0

> <r_i_glide_emodel>
-94.6345239059465

> <r_i_glide_energy>
-60.7317743301392

> <r_i_glide_einternal>
7.1383171081543

> <i_i_glide_confnum>
251

> <i_i_glide_posenum>
197

> <r_i_glide_eff_state_penalty>
0

> <i_f3d_flags>
0

> <s_user_duplicate_titles>
231

> <s_m_subgroup_title>
dock_pv

> <s_m_subgroupid>
dock_pv1

> <b_m_subgroup_collapsed>
0

$$$$
676879
                    3D
 Schrodinger Suite 2021-1.
 59 64  0  0  1  0            999 V2000
   41.8737   56.3487   38.9455 C   0  0  0  0  0  0
   40.8344   56.5435   37.9488 N   0  0  0  0  0  0
   39.4861   56.4428   38.1867 C   0  0  0  0  0  0
   38.7609   56.5700   37.0122 C   0  0  0  0  0  0
   39.7386   56.8807   35.9931 C   0  0  0  0  0  0
   41.0322   56.7768   36.5998 C   0  0  0  0  0  0
   42.2152   56.9116   35.8608 C   0  0  0  0  0  0
   42.0915   57.1938   34.5013 C   0  0  0  0  0  0
   40.8517   57.3719   33.8999 C   0  0  0  0  0  0
   39.6757   57.2291   34.6315 C   0  0  0  0  0  0
   37.3022   56.3857   36.9022 C   0  0  0  0  0  0
   36.5599   55.9708   35.8592 C   0  0  0  0  0  0
   35.1808   55.9604   36.2637 C   0  0  0  0  0  0
   34.1862   55.6462   35.6152 O   0  0  0  0  0  0
   35.1860   56.3718   37.5339 N   0  0  0  0  0  0
   36.4064   56.6616   37.9977 C   0  0  0  0  0  0
   36.6573   57.0923   39.1240 O   0  0  0  0  0  0
   36.9679   55.5149   34.5241 C   0  0  0  0  0  0
   36.4227   55.9797   33.2772 C   0  0  0  0  0  0
   35.4179   56.9006   32.9308 C   0  0  0  0  0  0
   35.1028   57.0904   31.5885 C   0  0  0  0  0  0
   35.8006   56.4209   30.5911 C   0  0  0  0  0  0
   36.8493   55.5537   30.8815 C   0  0  0  0  0  0
   37.1273   55.3099   32.2330 C   0  0  0  0  0  0
   38.0229   54.4433   32.8361 N   0  0  0  0  0  0
   37.9181   54.5433   34.2136 C   0  0  0  0  0  0
   38.7799   53.6147   35.0541 C   0  0  0  0  0  0
   40.2100   53.5258   34.4462 C   0  0  0  0  0  0
   40.3086   53.6367   32.8927 C   0  0  2  0  0  0
   38.9417   53.5025   32.1754 C   0  0  0  0  0  0
   41.4789   52.7952   32.3181 C   0  0  0  0  0  0
   41.9709   53.1568   30.8968 C   0  0  0  0  0  0
   41.3041   52.3879   29.8582 N   0  0  0  0  0  0
   41.4461   56.3489   39.9500 H   0  0  0  0  0  0
   42.3705   55.3945   38.7642 H   0  0  0  0  0  0
   42.6027   57.1562   38.8723 H   0  0  0  0  0  0
   39.1442   56.2131   39.1872 H   0  0  0  0  0  0
   43.1892   56.8144   36.3168 H   0  0  0  0  0  0
   42.9858   57.3045   33.9052 H   0  0  0  0  0  0
   40.7992   57.6102   32.8469 H   0  0  0  0  0  0
   38.7279   57.3713   34.1394 H   0  0  0  0  0  0
   34.3430   56.4838   38.0785 H   0  0  0  0  0  0
   34.8661   57.4256   33.6970 H   0  0  0  0  0  0
   34.2988   57.7603   31.3169 H   0  0  0  0  0  0
   35.5274   56.5735   29.5581 H   0  0  0  0  0  0
   37.3778   55.0451   30.0869 H   0  0  0  0  0  0
   38.8348   53.9389   36.0932 H   0  0  0  0  0  0
   38.3108   52.6294   35.0814 H   0  0  0  0  0  0
   40.9146   54.2044   34.9312 H   0  0  0  0  0  0
   40.5166   52.5147   34.7286 H   0  0  0  0  0  0
   40.6098   54.6715   32.7122 H   0  0  0  0  0  0
   38.5613   52.4867   32.2934 H   0  0  0  0  0  0
   39.0299   53.7274   31.1127 H   0  0  0  0  0  0
   42.3341   52.9229   32.9846 H   0  0  0  0  0  0
   41.2493   51.7305   32.3836 H   0  0  0  0  0  0
   41.8950   54.2240   30.7004 H   0  0  0  0  0  0
   43.0312   52.9059   30.8246 H   0  0  0  0  0  0
   41.0579   51.4784   30.2409 H   0  0  0  0  0  0
   40.4165   52.8078   29.6088 H   0  0  0  0  0  0
  1  2  1  0  0  0
  1 34  1  0  0  0
  1 35  1  0  0  0
  1 36  1  0  0  0
  2  6  1  0  0  0
  2  3  1  0  0  0
  3  4  2  0  0  0
  3 37  1  0  0  0
  4  5  1  0  0  0
  4 11  1  0  0  0
  5 10  2  0  0  0
  5  6  1  0  0  0
  6  7  2  0  0  0
  7  8  1  0  0  0
  7 38  1  0  0  0
  8  9  2  0  0  0
  8 39  1  0  0  0
  9 10  1  0  0  0
  9 40  1  0  0  0
 10 41  1  0  0  0
 11 16  1  0  0  0
 11 12  2  0  0  0
 12 13  1  0  0  0
 12 18  1  0  0  0
 13 14  2  0  0  0
 13 15  1  0  0  0
 15 16  1  0  0  0
 15 42  1  0  0  0
 16 17  2  0  0  0
 18 26  2  0  0  0
 18 19  1  0  0  0
 19 24  2  0  0  0
 19 20  1  0  0  0
 20 21  2  0  0  0
 20 43  1  0  0  0
 21 22  1  0  0  0
 21 44  1  0  0  0
 22 23  2  0  0  0
 22 45  1  0  0  0
 23 24  1  0  0  0
 23 46  1  0  0  0
 24 25  1  0  0  0
 25 30  1  0  0  0
 25 26  1  0  0  0
 26 27  1  0  0  0
 27 28  1  0  0  0
 27 47  1  0  0  0
 27 48  1  0  0  0
 28 29  1  0  0  0
 28 49  1  0  0  0
 28 50  1  0  0  0
 29 30  1  0  0  0
 29 31  1  0  0  0
 29 51  1  0  0  0
 30 52  1  0  0  0
 30 53  1  0  0  0
 31 32  1  0  0  0
 31 54  1  0  0  0
 31 55  1  0  0  0
 32 33  1  0  0  0
 32 56  1  0  0  0
 32 57  1  0  0  0
 33 58  1  0  0  0
 33 59  1  0  0  0
M  END
> <s_m_entry_id>
4250

> <s_m_entry_name>
ligand_docking-pose.20

> <s_m_Source_Path>
/home/csk/Desktop/cluster/DUD-E-result/kpcb

> <s_m_Source_File>
ligand_docking-pose.sdf

> <i_m_Source_File_Index>
20

> <i_lp_mmshare_version>
53161

> <r_lp_tautomer_probability>
1

> <s_lp_Force_Field>
OPLS_2005

> <r_lp_Energy>
35.634638

> <b_lp_Chiralities_Consistent>
1

> <s_lp_Variant>
676879-2

> <s_i_glide_gridfile>
glide-grid_2i0e

> <i_i_glide_lignum>
426

> <i_i_glide_rotatable_bonds>
4

> <r_i_docking_score>
-9.86953682645794

> <r_i_glide_ligand_efficiency>
-0.299076873529028

> <r_i_glide_ligand_efficiency_sa>
-0.959299338034113

> <r_i_glide_ligand_efficiency_ln>
-2.19493388847746

> <r_i_glide_gscore>
-9.86953682645794

> <r_i_glide_lipo>
-2.77926350330848

> <r_i_glide_hbond>
-0.863070444722566

> <r_i_glide_metal>
0

> <r_i_glide_rewards>
-2.4125997217639

> <r_i_glide_evdw>
-52.6308517456055

> <r_i_glide_ecoul>
-9.33952045440674

> <r_i_glide_erotb>
0.217867498778286

> <r_i_glide_esite>
0

> <r_i_glide_emodel>
-88.0695557135182

> <r_i_glide_energy>
-61.9703722000122

> <r_i_glide_einternal>
6.48304271697998

> <i_i_glide_confnum>
5

> <i_i_glide_posenum>
373

> <r_i_glide_eff_state_penalty>
0

> <i_f3d_flags>
0

> <s_user_duplicate_titles>
676879

> <s_m_subgroup_title>
dock_pv

> <s_m_subgroupid>
dock_pv1

> <b_m_subgroup_collapsed>
0

$$$$
269953
                    3D
 Schrodinger Suite 2021-1.
 55 59  0  0  1  0            999 V2000
   34.7173   56.3720   30.4371 C   0  0  0  0  0  0
   34.1726   56.9380   31.5813 C   0  0  0  0  0  0
   34.7912   56.7686   32.8165 C   0  0  0  0  0  0
   35.9704   55.9788   32.9512 C   0  0  0  0  0  0
   36.5662   55.4835   31.7442 C   0  0  0  0  0  0
   35.9214   55.6851   30.4997 C   0  0  0  0  0  0
   37.7824   54.7720   31.8092 C   0  0  0  0  0  0
   38.3124   54.4177   33.0353 C   0  0  0  0  0  0
   37.7210   54.8380   34.2089 C   0  0  0  0  0  0
   36.5863   55.6543   34.2158 C   0  0  0  0  0  0
   36.1154   56.1218   35.5518 C   0  0  0  0  0  0
   36.8736   56.5866   36.5640 C   0  0  0  0  0  0
   36.0260   56.7598   37.7112 C   0  0  0  0  0  0
   36.3009   57.1720   38.8369 O   0  0  0  0  0  0
   34.8128   56.3719   37.3023 N   0  0  0  0  0  0
   34.7745   55.9638   36.0320 C   0  0  0  0  0  0
   33.7793   55.5721   35.4300 O   0  0  0  0  0  0
   38.3149   56.8898   36.5440 C   0  0  0  0  0  0
   38.9759   57.3595   35.4262 C   0  0  0  0  0  0
   40.3145   57.5225   35.6560 N   0  0  0  0  0  0
   40.5769   57.1719   36.9716 C   0  0  0  0  0  0
   39.3298   56.7759   37.5653 C   0  0  0  0  0  0
   39.3345   56.3705   38.9114 C   0  0  0  0  0  0
   40.5290   56.3758   39.6260 C   0  0  0  0  0  0
   41.7214   56.7672   39.0275 C   0  0  0  0  0  0
   41.7782   57.1721   37.6945 C   0  0  0  0  0  0
   41.2644   57.9713   34.6396 C   0  0  0  0  0  0
   41.6521   56.8448   33.6586 C   0  0  0  0  0  0
   42.5636   55.7463   34.2540 C   0  0  0  0  0  0
   41.8699   54.0609   34.3166 S   0  0  0  0  0  0
   41.7745   53.5946   32.5739 C   0  0  0  0  0  0
   42.1692   54.3709   31.6662 N   0  0  0  0  0  0
   41.1827   52.3720   32.4183 N   0  0  0  0  0  0
   34.2148   56.4881   29.4886 H   0  0  0  0  0  0
   33.2542   57.5026   31.5114 H   0  0  0  0  0  0
   34.3319   57.2208   33.6807 H   0  0  0  0  0  0
   36.3546   55.2673   29.6013 H   0  0  0  0  0  0
   38.2580   54.4244   30.9022 H   0  0  0  0  0  0
   39.1833   53.7928   33.0870 H   0  0  0  0  0  0
   38.1804   54.5335   35.1393 H   0  0  0  0  0  0
   33.9951   56.4096   37.8958 H   0  0  0  0  0  0
   38.5880   57.5727   34.4402 H   0  0  0  0  0  0
   38.4298   56.0423   39.4005 H   0  0  0  0  0  0
   40.5281   56.0617   40.6606 H   0  0  0  0  0  0
   42.6307   56.7522   39.6117 H   0  0  0  0  0  0
   42.7160   57.4716   37.2496 H   0  0  0  0  0  0
   42.1453   58.3716   35.1362 H   0  0  0  0  0  0
   40.8154   58.8056   34.0995 H   0  0  0  0  0  0
   42.1670   57.2960   32.8100 H   0  0  0  0  0  0
   40.7480   56.4061   33.2320 H   0  0  0  0  0  0
   42.8539   56.0025   35.2717 H   0  0  0  0  0  0
   43.5060   55.7034   33.7061 H   0  0  0  0  0  0
   42.5590   55.2184   32.0452 H   0  0  0  0  0  0
   41.0479   52.0169   31.4825 H   0  0  0  0  0  0
   41.3402   51.6821   33.1434 H   0  0  0  0  0  0
  1  6  1  0  0  0
  1  2  2  0  0  0
  1 34  1  0  0  0
  2  3  1  0  0  0
  2 35  1  0  0  0
  3  4  2  0  0  0
  3 36  1  0  0  0
  4 10  1  0  0  0
  4  5  1  0  0  0
  5  6  2  0  0  0
  5  7  1  0  0  0
  6 37  1  0  0  0
  7  8  2  0  0  0
  7 38  1  0  0  0
  8  9  1  0  0  0
  8 39  1  0  0  0
  9 10  2  0  0  0
  9 40  1  0  0  0
 10 11  1  0  0  0
 11 16  1  0  0  0
 11 12  2  0  0  0
 12 13  1  0  0  0
 12 18  1  0  0  0
 13 14  2  0  0  0
 13 15  1  0  0  0
 15 16  1  0  0  0
 15 41  1  0  0  0
 16 17  2  0  0  0
 18 22  1  0  0  0
 18 19  2  0  0  0
 19 20  1  0  0  0
 19 42  1  0  0  0
 20 21  1  0  0  0
 20 27  1  0  0  0
 21 26  1  0  0  0
 21 22  2  0  0  0
 22 23  1  0  0  0
 23 24  2  0  0  0
 23 43  1  0  0  0
 24 25  1  0  0  0
 24 44  1  0  0  0
 25 26  2  0  0  0
 25 45  1  0  0  0
 26 46  1  0  0  0
 27 28  1  0  0  0
 27 47  1  0  0  0
 27 48  1  0  0  0
 28 29  1  0  0  0
 28 49  1  0  0  0
 28 50  1  0  0  0
 29 30  1  0  0  0
 29 51  1  0  0  0
 29 52  1  0  0  0
 30 31  1  0  0  0
 31 32  2  3  0  0
 31 33  1  0  0  0
 32 53  1  0  0  0
 33 54  1  0  0  0
 33 55  1  0  0  0
M  END
> <s_m_entry_id>
4251

> <s_m_entry_name>
ligand_docking-pose.21

> <s_m_Source_Path>
/home/csk/Desktop/cluster/DUD-E-result/kpcb

> <s_m_Source_File>
ligand_docking-pose.sdf

> <i_m_Source_File_Index>
21

> <i_lp_mmshare_version>
53161

> <r_lp_tautomer_probability>
1

> <s_lp_Force_Field>
OPLS_2005

> <r_lp_Energy>
31.814036

> <b_lp_Chiralities_Consistent>
1

> <s_lp_Variant>
269953-2

> <s_i_glide_gridfile>
glide-grid_2i0e

> <i_i_glide_lignum>
50

> <i_i_glide_rotatable_bonds>
7

> <r_i_docking_score>
-9.83359781828458

> <r_i_glide_ligand_efficiency>
-0.29798781267529

> <r_i_glide_ligand_efficiency_sa>
-0.955806137962365

> <r_i_glide_ligand_efficiency_ln>
-2.18694123914193

> <r_i_glide_gscore>
-9.83359781828458

> <r_i_glide_lipo>
-3.14645825551985

> <r_i_glide_hbond>
-0.866890782709559

> <r_i_glide_metal>
0

> <r_i_glide_rewards>
-2.33441990938596

> <r_i_glide_evdw>
-51.4925117492676

> <r_i_glide_ecoul>
-8.50533676147461

> <r_i_glide_erotb>
0.476265792516867

> <r_i_glide_esite>
-0.111668561501511

> <r_i_glide_emodel>
-95.8096887546542

> <r_i_glide_energy>
-59.9978485107422

> <r_i_glide_einternal>
5.22507619857788

> <i_i_glide_confnum>
51

> <i_i_glide_posenum>
34

> <r_i_glide_eff_state_penalty>
0

> <i_f3d_flags>
0

> <s_user_duplicate_titles>
269953

> <s_m_subgroup_title>
dock_pv

> <s_m_subgroupid>
dock_pv1

> <b_m_subgroup_collapsed>
0

$$$$
276
                    3D
 Schrodinger Suite 2021-1.
 49 53  0  0  1  0            999 V2000
   41.4211   57.7609   34.4853 C   0  0  0  0  0  0
   40.4960   57.4044   35.5484 N   0  0  0  0  0  0
   39.1402   57.2923   35.3919 C   0  0  0  0  0  0
   38.5414   56.7892   36.5302 C   0  0  0  0  0  0
   39.6089   56.6351   37.4913 C   0  0  0  0  0  0
   40.8269   57.0153   36.8352 C   0  0  0  0  0  0
   42.0708   56.9575   37.4792 C   0  0  0  0  0  0
   42.0840   56.5200   38.8030 C   0  0  0  0  0  0
   40.9186   56.1485   39.4648 C   0  0  0  0  0  0
   39.6828   56.1956   38.8251 C   0  0  0  0  0  0
   37.1087   56.4770   36.6395 C   0  0  0  0  0  0
   36.2868   55.9382   35.7130 C   0  0  0  0  0  0
   34.9634   55.9199   36.2768 C   0  0  0  0  0  0
   33.9010   55.5717   35.7772 O   0  0  0  0  0  0
   35.1009   56.3713   37.5247 N   0  0  0  0  0  0
   36.3478   56.7219   37.8361 C   0  0  0  0  0  0
   36.7012   57.1720   38.9242 O   0  0  0  0  0  0
   36.6071   55.5219   34.3268 C   0  0  0  0  0  0
   37.8293   54.9899   33.9451 C   0  0  0  0  0  0
   37.9321   54.8721   32.5780 N   0  0  0  0  0  0
   36.7310   55.2840   32.0264 C   0  0  0  0  0  0
   35.8309   55.5723   33.1024 C   0  0  0  0  0  0
   34.4922   55.8571   32.7684 C   0  0  0  0  0  0
   34.1083   55.9502   31.4333 C   0  0  0  0  0  0
   35.0282   55.7510   30.4146 C   0  0  0  0  0  0
   36.3487   55.4058   30.6844 C   0  0  0  0  0  0
   39.1344   54.5126   31.8078 C   0  0  0  0  0  0
   40.1883   53.6773   32.5723 C   0  0  0  0  0  0
   39.6776   52.3721   32.9570 N   0  0  0  0  0  0
   42.2242   58.3717   34.8894 H   0  0  0  0  0  0
   41.8451   56.8512   34.0590 H   0  0  0  0  0  0
   40.9065   58.3253   33.7064 H   0  0  0  0  0  0
   38.7002   57.5400   34.4371 H   0  0  0  0  0  0
   42.9867   57.2410   36.9807 H   0  0  0  0  0  0
   43.0263   56.4617   39.3287 H   0  0  0  0  0  0
   40.9721   55.8086   40.4894 H   0  0  0  0  0  0
   38.7970   55.8843   39.3570 H   0  0  0  0  0  0
   34.3210   56.4702   38.1586 H   0  0  0  0  0  0
   38.6818   54.7414   34.5604 H   0  0  0  0  0  0
   33.7408   55.9721   33.5236 H   0  0  0  0  0  0
   33.0806   56.1730   31.1814 H   0  0  0  0  0  0
   34.7008   55.8160   29.3865 H   0  0  0  0  0  0
   37.0313   55.1720   29.8830 H   0  0  0  0  0  0
   38.8253   53.9712   30.9121 H   0  0  0  0  0  0
   39.5857   55.4432   31.4617 H   0  0  0  0  0  0
   41.0621   53.5257   31.9359 H   0  0  0  0  0  0
   40.5479   54.2113   33.4528 H   0  0  0  0  0  0
   39.5002   51.8185   32.1247 H   0  0  0  0  0  0
   40.3959   51.8607   33.4605 H   0  0  0  0  0  0
  1  2  1  0  0  0
  1 30  1  0  0  0
  1 31  1  0  0  0
  1 32  1  0  0  0
  2  6  1  0  0  0
  2  3  1  0  0  0
  3  4  2  0  0  0
  3 33  1  0  0  0
  4  5  1  0  0  0
  4 11  1  0  0  0
  5 10  2  0  0  0
  5  6  1  0  0  0
  6  7  2  0  0  0
  7  8  1  0  0  0
  7 34  1  0  0  0
  8  9  2  0  0  0
  8 35  1  0  0  0
  9 10  1  0  0  0
  9 36  1  0  0  0
 10 37  1  0  0  0
 11 16  1  0  0  0
 11 12  2  0  0  0
 12 13  1  0  0  0
 12 18  1  0  0  0
 13 14  2  0  0  0
 13 15  1  0  0  0
 15 16  1  0  0  0
 15 38  1  0  0  0
 16 17  2  0  0  0
 18 22  1  0  0  0
 18 19  2  0  0  0
 19 20  1  0  0  0
 19 39  1  0  0  0
 20 21  1  0  0  0
 20 27  1  0  0  0
 21 26  1  0  0  0
 21 22  2  0  0  0
 22 23  1  0  0  0
 23 24  2  0  0  0
 23 40  1  0  0  0
 24 25  1  0  0  0
 24 41  1  0  0  0
 25 26  2  0  0  0
 25 42  1  0  0  0
 26 43  1  0  0  0
 27 28  1  0  0  0
 27 44  1  0  0  0
 27 45  1  0  0  0
 28 29  1  0  0  0
 28 46  1  0  0  0
 28 47  1  0  0  0
 29 48  1  0  0  0
 29 49  1  0  0  0
M  END
> <s_m_entry_id>
4252

> <s_m_entry_name>
ligand_docking-pose.22

> <s_m_Source_Path>
/home/csk/Desktop/cluster/DUD-E-result/kpcb

> <s_m_Source_File>
ligand_docking-pose.sdf

> <i_m_Source_File_Index>
22

> <i_lp_mmshare_version>
53161

> <r_lp_tautomer_probability>
1

> <s_lp_Force_Field>
OPLS_2005

> <r_lp_Energy>
27.661903

> <b_lp_Chiralities_Consistent>
1

> <s_lp_Variant>
276-1

> <s_i_glide_gridfile>
glide-grid_2i0e

> <i_i_glide_lignum>
480

> <i_i_glide_rotatable_bonds>
4

> <r_i_docking_score>
-9.81276303969293

> <r_i_glide_ligand_efficiency>
-0.338371139299756

> <r_i_glide_ligand_efficiency_sa>
-1.03958334343027

> <r_i_glide_ligand_efficiency_ln>
-2.24687390588865

> <r_i_glide_gscore>
-9.81276303969293

> <r_i_glide_lipo>
-2.79037955043362

> <r_i_glide_hbond>
-0.781904772289087

> <r_i_glide_metal>
0

> <r_i_glide_rewards>
-2.88621436211771

> <r_i_glide_evdw>
-47.8651657104492

> <r_i_glide_ecoul>
-8.24851703643799

> <r_i_glide_erotb>
0.276271486135643

> <r_i_glide_esite>
0

> <r_i_glide_emodel>
-86.8085418711643

> <r_i_glide_energy>
-56.1136827468872

> <r_i_glide_einternal>
8.3470983505249

> <i_i_glide_confnum>
23

> <i_i_glide_posenum>
276

> <r_i_glide_eff_state_penalty>
0

> <i_f3d_flags>
0

> <s_user_duplicate_titles>
276

> <s_m_subgroup_title>
dock_pv

> <s_m_subgroupid>
dock_pv1

> <b_m_subgroup_collapsed>
0

$$$$
160422
                    3D
 Schrodinger Suite 2021-1.
 59 64  0  0  1  0            999 V2000
   41.7845   56.6270   39.0170 C   0  0  0  0  0  0
   40.7340   56.7847   38.0251 N   0  0  0  0  0  0
   39.3906   56.6395   38.2667 C   0  0  0  0  0  0
   38.6604   56.7429   37.0925 C   0  0  0  0  0  0
   39.6188   57.0990   36.0766 C   0  0  0  0  0  0
   40.9173   57.0221   36.6748 C   0  0  0  0  0  0
   42.0909   57.1720   35.9225 C   0  0  0  0  0  0
   41.9477   57.4534   34.5641 C   0  0  0  0  0  0
   40.6997   57.6062   33.9725 C   0  0  0  0  0  0
   39.5347   57.4462   34.7162 C   0  0  0  0  0  0
   37.2159   56.4981   36.9654 C   0  0  0  0  0  0
   36.5068   56.0447   35.9174 C   0  0  0  0  0  0
   35.1263   55.9731   36.3017 C   0  0  0  0  0  0
   34.1542   55.6161   35.6377 O   0  0  0  0  0  0
   35.1010   56.3871   37.5717 N   0  0  0  0  0  0
   36.3019   56.7193   38.0527 C   0  0  0  0  0  0
   36.5232   57.1427   39.1873 O   0  0  0  0  0  0
   36.9487   55.5851   34.5979 C   0  0  0  0  0  0
   36.4474   56.0664   33.3437 C   0  0  0  0  0  0
   35.4983   57.0366   32.9803 C   0  0  0  0  0  0
   35.2232   57.2460   31.6327 C   0  0  0  0  0  0
   35.8954   56.5314   30.6470 C   0  0  0  0  0  0
   36.8632   55.5781   30.9581 C   0  0  0  0  0  0
   37.1216   55.3435   32.3168 C   0  0  0  0  0  0
   37.9791   54.4517   32.9437 N   0  0  0  0  0  0
   37.8563   54.5664   34.3176 C   0  0  0  0  0  0
   38.6302   53.6418   35.2405 C   0  0  0  0  0  0
   40.1641   53.7452   35.1543 C   0  0  0  0  0  0
   40.8775   53.2135   33.8867 C   0  0  1  0  0  0
   40.3505   53.7617   32.5404 C   0  0  0  0  0  0
   38.8615   53.5096   32.2562 C   0  0  0  0  0  0
   42.4074   53.4510   33.9649 C   0  0  0  0  0  0
   43.0021   52.7720   35.1017 N   0  0  0  0  0  0
   41.3573   56.6123   40.0205 H   0  0  0  0  0  0
   42.3136   55.6915   38.8318 H   0  0  0  0  0  0
   42.4828   57.4633   38.9407 H   0  0  0  0  0  0
   39.0580   56.3942   39.2688 H   0  0  0  0  0  0
   43.0710   57.0895   36.3684 H   0  0  0  0  0  0
   42.8358   57.5771   33.9621 H   0  0  0  0  0  0
   40.6342   57.8441   32.9200 H   0  0  0  0  0  0
   38.5770   57.5648   34.2366 H   0  0  0  0  0  0
   34.2463   56.4675   38.1053 H   0  0  0  0  0  0
   34.9698   57.5967   33.7382 H   0  0  0  0  0  0
   34.4767   57.9734   31.3456 H   0  0  0  0  0  0
   35.6581   56.7178   29.6108 H   0  0  0  0  0  0
   37.3682   55.0382   30.1684 H   0  0  0  0  0  0
   38.3499   53.8628   36.2687 H   0  0  0  0  0  0
   38.3253   52.6068   35.0814 H   0  0  0  0  0  0
   40.4576   54.7789   35.2909 H   0  0  0  0  0  0
   40.5700   53.2223   36.0220 H   0  0  0  0  0  0
   40.7000   52.1378   33.8551 H   0  0  0  0  0  0
   40.5616   54.8311   32.4652 H   0  0  0  0  0  0
   40.9233   53.2956   31.7353 H   0  0  0  0  0  0
   38.5794   52.4956   32.5473 H   0  0  0  0  0  0
   38.7012   53.5689   31.1811 H   0  0  0  0  0  0
   42.8942   53.0915   33.0585 H   0  0  0  0  0  0
   42.6271   54.5178   34.0364 H   0  0  0  0  0  0
   42.7685   51.7868   35.0321 H   0  0  0  0  0  0
   44.0111   52.8030   35.0396 H   0  0  0  0  0  0
  1  2  1  0  0  0
  1 34  1  0  0  0
  1 35  1  0  0  0
  1 36  1  0  0  0
  2  6  1  0  0  0
  2  3  1  0  0  0
  3  4  2  0  0  0
  3 37  1  0  0  0
  4  5  1  0  0  0
  4 11  1  0  0  0
  5 10  2  0  0  0
  5  6  1  0  0  0
  6  7  2  0  0  0
  7  8  1  0  0  0
  7 38  1  0  0  0
  8  9  2  0  0  0
  8 39  1  0  0  0
  9 10  1  0  0  0
  9 40  1  0  0  0
 10 41  1  0  0  0
 11 16  1  0  0  0
 11 12  2  0  0  0
 12 13  1  0  0  0
 12 18  1  0  0  0
 13 14  2  0  0  0
 13 15  1  0  0  0
 15 16  1  0  0  0
 15 42  1  0  0  0
 16 17  2  0  0  0
 18 26  2  0  0  0
 18 19  1  0  0  0
 19 24  2  0  0  0
 19 20  1  0  0  0
 20 21  2  0  0  0
 20 43  1  0  0  0
 21 22  1  0  0  0
 21 44  1  0  0  0
 22 23  2  0  0  0
 22 45  1  0  0  0
 23 24  1  0  0  0
 23 46  1  0  0  0
 24 25  1  0  0  0
 25 31  1  0  0  0
 25 26  1  0  0  0
 26 27  1  0  0  0
 27 28  1  0  0  0
 27 47  1  0  0  0
 27 48  1  0  0  0
 28 29  1  0  0  0
 28 49  1  0  0  0
 28 50  1  0  0  0
 29 30  1  0  0  0
 29 32  1  0  0  0
 29 51  1  0  0  0
 30 31  1  0  0  0
 30 52  1  0  0  0
 30 53  1  0  0  0
 31 54  1  0  0  0
 31 55  1  0  0  0
 32 33  1  0  0  0
 32 56  1  0  0  0
 32 57  1  0  0  0
 33 58  1  0  0  0
 33 59  1  0  0  0
M  END
> <s_m_entry_id>
4253

> <s_m_entry_name>
ligand_docking-pose.23

> <s_m_Source_Path>
/home/csk/Desktop/cluster/DUD-E-result/kpcb

> <s_m_Source_File>
ligand_docking-pose.sdf

> <i_m_Source_File_Index>
23

> <i_lp_mmshare_version>
53161

> <r_lp_tautomer_probability>
1

> <s_lp_Force_Field>
OPLS_2005

> <r_lp_Energy>
34.671503

> <b_lp_Chiralities_Consistent>
1

> <s_lp_Variant>
160422-1

> <s_i_glide_gridfile>
glide-grid_2i0e

> <i_i_glide_lignum>
442

> <i_i_glide_rotatable_bonds>
3

> <r_i_docking_score>
-9.74374921079102

> <r_i_glide_ligand_efficiency>
-0.295265127599728

> <r_i_glide_ligand_efficiency_sa>
-0.947073032122909

> <r_i_glide_ligand_efficiency_ln>
-2.16695937404656

> <r_i_glide_gscore>
-9.74374921079102

> <r_i_glide_lipo>
-2.90617036047955

> <r_i_glide_hbond>
-0.853659023097585

> <r_i_glide_metal>
0

> <r_i_glide_rewards>
-2.42472985935839

> <r_i_glide_evdw>
-51.2341957092285

> <r_i_glide_ecoul>
-7.61816787719727

> <r_i_glide_erotb>
0.145244999185524

> <r_i_glide_esite>
0

> <r_i_glide_emodel>
-92.9338831709982

> <r_i_glide_energy>
-58.8523635864258

> <r_i_glide_einternal>
2.97918772697449

> <i_i_glide_confnum>
14

> <i_i_glide_posenum>
221

> <r_i_glide_eff_state_penalty>
0

> <i_f3d_flags>
0

> <s_user_duplicate_titles>
160422

> <s_m_subgroup_title>
dock_pv

> <s_m_subgroupid>
dock_pv1

> <b_m_subgroup_collapsed>
0

$$$$
92602
                    3D
 Schrodinger Suite 2021-1.
 43 48  0  0  1  0            999 V2000
   38.9876   55.6391   31.6564 C   0  0  0  0  0  0
   37.7665   55.8904   32.4062 N   0  0  0  0  0  0
   36.5017   55.8104   31.8299 C   0  0  0  0  0  0
   36.1045   55.5985   30.5006 C   0  0  0  0  0  0
   34.7370   55.5723   30.2315 C   0  0  0  0  0  0
   33.7885   55.7042   31.2371 C   0  0  0  0  0  0
   34.1742   55.8702   32.5631 C   0  0  0  0  0  0
   35.5447   55.9387   32.8673 C   0  0  0  0  0  0
   36.2435   56.0995   34.0731 C   0  0  0  0  0  0
   37.6208   56.2017   33.7612 C   0  0  0  0  0  0
   38.5437   56.5028   34.7891 C   0  0  0  0  0  0
   38.1172   56.4958   36.1489 C   0  0  0  0  0  0
   39.2790   56.6368   36.9411 C   0  0  0  0  0  0
   39.5208   56.5737   38.3276 C   0  0  0  0  0  0
   40.8141   56.7750   38.7992 C   0  0  0  0  0  0
   41.8595   57.0564   37.9283 C   0  0  0  0  0  0
   41.6638   57.1345   36.5516 C   0  0  0  0  0  0
   40.3666   56.9036   36.0644 C   0  0  0  0  0  0
   39.8807   56.9052   34.7630 N   0  0  0  0  0  0
   40.6963   57.2951   33.6204 C   0  0  0  0  0  0
   36.7408   56.3483   36.4316 C   0  0  0  0  0  0
   35.8243   56.1817   35.4074 C   0  0  0  0  0  0
   34.4412   56.0901   35.9726 C   0  0  0  0  0  0
   34.7010   56.2399   37.3887 N   0  0  0  0  0  0
   35.9886   56.3889   37.7293 C   0  0  0  0  0  0
   36.3911   56.5720   38.8729 O   0  0  0  0  0  0
   38.7885   54.9446   30.8401 H   0  0  0  0  0  0
   39.3638   56.5684   31.2366 H   0  0  0  0  0  0
   39.7272   55.1613   32.2987 H   0  0  0  0  0  0
   36.8181   55.4518   29.7049 H   0  0  0  0  0  0
   34.4044   55.4242   29.2136 H   0  0  0  0  0  0
   32.7389   55.6718   30.9798 H   0  0  0  0  0  0
   33.4249   55.9618   33.3346 H   0  0  0  0  0  0
   38.7396   56.3454   39.0346 H   0  0  0  0  0  0
   41.0081   56.7164   39.8613 H   0  0  0  0  0  0
   42.8520   57.2133   38.3265 H   0  0  0  0  0  0
   42.4930   57.3520   35.8935 H   0  0  0  0  0  0
   40.0738   57.7731   32.8649 H   0  0  0  0  0  0
   41.4311   58.0367   33.9271 H   0  0  0  0  0  0
   41.2292   56.4320   33.2240 H   0  0  0  0  0  0
   33.7886   56.8906   35.6249 H   0  0  0  0  0  0
   33.9525   55.1363   35.7659 H   0  0  0  0  0  0
   33.9559   56.3677   38.0634 H   0  0  0  0  0  0
  1  2  1  0  0  0
  1 27  1  0  0  0
  1 28  1  0  0  0
  1 29  1  0  0  0
  2 10  1  0  0  0
  2  3  1  0  0  0
  3  8  2  0  0  0
  3  4  1  0  0  0
  4  5  2  0  0  0
  4 30  1  0  0  0
  5  6  1  0  0  0
  5 31  1  0  0  0
  6  7  2  0  0  0
  6 32  1  0  0  0
  7  8  1  0  0  0
  7 33  1  0  0  0
  8  9  1  0  0  0
  9 22  2  0  0  0
  9 10  1  0  0  0
 10 11  2  0  0  0
 11 19  1  0  0  0
 11 12  1  0  0  0
 12 13  1  0  0  0
 12 21  2  0  0  0
 13 18  2  0  0  0
 13 14  1  0  0  0
 14 15  2  0  0  0
 14 34  1  0  0  0
 15 16  1  0  0  0
 15 35  1  0  0  0
 16 17  2  0  0  0
 16 36  1  0  0  0
 17 18  1  0  0  0
 17 37  1  0  0  0
 18 19  1  0  0  0
 19 20  1  0  0  0
 20 38  1  0  0  0
 20 39  1  0  0  0
 20 40  1  0  0  0
 21 25  1  0  0  0
 21 22  1  0  0  0
 22 23  1  0  0  0
 23 24  1  0  0  0
 23 41  1  0  0  0
 23 42  1  0  0  0
 24 25  1  0  0  0
 24 43  1  0  0  0
 25 26  2  0  0  0
M  END
> <s_m_entry_id>
4254

> <s_m_entry_name>
ligand_docking-pose.24

> <s_m_Source_Path>
/home/csk/Desktop/cluster/DUD-E-result/kpcb

> <s_m_Source_File>
ligand_docking-pose.sdf

> <i_m_Source_File_Index>
24

> <i_lp_mmshare_version>
53161

> <r_lp_tautomer_probability>
1

> <s_lp_Force_Field>
OPLS_2005

> <r_lp_Energy>
89.374013

> <b_lp_Chiralities_Consistent>
1

> <s_lp_Variant>
92602-1

> <s_i_glide_gridfile>
glide-grid_2i0e

> <i_i_glide_lignum>
397

> <i_i_glide_rotatable_bonds>
0

> <r_i_docking_score>
-9.72936280585107

> <r_i_glide_ligand_efficiency>
-0.374206261763503

> <r_i_glide_ligand_efficiency_sa>
-1.10858457804384

> <r_i_glide_ligand_efficiency_ln>
-2.28490893031087

> <r_i_glide_gscore>
-9.72936280585107

> <r_i_glide_lipo>
-3.27943157238465

> <r_i_glide_hbond>
-0.608

> <r_i_glide_metal>
0

> <r_i_glide_rewards>
-2.78077496057824

> <r_i_glide_evdw>
-41.7236289978027

> <r_i_glide_ecoul>
-6.49983215332031

> <r_i_glide_erotb>
0

> <r_i_glide_esite>
0

> <r_i_glide_emodel>
-76.8040426383687

> <r_i_glide_energy>
-48.223461151123

> <r_i_glide_einternal>
0

> <i_i_glide_confnum>
1

> <i_i_glide_posenum>
246

> <r_i_glide_eff_state_penalty>
0

> <i_f3d_flags>
0

> <s_user_duplicate_titles>
92602

> <s_m_subgroup_title>
dock_pv

> <s_m_subgroupid>
dock_pv1

> <b_m_subgroup_collapsed>
0

$$$$
259044
                    3D
 Schrodinger Suite 2021-1.
 49 54  0  0  1  0            999 V2000
   39.4163   55.0082   32.0614 C   0  0  0  0  0  0
   38.2005   55.5302   32.6759 N   0  0  0  0  0  0
   37.0298   55.6892   31.9424 C   0  0  0  0  0  0
   36.7992   55.5549   30.5661 C   0  0  0  0  0  0
   35.4983   55.7097   30.0937 C   0  0  0  0  0  0
   34.4458   55.9939   30.9506 C   0  0  0  0  0  0
   34.6705   56.1332   32.3215 C   0  0  0  0  0  0
   35.9753   55.9741   32.8419 C   0  0  0  0  0  0
   36.5356   56.0109   34.1438 C   0  0  0  0  0  0
   37.9570   55.8976   34.0089 C   0  0  0  0  0  0
   38.7993   56.0830   35.1494 C   0  0  0  0  0  0
   38.1926   56.2367   36.4208 C   0  0  0  0  0  0
   39.2022   56.3301   37.3837 C   0  0  0  0  0  0
   39.1477   56.4229   38.7876 C   0  0  0  0  0  0
   40.3318   56.4981   39.5081 C   0  0  0  0  0  0
   41.5519   56.5136   38.8531 C   0  0  0  0  0  0
   41.6463   56.4306   37.4652 C   0  0  0  0  0  0
   40.4559   56.3207   36.7126 C   0  0  0  0  0  0
   40.1960   56.2021   35.3320 N   0  0  0  0  0  0
   41.2003   56.2014   34.2537 C   0  0  0  0  0  0
   42.6395   56.6127   34.6109 C   0  0  0  0  0  0
   43.5265   56.7036   33.4406 C   0  0  0  0  0  0
   44.2292   56.7710   32.5233 N   0  0  0  0  0  0
   40.3009   56.5477   40.8760 O   0  0  0  0  0  0
   36.7994   56.2463   36.5441 C   0  0  0  0  0  0
   35.9823   56.1324   35.4344 C   0  0  0  0  0  0
   34.5567   56.1148   35.9024 C   0  0  0  0  0  0
   33.5233   55.9698   35.2573 O   0  0  0  0  0  0
   34.6269   56.2944   37.2306 N   0  0  0  0  0  0
   35.9622   56.3772   37.7787 C   0  0  0  0  0  0
   33.1775   56.1185   30.4378 O   0  0  0  0  0  0
   39.1832   54.4732   31.1412 H   0  0  0  0  0  0
   40.1012   55.8131   31.8018 H   0  0  0  0  0  0
   39.8550   54.2580   32.7143 H   0  0  0  0  0  0
   37.5853   55.2625   29.8863 H   0  0  0  0  0  0
   35.3097   55.5717   29.0385 H   0  0  0  0  0  0
   33.8335   56.3590   32.9561 H   0  0  0  0  0  0
   38.2064   56.4151   39.3130 H   0  0  0  0  0  0
   42.4591   56.5797   39.4361 H   0  0  0  0  0  0
   42.6353   56.4403   37.0502 H   0  0  0  0  0  0
   41.2716   55.1938   33.8580 H   0  0  0  0  0  0
   40.8404   56.8806   33.4816 H   0  0  0  0  0  0
   42.6765   57.5707   35.1293 H   0  0  0  0  0  0
   43.1065   55.8416   35.2209 H   0  0  0  0  0  0
   39.4203   56.3716   41.2372 H   0  0  0  0  0  0
   33.7992   56.4249   37.8021 H   0  0  0  0  0  0
   36.1069   57.3297   38.2897 H   0  0  0  0  0  0
   36.1269   55.5732   38.4968 H   0  0  0  0  0  0
   33.0962   55.9723   29.4807 H   0  0  0  0  0  0
  1  2  1  0  0  0
  1 32  1  0  0  0
  1 33  1  0  0  0
  1 34  1  0  0  0
  2 10  1  0  0  0
  2  3  1  0  0  0
  3  8  2  0  0  0
  3  4  1  0  0  0
  4  5  2  0  0  0
  4 35  1  0  0  0
  5  6  1  0  0  0
  5 36  1  0  0  0
  6  7  2  0  0  0
  6 31  1  0  0  0
  7  8  1  0  0  0
  7 37  1  0  0  0
  8  9  1  0  0  0
  9 26  2  0  0  0
  9 10  1  0  0  0
 10 11  2  0  0  0
 11 19  1  0  0  0
 11 12  1  0  0  0
 12 13  1  0  0  0
 12 25  2  0  0  0
 13 18  2  0  0  0
 13 14  1  0  0  0
 14 15  2  0  0  0
 14 38  1  0  0  0
 15 16  1  0  0  0
 15 24  1  0  0  0
 16 17  2  0  0  0
 16 39  1  0  0  0
 17 18  1  0  0  0
 17 40  1  0  0  0
 18 19  1  0  0  0
 19 20  1  0  0  0
 20 21  1  0  0  0
 20 41  1  0  0  0
 20 42  1  0  0  0
 21 22  1  0  0  0
 21 43  1  0  0  0
 21 44  1  0  0  0
 22 23  3  0  0  0
 24 45  1  0  0  0
 25 30  1  0  0  0
 25 26  1  0  0  0
 26 27  1  0  0  0
 27 28  2  0  0  0
 27 29  1  0  0  0
 29 30  1  0  0  0
 29 46  1  0  0  0
 30 47  1  0  0  0
 30 48  1  0  0  0
 31 49  1  0  0  0
M  END
> <s_m_entry_id>
4255

> <s_m_entry_name>
ligand_docking-pose.25

> <s_m_Source_Path>
/home/csk/Desktop/cluster/DUD-E-result/kpcb

> <s_m_Source_File>
ligand_docking-pose.sdf

> <i_m_Source_File_Index>
25

> <i_lp_mmshare_version>
53161

> <r_lp_tautomer_probability>
1

> <s_lp_Force_Field>
OPLS_2005

> <r_lp_Energy>
94.884756

> <b_lp_Chiralities_Consistent>
1

> <s_lp_Variant>
259044-1

> <s_i_glide_gridfile>
glide-grid_2i0e

> <i_i_glide_lignum>
413

> <i_i_glide_rotatable_bonds>
4

> <r_i_docking_score>
-9.71888614530714

> <r_i_glide_ligand_efficiency>
-0.31351245630023

> <r_i_glide_ligand_efficiency_sa>
-0.984861963377912

> <r_i_glide_ligand_efficiency_ln>
-2.19190667385691

> <r_i_glide_gscore>
-9.71888614530714

> <r_i_glide_lipo>
-3.11967648473646

> <r_i_glide_hbond>
-0.72

> <r_i_glide_metal>
0

> <r_i_glide_rewards>
-2.10756740125525

> <r_i_glide_evdw>
-43.4627304077148

> <r_i_glide_ecoul>
-11.436372756958

> <r_i_glide_erotb>
0.116950174614015

> <r_i_glide_esite>
0

> <r_i_glide_emodel>
-85.637156655944

> <r_i_glide_energy>
-54.8991031646729

> <r_i_glide_einternal>
2.74907207489014

> <i_i_glide_confnum>
2

> <i_i_glide_posenum>
243

> <r_i_glide_eff_state_penalty>
0

> <i_f3d_flags>
0

> <s_user_duplicate_titles>
259044

> <s_m_subgroup_title>
dock_pv

> <s_m_subgroupid>
dock_pv1

> <b_m_subgroup_collapsed>
0

$$$$
217
                    3D
 Schrodinger Suite 2021-1.
 62 66  0  0  1  0            999 V2000
   38.9416   54.5955   31.8565 C   0  0  0  0  0  0
   37.8019   55.0062   32.6569 N   0  0  0  0  0  0
   37.7726   55.0932   34.0268 C   0  0  0  0  0  0
   36.5549   55.5744   34.4780 C   0  0  0  0  0  0
   35.7137   55.6141   33.2856 C   0  0  0  0  0  0
   36.5618   55.3482   32.1623 C   0  0  0  0  0  0
   36.1077   55.4241   30.8390 C   0  0  0  0  0  0
   34.7637   55.7205   30.6358 C   0  0  0  0  0  0
   33.8948   55.9122   31.6989 C   0  0  0  0  0  0
   34.3504   55.8581   33.0119 C   0  0  0  0  0  0
   36.2824   55.9562   35.8869 C   0  0  0  0  0  0
   37.1206   56.4375   36.8358 C   0  0  0  0  0  0
   36.3507   56.7091   38.0239 C   0  0  0  0  0  0
   36.7009   57.1711   39.1084 O   0  0  0  0  0  0
   35.1023   56.3752   37.7114 N   0  0  0  0  0  0
   34.9659   55.9297   36.4661 C   0  0  0  0  0  0
   33.9010   55.5720   35.9834 O   0  0  0  0  0  0
   38.5762   56.6783   36.7925 C   0  0  0  0  0  0
   39.2821   57.1359   35.6951 C   0  0  0  0  0  0
   40.6322   57.1752   35.9545 N   0  0  0  0  0  0
   40.8411   56.8271   37.2780 C   0  0  0  0  0  0
   39.5671   56.4835   37.8330 C   0  0  0  0  0  0
   39.5320   56.0400   39.1697 C   0  0  0  0  0  0
   40.7087   55.9763   39.9093 C   0  0  0  0  0  0
   41.9266   56.3374   39.3478 C   0  0  0  0  0  0
   42.0268   56.7629   38.0262 C   0  0  0  0  0  0
   41.6651   57.4687   34.9632 C   0  0  0  0  0  0
   42.1308   56.1894   34.2223 C   0  0  0  0  0  0
   42.6578   55.0549   35.1438 C   0  0  0  0  0  0
   43.1495   53.7795   34.3966 N   0  3  0  0  0  0
   43.5708   52.7272   35.4492 C   0  0  0  0  0  0
   44.3796   54.1027   33.5158 C   0  0  0  0  0  0
   42.0203   53.1669   33.5362 C   0  0  0  0  0  0
   38.7151   53.6576   31.3472 H   0  0  0  0  0  0
   39.1666   55.3616   31.1133 H   0  0  0  0  0  0
   39.8076   54.4556   32.4944 H   0  0  0  0  0  0
   38.6648   54.8545   34.5880 H   0  0  0  0  0  0
   36.7611   55.2154   30.0050 H   0  0  0  0  0  0
   34.3712   55.7626   29.6322 H   0  0  0  0  0  0
   32.8502   56.1034   31.5022 H   0  0  0  0  0  0
   33.6249   55.9719   33.7907 H   0  0  0  0  0  0
   34.3215   56.4842   38.3451 H   0  0  0  0  0  0
   38.9262   57.3971   34.7080 H   0  0  0  0  0  0
   38.6055   55.7406   39.6351 H   0  0  0  0  0  0
   40.6691   55.6411   40.9368 H   0  0  0  0  0  0
   42.8198   56.2764   39.9524 H   0  0  0  0  0  0
   42.9860   57.0290   37.6070 H   0  0  0  0  0  0
   42.4976   57.9498   35.4773 H   0  0  0  0  0  0
   41.2733   58.2048   34.2590 H   0  0  0  0  0  0
   42.9039   56.4852   33.5143 H   0  0  0  0  0  0
   41.3028   55.8251   33.6160 H   0  0  0  0  0  0
   41.8773   54.6987   35.8176 H   0  0  0  0  0  0
   43.5044   55.3888   35.7446 H   0  0  0  0  0  0
   42.7132   52.5046   36.0845 H   0  0  0  0  0  0
   44.3902   53.1412   36.0369 H   0  0  0  0  0  0
   43.9007   51.8293   34.9253 H   0  0  0  0  0  0
   44.0777   54.7790   32.7190 H   0  0  0  0  0  0
   45.1389   54.5548   34.1539 H   0  0  0  0  0  0
   44.7480   53.1711   33.0899 H   0  0  0  0  0  0
   41.8979   53.7898   32.6534 H   0  0  0  0  0  0
   42.3019   52.1587   33.2367 H   0  0  0  0  0  0
   41.1134   53.1299   34.1409 H   0  0  0  0  0  0
  1  2  1  0  0  0
  1 34  1  0  0  0
  1 35  1  0  0  0
  1 36  1  0  0  0
  2  6  1  0  0  0
  2  3  1  0  0  0
  3  4  2  0  0  0
  3 37  1  0  0  0
  4  5  1  0  0  0
  4 11  1  0  0  0
  5 10  2  0  0  0
  5  6  1  0  0  0
  6  7  2  0  0  0
  7  8  1  0  0  0
  7 38  1  0  0  0
  8  9  2  0  0  0
  8 39  1  0  0  0
  9 10  1  0  0  0
  9 40  1  0  0  0
 10 41  1  0  0  0
 11 16  1  0  0  0
 11 12  2  0  0  0
 12 13  1  0  0  0
 12 18  1  0  0  0
 13 14  2  0  0  0
 13 15  1  0  0  0
 15 16  1  0  0  0
 15 42  1  0  0  0
 16 17  2  0  0  0
 18 22  1  0  0  0
 18 19  2  0  0  0
 19 20  1  0  0  0
 19 43  1  0  0  0
 20 21  1  0  0  0
 20 27  1  0  0  0
 21 26  1  0  0  0
 21 22  2  0  0  0
 22 23  1  0  0  0
 23 24  2  0  0  0
 23 44  1  0  0  0
 24 25  1  0  0  0
 24 45  1  0  0  0
 25 26  2  0  0  0
 25 46  1  0  0  0
 26 47  1  0  0  0
 27 28  1  0  0  0
 27 48  1  0  0  0
 27 49  1  0  0  0
 28 29  1  0  0  0
 28 50  1  0  0  0
 28 51  1  0  0  0
 29 30  1  0  0  0
 29 52  1  0  0  0
 29 53  1  0  0  0
 30 31  1  0  0  0
 30 32  1  0  0  0
 30 33  1  0  0  0
 31 54  1  0  0  0
 31 55  1  0  0  0
 31 56  1  0  0  0
 32 57  1  0  0  0
 32 58  1  0  0  0
 32 59  1  0  0  0
 33 60  1  0  0  0
 33 61  1  0  0  0
 33 62  1  0  0  0
M  CHG  1  30   1
M  END
> <s_m_entry_id>
4256

> <s_m_entry_name>
ligand_docking-pose.26

> <s_m_Source_Path>
/home/csk/Desktop/cluster/DUD-E-result/kpcb

> <s_m_Source_File>
ligand_docking-pose.sdf

> <i_m_Source_File_Index>
26

> <i_lp_mmshare_version>
53161

> <r_lp_tautomer_probability>
1

> <s_lp_Force_Field>
OPLS_2005

> <r_lp_Energy>
34.295339

> <b_lp_Chiralities_Consistent>
1

> <s_lp_Variant>
217-1

> <s_i_glide_gridfile>
glide-grid_2i0e

> <i_i_glide_lignum>
474

> <i_i_glide_rotatable_bonds>
6

> <r_i_docking_score>
-9.71326728229171

> <r_i_glide_ligand_efficiency>
-0.294341432796719

> <r_i_glide_ligand_efficiency_sa>
-0.944110249335271

> <r_i_glide_ligand_efficiency_ln>
-2.16018035097529

> <r_i_glide_gscore>
-9.71326728229171

> <r_i_glide_lipo>
-2.78020151848237

> <r_i_glide_hbond>
-0.608

> <r_i_glide_metal>
0

> <r_i_glide_rewards>
-2.46686890190109

> <r_i_glide_evdw>
-50.4450912475586

> <r_i_glide_ecoul>
-10.9740791320801

> <r_i_glide_erotb>
0.358612179688578

> <r_i_glide_esite>
-0.048442609406893

> <r_i_glide_emodel>
-106.308887270618

> <r_i_glide_energy>
-61.4191703796387

> <r_i_glide_einternal>
7.87193012237549

> <i_i_glide_confnum>
188

> <i_i_glide_posenum>
353

> <r_i_glide_eff_state_penalty>
0

> <i_f3d_flags>
0

> <s_user_duplicate_titles>
217

> <s_m_subgroup_title>
dock_pv

> <s_m_subgroupid>
dock_pv1

> <b_m_subgroup_collapsed>
0

$$$$
550544
                    3D
 Schrodinger Suite 2021-1.
 60 66  0  0  1  0            999 V2000
   39.1796   53.7742   32.2503 C   0  0  0  0  0  0
   38.1624   54.5665   32.9253 N   0  0  0  0  0  0
   37.9935   54.6376   34.2901 C   0  0  0  0  0  0
   36.9706   55.5123   34.6031 C   0  0  0  0  0  0
   36.3939   55.9188   33.3442 C   0  0  0  0  0  0
   37.1892   55.3340   32.3098 C   0  0  0  0  0  0
   36.9250   55.5691   30.9543 C   0  0  0  0  0  0
   35.7796   56.2940   30.6437 C   0  0  0  0  0  0
   34.9948   56.8858   31.6262 C   0  0  0  0  0  0
   35.3111   56.7377   32.9749 C   0  0  0  0  0  0
   36.5724   55.9464   35.9432 C   0  0  0  0  0  0
   37.3248   56.3873   36.9750 C   0  0  0  0  0  0
   36.4047   56.7021   38.0434 C   0  0  0  0  0  0
   36.6074   57.1716   39.1575 O   0  0  0  0  0  0
   35.1886   56.3841   37.5880 N   0  0  0  0  0  0
   35.1923   55.9342   36.3357 C   0  0  0  0  0  0
   34.2029   55.5932   35.6905 O   0  0  0  0  0  0
   38.8076   56.5590   37.0407 C   0  0  0  0  0  0
   39.6607   56.9338   35.9344 C   0  0  0  0  0  0
   39.4350   57.3956   34.6280 C   0  0  0  0  0  0
   40.5028   57.5960   33.7597 C   0  0  0  0  0  0
   41.8044   57.3657   34.1762 C   0  0  0  0  0  0
   42.0914   56.9267   35.4656 C   0  0  0  0  0  0
   41.0087   56.7365   36.3372 C   0  0  0  0  0  0
   40.9848   56.3631   37.6627 N   0  0  0  0  0  0
   39.6672   56.3840   38.1394 C   0  0  0  0  0  0
   39.3937   56.1405   39.6329 C   0  0  0  0  0  0
   40.7035   56.2558   40.4250 C   0  0  1  0  0  0
   40.7017   55.7996   41.8853 C   0  0  0  0  0  0
   42.0069   55.1723   42.1125 N   0  0  1  0  0  0
   42.8048   55.3029   40.8938 C   0  0  0  0  0  0
   41.7784   55.4133   39.7716 C   0  0  2  0  0  0
   42.2004   56.0979   38.4620 C   0  0  0  0  0  0
   42.6931   55.6762   43.2947 C   0  0  0  0  0  0
   40.9831   57.3132   40.4369 H   0  0  0  0  0  0
   41.4081   54.4153   39.5210 H   0  0  0  0  0  0
   39.8816   53.3530   32.9715 H   0  0  0  0  0  0
   38.7047   52.9621   31.6991 H   0  0  0  0  0  0
   39.7260   54.4099   31.5512 H   0  0  0  0  0  0
   38.6659   54.1017   34.9447 H   0  0  0  0  0  0
   37.5466   55.1703   30.1683 H   0  0  0  0  0  0
   35.4978   56.3844   29.6051 H   0  0  0  0  0  0
   34.1263   57.4604   31.3364 H   0  0  0  0  0  0
   34.7055   57.2160   33.7284 H   0  0  0  0  0  0
   34.3447   56.5065   38.1279 H   0  0  0  0  0  0
   38.4298   57.5716   34.2873 H   0  0  0  0  0  0
   40.3040   57.9302   32.7523 H   0  0  0  0  0  0
   42.6149   57.5495   33.4873 H   0  0  0  0  0  0
   43.1147   56.7723   35.7777 H   0  0  0  0  0  0
   38.7349   56.9032   40.0346 H   0  0  0  0  0  0
   38.9214   55.1723   39.7871 H   0  0  0  0  0  0
   40.5114   56.6616   42.5281 H   0  0  0  0  0  0
   39.9206   55.0482   42.0165 H   0  0  0  0  0  0
   43.4608   56.1757   40.9011 H   0  0  0  0  0  0
   43.4591   54.4406   40.7544 H   0  0  0  0  0  0
   42.8975   55.4766   37.8968 H   0  0  0  0  0  0
   42.7007   57.0484   38.6510 H   0  0  0  0  0  0
   43.6389   55.1520   43.4403 H   0  0  0  0  0  0
   42.9014   56.7427   43.2118 H   0  0  0  0  0  0
   42.0861   55.5170   44.1855 H   0  0  0  0  0  0
  1  2  1  0  0  0
  1 37  1  0  0  0
  1 38  1  0  0  0
  1 39  1  0  0  0
  2  6  1  0  0  0
  2  3  1  0  0  0
  3  4  2  0  0  0
  3 40  1  0  0  0
  4  5  1  0  0  0
  4 11  1  0  0  0
  5 10  2  0  0  0
  5  6  1  0  0  0
  6  7  2  0  0  0
  7  8  1  0  0  0
  7 41  1  0  0  0
  8  9  2  0  0  0
  8 42  1  0  0  0
  9 10  1  0  0  0
  9 43  1  0  0  0
 10 44  1  0  0  0
 11 16  1  0  0  0
 11 12  2  0  0  0
 12 13  1  0  0  0
 12 18  1  0  0  0
 13 14  2  0  0  0
 13 15  1  0  0  0
 15 16  1  0  0  0
 15 45  1  0  0  0
 16 17  2  0  0  0
 18 26  2  0  0  0
 18 19  1  0  0  0
 19 24  2  0  0  0
 19 20  1  0  0  0
 20 21  2  0  0  0
 20 46  1  0  0  0
 21 22  1  0  0  0
 21 47  1  0  0  0
 22 23  2  0  0  0
 22 48  1  0  0  0
 23 24  1  0  0  0
 23 49  1  0  0  0
 24 25  1  0  0  0
 25 33  1  0  0  0
 25 26  1  0  0  0
 26 27  1  0  0  0
 27 28  1  0  0  0
 27 50  1  0  0  0
 27 51  1  0  0  0
 28 35  1  0  0  0
 28 32  1  0  0  0
 28 29  1  0  0  0
 29 30  1  0  0  0
 29 52  1  0  0  0
 29 53  1  0  0  0
 30 31  1  0  0  0
 30 34  1  0  0  0
 31 32  1  0  0  0
 31 54  1  0  0  0
 31 55  1  0  0  0
 32 36  1  0  0  0
 32 33  1  0  0  0
 33 56  1  0  0  0
 33 57  1  0  0  0
 34 58  1  0  0  0
 34 59  1  0  0  0
 34 60  1  0  0  0
M  END
> <s_m_entry_id>
4257

> <s_m_entry_name>
ligand_docking-pose.27

> <s_m_Source_Path>
/home/csk/Desktop/cluster/DUD-E-result/kpcb

> <s_m_Source_File>
ligand_docking-pose.sdf

> <i_m_Source_File_Index>
27

> <i_lp_mmshare_version>
53161

> <r_lp_tautomer_probability>
1

> <s_lp_Force_Field>
OPLS_2005

> <r_lp_Energy>
53.80228

> <b_lp_Chiralities_Consistent>
1

> <s_lp_Variant>
550544-1

> <s_i_glide_gridfile>
glide-grid_2i0e

> <i_i_glide_lignum>
448

> <i_i_glide_rotatable_bonds>
2

> <r_i_docking_score>
-9.68279439700534

> <r_i_glide_ligand_efficiency>
-0.284788070500157

> <r_i_glide_ligand_efficiency_sa>
-0.922602792970876

> <r_i_glide_ligand_efficiency_ln>
-2.13920087548184

> <r_i_glide_gscore>
-9.68279439700534

> <r_i_glide_lipo>
-3.21135562772471

> <r_i_glide_hbond>
-0.608

> <r_i_glide_metal>
0

> <r_i_glide_rewards>
-2.26980276727986

> <r_i_glide_evdw>
-52.995719909668

> <r_i_glide_ecoul>
-7.21425771713257

> <r_i_glide_erotb>
0.138288651052523

> <r_i_glide_esite>
0

> <r_i_glide_emodel>
-91.3841683504637

> <r_i_glide_energy>
-60.2099776268005

> <r_i_glide_einternal>
7.0602560043335

> <i_i_glide_confnum>
8

> <i_i_glide_posenum>
354

> <r_i_glide_eff_state_penalty>
0

> <i_f3d_flags>
0

> <s_user_duplicate_titles>
550544

> <s_m_subgroup_title>
dock_pv

> <s_m_subgroupid>
dock_pv1

> <b_m_subgroup_collapsed>
0

$$$$
239
                    3D
 Schrodinger Suite 2021-1.
 58 62  0  0  1  0            999 V2000
   41.9846   57.2202   35.3192 C   0  0  0  0  0  0
   40.9075   57.0371   36.2786 N   0  0  0  0  0  0
   39.5737   56.9808   35.9671 C   0  0  0  0  0  0
   38.8057   56.6793   37.0779 C   0  0  0  0  0  0
   39.7483   56.5799   38.1781 C   0  0  0  0  0  0
   41.0580   56.8051   37.6327 C   0  0  0  0  0  0
   42.2188   56.7678   38.4186 C   0  0  0  0  0  0
   42.0616   56.5035   39.7776 C   0  0  0  0  0  0
   40.8108   56.2747   40.3368 C   0  0  0  0  0  0
   39.6568   56.3053   39.5571 C   0  0  0  0  0  0
   37.3447   56.4717   37.0239 C   0  0  0  0  0  0
   36.6039   56.0096   36.0015 C   0  0  0  0  0  0
   35.2278   55.9758   36.4035 C   0  0  0  0  0  0
   34.2383   55.6371   35.7583 O   0  0  0  0  0  0
   35.2330   56.4056   37.6661 N   0  0  0  0  0  0
   36.4505   56.7300   38.1189 C   0  0  0  0  0  0
   36.6951   57.1722   39.2372 O   0  0  0  0  0  0
   37.0340   55.5898   34.6695 C   0  0  0  0  0  0
   38.0577   54.7069   34.3973 C   0  0  0  0  0  0
   38.2365   54.5736   33.0404 N   0  0  0  0  0  0
   37.2942   55.3567   32.3872 C   0  0  0  0  0  0
   36.5024   55.9936   33.3958 C   0  0  0  0  0  0
   35.4560   56.8450   32.9985 C   0  0  0  0  0  0
   35.2069   57.0252   31.6400 C   0  0  0  0  0  0
   35.9903   56.3978   30.6781 C   0  0  0  0  0  0
   37.0598   55.5707   31.0216 C   0  0  0  0  0  0
   39.3130   53.8035   32.4276 C   0  0  0  0  0  0
   40.4674   54.7331   31.9877 C   0  0  0  0  0  0
   41.7995   54.0022   31.7166 C   0  0  0  0  0  0
   41.7252   52.8087   30.7447 C   0  0  0  0  0  0
   41.2596   53.1716   29.3315 C   0  0  0  0  0  0
   41.1012   51.9721   28.5352 N   0  0  0  0  0  0
   42.6780   57.9717   35.6959 H   0  0  0  0  0  0
   42.5200   56.2750   35.1986 H   0  0  0  0  0  0
   41.5926   57.5413   34.3507 H   0  0  0  0  0  0
   39.2715   57.1339   34.9412 H   0  0  0  0  0  0
   43.2001   56.9337   37.9969 H   0  0  0  0  0  0
   42.9360   56.4646   40.4111 H   0  0  0  0  0  0
   40.7306   56.0648   41.3939 H   0  0  0  0  0  0
   38.7117   56.1044   40.0368 H   0  0  0  0  0  0
   34.3897   56.5064   38.2129 H   0  0  0  0  0  0
   38.7147   54.1829   35.0792 H   0  0  0  0  0  0
   34.8434   57.3427   33.7357 H   0  0  0  0  0  0
   34.3923   57.6617   31.3258 H   0  0  0  0  0  0
   35.7700   56.5594   29.6330 H   0  0  0  0  0  0
   37.6597   55.0933   30.2588 H   0  0  0  0  0  0
   38.9146   53.2335   31.5867 H   0  0  0  0  0  0
   39.6657   53.0661   33.1529 H   0  0  0  0  0  0
   40.6532   55.4835   32.7583 H   0  0  0  0  0  0
   40.1686   55.2927   31.1002 H   0  0  0  0  0  0
   42.2016   53.6421   32.6655 H   0  0  0  0  0  0
   42.5320   54.7209   31.3460 H   0  0  0  0  0  0
   41.0966   52.0300   31.1762 H   0  0  0  0  0  0
   42.7144   52.3714   30.6636 H   0  0  0  0  0  0
   41.9873   53.8231   28.8499 H   0  0  0  0  0  0
   40.3024   53.6934   29.3645 H   0  0  0  0  0  0
   40.5360   51.3446   29.1002 H   0  0  0  0  0  0
   40.4702   52.2245   27.7799 H   0  0  0  0  0  0
  1  2  1  0  0  0
  1 33  1  0  0  0
  1 34  1  0  0  0
  1 35  1  0  0  0
  2  6  1  0  0  0
  2  3  1  0  0  0
  3  4  2  0  0  0
  3 36  1  0  0  0
  4  5  1  0  0  0
  4 11  1  0  0  0
  5 10  2  0  0  0
  5  6  1  0  0  0
  6  7  2  0  0  0
  7  8  1  0  0  0
  7 37  1  0  0  0
  8  9  2  0  0  0
  8 38  1  0  0  0
  9 10  1  0  0  0
  9 39  1  0  0  0
 10 40  1  0  0  0
 11 16  1  0  0  0
 11 12  2  0  0  0
 12 13  1  0  0  0
 12 18  1  0  0  0
 13 14  2  0  0  0
 13 15  1  0  0  0
 15 16  1  0  0  0
 15 41  1  0  0  0
 16 17  2  0  0  0
 18 22  1  0  0  0
 18 19  2  0  0  0
 19 20  1  0  0  0
 19 42  1  0  0  0
 20 21  1  0  0  0
 20 27  1  0  0  0
 21 26  1  0  0  0
 21 22  2  0  0  0
 22 23  1  0  0  0
 23 24  2  0  0  0
 23 43  1  0  0  0
 24 25  1  0  0  0
 24 44  1  0  0  0
 25 26  2  0  0  0
 25 45  1  0  0  0
 26 46  1  0  0  0
 27 28  1  0  0  0
 27 47  1  0  0  0
 27 48  1  0  0  0
 28 29  1  0  0  0
 28 49  1  0  0  0
 28 50  1  0  0  0
 29 30  1  0  0  0
 29 51  1  0  0  0
 29 52  1  0  0  0
 30 31  1  0  0  0
 30 53  1  0  0  0
 30 54  1  0  0  0
 31 32  1  0  0  0
 31 55  1  0  0  0
 31 56  1  0  0  0
 32 57  1  0  0  0
 32 58  1  0  0  0
M  END
> <s_m_entry_id>
4260

> <s_m_entry_name>
ligand_docking-pose.30

> <s_m_Source_Path>
/home/csk/Desktop/cluster/DUD-E-result/kpcb

> <s_m_Source_File>
ligand_docking-pose.sdf

> <i_m_Source_File_Index>
30

> <i_lp_mmshare_version>
53161

> <r_lp_tautomer_probability>
1

> <s_lp_Force_Field>
OPLS_2005

> <r_lp_Energy>
26.337729

> <b_lp_Chiralities_Consistent>
1

> <s_lp_Variant>
239-1

> <s_i_glide_gridfile>
glide-grid_2i0e

> <i_i_glide_lignum>
462

> <i_i_glide_rotatable_bonds>
7

> <r_i_docking_score>
-9.64953827114079

> <r_i_glide_ligand_efficiency>
-0.30154807097315

> <r_i_glide_ligand_efficiency_sa>
-0.957355449057538

> <r_i_glide_ligand_efficiency_ln>
-2.16079465538729

> <r_i_glide_gscore>
-9.64953827114079

> <r_i_glide_lipo>
-2.59655970246091

> <r_i_glide_hbond>
-0.921701944189305

> <r_i_glide_metal>
0

> <r_i_glide_rewards>
-2.4233120428408

> <r_i_glide_evdw>
-48.6823234558105

> <r_i_glide_ecoul>
-11.547158241272

> <r_i_glide_erotb>
0.458225327331546

> <r_i_glide_esite>
0

> <r_i_glide_emodel>
-92.6603937004194

> <r_i_glide_energy>
-60.2294816970825

> <r_i_glide_einternal>
9.56955432891846

> <i_i_glide_confnum>
105

> <i_i_glide_posenum>
336

> <r_i_glide_eff_state_penalty>
0

> <i_f3d_flags>
0

> <s_user_duplicate_titles>
239

> <s_m_subgroup_title>
dock_pv

> <s_m_subgroupid>
dock_pv1

> <b_m_subgroup_collapsed>
0

$$$$
160442
                    3D
 Schrodinger Suite 2021-1.
 54 59  0  0  1  0            999 V2000
   41.1419   56.4252   39.2775 C   0  0  0  0  0  0
   40.2276   56.5685   38.1534 N   0  0  0  0  0  0
   38.8716   56.3715   38.2089 C   0  0  0  0  0  0
   38.2904   56.5114   36.9574 C   0  0  0  0  0  0
   39.3730   56.9135   36.0842 C   0  0  0  0  0  0
   40.5803   56.8891   36.8549 C   0  0  0  0  0  0
   41.8329   57.1688   36.2894 C   0  0  0  0  0  0
   41.8657   57.4877   34.9323 C   0  0  0  0  0  0
   40.7073   57.5726   34.1722 C   0  0  0  0  0  0
   39.4644   57.3050   34.7355 C   0  0  0  0  0  0
   36.8596   56.2924   36.6556 C   0  0  0  0  0  0
   36.2529   55.9601   35.5007 C   0  0  0  0  0  0
   34.8356   55.8796   35.7350 C   0  0  0  0  0  0
   33.9253   55.5764   34.9609 O   0  0  0  0  0  0
   34.6832   56.2019   37.0206 N   0  0  0  0  0  0
   35.8326   56.4523   37.6516 C   0  0  0  0  0  0
   35.9339   56.7655   38.8361 O   0  0  0  0  0  0
   36.8297   55.5706   34.2115 C   0  0  0  0  0  0
   37.8717   54.6015   33.9956 C   0  0  0  0  0  0
   38.6118   53.7586   34.8432 C   0  0  0  0  0  0
   39.5610   52.9009   34.2908 C   0  0  0  0  0  0
   39.7915   52.8763   32.9199 C   0  0  0  0  0  0
   39.0937   53.7048   32.0405 C   0  0  0  0  0  0
   38.1213   54.5581   32.5918 C   0  0  0  0  0  0
   37.2674   55.4802   32.0006 N   0  0  0  0  0  0
   36.5038   56.1092   32.9710 C   0  0  0  0  0  0
   35.5331   57.2132   32.5743 C   0  0  0  0  0  0
   34.3236   56.7337   31.7429 C   0  0  0  0  0  0
   34.6157   55.6189   30.7185 C   0  0  0  0  0  0
   35.8764   55.8306   29.8608 C   0  0  0  0  0  0
   37.2567   55.8340   30.5748 C   0  0  0  0  0  0
   40.5888   56.2347   40.1984 H   0  0  0  0  0  0
   41.8158   55.5913   39.0839 H   0  0  0  0  0  0
   41.7209   57.3413   39.3924 H   0  0  0  0  0  0
   38.4221   56.0886   39.1514 H   0  0  0  0  0  0
   42.7414   57.1379   36.8699 H   0  0  0  0  0  0
   42.8163   57.7010   34.4652 H   0  0  0  0  0  0
   40.7737   57.8477   33.1286 H   0  0  0  0  0  0
   38.5841   57.3985   34.1252 H   0  0  0  0  0  0
   33.7857   56.2506   37.4772 H   0  0  0  0  0  0
   38.4481   53.7682   35.9123 H   0  0  0  0  0  0
   40.1326   52.2416   34.9304 H   0  0  0  0  0  0
   40.5318   52.1936   32.5264 H   0  0  0  0  0  0
   39.2935   53.6583   30.9788 H   0  0  0  0  0  0
   35.1722   57.7497   33.4530 H   0  0  0  0  0  0
   36.0699   57.9686   31.9977 H   0  0  0  0  0  0
   33.5477   56.3710   32.4176 H   0  0  0  0  0  0
   33.8861   57.5933   31.2344 H   0  0  0  0  0  0
   34.7014   54.6683   31.2432 H   0  0  0  0  0  0
   33.7479   55.5097   30.0650 H   0  0  0  0  0  0
   35.8905   55.0713   29.0821 H   0  0  0  0  0  0
   35.7634   56.7688   29.3202 H   0  0  0  0  0  0
   37.7043   56.8237   30.4931 H   0  0  0  0  0  0
   37.9338   55.1688   30.0383 H   0  0  0  0  0  0
  1  2  1  0  0  0
  1 32  1  0  0  0
  1 33  1  0  0  0
  1 34  1  0  0  0
  2  6  1  0  0  0
  2  3  1  0  0  0
  3  4  2  0  0  0
  3 35  1  0  0  0
  4  5  1  0  0  0
  4 11  1  0  0  0
  5 10  2  0  0  0
  5  6  1  0  0  0
  6  7  2  0  0  0
  7  8  1  0  0  0
  7 36  1  0  0  0
  8  9  2  0  0  0
  8 37  1  0  0  0
  9 10  1  0  0  0
  9 38  1  0  0  0
 10 39  1  0  0  0
 11 16  1  0  0  0
 11 12  2  0  0  0
 12 13  1  0  0  0
 12 18  1  0  0  0
 13 14  2  0  0  0
 13 15  1  0  0  0
 15 16  1  0  0  0
 15 40  1  0  0  0
 16 17  2  0  0  0
 18 26  2  0  0  0
 18 19  1  0  0  0
 19 24  2  0  0  0
 19 20  1  0  0  0
 20 21  2  0  0  0
 20 41  1  0  0  0
 21 22  1  0  0  0
 21 42  1  0  0  0
 22 23  2  0  0  0
 22 43  1  0  0  0
 23 24  1  0  0  0
 23 44  1  0  0  0
 24 25  1  0  0  0
 25 31  1  0  0  0
 25 26  1  0  0  0
 26 27  1  0  0  0
 27 28  1  0  0  0
 27 45  1  0  0  0
 27 46  1  0  0  0
 28 29  1  0  0  0
 28 47  1  0  0  0
 28 48  1  0  0  0
 29 30  1  0  0  0
 29 49  1  0  0  0
 29 50  1  0  0  0
 30 31  1  0  0  0
 30 51  1  0  0  0
 30 52  1  0  0  0
 31 53  1  0  0  0
 31 54  1  0  0  0
M  END
> <s_m_entry_id>
4261

> <s_m_entry_name>
ligand_docking-pose.31

> <s_m_Source_Path>
/home/csk/Desktop/cluster/DUD-E-result/kpcb

> <s_m_Source_File>
ligand_docking-pose.sdf

> <i_m_Source_File_Index>
31

> <i_lp_mmshare_version>
53161

> <r_lp_tautomer_probability>
1

> <s_lp_Force_Field>
OPLS_2005

> <r_lp_Energy>
35.068647

> <b_lp_Chiralities_Consistent>
1

> <s_lp_Variant>
160442-1

> <s_i_glide_gridfile>
glide-grid_2i0e

> <i_i_glide_lignum>
439

> <i_i_glide_rotatable_bonds>
2

> <r_i_docking_score>
-9.62593172881305

> <r_i_glide_ligand_efficiency>
-0.310513926735905

> <r_i_glide_ligand_efficiency_sa>
-0.975442440629698

> <r_i_glide_ligand_efficiency_ln>
-2.17094260422675

> <r_i_glide_gscore>
-9.62593172881305

> <r_i_glide_lipo>
-3.10458363005548

> <r_i_glide_hbond>
-0.478280171032874

> <r_i_glide_metal>
0

> <r_i_glide_rewards>
-2.72039541449049

> <r_i_glide_evdw>
-51.6187934875488

> <r_i_glide_ecoul>
-6.0409688949585

> <r_i_glide_erotb>
0.164412495387008

> <r_i_glide_esite>
0

> <r_i_glide_emodel>
-90.5116720748729

> <r_i_glide_energy>
-57.6597623825073

> <r_i_glide_einternal>
1.12349927425385

> <i_i_glide_confnum>
4

> <i_i_glide_posenum>
163

> <r_i_glide_eff_state_penalty>
0

> <i_f3d_flags>
0

> <s_user_duplicate_titles>
160442

> <s_m_subgroup_title>
dock_pv

> <s_m_subgroupid>
dock_pv1

> <b_m_subgroup_collapsed>
0

$$$$
259005
                    3D
 Schrodinger Suite 2021-1.
 53 58  0  0  1  0            999 V2000
   41.5468   57.3253   34.9436 C   0  0  0  0  0  0
   40.5268   56.8605   35.8744 N   0  0  0  0  0  0
   40.7705   56.7780   37.2382 C   0  0  0  0  0  0
   41.9685   56.8992   37.9616 C   0  0  0  0  0  0
   41.8991   56.7854   39.3498 C   0  0  0  0  0  0
   40.6880   56.5959   40.0040 C   0  0  0  0  0  0
   39.4975   56.4961   39.2908 C   0  0  0  0  0  0
   39.5256   56.5764   37.8866 C   0  0  0  0  0  0
   38.5313   56.4966   36.8883 C   0  0  0  0  0  0
   39.2010   56.4729   35.6329 C   0  0  0  0  0  0
   38.4718   56.1702   34.4496 C   0  0  0  0  0  0
   37.0534   56.0990   34.5038 C   0  0  0  0  0  0
   36.6033   55.9383   33.1774 C   0  0  0  0  0  0
   35.3172   55.9130   32.6056 C   0  0  0  0  0  0
   35.1652   55.7257   31.2289 C   0  0  0  0  0  0
   36.2915   55.5724   30.4372 C   0  0  0  0  0  0
   37.5813   55.5826   30.9556 C   0  0  0  0  0  0
   37.7443   55.7716   32.3387 C   0  0  0  0  0  0
   38.8852   55.8264   33.1496 N   0  0  0  0  0  0
   40.2896   55.6394   32.7412 C   0  0  0  0  0  0
   40.6504   54.8668   31.4533 C   0  0  0  0  0  0
   40.2208   53.3954   31.3085 C   0  0  0  0  0  0
   40.9313   52.7654   30.1756 C   0  0  0  0  0  0
   41.5011   52.2843   29.2865 N   0  0  0  0  0  0
   33.9518   55.6694   30.5740 O   0  0  0  0  0  0
   32.7475   55.7777   31.3209 C   0  0  0  0  0  0
   36.4058   56.2235   35.7541 C   0  0  0  0  0  0
   37.1262   56.4104   36.9135 C   0  0  0  0  0  0
   36.1456   56.5375   38.0330 C   0  0  0  0  0  0
   36.3303   56.7724   39.2243 O   0  0  0  0  0  0
   34.9411   56.3671   37.4708 N   0  0  0  0  0  0
   34.9647   56.1617   36.1459 C   0  0  0  0  0  0
   33.9689   55.9723   35.4559 O   0  0  0  0  0  0
   42.2553   57.9718   35.4593 H   0  0  0  0  0  0
   42.1114   56.4902   34.5356 H   0  0  0  0  0  0
   41.0847   57.9417   34.1753 H   0  0  0  0  0  0
   42.9212   57.0543   37.4753 H   0  0  0  0  0  0
   42.8076   56.8593   39.9308 H   0  0  0  0  0  0
   40.6674   56.5200   41.0825 H   0  0  0  0  0  0
   38.5823   56.3287   39.8320 H   0  0  0  0  0  0
   34.4431   56.0537   33.2104 H   0  0  0  0  0  0
   36.1617   55.4106   29.3757 H   0  0  0  0  0  0
   38.3910   55.4371   30.2652 H   0  0  0  0  0  0
   40.7118   56.6302   32.6081 H   0  0  0  0  0  0
   40.7811   55.1210   33.5646 H   0  0  0  0  0  0
   40.3694   55.4361   30.5746 H   0  0  0  0  0  0
   41.7410   54.8744   31.4054 H   0  0  0  0  0  0
   40.4692   52.8278   32.2066 H   0  0  0  0  0  0
   39.1481   53.2970   31.1426 H   0  0  0  0  0  0
   31.9020   55.6624   30.6470 H   0  0  0  0  0  0
   32.6637   56.7549   31.7981 H   0  0  0  0  0  0
   32.6734   54.9979   32.0774 H   0  0  0  0  0  0
   34.0794   56.4269   37.9971 H   0  0  0  0  0  0
  1  2  1  0  0  0
  1 34  1  0  0  0
  1 35  1  0  0  0
  1 36  1  0  0  0
  2 10  1  0  0  0
  2  3  1  0  0  0
  3  8  2  0  0  0
  3  4  1  0  0  0
  4  5  2  0  0  0
  4 37  1  0  0  0
  5  6  1  0  0  0
  5 38  1  0  0  0
  6  7  2  0  0  0
  6 39  1  0  0  0
  7  8  1  0  0  0
  7 40  1  0  0  0
  8  9  1  0  0  0
  9 28  2  0  0  0
  9 10  1  0  0  0
 10 11  2  0  0  0
 11 19  1  0  0  0
 11 12  1  0  0  0
 12 13  1  0  0  0
 12 27  2  0  0  0
 13 18  2  0  0  0
 13 14  1  0  0  0
 14 15  2  0  0  0
 14 41  1  0  0  0
 15 16  1  0  0  0
 15 25  1  0  0  0
 16 17  2  0  0  0
 16 42  1  0  0  0
 17 18  1  0  0  0
 17 43  1  0  0  0
 18 19  1  0  0  0
 19 20  1  0  0  0
 20 21  1  0  0  0
 20 44  1  0  0  0
 20 45  1  0  0  0
 21 22  1  0  0  0
 21 46  1  0  0  0
 21 47  1  0  0  0
 22 23  1  0  0  0
 22 48  1  0  0  0
 22 49  1  0  0  0
 23 24  3  0  0  0
 25 26  1  0  0  0
 26 50  1  0  0  0
 26 51  1  0  0  0
 26 52  1  0  0  0
 27 32  1  0  0  0
 27 28  1  0  0  0
 28 29  1  0  0  0
 29 30  2  0  0  0
 29 31  1  0  0  0
 31 32  1  0  0  0
 31 53  1  0  0  0
 32 33  2  0  0  0
M  END
> <s_m_entry_id>
4262

> <s_m_entry_name>
ligand_docking-pose.32

> <s_m_Source_Path>
/home/csk/Desktop/cluster/DUD-E-result/kpcb

> <s_m_Source_File>
ligand_docking-pose.sdf

> <i_m_Source_File_Index>
32

> <i_lp_mmshare_version>
53161

> <r_lp_tautomer_probability>
1

> <s_lp_Force_Field>
OPLS_2005

> <r_lp_Energy>
111.929615

> <b_lp_Chiralities_Consistent>
1

> <s_lp_Variant>
259005-1

> <s_i_glide_gridfile>
glide-grid_2i0e

> <i_i_glide_lignum>
398

> <i_i_glide_rotatable_bonds>
4

> <r_i_docking_score>
-9.56137968197695

> <r_i_glide_ligand_efficiency>
-0.289738778241726

> <r_i_glide_ligand_efficiency_sa>
-0.929347076858227

> <r_i_glide_ligand_efficiency_ln>
-2.12640133509719

> <r_i_glide_gscore>
-9.56137968197695

> <r_i_glide_lipo>
-2.79323486370433

> <r_i_glide_hbond>
-0.608

> <r_i_glide_metal>
0

> <r_i_glide_rewards>
-2.38327031744631

> <r_i_glide_evdw>
-50.1452941894531

> <r_i_glide_ecoul>
-9.03888130187988

> <r_i_glide_erotb>
0.146490249021586

> <r_i_glide_esite>
-0.0602678450932504

> <r_i_glide_emodel>
-92.8469251971458

> <r_i_glide_energy>
-59.184175491333

> <r_i_glide_einternal>
1.86006951332092

> <i_i_glide_confnum>
1

> <i_i_glide_posenum>
286

> <r_i_glide_eff_state_penalty>
0

> <i_f3d_flags>
0

> <s_user_duplicate_titles>
259005

> <s_m_subgroup_title>
dock_pv

> <s_m_subgroupid>
dock_pv1

> <b_m_subgroup_collapsed>
0

$$$$
243704
                    3D
 Schrodinger Suite 2021-1.
 49 56  0  0  1  0            999 V2000
   34.0095   55.7114   31.1972 C   0  0  0  0  0  0
   35.0046   55.5723   30.2391 C   0  0  0  0  0  0
   36.3546   55.5718   30.5803 C   0  0  0  0  0  0
   36.6907   55.7187   31.9346 C   0  0  0  0  0  0
   35.6838   55.8568   32.9352 C   0  0  0  0  0  0
   34.3302   55.8515   32.5426 C   0  0  0  0  0  0
   36.3381   55.9828   34.1807 C   0  0  0  0  0  0
   35.9307   56.1360   35.5187 C   0  0  0  0  0  0
   36.8418   56.3158   36.5404 C   0  0  0  0  0  0
   38.2283   56.3004   36.2818 C   0  0  0  0  0  0
   39.4039   56.4350   37.0551 C   0  0  0  0  0  0
   39.6388   56.6461   38.4251 C   0  0  0  0  0  0
   40.9494   56.7238   38.8843 C   0  0  0  0  0  0
   42.0241   56.5909   38.0112 C   0  0  0  0  0  0
   41.8393   56.3782   36.6466 C   0  0  0  0  0  0
   40.5214   56.2999   36.1729 C   0  0  0  0  0  0
   40.0352   56.0890   34.8862 N   0  0  0  0  0  0
   38.6503   56.0952   34.9510 C   0  0  0  0  0  0
   37.7203   55.9459   33.9167 C   0  0  0  0  0  0
   37.9346   55.7550   32.5594 N   0  0  0  0  0  0
   39.2202   55.5894   31.8719 C   0  0  2  0  0  0
   39.5834   54.0867   31.7371 C   0  0  0  0  0  0
   40.1177   53.4807   33.0458 C   0  0  0  0  0  0
   41.2611   54.3543   33.5898 C   0  0  0  0  0  0
   40.8744   55.8538   33.7039 C   0  0  1  0  0  0
   40.3327   56.3675   32.4367 N   0  0  1  0  0  0
   36.0611   56.5098   37.7956 C   0  0  0  0  0  0
   36.4483   56.7580   38.9326 O   0  0  0  0  0  0
   34.7740   56.3720   37.4351 N   0  0  0  0  0  0
   34.5827   56.1396   36.1292 C   0  0  0  0  0  0
   33.5014   55.9714   35.5887 O   0  0  0  0  0  0
   39.0827   55.9782   30.8597 H   0  0  0  0  0  0
   41.7948   56.4210   33.8636 H   0  0  0  0  0  0
   32.9735   55.7049   30.8894 H   0  0  0  0  0  0
   34.7218   55.4512   29.2029 H   0  0  0  0  0  0
   37.1017   55.4195   29.8209 H   0  0  0  0  0  0
   33.5298   55.9618   33.2533 H   0  0  0  0  0  0
   38.8279   56.7364   39.1297 H   0  0  0  0  0  0
   41.1326   56.8771   39.9377 H   0  0  0  0  0  0
   43.0286   56.6472   38.4051 H   0  0  0  0  0  0
   42.6919   56.2681   35.9926 H   0  0  0  0  0  0
   38.7257   53.5128   31.3855 H   0  0  0  0  0  0
   40.3414   53.9729   30.9592 H   0  0  0  0  0  0
   39.3141   53.4106   33.7832 H   0  0  0  0  0  0
   40.4672   52.4604   32.8775 H   0  0  0  0  0  0
   41.5998   53.9672   34.5503 H   0  0  0  0  0  0
   42.1209   54.2568   32.9237 H   0  0  0  0  0  0
   41.0758   56.3895   31.7502 H   0  0  0  0  0  0
   34.0061   56.4870   38.0849 H   0  0  0  0  0  0
  1  6  1  0  0  0
  1  2  2  0  0  0
  1 34  1  0  0  0
  2  3  1  0  0  0
  2 35  1  0  0  0
  3  4  2  0  0  0
  3 36  1  0  0  0
  4 20  1  0  0  0
  4  5  1  0  0  0
  5  6  2  0  0  0
  5  7  1  0  0  0
  6 37  1  0  0  0
  7 19  2  0  0  0
  7  8  1  0  0  0
  8 30  1  0  0  0
  8  9  2  0  0  0
  9 10  1  0  0  0
  9 27  1  0  0  0
 10 18  2  0  0  0
 10 11  1  0  0  0
 11 16  2  0  0  0
 11 12  1  0  0  0
 12 13  2  0  0  0
 12 38  1  0  0  0
 13 14  1  0  0  0
 13 39  1  0  0  0
 14 15  2  0  0  0
 14 40  1  0  0  0
 15 16  1  0  0  0
 15 41  1  0  0  0
 16 17  1  0  0  0
 17 25  1  0  0  0
 17 18  1  0  0  0
 18 19  1  0  0  0
 19 20  1  0  0  0
 20 21  1  0  0  0
 21 32  1  0  0  0
 21 26  1  0  0  0
 21 22  1  0  0  0
 22 23  1  0  0  0
 22 42  1  0  0  0
 22 43  1  0  0  0
 23 24  1  0  0  0
 23 44  1  0  0  0
 23 45  1  0  0  0
 24 25  1  0  0  0
 24 46  1  0  0  0
 24 47  1  0  0  0
 25 33  1  0  0  0
 25 26  1  0  0  0
 26 48  1  0  0  0
 27 28  2  0  0  0
 27 29  1  0  0  0
 29 30  1  0  0  0
 29 49  1  0  0  0
 30 31  2  0  0  0
M  END
> <s_m_entry_id>
4263

> <s_m_entry_name>
ligand_docking-pose.33

> <s_m_Source_Path>
/home/csk/Desktop/cluster/DUD-E-result/kpcb

> <s_m_Source_File>
ligand_docking-pose.sdf

> <i_m_Source_File_Index>
33

> <i_lp_mmshare_version>
53161

> <r_lp_tautomer_probability>
1

> <s_lp_Force_Field>
OPLS_2005

> <r_lp_Energy>
118.198781

> <b_lp_Chiralities_Consistent>
1

> <s_lp_Variant>
243704-1

> <s_i_glide_gridfile>
glide-grid_2i0e

> <i_i_glide_lignum>
8

> <i_i_glide_rotatable_bonds>
0

> <r_i_docking_score>
-9.54101804733568

> <r_i_glide_ligand_efficiency>
-0.307774775720506

> <r_i_glide_ligand_efficiency_sa>
-0.966837724635795

> <r_i_glide_ligand_efficiency_ln>
-2.15179196676179

> <r_i_glide_gscore>
-9.54101804733568

> <r_i_glide_lipo>
-2.60580691048955

> <r_i_glide_hbond>
-0.608

> <r_i_glide_metal>
0

> <r_i_glide_rewards>
-2.83008417609174

> <r_i_glide_evdw>
-48.0645370483398

> <r_i_glide_ecoul>
-7.29266738891602

> <r_i_glide_erotb>
0

> <r_i_glide_esite>
0

> <r_i_glide_emodel>
-87.9058307910654

> <r_i_glide_energy>
-55.3572044372559

> <r_i_glide_einternal>
0

> <i_i_glide_confnum>
1

> <i_i_glide_posenum>
190

> <r_i_glide_eff_state_penalty>
0

> <i_f3d_flags>
0

> <s_user_duplicate_titles>
243704

> <s_m_subgroup_title>
dock_pv

> <s_m_subgroupid>
dock_pv1

> <b_m_subgroup_collapsed>
0

$$$$
81405
                    3D
 Schrodinger Suite 2021-1.
 44 48  0  0  1  0            999 V2000
   39.1518   53.8281   32.3035 C   0  0  0  0  0  0
   38.1204   54.6464   32.9262 N   0  0  0  0  0  0
   37.9003   54.7439   34.2810 C   0  0  0  0  0  0
   36.8588   55.6153   34.5438 C   0  0  0  0  0  0
   36.3520   56.0247   33.2616 C   0  0  0  0  0  0
   37.1582   55.3930   32.2637 C   0  0  0  0  0  0
   36.9165   55.5794   30.8961 C   0  0  0  0  0  0
   35.8070   56.3430   30.5401 C   0  0  0  0  0  0
   35.0223   56.9849   31.4918 C   0  0  0  0  0  0
   35.3045   56.8640   32.8488 C   0  0  0  0  0  0
   36.3725   55.9957   35.8694 C   0  0  0  0  0  0
   37.0611   56.3498   36.9699 C   0  0  0  0  0  0
   36.1105   56.5154   38.0374 C   0  0  0  0  0  0
   36.3032   56.8083   39.2161 O   0  0  0  0  0  0
   34.9152   56.3029   37.4835 N   0  0  0  0  0  0
   34.9724   55.9720   36.1933 C   0  0  0  0  0  0
   34.0081   55.7083   35.4772 O   0  0  0  0  0  0
   38.5098   56.5426   37.1681 C   0  0  0  0  0  0
   39.1856   56.3724   38.3666 C   0  0  0  0  0  0
   40.5402   56.5141   38.1946 N   0  0  0  0  0  0
   40.7899   56.8347   36.8723 C   0  0  0  0  0  0
   39.5218   56.9374   36.2159 C   0  0  0  0  0  0
   39.5051   57.3686   34.8776 C   0  0  0  0  0  0
   40.7029   57.5831   34.2041 C   0  0  0  0  0  0
   41.9193   57.4063   34.8491 C   0  0  0  0  0  0
   41.9977   57.0549   36.1963 C   0  0  0  0  0  0
   41.5410   56.3103   39.2300 C   0  0  0  0  0  0
   39.8836   53.5056   33.0462 H   0  0  0  0  0  0
   38.7003   52.9504   31.8401 H   0  0  0  0  0  0
   39.6646   54.4118   31.5379 H   0  0  0  0  0  0
   38.5378   54.2038   34.9675 H   0  0  0  0  0  0
   37.5358   55.1235   30.1390 H   0  0  0  0  0  0
   35.5510   56.4302   29.4950 H   0  0  0  0  0  0
   34.1780   57.5801   31.1765 H   0  0  0  0  0  0
   34.7013   57.3785   33.5789 H   0  0  0  0  0  0
   34.0475   56.3897   37.9951 H   0  0  0  0  0  0
   38.8051   56.0886   39.3387 H   0  0  0  0  0  0
   38.5721   57.5133   34.3619 H   0  0  0  0  0  0
   40.6904   57.8835   33.1660 H   0  0  0  0  0  0
   42.8333   57.5710   34.2968 H   0  0  0  0  0  0
   42.9554   56.9597   36.6872 H   0  0  0  0  0  0
   42.1827   57.1900   39.2921 H   0  0  0  0  0  0
   41.0626   56.1484   40.1970 H   0  0  0  0  0  0
   42.1476   55.4390   38.9762 H   0  0  0  0  0  0
  1  2  1  0  0  0
  1 28  1  0  0  0
  1 29  1  0  0  0
  1 30  1  0  0  0
  2  6  1  0  0  0
  2  3  1  0  0  0
  3  4  2  0  0  0
  3 31  1  0  0  0
  4  5  1  0  0  0
  4 11  1  0  0  0
  5 10  2  0  0  0
  5  6  1  0  0  0
  6  7  2  0  0  0
  7  8  1  0  0  0
  7 32  1  0  0  0
  8  9  2  0  0  0
  8 33  1  0  0  0
  9 10  1  0  0  0
  9 34  1  0  0  0
 10 35  1  0  0  0
 11 16  1  0  0  0
 11 12  2  0  0  0
 12 13  1  0  0  0
 12 18  1  0  0  0
 13 14  2  0  0  0
 13 15  1  0  0  0
 15 16  1  0  0  0
 15 36  1  0  0  0
 16 17  2  0  0  0
 18 22  1  0  0  0
 18 19  2  0  0  0
 19 20  1  0  0  0
 19 37  1  0  0  0
 20 21  1  0  0  0
 20 27  1  0  0  0
 21 26  1  0  0  0
 21 22  2  0  0  0
 22 23  1  0  0  0
 23 24  2  0  0  0
 23 38  1  0  0  0
 24 25  1  0  0  0
 24 39  1  0  0  0
 25 26  2  0  0  0
 25 40  1  0  0  0
 26 41  1  0  0  0
 27 42  1  0  0  0
 27 43  1  0  0  0
 27 44  1  0  0  0
M  END
> <s_m_entry_id>
4264

> <s_m_entry_name>
ligand_docking-pose.34

> <s_m_Source_Path>
/home/csk/Desktop/cluster/DUD-E-result/kpcb

> <s_m_Source_File>
ligand_docking-pose.sdf

> <i_m_Source_File_Index>
34

> <i_lp_mmshare_version>
53161

> <r_lp_tautomer_probability>
1

> <s_lp_Force_Field>
OPLS_2005

> <r_lp_Energy>
24.027957

> <b_lp_Chiralities_Consistent>
1

> <s_lp_Variant>
81405-1

> <s_i_glide_gridfile>
glide-grid_2i0e

> <i_i_glide_lignum>
454

> <i_i_glide_rotatable_bonds>
2

> <r_i_docking_score>
-9.52718836654659

> <r_i_glide_ligand_efficiency>
-0.352858828390614

> <r_i_glide_ligand_efficiency_sa>
-1.05857648400888

> <r_i_glide_ligand_efficiency_ln>
-2.21777238375629

> <r_i_glide_gscore>
-9.52718836654659

> <r_i_glide_lipo>
-2.7634357740799

> <r_i_glide_hbond>
-0.608

> <r_i_glide_metal>
0

> <r_i_glide_rewards>
-2.97042387968293

> <r_i_glide_evdw>
-44.7245101928711

> <r_i_glide_ecoul>
-7.74026870727539

> <r_i_glide_erotb>
0.211937102951102

> <r_i_glide_esite>
0

> <r_i_glide_emodel>
-81.5062425108376

> <r_i_glide_energy>
-52.4647789001465

> <r_i_glide_einternal>
3.83675527572632

> <i_i_glide_confnum>
3

> <i_i_glide_posenum>
373

> <r_i_glide_eff_state_penalty>
0

> <i_f3d_flags>
0

> <s_user_duplicate_titles>
81405

> <s_m_subgroup_title>
dock_pv

> <s_m_subgroupid>
dock_pv1

> <b_m_subgroup_collapsed>
0

$$$$
35350
                    3D
 Schrodinger Suite 2021-1.
 41 47  0  0  1  0            999 V2000
   35.0591   55.7027   31.2399 C   0  0  0  0  0  0
   36.1812   55.5720   30.4353 C   0  0  0  0  0  0
   37.4733   55.6209   30.9608 C   0  0  0  0  0  0
   37.6108   55.8277   32.3430 C   0  0  0  0  0  0
   36.4703   55.9308   33.1900 C   0  0  0  0  0  0
   35.1860   55.8750   32.6141 C   0  0  0  0  0  0
   36.9366   56.0775   34.5168 C   0  0  0  0  0  0
   36.3157   56.1972   35.7757 C   0  0  0  0  0  0
   37.0576   56.3874   36.9239 C   0  0  0  0  0  0
   38.4662   56.4392   36.8875 C   0  0  0  0  0  0
   39.4871   56.5846   37.8543 C   0  0  0  0  0  0
   39.4821   56.7247   39.2555 C   0  0  0  0  0  0
   40.6919   56.8091   39.9400 C   0  0  0  0  0  0
   41.9021   56.7717   39.2604 C   0  0  0  0  0  0
   41.9560   56.6514   37.8736 C   0  0  0  0  0  0
   40.7399   56.5556   37.1744 C   0  0  0  0  0  0
   40.4855   56.4155   35.8123 N   0  0  0  0  0  0
   39.1088   56.3009   35.6323 C   0  0  0  0  0  0
   38.3510   56.1176   34.4577 C   0  0  0  0  0  0
   38.7511   55.9751   33.1319 N   0  0  0  0  0  0
   40.1128   55.9190   32.6195 C   0  0  0  0  0  0
   41.2740   57.1623   33.2380 S   0  0  0  0  0  0
   41.5329   56.3000   34.8075 C   0  0  0  0  0  0
   36.0910   56.5335   38.0456 C   0  0  0  0  0  0
   36.3016   56.7721   39.2306 O   0  0  0  0  0  0
   34.8774   56.3719   37.5004 N   0  0  0  0  0  0
   34.8831   56.1571   36.1773 C   0  0  0  0  0  0
   33.8865   55.9751   35.4888 O   0  0  0  0  0  0
   34.0762   55.6604   30.7889 H   0  0  0  0  0  0
   36.0511   55.4123   29.3733 H   0  0  0  0  0  0
   38.3269   55.5046   30.3085 H   0  0  0  0  0  0
   34.2896   55.9714   33.2019 H   0  0  0  0  0  0
   38.5685   56.7464   39.8238 H   0  0  0  0  0  0
   40.6847   56.9039   41.0177 H   0  0  0  0  0  0
   42.8234   56.8351   39.8219 H   0  0  0  0  0  0
   42.9148   56.6249   37.3747 H   0  0  0  0  0  0
   40.4943   54.9072   32.7807 H   0  0  0  0  0  0
   40.0897   56.0534   31.5375 H   0  0  0  0  0  0
   42.4575   56.7074   35.2149 H   0  0  0  0  0  0
   41.7285   55.2382   34.6466 H   0  0  0  0  0  0
   34.0236   56.4477   38.0387 H   0  0  0  0  0  0
  1  6  1  0  0  0
  1  2  2  0  0  0
  1 29  1  0  0  0
  2  3  1  0  0  0
  2 30  1  0  0  0
  3  4  2  0  0  0
  3 31  1  0  0  0
  4 20  1  0  0  0
  4  5  1  0  0  0
  5  6  2  0  0  0
  5  7  1  0  0  0
  6 32  1  0  0  0
  7 19  2  0  0  0
  7  8  1  0  0  0
  8 27  1  0  0  0
  8  9  2  0  0  0
  9 10  1  0  0  0
  9 24  1  0  0  0
 10 18  2  0  0  0
 10 11  1  0  0  0
 11 16  2  0  0  0
 11 12  1  0  0  0
 12 13  2  0  0  0
 12 33  1  0  0  0
 13 14  1  0  0  0
 13 34  1  0  0  0
 14 15  2  0  0  0
 14 35  1  0  0  0
 15 16  1  0  0  0
 15 36  1  0  0  0
 16 17  1  0  0  0
 17 23  1  0  0  0
 17 18  1  0  0  0
 18 19  1  0  0  0
 19 20  1  0  0  0
 20 21  1  0  0  0
 21 22  1  0  0  0
 21 37  1  0  0  0
 21 38  1  0  0  0
 22 23  1  0  0  0
 23 39  1  0  0  0
 23 40  1  0  0  0
 24 25  2  0  0  0
 24 26  1  0  0  0
 26 27  1  0  0  0
 26 41  1  0  0  0
 27 28  2  0  0  0
M  END
> <s_m_entry_id>
4265

> <s_m_entry_name>
ligand_docking-pose.35

> <s_m_Source_Path>
/home/csk/Desktop/cluster/DUD-E-result/kpcb

> <s_m_Source_File>
ligand_docking-pose.sdf

> <i_m_Source_File_Index>
35

> <i_lp_mmshare_version>
53161

> <r_lp_tautomer_probability>
1

> <s_lp_Force_Field>
OPLS_2005

> <r_lp_Energy>
104.253041

> <b_lp_Chiralities_Consistent>
1

> <s_lp_Variant>
35350-1

> <s_i_glide_gridfile>
glide-grid_2i0e

> <i_i_glide_lignum>
21

> <i_i_glide_rotatable_bonds>
0

> <r_i_docking_score>
-9.51367207617617

> <r_i_glide_ligand_efficiency>
-0.339774002720577

> <r_i_glide_ligand_efficiency_sa>
-1.03175398844535

> <r_i_glide_ligand_efficiency_ln>
-2.19603484873142

> <r_i_glide_gscore>
-9.51367207617617

> <r_i_glide_lipo>
-2.67251900586508

> <r_i_glide_hbond>
-0.608

> <r_i_glide_metal>
0

> <r_i_glide_rewards>
-2.78035231957867

> <r_i_glide_evdw>
-44.7345962524414

> <r_i_glide_ecoul>
-8.10713958740234

> <r_i_glide_erotb>
0

> <r_i_glide_esite>
0

> <r_i_glide_emodel>
-83.7281990063265

> <r_i_glide_energy>
-52.8417358398438

> <r_i_glide_einternal>
0

> <i_i_glide_confnum>
1

> <i_i_glide_posenum>
4

> <r_i_glide_eff_state_penalty>
0

> <i_f3d_flags>
0

> <s_user_duplicate_titles>
35350

> <s_m_subgroup_title>
dock_pv

> <s_m_subgroupid>
dock_pv1

> <b_m_subgroup_collapsed>
0

$$$$
92709
                    3D
 Schrodinger Suite 2021-1.
 50 55  0  0  1  0            999 V2000
   42.0957   56.3398   33.5270 C   0  0  0  0  0  0
   40.8824   57.2634   33.7989 C   0  0  0  0  0  0
   40.0220   56.8085   34.8993 N   0  0  0  0  0  0
   40.4273   56.8567   36.2324 C   0  0  0  0  0  0
   41.6797   57.1480   36.8007 C   0  0  0  0  0  0
   41.7948   57.0760   38.1880 C   0  0  0  0  0  0
   40.7086   56.7698   38.9974 C   0  0  0  0  0  0
   39.4529   56.5380   38.4464 C   0  0  0  0  0  0
   39.2931   56.5859   37.0473 C   0  0  0  0  0  0
   38.1772   56.4474   36.1950 C   0  0  0  0  0  0
   38.6738   56.4133   34.8580 C   0  0  0  0  0  0
   37.7859   56.1038   33.7920 C   0  0  0  0  0  0
   36.3964   56.0552   34.0459 C   0  0  0  0  0  0
   35.7391   55.9056   32.8191 C   0  0  0  0  0  0
   34.3772   55.8816   32.4738 C   0  0  0  0  0  0
   34.0224   55.7480   31.1370 C   0  0  0  0  0  0
   34.9948   55.6075   30.1576 C   0  0  0  0  0  0
   36.3525   55.5726   30.4695 C   0  0  0  0  0  0
   36.7282   55.7371   31.8139 C   0  0  0  0  0  0
   37.9747   55.7357   32.4479 N   0  0  0  0  0  0
   39.2421   55.3773   31.8054 C   0  0  0  0  0  0
   39.1879   54.0844   30.9696 C   0  0  0  0  0  0
   40.5085   53.5745   30.5604 C   0  0  0  0  0  0
   41.5447   53.1716   30.2350 N   0  0  0  0  0  0
   35.9177   56.1842   35.3536 C   0  0  0  0  0  0
   36.7879   56.3497   36.4173 C   0  0  0  0  0  0
   35.9698   56.4701   37.6729 C   0  0  0  0  0  0
   36.3133   56.6678   38.8363 O   0  0  0  0  0  0
   34.7012   56.3587   37.2650 N   0  0  0  0  0  0
   34.5051   56.1634   35.8463 C   0  0  0  0  0  0
   42.6449   56.6869   32.6493 H   0  0  0  0  0  0
   42.7993   56.3280   34.3596 H   0  0  0  0  0  0
   41.8246   55.2968   33.3529 H   0  0  0  0  0  0
   40.2751   57.4447   32.9162 H   0  0  0  0  0  0
   41.2471   58.2593   34.0706 H   0  0  0  0  0  0
   42.5404   57.4063   36.2069 H   0  0  0  0  0  0
   42.7537   57.2653   38.6464 H   0  0  0  0  0  0
   40.8372   56.7209   40.0703 H   0  0  0  0  0  0
   38.6355   56.3054   39.1048 H   0  0  0  0  0  0
   33.6102   55.9728   33.2246 H   0  0  0  0  0  0
   32.9805   55.7508   30.8545 H   0  0  0  0  0  0
   34.6883   55.4937   29.1262 H   0  0  0  0  0  0
   37.0627   55.4201   29.6768 H   0  0  0  0  0  0
   39.6204   56.2167   31.2233 H   0  0  0  0  0  0
   39.9356   55.1575   32.6019 H   0  0  0  0  0  0
   38.7012   53.2815   31.5214 H   0  0  0  0  0  0
   38.6600   54.2484   30.0393 H   0  0  0  0  0  0
   33.9249   56.5036   37.9015 H   0  0  0  0  0  0
   33.9967   55.2165   35.6553 H   0  0  0  0  0  0
   33.9006   56.9696   35.4313 H   0  0  0  0  0  0
  1  2  1  0  0  0
  1 31  1  0  0  0
  1 32  1  0  0  0
  1 33  1  0  0  0
  2  3  1  0  0  0
  2 34  1  0  0  0
  2 35  1  0  0  0
  3 11  1  0  0  0
  3  4  1  0  0  0
  4  9  2  0  0  0
  4  5  1  0  0  0
  5  6  2  0  0  0
  5 36  1  0  0  0
  6  7  1  0  0  0
  6 37  1  0  0  0
  7  8  2  0  0  0
  7 38  1  0  0  0
  8  9  1  0  0  0
  8 39  1  0  0  0
  9 10  1  0  0  0
 10 26  2  0  0  0
 10 11  1  0  0  0
 11 12  2  0  0  0
 12 20  1  0  0  0
 12 13  1  0  0  0
 13 14  1  0  0  0
 13 25  2  0  0  0
 14 19  2  0  0  0
 14 15  1  0  0  0
 15 16  2  0  0  0
 15 40  1  0  0  0
 16 17  1  0  0  0
 16 41  1  0  0  0
 17 18  2  0  0  0
 17 42  1  0  0  0
 18 19  1  0  0  0
 18 43  1  0  0  0
 19 20  1  0  0  0
 20 21  1  0  0  0
 21 22  1  0  0  0
 21 44  1  0  0  0
 21 45  1  0  0  0
 22 23  1  0  0  0
 22 46  1  0  0  0
 22 47  1  0  0  0
 23 24  3  0  0  0
 25 30  1  0  0  0
 25 26  1  0  0  0
 26 27  1  0  0  0
 27 28  2  0  0  0
 27 29  1  0  0  0
 29 30  1  0  0  0
 29 48  1  0  0  0
 30 49  1  0  0  0
 30 50  1  0  0  0
M  END
> <s_m_entry_id>
4266

> <s_m_entry_name>
ligand_docking-pose.36

> <s_m_Source_Path>
/home/csk/Desktop/cluster/DUD-E-result/kpcb

> <s_m_Source_File>
ligand_docking-pose.sdf

> <i_m_Source_File_Index>
36

> <i_lp_mmshare_version>
53161

> <r_lp_tautomer_probability>
1

> <s_lp_Force_Field>
OPLS_2005

> <r_lp_Energy>
97.025218

> <b_lp_Chiralities_Consistent>
1

> <s_lp_Variant>
92709-1

> <s_i_glide_gridfile>
glide-grid_2i0e

> <i_i_glide_lignum>
378

> <i_i_glide_rotatable_bonds>
3

> <r_i_docking_score>
-9.50639538087433

> <r_i_glide_ligand_efficiency>
-0.316879846029144

> <r_i_glide_ligand_efficiency_sa>
-0.984619356947116

> <r_i_glide_ligand_efficiency_ln>
-2.15995661100847

> <r_i_glide_gscore>
-9.50639538087433

> <r_i_glide_lipo>
-3.3367638907974

> <r_i_glide_hbond>
-0.608

> <r_i_glide_metal>
0

> <r_i_glide_rewards>
-2.37254253784453

> <r_i_glide_evdw>
-45.9619674682617

> <r_i_glide_ecoul>
-6.37532901763916

> <r_i_glide_erotb>
0.0887386214857729

> <r_i_glide_esite>
-0.0234298476592034

> <r_i_glide_emodel>
-81.7414705987603

> <r_i_glide_energy>
-52.3372964859009

> <r_i_glide_einternal>
1.78748095035553

> <i_i_glide_confnum>
3

> <i_i_glide_posenum>
248

> <r_i_glide_eff_state_penalty>
0

> <i_f3d_flags>
0

> <s_user_duplicate_titles>
92709

> <s_m_subgroup_title>
dock_pv

> <s_m_subgroupid>
dock_pv1

> <b_m_subgroup_collapsed>
0

$$$$
160561
                    3D
 Schrodinger Suite 2021-1.
 59 64  0  0  1  0            999 V2000
   41.8055   56.4779   39.1347 C   0  0  0  0  0  0
   40.7554   56.6605   38.1464 N   0  0  0  0  0  0
   39.4109   56.5085   38.3850 C   0  0  0  0  0  0
   38.6858   56.6608   37.2153 C   0  0  0  0  0  0
   39.6465   57.0474   36.2112 C   0  0  0  0  0  0
   40.9423   56.9563   36.8071 C   0  0  0  0  0  0
   42.1148   57.1549   36.0655 C   0  0  0  0  0  0
   41.9694   57.4725   34.7148 C   0  0  0  0  0  0
   40.7226   57.6682   34.1346 C   0  0  0  0  0  0
   39.5599   57.4570   34.8694 C   0  0  0  0  0  0
   37.2420   56.4407   37.0653 C   0  0  0  0  0  0
   36.5541   55.9914   36.0058 C   0  0  0  0  0  0
   35.1589   55.9608   36.3448 C   0  0  0  0  0  0
   34.2001   55.6227   35.6540 O   0  0  0  0  0  0
   35.1015   56.3906   37.6081 N   0  0  0  0  0  0
   36.2978   56.7118   38.1132 C   0  0  0  0  0  0
   36.5025   57.1616   39.2369 O   0  0  0  0  0  0
   37.0431   55.5200   34.7116 C   0  0  0  0  0  0
   36.6059   56.0200   33.4448 C   0  0  0  0  0  0
   35.6869   57.0121   33.0642 C   0  0  0  0  0  0
   35.4483   57.2314   31.7138 C   0  0  0  0  0  0
   36.1402   56.5156   30.7453 C   0  0  0  0  0  0
   37.1137   55.5719   31.0768 C   0  0  0  0  0  0
   37.3122   55.2975   32.4391 C   0  0  0  0  0  0
   38.1030   54.3566   33.0941 N   0  0  0  0  0  0
   37.9383   54.4832   34.4662 C   0  0  0  0  0  0
   38.6571   53.5240   35.4107 C   0  0  0  0  0  0
   40.2002   53.4859   35.3448 C   0  0  0  0  0  0
   40.8738   54.0066   34.0607 C   0  0  0  0  0  0
   40.4513   53.3735   32.7092 C   0  0  1  0  0  0
   38.9141   53.2984   32.4660 C   0  0  0  0  0  0
   41.1678   54.0445   31.5108 C   0  0  0  0  0  0
   42.6164   53.9719   31.6297 N   0  0  0  0  0  0
   41.3781   56.3576   40.1317 H   0  0  0  0  0  0
   42.3880   55.5907   38.8806 H   0  0  0  0  0  0
   42.4609   57.3514   39.1314 H   0  0  0  0  0  0
   39.0747   56.2342   39.3761 H   0  0  0  0  0  0
   43.0959   57.0510   36.5041 H   0  0  0  0  0  0
   42.8570   57.5741   34.1073 H   0  0  0  0  0  0
   40.6592   57.9382   33.0891 H   0  0  0  0  0  0
   38.6001   57.5720   34.4000 H   0  0  0  0  0  0
   34.2333   56.4994   38.1158 H   0  0  0  0  0  0
   35.1456   57.5746   33.8098 H   0  0  0  0  0  0
   34.7135   57.9649   31.4134 H   0  0  0  0  0  0
   35.9013   56.6958   29.7075 H   0  0  0  0  0  0
   37.6526   55.0462   30.3041 H   0  0  0  0  0  0
   38.3701   53.7524   36.4365 H   0  0  0  0  0  0
   38.3006   52.5098   35.2372 H   0  0  0  0  0  0
   40.5925   54.0688   36.1788 H   0  0  0  0  0  0
   40.5415   52.4668   35.5355 H   0  0  0  0  0  0
   40.6864   55.0715   33.9958 H   0  0  0  0  0  0
   41.9523   53.9115   34.1908 H   0  0  0  0  0  0
   40.7979   52.3371   32.7311 H   0  0  0  0  0  0
   38.5416   52.3491   32.8556 H   0  0  0  0  0  0
   38.7017   53.2590   31.3985 H   0  0  0  0  0  0
   40.8790   53.5524   30.5804 H   0  0  0  0  0  0
   40.8702   55.0908   31.4196 H   0  0  0  0  0  0
   42.9140   53.0193   31.8318 H   0  0  0  0  0  0
   43.0491   54.2093   30.7521 H   0  0  0  0  0  0
  1  2  1  0  0  0
  1 34  1  0  0  0
  1 35  1  0  0  0
  1 36  1  0  0  0
  2  6  1  0  0  0
  2  3  1  0  0  0
  3  4  2  0  0  0
  3 37  1  0  0  0
  4  5  1  0  0  0
  4 11  1  0  0  0
  5 10  2  0  0  0
  5  6  1  0  0  0
  6  7  2  0  0  0
  7  8  1  0  0  0
  7 38  1  0  0  0
  8  9  2  0  0  0
  8 39  1  0  0  0
  9 10  1  0  0  0
  9 40  1  0  0  0
 10 41  1  0  0  0
 11 16  1  0  0  0
 11 12  2  0  0  0
 12 13  1  0  0  0
 12 18  1  0  0  0
 13 14  2  0  0  0
 13 15  1  0  0  0
 15 16  1  0  0  0
 15 42  1  0  0  0
 16 17  2  0  0  0
 18 26  2  0  0  0
 18 19  1  0  0  0
 19 24  2  0  0  0
 19 20  1  0  0  0
 20 21  2  0  0  0
 20 43  1  0  0  0
 21 22  1  0  0  0
 21 44  1  0  0  0
 22 23  2  0  0  0
 22 45  1  0  0  0
 23 24  1  0  0  0
 23 46  1  0  0  0
 24 25  1  0  0  0
 25 31  1  0  0  0
 25 26  1  0  0  0
 26 27  1  0  0  0
 27 28  1  0  0  0
 27 47  1  0  0  0
 27 48  1  0  0  0
 28 29  1  0  0  0
 28 49  1  0  0  0
 28 50  1  0  0  0
 29 30  1  0  0  0
 29 51  1  0  0  0
 29 52  1  0  0  0
 30 31  1  0  0  0
 30 32  1  0  0  0
 30 53  1  0  0  0
 31 54  1  0  0  0
 31 55  1  0  0  0
 32 33  1  0  0  0
 32 56  1  0  0  0
 32 57  1  0  0  0
 33 58  1  0  0  0
 33 59  1  0  0  0
M  END
> <s_m_entry_id>
4267

> <s_m_entry_name>
ligand_docking-pose.37

> <s_m_Source_Path>
/home/csk/Desktop/cluster/DUD-E-result/kpcb

> <s_m_Source_File>
ligand_docking-pose.sdf

> <i_m_Source_File_Index>
37

> <i_lp_mmshare_version>
53161

> <r_lp_tautomer_probability>
1

> <s_lp_Force_Field>
OPLS_2005

> <r_lp_Energy>
38.351969

> <b_lp_Chiralities_Consistent>
1

> <s_lp_Variant>
160561-1

> <s_i_glide_gridfile>
glide-grid_2i0e

> <i_i_glide_lignum>
444

> <i_i_glide_rotatable_bonds>
3

> <r_i_docking_score>
-9.50066296227832

> <r_i_glide_ligand_efficiency>
-0.287898877644798

> <r_i_glide_ligand_efficiency_sa>
-0.923445532536679

> <r_i_glide_ligand_efficiency_ln>
-2.11289825101057

> <r_i_glide_gscore>
-9.50066296227832

> <r_i_glide_lipo>
-2.86632314046891

> <r_i_glide_hbond>
-0.664308642499206

> <r_i_glide_metal>
0

> <r_i_glide_rewards>
-2.41264110483392

> <r_i_glide_evdw>
-51.3774108886719

> <r_i_glide_ecoul>
-7.55843019485474

> <r_i_glide_erotb>
0.145244999185524

> <r_i_glide_esite>
0

> <r_i_glide_emodel>
-90.5679084421626

> <r_i_glide_energy>
-58.9358410835266

> <r_i_glide_einternal>
1.99479508399963

> <i_i_glide_confnum>
3

> <i_i_glide_posenum>
293

> <r_i_glide_eff_state_penalty>
0

> <i_f3d_flags>
0

> <s_user_duplicate_titles>
160561

> <s_m_subgroup_title>
dock_pv

> <s_m_subgroupid>
dock_pv1

> <b_m_subgroup_collapsed>
0

$$$$
234
                    3D
 Schrodinger Suite 2021-1.
 55 59  0  0  1  0            999 V2000
   39.6833   52.0115   35.5789 C   0  0  0  0  0  0
   40.4330   52.7720   34.5897 N   0  0  2  0  0  0
   39.7350   52.7850   33.3114 C   0  0  0  0  0  0
   40.1473   54.0464   32.5259 C   0  0  0  0  0  0
   39.0239   54.6313   31.6389 C   0  0  0  0  0  0
   37.8262   55.0649   32.3770 N   0  0  0  0  0  0
   37.6804   55.1810   33.7417 C   0  0  0  0  0  0
   36.4496   55.7038   34.0885 C   0  0  0  0  0  0
   35.7288   55.8181   32.8354 C   0  0  0  0  0  0
   36.6462   55.4816   31.7891 C   0  0  0  0  0  0
   36.2991   55.5715   30.4356 C   0  0  0  0  0  0
   35.0001   55.9619   30.1238 C   0  0  0  0  0  0
   34.0719   56.2495   31.1130 C   0  0  0  0  0  0
   34.4198   56.1799   32.4600 C   0  0  0  0  0  0
   36.0735   56.0565   35.4750 C   0  0  0  0  0  0
   36.8432   56.5460   36.4717 C   0  0  0  0  0  0
   36.0101   56.7441   37.6291 C   0  0  0  0  0  0
   36.3006   57.1715   38.7477 O   0  0  0  0  0  0
   34.7877   56.3722   37.2369 N   0  0  0  0  0  0
   34.7283   55.9576   35.9689 C   0  0  0  0  0  0
   33.7148   55.5722   35.3939 O   0  0  0  0  0  0
   38.2890   56.8319   36.4706 C   0  0  0  0  0  0
   38.9892   57.3109   35.3800 C   0  0  0  0  0  0
   40.3340   57.3721   35.6318 N   0  0  0  0  0  0
   40.5579   56.9814   36.9400 C   0  0  0  0  0  0
   39.2824   56.6498   37.5081 C   0  0  0  0  0  0
   39.2504   56.2158   38.8469 C   0  0  0  0  0  0
   40.4358   56.1341   39.5734 C   0  0  0  0  0  0
   41.6562   56.4570   38.9930 C   0  0  0  0  0  0
   41.7515   56.8793   37.6677 C   0  0  0  0  0  0
   41.3461   57.6970   34.6414 C   0  0  0  0  0  0
   40.2492   51.9663   36.5091 H   0  0  0  0  0  0
   39.5006   50.9902   35.2435 H   0  0  0  0  0  0
   38.7240   52.4869   35.7914 H   0  0  0  0  0  0
   41.2962   52.2523   34.4406 H   0  0  0  0  0  0
   39.9703   51.8817   32.7434 H   0  0  0  0  0  0
   38.6554   52.7714   33.4745 H   0  0  0  0  0  0
   40.4996   54.8352   33.1933 H   0  0  0  0  0  0
   41.0126   53.8020   31.9069 H   0  0  0  0  0  0
   39.3975   55.4870   31.0722 H   0  0  0  0  0  0
   38.7094   53.8833   30.9108 H   0  0  0  0  0  0
   38.5003   54.9142   34.3946 H   0  0  0  0  0  0
   36.9868   55.2757   29.6554 H   0  0  0  0  0  0
   34.6926   55.9943   29.0882 H   0  0  0  0  0  0
   33.0642   56.5187   30.8277 H   0  0  0  0  0  0
   33.6613   56.3720   33.1963 H   0  0  0  0  0  0
   33.9759   56.4323   37.8386 H   0  0  0  0  0  0
   38.6250   57.5728   34.3975 H   0  0  0  0  0  0
   38.3256   55.9254   39.3207 H   0  0  0  0  0  0
   40.4044   55.8035   40.6028 H   0  0  0  0  0  0
   42.5580   56.3699   39.5835 H   0  0  0  0  0  0
   42.7091   57.1187   37.2300 H   0  0  0  0  0  0
   42.0770   58.3719   35.0787 H   0  0  0  0  0  0
   41.8480   56.7787   34.3304 H   0  0  0  0  0  0
   40.8945   58.1784   33.7714 H   0  0  0  0  0  0
  1  2  1  0  0  0
  1 32  1  0  0  0
  1 33  1  0  0  0
  1 34  1  0  0  0
  2  3  1  0  0  0
  2 35  1  0  0  0
  3  4  1  0  0  0
  3 36  1  0  0  0
  3 37  1  0  0  0
  4  5  1  0  0  0
  4 38  1  0  0  0
  4 39  1  0  0  0
  5  6  1  0  0  0
  5 40  1  0  0  0
  5 41  1  0  0  0
  6 10  1  0  0  0
  6  7  1  0  0  0
  7  8  2  0  0  0
  7 42  1  0  0  0
  8  9  1  0  0  0
  8 15  1  0  0  0
  9 14  2  0  0  0
  9 10  1  0  0  0
 10 11  2  0  0  0
 11 12  1  0  0  0
 11 43  1  0  0  0
 12 13  2  0  0  0
 12 44  1  0  0  0
 13 14  1  0  0  0
 13 45  1  0  0  0
 14 46  1  0  0  0
 15 20  1  0  0  0
 15 16  2  0  0  0
 16 17  1  0  0  0
 16 22  1  0  0  0
 17 18  2  0  0  0
 17 19  1  0  0  0
 19 20  1  0  0  0
 19 47  1  0  0  0
 20 21  2  0  0  0
 22 26  1  0  0  0
 22 23  2  0  0  0
 23 24  1  0  0  0
 23 48  1  0  0  0
 24 25  1  0  0  0
 24 31  1  0  0  0
 25 30  1  0  0  0
 25 26  2  0  0  0
 26 27  1  0  0  0
 27 28  2  0  0  0
 27 49  1  0  0  0
 28 29  1  0  0  0
 28 50  1  0  0  0
 29 30  2  0  0  0
 29 51  1  0  0  0
 30 52  1  0  0  0
 31 53  1  0  0  0
 31 54  1  0  0  0
 31 55  1  0  0  0
M  END
> <s_m_entry_id>
4268

> <s_m_entry_name>
ligand_docking-pose.38

> <s_m_Source_Path>
/home/csk/Desktop/cluster/DUD-E-result/kpcb

> <s_m_Source_File>
ligand_docking-pose.sdf

> <i_m_Source_File_Index>
38

> <i_lp_mmshare_version>
53161

> <r_lp_tautomer_probability>
1

> <s_lp_Force_Field>
OPLS_2005

> <r_lp_Energy>
28.834386

> <b_lp_Chiralities_Consistent>
1

> <s_lp_Variant>
234-1

> <s_i_glide_gridfile>
glide-grid_2i0e

> <i_i_glide_lignum>
530

> <i_i_glide_rotatable_bonds>
6

> <r_i_docking_score>
-9.49207427816565

> <r_i_glide_ligand_efficiency>
-0.306195944456957

> <r_i_glide_ligand_efficiency_sa>
-0.961878014656767

> <r_i_glide_ligand_efficiency_ln>
-2.14075364686756

> <r_i_glide_gscore>
-9.49207427816565

> <r_i_glide_lipo>
-2.87309356475119

> <r_i_glide_hbond>
-0.656588313696001

> <r_i_glide_metal>
0

> <r_i_glide_rewards>
-2.69424678181088

> <r_i_glide_evdw>
-50.3747215270996

> <r_i_glide_ecoul>
-7.70037126541138

> <r_i_glide_erotb>
0.405646148259108

> <r_i_glide_esite>
0

> <r_i_glide_emodel>
-88.0474967026956

> <r_i_glide_energy>
-58.075092792511

> <r_i_glide_einternal>
10.4198188781738

> <i_i_glide_confnum>
66

> <i_i_glide_posenum>
212

> <r_i_glide_eff_state_penalty>
0

> <i_f3d_flags>
0

> <s_user_duplicate_titles>
234

> <s_m_subgroup_title>
dock_pv

> <s_m_subgroupid>
dock_pv1

> <b_m_subgroup_collapsed>
0

$$$$
35145
                    3D
 Schrodinger Suite 2021-1.
 42 48  0  0  1  0            999 V2000
   33.6919   55.6065   31.2806 C   0  0  0  0  0  0
   34.6324   55.5726   30.2560 C   0  0  0  0  0  0
   36.0007   55.5742   30.5106 C   0  0  0  0  0  0
   36.4135   55.6852   31.8467 C   0  0  0  0  0  0
   35.4665   55.7656   32.9037 C   0  0  0  0  0  0
   34.0924   55.6909   32.6119 C   0  0  0  0  0  0
   36.1794   55.9277   34.1033 C   0  0  0  0  0  0
   35.7889   56.0761   35.4400 C   0  0  0  0  0  0
   36.7286   56.2901   36.4413 C   0  0  0  0  0  0
   38.1081   56.3118   36.1383 C   0  0  0  0  0  0
   39.2955   56.4687   36.8946 C   0  0  0  0  0  0
   39.5501   56.6313   38.2701 C   0  0  0  0  0  0
   40.8625   56.7809   38.7061 C   0  0  0  0  0  0
   41.9181   56.7835   37.8048 C   0  0  0  0  0  0
   41.7164   56.6163   36.4363 C   0  0  0  0  0  0
   40.3961   56.4406   35.9887 C   0  0  0  0  0  0
   39.8974   56.2145   34.7099 N   0  0  0  0  0  0
   38.5100   56.1526   34.7877 C   0  0  0  0  0  0
   37.5524   55.9559   33.7778 C   0  0  0  0  0  0
   37.6883   55.7365   32.4077 N   0  0  0  0  0  0
   38.9177   55.6871   31.6269 C   0  0  0  0  0  0
   40.3446   54.8182   32.3272 S   0  0  0  0  0  0
   40.7228   56.1382   33.5084 C   0  0  0  0  0  0
   35.9923   56.4957   37.7335 C   0  0  0  0  0  0
   36.4086   56.7685   38.8554 O   0  0  0  0  0  0
   34.7012   56.3691   37.4137 N   0  0  0  0  0  0
   34.4126   56.0734   36.0263 C   0  0  0  0  0  0
   32.6403   55.5711   31.0319 H   0  0  0  0  0  0
   34.2981   55.5020   29.2310 H   0  0  0  0  0  0
   36.6999   55.5109   29.6926 H   0  0  0  0  0  0
   33.3501   55.7210   33.3954 H   0  0  0  0  0  0
   38.7584   56.6294   39.0019 H   0  0  0  0  0  0
   41.0628   56.9038   39.7595 H   0  0  0  0  0  0
   42.9277   56.9080   38.1753 H   0  0  0  0  0  0
   42.5625   56.6086   35.7653 H   0  0  0  0  0  0
   38.7056   55.1769   30.6875 H   0  0  0  0  0  0
   39.1845   56.7086   31.3565 H   0  0  0  0  0  0
   40.7006   57.1124   33.0195 H   0  0  0  0  0  0
   41.7605   55.9802   33.8008 H   0  0  0  0  0  0
   33.9643   56.5735   38.0825 H   0  0  0  0  0  0
   33.7743   56.8455   35.5976 H   0  0  0  0  0  0
   33.9022   55.1130   35.9321 H   0  0  0  0  0  0
  1  6  1  0  0  0
  1  2  2  0  0  0
  1 28  1  0  0  0
  2  3  1  0  0  0
  2 29  1  0  0  0
  3  4  2  0  0  0
  3 30  1  0  0  0
  4 20  1  0  0  0
  4  5  1  0  0  0
  5  6  2  0  0  0
  5  7  1  0  0  0
  6 31  1  0  0  0
  7 19  2  0  0  0
  7  8  1  0  0  0
  8 27  1  0  0  0
  8  9  2  0  0  0
  9 10  1  0  0  0
  9 24  1  0  0  0
 10 18  2  0  0  0
 10 11  1  0  0  0
 11 16  2  0  0  0
 11 12  1  0  0  0
 12 13  2  0  0  0
 12 32  1  0  0  0
 13 14  1  0  0  0
 13 33  1  0  0  0
 14 15  2  0  0  0
 14 34  1  0  0  0
 15 16  1  0  0  0
 15 35  1  0  0  0
 16 17  1  0  0  0
 17 23  1  0  0  0
 17 18  1  0  0  0
 18 19  1  0  0  0
 19 20  1  0  0  0
 20 21  1  0  0  0
 21 22  1  0  0  0
 21 36  1  0  0  0
 21 37  1  0  0  0
 22 23  1  0  0  0
 23 38  1  0  0  0
 23 39  1  0  0  0
 24 25  2  0  0  0
 24 26  1  0  0  0
 26 27  1  0  0  0
 26 40  1  0  0  0
 27 41  1  0  0  0
 27 42  1  0  0  0
M  END
> <s_m_entry_id>
4269

> <s_m_entry_name>
ligand_docking-pose.39

> <s_m_Source_Path>
/home/csk/Desktop/cluster/DUD-E-result/kpcb

> <s_m_Source_File>
ligand_docking-pose.sdf

> <i_m_Source_File_Index>
39

> <i_lp_mmshare_version>
53161

> <r_lp_tautomer_probability>
1

> <s_lp_Force_Field>
OPLS_2005

> <r_lp_Energy>
97.168199

> <b_lp_Chiralities_Consistent>
1

> <s_lp_Variant>
35145-1

> <s_i_glide_gridfile>
glide-grid_2i0e

> <i_i_glide_lignum>
19

> <i_i_glide_rotatable_bonds>
0

> <r_i_docking_score>
-9.48105624881153

> <r_i_glide_ligand_efficiency>
-0.351150231437464

> <r_i_glide_ligand_efficiency_sa>
-1.05345069315506

> <r_i_glide_ligand_efficiency_ln>
-2.20703358729497

> <r_i_glide_gscore>
-9.48105624881153

> <r_i_glide_lipo>
-3.12121538677726

> <r_i_glide_hbond>
-0.608

> <r_i_glide_metal>
0

> <r_i_glide_rewards>
-2.50908199190946

> <r_i_glide_evdw>
-44.600212097168

> <r_i_glide_ecoul>
-6.75165510177612

> <r_i_glide_erotb>
0

> <r_i_glide_esite>
0

> <r_i_glide_emodel>
-80.6019984504059

> <r_i_glide_energy>
-51.3518671989441

> <r_i_glide_einternal>
0

> <i_i_glide_confnum>
1

> <i_i_glide_posenum>
149

> <r_i_glide_eff_state_penalty>
0

> <i_f3d_flags>
0

> <s_user_duplicate_titles>
35145

> <s_m_subgroup_title>
dock_pv

> <s_m_subgroupid>
dock_pv1

> <b_m_subgroup_collapsed>
0

$$$$
159846
                    3D
 Schrodinger Suite 2021-1.
 59 64  0  0  1  0            999 V2000
   41.8124   56.5049   38.9727 C   0  0  0  0  0  0
   40.7504   56.7341   38.0078 N   0  0  0  0  0  0
   39.4084   56.6118   38.2714 C   0  0  0  0  0  0
   38.6627   56.7601   37.1125 C   0  0  0  0  0  0
   39.6145   57.1023   36.0827 C   0  0  0  0  0  0
   40.9198   57.0032   36.6613 C   0  0  0  0  0  0
   42.0841   57.1733   35.9004 C   0  0  0  0  0  0
   41.9254   57.4791   34.5495 C   0  0  0  0  0  0
   40.6726   57.6392   33.9735 C   0  0  0  0  0  0
   39.5160   57.4628   34.7270 C   0  0  0  0  0  0
   37.2113   56.5390   37.0006 C   0  0  0  0  0  0
   36.4759   56.1013   35.9617 C   0  0  0  0  0  0
   35.0968   56.0799   36.3553 C   0  0  0  0  0  0
   34.1048   55.7677   35.6996 O   0  0  0  0  0  0
   35.1010   56.4813   37.6281 N   0  0  0  0  0  0
   36.3159   56.7719   38.0987 C   0  0  0  0  0  0
   36.5664   57.1666   39.2358 O   0  0  0  0  0  0
   36.9057   55.6250   34.6464 C   0  0  0  0  0  0
   36.3894   56.0372   33.3731 C   0  0  0  0  0  0
   35.3830   56.9312   32.9679 C   0  0  0  0  0  0
   35.1438   57.1140   31.6093 C   0  0  0  0  0  0
   35.9024   56.4441   30.6547 C   0  0  0  0  0  0
   36.9309   55.5724   31.0085 C   0  0  0  0  0  0
   37.1543   55.3650   32.3767 C   0  0  0  0  0  0
   38.0800   54.5687   33.0321 N   0  0  0  0  0  0
   37.9093   54.6933   34.4079 C   0  0  0  0  0  0
   38.7704   53.8731   35.3630 C   0  0  0  0  0  0
   40.1710   53.7375   34.7356 C   0  0  2  0  0  0
   39.9609   52.9749   33.4074 C   0  0  0  0  0  0
   39.1501   53.7922   32.3729 C   0  0  0  0  0  0
   41.1390   53.0358   35.7210 C   0  0  0  0  0  0
   42.6362   53.3868   35.5925 C   0  0  0  0  0  0
   43.1482   53.1752   34.2521 N   0  0  0  0  0  0
   41.4176   56.5426   39.9885 H   0  0  0  0  0  0
   42.2567   55.5261   38.7895 H   0  0  0  0  0  0
   42.5770   57.2733   38.8626 H   0  0  0  0  0  0
   39.0865   56.3503   39.2711 H   0  0  0  0  0  0
   43.0705   57.0811   36.3311 H   0  0  0  0  0  0
   42.8066   57.6098   33.9372 H   0  0  0  0  0  0
   40.5975   57.8880   32.9243 H   0  0  0  0  0  0
   38.5537   57.5725   34.2574 H   0  0  0  0  0  0
   34.2523   56.5815   38.1709 H   0  0  0  0  0  0
   34.7964   57.4645   33.7005 H   0  0  0  0  0  0
   34.3601   57.7856   31.2881 H   0  0  0  0  0  0
   35.6912   56.6043   29.6086 H   0  0  0  0  0  0
   37.5167   55.0690   30.2513 H   0  0  0  0  0  0
   38.8305   54.3169   36.3518 H   0  0  0  0  0  0
   38.3201   52.8930   35.5222 H   0  0  0  0  0  0
   40.5769   54.7322   34.5433 H   0  0  0  0  0  0
   40.9209   52.7199   32.9601 H   0  0  0  0  0  0
   39.5047   52.0008   33.5956 H   0  0  0  0  0  0
   38.7119   53.1416   31.6160 H   0  0  0  0  0  0
   39.7949   54.4937   31.8410 H   0  0  0  0  0  0
   40.8556   53.2706   36.7483 H   0  0  0  0  0  0
   41.0102   51.9651   35.6372 H   0  0  0  0  0  0
   42.8075   54.4275   35.8734 H   0  0  0  0  0  0
   43.2147   52.7759   36.2880 H   0  0  0  0  0  0
   44.1581   53.2151   34.2525 H   0  0  0  0  0  0
   42.9353   52.2345   33.9323 H   0  0  0  0  0  0
  1  2  1  0  0  0
  1 34  1  0  0  0
  1 35  1  0  0  0
  1 36  1  0  0  0
  2  6  1  0  0  0
  2  3  1  0  0  0
  3  4  2  0  0  0
  3 37  1  0  0  0
  4  5  1  0  0  0
  4 11  1  0  0  0
  5 10  2  0  0  0
  5  6  1  0  0  0
  6  7  2  0  0  0
  7  8  1  0  0  0
  7 38  1  0  0  0
  8  9  2  0  0  0
  8 39  1  0  0  0
  9 10  1  0  0  0
  9 40  1  0  0  0
 10 41  1  0  0  0
 11 16  1  0  0  0
 11 12  2  0  0  0
 12 13  1  0  0  0
 12 18  1  0  0  0
 13 14  2  0  0  0
 13 15  1  0  0  0
 15 16  1  0  0  0
 15 42  1  0  0  0
 16 17  2  0  0  0
 18 26  2  0  0  0
 18 19  1  0  0  0
 19 24  2  0  0  0
 19 20  1  0  0  0
 20 21  2  0  0  0
 20 43  1  0  0  0
 21 22  1  0  0  0
 21 44  1  0  0  0
 22 23  2  0  0  0
 22 45  1  0  0  0
 23 24  1  0  0  0
 23 46  1  0  0  0
 24 25  1  0  0  0
 25 30  1  0  0  0
 25 26  1  0  0  0
 26 27  1  0  0  0
 27 28  1  0  0  0
 27 47  1  0  0  0
 27 48  1  0  0  0
 28 29  1  0  0  0
 28 31  1  0  0  0
 28 49  1  0  0  0
 29 30  1  0  0  0
 29 50  1  0  0  0
 29 51  1  0  0  0
 30 52  1  0  0  0
 30 53  1  0  0  0
 31 32  1  0  0  0
 31 54  1  0  0  0
 31 55  1  0  0  0
 32 33  1  0  0  0
 32 56  1  0  0  0
 32 57  1  0  0  0
 33 58  1  0  0  0
 33 59  1  0  0  0
M  END
> <s_m_entry_id>
4270

> <s_m_entry_name>
ligand_docking-pose.40

> <s_m_Source_Path>
/home/csk/Desktop/cluster/DUD-E-result/kpcb

> <s_m_Source_File>
ligand_docking-pose.sdf

> <i_m_Source_File_Index>
40

> <i_lp_mmshare_version>
53161

> <r_lp_tautomer_probability>
1

> <s_lp_Force_Field>
OPLS_2005

> <r_lp_Energy>
30.848377

> <b_lp_Chiralities_Consistent>
1

> <s_lp_Variant>
159846-2

> <s_i_glide_gridfile>
glide-grid_2i0e

> <i_i_glide_lignum>
424

> <i_i_glide_rotatable_bonds>
4

> <r_i_docking_score>
-9.47715004193178

> <r_i_glide_ligand_efficiency>
-0.287186364907024

> <r_i_glide_ligand_efficiency_sa>
-0.921160123472373

> <r_i_glide_ligand_efficiency_ln>
-2.10766909926888

> <r_i_glide_gscore>
-9.47715004193178

> <r_i_glide_lipo>
-2.91868832551126

> <r_i_glide_hbond>
-0.608

> <r_i_glide_metal>
0

> <r_i_glide_rewards>
-2.41118528857833

> <r_i_glide_evdw>
-51.7386665344238

> <r_i_glide_ecoul>
-7.80140399932861

> <r_i_glide_erotb>
0.217867498778286

> <r_i_glide_esite>
0

> <r_i_glide_emodel>
-92.6034487031972

> <r_i_glide_energy>
-59.5400705337524

> <r_i_glide_einternal>
3.94710683822632

> <i_i_glide_confnum>
17

> <i_i_glide_posenum>
104

> <r_i_glide_eff_state_penalty>
0

> <i_f3d_flags>
0

> <s_user_duplicate_titles>
159846

> <s_m_subgroup_title>
dock_pv

> <s_m_subgroupid>
dock_pv1

> <b_m_subgroup_collapsed>
0

$$$$
322388
                    3D
 Schrodinger Suite 2021-1.
 59 65  0  0  1  0            999 V2000
   40.8314   52.4287   32.3318 C   0  0  0  0  0  0
   41.2870   53.8634   32.6595 C   0  0  0  0  0  0
   42.6159   53.9975   33.4897 C   0  0  2  0  0  0
   42.2381   54.8976   34.6871 C   0  0  0  0  0  0
   40.8504   55.4091   34.3223 C   0  0  1  0  0  0
   40.3340   54.3376   33.5998 O   0  0  0  0  0  0
   39.9283   55.7660   35.4030 N   0  0  0  0  0  0
   40.2379   56.0715   36.7375 C   0  0  0  0  0  0
   41.4718   56.2141   37.4044 C   0  0  0  0  0  0
   41.4570   56.4766   38.7712 C   0  0  0  0  0  0
   40.2702   56.6055   39.4764 C   0  0  0  0  0  0
   39.0441   56.4939   38.8324 C   0  0  0  0  0  0
   39.0064   56.2457   37.4466 C   0  0  0  0  0  0
   37.9473   56.1253   36.5188 C   0  0  0  0  0  0
   38.5462   55.9019   35.2623 C   0  0  0  0  0  0
   37.7398   55.8302   34.1167 C   0  0  0  0  0  0
   36.3383   55.9216   34.1942 C   0  0  0  0  0  0
   35.8363   55.8383   32.8835 C   0  0  0  0  0  0
   34.5398   55.8733   32.3389 C   0  0  0  0  0  0
   34.3946   55.7689   30.9549 C   0  0  0  0  0  0
   35.5039   55.6192   30.1283 C   0  0  0  0  0  0
   36.8014   55.5719   30.6433 C   0  0  0  0  0  0
   36.9512   55.6899   32.0204 C   0  0  0  0  0  0
   38.0924   55.6747   32.7979 N   0  0  0  0  0  0
   35.7482   56.0651   35.4481 C   0  0  0  0  0  0
   36.5362   56.1914   36.5862 C   0  0  0  0  0  0
   35.6264   56.4140   37.7432 C   0  0  0  0  0  0
   35.9010   56.6368   38.9112 O   0  0  0  0  0  0
   34.3894   56.3681   37.2369 N   0  0  0  0  0  0
   34.3013   56.1566   35.8092 C   0  0  0  0  0  0
   43.8440   54.5987   32.7324 C   0  0  0  0  0  0
   44.1493   53.9719   31.4970 O   0  0  0  0  0  0
   43.1003   52.7727   34.0370 O   0  0  0  0  0  0
   41.1491   54.7562   31.4051 C   0  0  0  0  0  0
   40.9005   56.3022   33.6954 H   0  0  0  0  0  0
   39.0374   55.5333   32.4666 H   0  0  0  0  0  0
   41.5544   51.9111   31.7031 H   0  0  0  0  0  0
   40.6984   51.8438   33.2367 H   0  0  0  0  0  0
   39.8723   52.4190   31.8131 H   0  0  0  0  0  0
   42.9220   55.7304   34.8451 H   0  0  0  0  0  0
   42.1612   54.3095   35.6052 H   0  0  0  0  0  0
   42.4265   56.1329   36.9159 H   0  0  0  0  0  0
   42.3959   56.5782   39.2973 H   0  0  0  0  0  0
   40.2951   56.7946   40.5412 H   0  0  0  0  0  0
   38.1548   56.6043   39.4249 H   0  0  0  0  0  0
   33.6713   55.9734   32.9696 H   0  0  0  0  0  0
   33.4082   55.7926   30.5143 H   0  0  0  0  0  0
   35.3573   55.5089   29.0625 H   0  0  0  0  0  0
   37.6646   55.4123   30.0205 H   0  0  0  0  0  0
   33.5843   56.5921   37.8179 H   0  0  0  0  0  0
   33.8096   57.0010   35.3263 H   0  0  0  0  0  0
   33.7357   55.2506   35.5838 H   0  0  0  0  0  0
   43.6673   55.6535   32.5137 H   0  0  0  0  0  0
   44.7373   54.5748   33.3610 H   0  0  0  0  0  0
   44.3013   53.0237   31.6475 H   0  0  0  0  0  0
   43.3347   52.1506   33.3285 H   0  0  0  0  0  0
   41.7543   54.3717   30.5852 H   0  0  0  0  0  0
   40.1206   54.7845   31.0424 H   0  0  0  0  0  0
   41.4542   55.7820   31.6058 H   0  0  0  0  0  0
  1  2  1  0  0  0
  1 37  1  0  0  0
  1 38  1  0  0  0
  1 39  1  0  0  0
  2  6  1  0  0  0
  2  3  1  0  0  0
  2 34  1  0  0  0
  3  4  1  0  0  0
  3 31  1  0  0  0
  3 33  1  0  0  0
  4  5  1  0  0  0
  4 40  1  0  0  0
  4 41  1  0  0  0
  5 35  1  0  0  0
  5  6  1  0  0  0
  5  7  1  0  0  0
  7 15  1  0  0  0
  7  8  1  0  0  0
  8 13  2  0  0  0
  8  9  1  0  0  0
  9 10  2  0  0  0
  9 42  1  0  0  0
 10 11  1  0  0  0
 10 43  1  0  0  0
 11 12  2  0  0  0
 11 44  1  0  0  0
 12 13  1  0  0  0
 12 45  1  0  0  0
 13 14  1  0  0  0
 14 26  2  0  0  0
 14 15  1  0  0  0
 15 16  2  0  0  0
 16 24  1  0  0  0
 16 17  1  0  0  0
 17 18  1  0  0  0
 17 25  2  0  0  0
 18 23  2  0  0  0
 18 19  1  0  0  0
 19 20  2  0  0  0
 19 46  1  0  0  0
 20 21  1  0  0  0
 20 47  1  0  0  0
 21 22  2  0  0  0
 21 48  1  0  0  0
 22 23  1  0  0  0
 22 49  1  0  0  0
 23 24  1  0  0  0
 24 36  1  0  0  0
 25 30  1  0  0  0
 25 26  1  0  0  0
 26 27  1  0  0  0
 27 28  2  0  0  0
 27 29  1  0  0  0
 29 30  1  0  0  0
 29 50  1  0  0  0
 30 51  1  0  0  0
 30 52  1  0  0  0
 31 32  1  0  0  0
 31 53  1  0  0  0
 31 54  1  0  0  0
 32 55  1  0  0  0
 33 56  1  0  0  0
 34 57  1  0  0  0
 34 58  1  0  0  0
 34 59  1  0  0  0
M  END
> <s_m_entry_id>
4271

> <s_m_entry_name>
ligand_docking-pose.41

> <s_m_Source_Path>
/home/csk/Desktop/cluster/DUD-E-result/kpcb

> <s_m_Source_File>
ligand_docking-pose.sdf

> <i_m_Source_File_Index>
41

> <i_lp_mmshare_version>
53161

> <r_lp_tautomer_probability>
1

> <s_lp_Force_Field>
OPLS_2005

> <r_lp_Energy>
115.846876

> <b_lp_Chiralities_Consistent>
1

> <s_lp_Variant>
322388-1

> <s_i_glide_gridfile>
glide-grid_2i0e

> <i_i_glide_lignum>
325

> <i_i_glide_rotatable_bonds>
4

> <r_i_docking_score>
-9.47511560620418

> <r_i_glide_ligand_efficiency>
-0.278679870770711

> <r_i_glide_ligand_efficiency_sa>
-0.902814597066063

> <r_i_glide_ligand_efficiency_ln>
-2.0933188054011

> <r_i_glide_gscore>
-9.47511560620418

> <r_i_glide_lipo>
-2.99711606984372

> <r_i_glide_hbond>
-0.64

> <r_i_glide_metal>
0

> <r_i_glide_rewards>
-1.68763451256396

> <r_i_glide_evdw>
-41.2406387329102

> <r_i_glide_ecoul>
-14.7904634475708

> <r_i_glide_erotb>
0.135554152381816

> <r_i_glide_esite>
-0.00531772239718772

> <r_i_glide_emodel>
-86.2452521452088

> <r_i_glide_energy>
-56.031102180481

> <r_i_glide_einternal>
4.41252899169922

> <i_i_glide_confnum>
11

> <i_i_glide_posenum>
195

> <r_i_glide_eff_state_penalty>
0

> <i_f3d_flags>
0

> <s_user_duplicate_titles>
322388

> <s_m_subgroup_title>
dock_pv

> <s_m_subgroupid>
dock_pv1

> <b_m_subgroup_collapsed>
0

$$$$
35188
                    3D
 Schrodinger Suite 2021-1.
 44 50  0  0  1  0            999 V2000
   34.0593   55.6312   31.4926 C   0  0  0  0  0  0
   35.0456   55.5721   30.5154 C   0  0  0  0  0  0
   36.4016   55.6440   30.8338 C   0  0  0  0  0  0
   36.7485   55.8108   32.1844 C   0  0  0  0  0  0
   35.7515   55.8823   33.1909 C   0  0  0  0  0  0
   34.3948   55.7750   32.8356 C   0  0  0  0  0  0
   36.4023   56.0600   34.4213 C   0  0  0  0  0  0
   35.9237   56.1795   35.7307 C   0  0  0  0  0  0
   36.7889   56.3756   36.7971 C   0  0  0  0  0  0
   38.1836   56.4274   36.5885 C   0  0  0  0  0  0
   39.3039   56.5486   37.4434 C   0  0  0  0  0  0
   39.4517   56.6313   38.8420 C   0  0  0  0  0  0
   40.7258   56.7427   39.3884 C   0  0  0  0  0  0
   41.8510   56.7774   38.5760 C   0  0  0  0  0  0
   41.7542   56.7006   37.1885 C   0  0  0  0  0  0
   40.4710   56.5715   36.6281 C   0  0  0  0  0  0
   40.0715   56.4465   35.3019 N   0  0  0  0  0  0
   38.6818   56.3290   35.2581 C   0  0  0  0  0  0
   37.7933   56.1297   34.1736 C   0  0  0  0  0  0
   37.9928   55.9350   32.7996 N   0  0  0  0  0  0
   39.2366   55.9073   32.0379 C   0  0  0  0  0  0
   40.6571   55.1158   32.9473 S   0  0  0  0  0  0
   40.1765   53.9197   33.6461 O   0  0  0  0  0  0
   41.8018   55.0453   32.0366 O   0  0  0  0  0  0
   41.0020   56.4639   34.1841 C   0  0  0  0  0  0
   35.9666   56.5269   38.0444 C   0  0  0  0  0  0
   36.3037   56.7720   39.2016 O   0  0  0  0  0  0
   34.7014   56.3718   37.6365 N   0  0  0  0  0  0
   34.5130   56.1395   36.2218 C   0  0  0  0  0  0
   33.0205   55.5648   31.2017 H   0  0  0  0  0  0
   34.7532   55.4528   29.4812 H   0  0  0  0  0  0
   37.1426   55.5725   30.0520 H   0  0  0  0  0  0
   33.6164   55.8166   33.5815 H   0  0  0  0  0  0
   38.6103   56.5889   39.5117 H   0  0  0  0  0  0
   40.8411   56.7966   40.4614 H   0  0  0  0  0  0
   42.8267   56.8625   39.0318 H   0  0  0  0  0  0
   42.6510   56.7273   36.5876 H   0  0  0  0  0  0
   39.1072   55.3089   31.1370 H   0  0  0  0  0  0
   39.5204   56.9169   31.7499 H   0  0  0  0  0  0
   40.9647   57.4285   33.6821 H   0  0  0  0  0  0
   42.0175   56.2853   34.5299 H   0  0  0  0  0  0
   33.9181   56.5718   38.2555 H   0  0  0  0  0  0
   33.8963   56.9261   35.7877 H   0  0  0  0  0  0
   34.0215   55.1805   36.0492 H   0  0  0  0  0  0
  1  6  1  0  0  0
  1  2  2  0  0  0
  1 30  1  0  0  0
  2  3  1  0  0  0
  2 31  1  0  0  0
  3  4  2  0  0  0
  3 32  1  0  0  0
  4 20  1  0  0  0
  4  5  1  0  0  0
  5  6  2  0  0  0
  5  7  1  0  0  0
  6 33  1  0  0  0
  7 19  2  0  0  0
  7  8  1  0  0  0
  8 29  1  0  0  0
  8  9  2  0  0  0
  9 10  1  0  0  0
  9 26  1  0  0  0
 10 18  2  0  0  0
 10 11  1  0  0  0
 11 16  2  0  0  0
 11 12  1  0  0  0
 12 13  2  0  0  0
 12 34  1  0  0  0
 13 14  1  0  0  0
 13 35  1  0  0  0
 14 15  2  0  0  0
 14 36  1  0  0  0
 15 16  1  0  0  0
 15 37  1  0  0  0
 16 17  1  0  0  0
 17 25  1  0  0  0
 17 18  1  0  0  0
 18 19  1  0  0  0
 19 20  1  0  0  0
 20 21  1  0  0  0
 21 22  1  0  0  0
 21 38  1  0  0  0
 21 39  1  0  0  0
 22 23  2  0  0  0
 22 24  2  0  0  0
 22 25  1  0  0  0
 25 40  1  0  0  0
 25 41  1  0  0  0
 26 27  2  0  0  0
 26 28  1  0  0  0
 28 29  1  0  0  0
 28 42  1  0  0  0
 29 43  1  0  0  0
 29 44  1  0  0  0
M  END
> <s_m_entry_id>
4272

> <s_m_entry_name>
ligand_docking-pose.42

> <s_m_Source_Path>
/home/csk/Desktop/cluster/DUD-E-result/kpcb

> <s_m_Source_File>
ligand_docking-pose.sdf

> <i_m_Source_File_Index>
42

> <i_lp_mmshare_version>
53161

> <r_lp_tautomer_probability>
1

> <s_lp_Force_Field>
OPLS_2005

> <r_lp_Energy>
102.970399

> <b_lp_Chiralities_Consistent>
1

> <s_lp_Variant>
35188-1

> <s_i_glide_gridfile>
glide-grid_2i0e

> <i_i_glide_lignum>
23

> <i_i_glide_rotatable_bonds>
0

> <r_i_docking_score>
-9.46889205195544

> <r_i_glide_ligand_efficiency>
-0.326513519032946

> <r_i_glide_ligand_efficiency_sa>
-1.00315297721285

> <r_i_glide_ligand_efficiency_ln>
-2.16813616951265

> <r_i_glide_gscore>
-9.46889205195544

> <r_i_glide_lipo>
-3.24199328648684

> <r_i_glide_hbond>
-0.608

> <r_i_glide_metal>
0

> <r_i_glide_rewards>
-2.2629677536409

> <r_i_glide_evdw>
-43.3322143554688

> <r_i_glide_ecoul>
-7.72654628753662

> <r_i_glide_erotb>
0

> <r_i_glide_esite>
-0.0303383509237748

> <r_i_glide_emodel>
-76.6176757498242

> <r_i_glide_energy>
-51.0587606430054

> <r_i_glide_einternal>
0

> <i_i_glide_confnum>
1

> <i_i_glide_posenum>
202

> <r_i_glide_eff_state_penalty>
0

> <i_f3d_flags>
0

> <s_user_duplicate_titles>
35188

> <s_m_subgroup_title>
dock_pv

> <s_m_subgroupid>
dock_pv1

> <b_m_subgroup_collapsed>
0

$$$$
159845
                    3D
 Schrodinger Suite 2021-1.
 48 53  0  0  1  0            999 V2000
   41.5449   56.3833   39.1564 C   0  0  0  0  0  0
   40.5394   56.5509   38.1190 N   0  0  0  0  0  0
   39.1891   56.3735   38.2919 C   0  0  0  0  0  0
   38.5072   56.5406   37.0964 C   0  0  0  0  0  0
   39.5120   56.9391   36.1365 C   0  0  0  0  0  0
   40.7807   56.8828   36.7979 C   0  0  0  0  0  0
   41.9827   57.1502   36.1283 C   0  0  0  0  0  0
   41.9001   57.4927   34.7794 C   0  0  0  0  0  0
   40.6821   57.6043   34.1230 C   0  0  0  0  0  0
   39.4891   57.3464   34.7905 C   0  0  0  0  0  0
   37.0578   56.3497   36.9074 C   0  0  0  0  0  0
   36.3613   55.9941   35.8131 C   0  0  0  0  0  0
   34.9616   55.9991   36.1390 C   0  0  0  0  0  0
   33.9924   55.7452   35.4253 O   0  0  0  0  0  0
   34.9126   56.3483   37.4256 N   0  0  0  0  0  0
   36.1126   56.5576   37.9728 C   0  0  0  0  0  0
   36.3143   56.8768   39.1434 O   0  0  0  0  0  0
   36.8318   55.5742   34.4937 C   0  0  0  0  0  0
   36.3646   56.0444   33.2124 C   0  0  0  0  0  0
   35.3934   56.9757   32.8067 C   0  0  0  0  0  0
   35.1656   57.1709   31.4474 C   0  0  0  0  0  0
   35.9006   56.4793   30.4893 C   0  0  0  0  0  0
   36.8983   55.5723   30.8387 C   0  0  0  0  0  0
   37.1134   55.3584   32.2050 C   0  0  0  0  0  0
   37.9770   54.5092   32.8662 N   0  0  0  0  0  0
   37.8078   54.6252   34.2248 C   0  0  0  0  0  0
   38.7876   53.6930   34.9051 C   0  0  0  0  0  0
   39.7470   53.3588   33.7571 C   0  0  0  0  0  0
   38.8727   53.4262   32.5071 C   0  0  0  0  0  0
   41.0722   56.1844   40.1191 H   0  0  0  0  0  0
   42.1951   55.5479   38.8946 H   0  0  0  0  0  0
   42.1412   57.2927   39.2322 H   0  0  0  0  0  0
   38.8153   56.0872   39.2666 H   0  0  0  0  0  0
   42.9398   57.0981   36.6265 H   0  0  0  0  0  0
   42.8103   57.7006   34.2348 H   0  0  0  0  0  0
   40.6623   57.8939   33.0817 H   0  0  0  0  0  0
   38.5560   57.4556   34.2651 H   0  0  0  0  0  0
   34.0475   56.4553   37.9383 H   0  0  0  0  0  0
   34.8095   57.5153   33.5374 H   0  0  0  0  0  0
   34.4013   57.8661   31.1320 H   0  0  0  0  0  0
   35.6921   56.6475   29.4436 H   0  0  0  0  0  0
   37.4616   55.0428   30.0825 H   0  0  0  0  0  0
   39.3258   54.1505   35.7345 H   0  0  0  0  0  0
   38.3009   52.7996   35.2953 H   0  0  0  0  0  0
   40.5434   54.1046   33.6985 H   0  0  0  0  0  0
   40.2256   52.3853   33.8807 H   0  0  0  0  0  0
   39.3998   53.6149   31.5709 H   0  0  0  0  0  0
   38.3040   52.5001   32.4006 H   0  0  0  0  0  0
  1  2  1  0  0  0
  1 30  1  0  0  0
  1 31  1  0  0  0
  1 32  1  0  0  0
  2  6  1  0  0  0
  2  3  1  0  0  0
  3  4  2  0  0  0
  3 33  1  0  0  0
  4  5  1  0  0  0
  4 11  1  0  0  0
  5 10  2  0  0  0
  5  6  1  0  0  0
  6  7  2  0  0  0
  7  8  1  0  0  0
  7 34  1  0  0  0
  8  9  2  0  0  0
  8 35  1  0  0  0
  9 10  1  0  0  0
  9 36  1  0  0  0
 10 37  1  0  0  0
 11 16  1  0  0  0
 11 12  2  0  0  0
 12 13  1  0  0  0
 12 18  1  0  0  0
 13 14  2  0  0  0
 13 15  1  0  0  0
 15 16  1  0  0  0
 15 38  1  0  0  0
 16 17  2  0  0  0
 18 26  2  0  0  0
 18 19  1  0  0  0
 19 24  2  0  0  0
 19 20  1  0  0  0
 20 21  2  0  0  0
 20 39  1  0  0  0
 21 22  1  0  0  0
 21 40  1  0  0  0
 22 23  2  0  0  0
 22 41  1  0  0  0
 23 24  1  0  0  0
 23 42  1  0  0  0
 24 25  1  0  0  0
 25 29  1  0  0  0
 25 26  1  0  0  0
 26 27  1  0  0  0
 27 28  1  0  0  0
 27 43  1  0  0  0
 27 44  1  0  0  0
 28 29  1  0  0  0
 28 45  1  0  0  0
 28 46  1  0  0  0
 29 47  1  0  0  0
 29 48  1  0  0  0
M  END
> <s_m_entry_id>
4274

> <s_m_entry_name>
ligand_docking-pose.44

> <s_m_Source_Path>
/home/csk/Desktop/cluster/DUD-E-result/kpcb

> <s_m_Source_File>
ligand_docking-pose.sdf

> <i_m_Source_File_Index>
44

> <i_lp_mmshare_version>
53161

> <r_lp_tautomer_probability>
1

> <s_lp_Force_Field>
OPLS_2005

> <r_lp_Energy>
41.858086

> <b_lp_Chiralities_Consistent>
1

> <s_lp_Variant>
159845-1

> <s_i_glide_gridfile>
glide-grid_2i0e

> <i_i_glide_lignum>
419

> <i_i_glide_rotatable_bonds>
2

> <r_i_docking_score>
-9.46339808770036

> <r_i_glide_ligand_efficiency>
-0.326324071989668

> <r_i_glide_ligand_efficiency_sa>
-1.00257093587486

> <r_i_glide_ligand_efficiency_ln>
-2.16687819101315

> <r_i_glide_gscore>
-9.46339808770036

> <r_i_glide_lipo>
-2.86821892910574

> <r_i_glide_hbond>
-0.608

> <r_i_glide_metal>
0

> <r_i_glide_rewards>
-2.82836665455969

> <r_i_glide_evdw>
-46.2705192565918

> <r_i_glide_ecoul>
-6.88050889968872

> <r_i_glide_erotb>
0.186789793747959

> <r_i_glide_esite>
0

> <r_i_glide_emodel>
-84.0187272875173

> <r_i_glide_energy>
-53.1510281562805

> <r_i_glide_einternal>
0.484011024236679

> <i_i_glide_confnum>
6

> <i_i_glide_posenum>
2

> <r_i_glide_eff_state_penalty>
0

> <i_f3d_flags>
0

> <s_user_duplicate_titles>
159845

> <s_m_subgroup_title>
dock_pv

> <s_m_subgroupid>
dock_pv1

> <b_m_subgroup_collapsed>
0

$$$$
159970
                    3D
 Schrodinger Suite 2021-1.
 51 56  0  0  1  0            999 V2000
   41.5409   56.6048   39.1321 C   0  0  0  0  0  0
   40.5379   56.7356   38.0886 N   0  0  0  0  0  0
   39.1861   56.5743   38.2667 C   0  0  0  0  0  0
   38.5096   56.6799   37.0612 C   0  0  0  0  0  0
   39.5179   57.0341   36.0866 C   0  0  0  0  0  0
   40.7851   56.9823   36.7497 C   0  0  0  0  0  0
   41.9921   57.1719   36.0635 C   0  0  0  0  0  0
   41.9141   57.4569   34.7011 C   0  0  0  0  0  0
   40.6980   57.5797   34.0451 C   0  0  0  0  0  0
   39.5011   57.3859   34.7244 C   0  0  0  0  0  0
   37.0658   56.4382   36.8739 C   0  0  0  0  0  0
   36.3852   56.0180   35.7924 C   0  0  0  0  0  0
   34.9877   55.9641   36.1269 C   0  0  0  0  0  0
   34.0304   55.6301   35.4293 O   0  0  0  0  0  0
   34.9240   56.3621   37.3982 N   0  0  0  0  0  0
   36.1140   56.6393   37.9349 C   0  0  0  0  0  0
   36.3020   57.0033   39.0947 O   0  0  0  0  0  0
   36.8709   55.5894   34.4754 C   0  0  0  0  0  0
   36.3403   56.0124   33.2098 C   0  0  0  0  0  0
   35.2998   56.8757   32.8157 C   0  0  0  0  0  0
   35.0271   57.0380   31.4611 C   0  0  0  0  0  0
   35.7888   56.3888   30.4964 C   0  0  0  0  0  0
   36.8641   55.5722   30.8372 C   0  0  0  0  0  0
   37.1139   55.3726   32.2010 C   0  0  0  0  0  0
   38.0638   54.5935   32.8383 N   0  0  0  0  0  0
   37.8988   54.6797   34.2200 C   0  0  0  0  0  0
   38.7226   53.8002   35.1652 C   0  0  0  0  0  0
   40.0109   53.3199   34.4770 C   0  0  0  0  0  0
   39.7013   52.7700   33.0806 C   0  0  0  0  0  0
   39.1385   53.8589   32.1536 C   0  0  0  0  0  0
   41.0668   56.5290   40.1106 H   0  0  0  0  0  0
   42.1368   55.7083   38.9478 H   0  0  0  0  0  0
   42.1913   57.4808   39.1214 H   0  0  0  0  0  0
   38.8100   56.3281   39.2512 H   0  0  0  0  0  0
   42.9493   57.1165   36.5616 H   0  0  0  0  0  0
   42.8305   57.6117   34.1477 H   0  0  0  0  0  0
   40.6827   57.8252   32.9910 H   0  0  0  0  0  0
   38.5672   57.4920   34.1967 H   0  0  0  0  0  0
   34.0571   56.4419   37.9116 H   0  0  0  0  0  0
   34.7028   57.3910   33.5518 H   0  0  0  0  0  0
   34.2107   57.6738   31.1526 H   0  0  0  0  0  0
   35.5445   56.5234   29.4526 H   0  0  0  0  0  0
   37.4523   55.0862   30.0704 H   0  0  0  0  0  0
   38.9713   54.2967   36.0994 H   0  0  0  0  0  0
   38.1332   52.9309   35.4491 H   0  0  0  0  0  0
   40.7265   54.1407   34.4046 H   0  0  0  0  0  0
   40.4935   52.5493   35.0821 H   0  0  0  0  0  0
   40.5945   52.3250   32.6365 H   0  0  0  0  0  0
   38.9679   51.9685   33.1590 H   0  0  0  0  0  0
   38.7648   53.4232   31.2261 H   0  0  0  0  0  0
   39.9169   54.5768   31.8863 H   0  0  0  0  0  0
  1  2  1  0  0  0
  1 31  1  0  0  0
  1 32  1  0  0  0
  1 33  1  0  0  0
  2  6  1  0  0  0
  2  3  1  0  0  0
  3  4  2  0  0  0
  3 34  1  0  0  0
  4  5  1  0  0  0
  4 11  1  0  0  0
  5 10  2  0  0  0
  5  6  1  0  0  0
  6  7  2  0  0  0
  7  8  1  0  0  0
  7 35  1  0  0  0
  8  9  2  0  0  0
  8 36  1  0  0  0
  9 10  1  0  0  0
  9 37  1  0  0  0
 10 38  1  0  0  0
 11 16  1  0  0  0
 11 12  2  0  0  0
 12 13  1  0  0  0
 12 18  1  0  0  0
 13 14  2  0  0  0
 13 15  1  0  0  0
 15 16  1  0  0  0
 15 39  1  0  0  0
 16 17  2  0  0  0
 18 26  2  0  0  0
 18 19  1  0  0  0
 19 24  2  0  0  0
 19 20  1  0  0  0
 20 21  2  0  0  0
 20 40  1  0  0  0
 21 22  1  0  0  0
 21 41  1  0  0  0
 22 23  2  0  0  0
 22 42  1  0  0  0
 23 24  1  0  0  0
 23 43  1  0  0  0
 24 25  1  0  0  0
 25 30  1  0  0  0
 25 26  1  0  0  0
 26 27  1  0  0  0
 27 28  1  0  0  0
 27 44  1  0  0  0
 27 45  1  0  0  0
 28 29  1  0  0  0
 28 46  1  0  0  0
 28 47  1  0  0  0
 29 30  1  0  0  0
 29 48  1  0  0  0
 29 49  1  0  0  0
 30 50  1  0  0  0
 30 51  1  0  0  0
M  END
> <s_m_entry_id>
4276

> <s_m_entry_name>
ligand_docking-pose.46

> <s_m_Source_Path>
/home/csk/Desktop/cluster/DUD-E-result/kpcb

> <s_m_Source_File>
ligand_docking-pose.sdf

> <i_m_Source_File_Index>
46

> <i_lp_mmshare_version>
53161

> <r_lp_tautomer_probability>
1

> <s_lp_Force_Field>
OPLS_2005

> <r_lp_Energy>
30.024584

> <b_lp_Chiralities_Consistent>
1

> <s_lp_Variant>
159970-1

> <s_i_glide_gridfile>
glide-grid_2i0e

> <i_i_glide_lignum>
422

> <i_i_glide_rotatable_bonds>
2

> <r_i_docking_score>
-9.44310040775922

> <r_i_glide_ligand_efficiency>
-0.314770013591974

> <r_i_glide_ligand_efficiency_sa>
-0.978063617023658

> <r_i_glide_ligand_efficiency_ln>
-2.14557530346275

> <r_i_glide_gscore>
-9.44310040775922

> <r_i_glide_lipo>
-2.88972358511137

> <r_i_glide_hbond>
-0.608

> <r_i_glide_metal>
0

> <r_i_glide_rewards>
-2.73555041505454

> <r_i_glide_evdw>
-48.0696601867676

> <r_i_glide_ecoul>
-6.54271507263184

> <r_i_glide_erotb>
0.175063862639834

> <r_i_glide_esite>
0

> <r_i_glide_emodel>
-85.4919780897688

> <r_i_glide_energy>
-54.6123752593994

> <r_i_glide_einternal>
1.46511089801788

> <i_i_glide_confnum>
10

> <i_i_glide_posenum>
188

> <r_i_glide_eff_state_penalty>
0

> <i_f3d_flags>
0

> <s_user_duplicate_titles>
159970

> <s_m_subgroup_title>
dock_pv

> <s_m_subgroupid>
dock_pv1

> <b_m_subgroup_collapsed>
0

$$$$
676877
                    3D
 Schrodinger Suite 2021-1.
 59 64  0  0  1  0            999 V2000
   43.1905   53.3411   34.4703 C   0  0  0  0  0  0
   42.5226   53.5380   35.7503 N   0  0  1  0  0  0
   41.1460   53.0434   35.7740 C   0  0  0  0  0  0
   40.1799   53.7318   34.7706 C   0  0  1  0  0  0
   39.9770   52.9570   33.4476 C   0  0  0  0  0  0
   39.1580   53.7602   32.4025 C   0  0  0  0  0  0
   38.0926   54.5512   33.0522 N   0  0  0  0  0  0
   37.1682   55.3473   32.3905 C   0  0  0  0  0  0
   36.9530   55.5609   31.0212 C   0  0  0  0  0  0
   35.9010   56.4012   30.6603 C   0  0  0  0  0  0
   35.1216   57.0534   31.6095 C   0  0  0  0  0  0
   35.3603   56.8787   32.9696 C   0  0  0  0  0  0
   36.3850   56.0071   33.3816 C   0  0  0  0  0  0
   36.9085   55.6110   34.6571 C   0  0  0  0  0  0
   37.9170   54.6824   34.4265 C   0  0  0  0  0  0
   38.7767   53.8690   35.3901 C   0  0  0  0  0  0
   36.4757   56.0928   35.9697 C   0  0  0  0  0  0
   37.2115   56.5416   37.0033 C   0  0  0  0  0  0
   36.3165   56.7718   38.1032 C   0  0  0  0  0  0
   36.5684   57.1715   39.2369 O   0  0  0  0  0  0
   35.1006   56.4723   37.6375 N   0  0  0  0  0  0
   35.0976   56.0629   36.3664 C   0  0  0  0  0  0
   34.1071   55.7358   35.7165 O   0  0  0  0  0  0
   38.6642   56.7724   37.1088 C   0  0  0  0  0  0
   39.4168   56.6498   38.2663 C   0  0  0  0  0  0
   40.7573   56.7696   37.9947 N   0  0  0  0  0  0
   40.9191   57.0167   36.6434 C   0  0  0  0  0  0
   39.6113   57.1089   36.0715 C   0  0  0  0  0  0
   39.5068   57.4595   34.7142 C   0  0  0  0  0  0
   40.6597   57.6245   33.9513 C   0  0  0  0  0  0
   41.9160   57.4652   34.5211 C   0  0  0  0  0  0
   42.0800   57.1719   35.8739 C   0  0  0  0  0  0
   41.8271   56.5768   38.9602 C   0  0  0  0  0  0
   44.2465   53.5984   34.5643 H   0  0  0  0  0  0
   43.1323   52.3038   34.1398 H   0  0  0  0  0  0
   42.7647   53.9831   33.6988 H   0  0  0  0  0  0
   43.0696   53.0853   36.4777 H   0  0  0  0  0  0
   41.1425   51.9682   35.6301 H   0  0  0  0  0  0
   40.7860   53.1886   36.7937 H   0  0  0  0  0  0
   40.5768   54.7286   34.5662 H   0  0  0  0  0  0
   40.9417   52.6997   33.0105 H   0  0  0  0  0  0
   39.5284   51.9821   33.6464 H   0  0  0  0  0  0
   39.8015   54.4502   31.8542 H   0  0  0  0  0  0
   38.7101   53.1010   31.6570 H   0  0  0  0  0  0
   37.5526   55.0703   30.2669 H   0  0  0  0  0  0
   35.6909   56.5559   29.6123 H   0  0  0  0  0  0
   34.3232   57.7052   31.2842 H   0  0  0  0  0  0
   34.7567   57.3991   33.6980 H   0  0  0  0  0  0
   38.3283   52.8889   35.5556 H   0  0  0  0  0  0
   38.8340   54.3199   36.3766 H   0  0  0  0  0  0
   34.2532   56.5691   38.1822 H   0  0  0  0  0  0
   39.1020   56.4048   39.2715 H   0  0  0  0  0  0
   38.5424   57.5724   34.2493 H   0  0  0  0  0  0
   40.5778   57.8644   32.9006 H   0  0  0  0  0  0
   42.7945   57.5870   33.9038 H   0  0  0  0  0  0
   43.0676   57.0753   36.3007 H   0  0  0  0  0  0
   42.3385   55.6379   38.7431 H   0  0  0  0  0  0
   42.5369   57.4007   38.8844 H   0  0  0  0  0  0
   41.4258   56.5464   39.9736 H   0  0  0  0  0  0
  1  2  1  0  0  0
  1 34  1  0  0  0
  1 35  1  0  0  0
  1 36  1  0  0  0
  2  3  1  0  0  0
  2 37  1  0  0  0
  3  4  1  0  0  0
  3 38  1  0  0  0
  3 39  1  0  0  0
  4 16  1  0  0  0
  4  5  1  0  0  0
  4 40  1  0  0  0
  5  6  1  0  0  0
  5 41  1  0  0  0
  5 42  1  0  0  0
  6  7  1  0  0  0
  6 43  1  0  0  0
  6 44  1  0  0  0
  7 15  1  0  0  0
  7  8  1  0  0  0
  8 13  2  0  0  0
  8  9  1  0  0  0
  9 10  2  0  0  0
  9 45  1  0  0  0
 10 11  1  0  0  0
 10 46  1  0  0  0
 11 12  2  0  0  0
 11 47  1  0  0  0
 12 13  1  0  0  0
 12 48  1  0  0  0
 13 14  1  0  0  0
 14 15  2  0  0  0
 14 17  1  0  0  0
 15 16  1  0  0  0
 16 49  1  0  0  0
 16 50  1  0  0  0
 17 22  1  0  0  0
 17 18  2  0  0  0
 18 19  1  0  0  0
 18 24  1  0  0  0
 19 20  2  0  0  0
 19 21  1  0  0  0
 21 22  1  0  0  0
 21 51  1  0  0  0
 22 23  2  0  0  0
 24 28  1  0  0  0
 24 25  2  0  0  0
 25 26  1  0  0  0
 25 52  1  0  0  0
 26 27  1  0  0  0
 26 33  1  0  0  0
 27 32  1  0  0  0
 27 28  2  0  0  0
 28 29  1  0  0  0
 29 30  2  0  0  0
 29 53  1  0  0  0
 30 31  1  0  0  0
 30 54  1  0  0  0
 31 32  2  0  0  0
 31 55  1  0  0  0
 32 56  1  0  0  0
 33 57  1  0  0  0
 33 58  1  0  0  0
 33 59  1  0  0  0
M  END
> <s_m_entry_id>
4277

> <s_m_entry_name>
ligand_docking-pose.47

> <s_m_Source_Path>
/home/csk/Desktop/cluster/DUD-E-result/kpcb

> <s_m_Source_File>
ligand_docking-pose.sdf

> <i_m_Source_File_Index>
47

> <i_lp_mmshare_version>
53161

> <r_lp_tautomer_probability>
1

> <s_lp_Force_Field>
OPLS_2005

> <r_lp_Energy>
34.238944

> <b_lp_Chiralities_Consistent>
1

> <s_lp_Variant>
676877-2

> <s_i_glide_gridfile>
glide-grid_2i0e

> <i_i_glide_lignum>
505

> <i_i_glide_rotatable_bonds>
4

> <r_i_docking_score>
-9.44002141253999

> <r_i_glide_ligand_efficiency>
-0.286061254925454

> <r_i_glide_ligand_efficiency_sa>
-0.917551294585674

> <r_i_glide_ligand_efficiency_ln>
-2.0994118843339

> <r_i_glide_gscore>
-9.44002141253999

> <r_i_glide_lipo>
-2.91667999240345

> <r_i_glide_hbond>
-0.608

> <r_i_glide_metal>
0

> <r_i_glide_rewards>
-2.40943946872714

> <r_i_glide_evdw>
-52.2044410705566

> <r_i_glide_ecoul>
-7.42364931106567

> <r_i_glide_erotb>
0.217867498778286

> <r_i_glide_esite>
0

> <r_i_glide_emodel>
-93.3462251776685

> <r_i_glide_energy>
-59.6280903816223

> <r_i_glide_einternal>
3.05071783065796

> <i_i_glide_confnum>
39

> <i_i_glide_posenum>
152

> <r_i_glide_eff_state_penalty>
0

> <i_f3d_flags>
0

> <s_user_duplicate_titles>
676877

> <s_m_subgroup_title>
dock_pv

> <s_m_subgroupid>
dock_pv1

> <b_m_subgroup_collapsed>
0

$$$$
160532
                    3D
 Schrodinger Suite 2021-1.
 50 55  0  0  1  0            999 V2000
   41.7794   56.5224   39.0882 C   0  0  0  0  0  0
   40.7421   56.6564   38.0768 N   0  0  0  0  0  0
   39.3944   56.5150   38.3049 C   0  0  0  0  0  0
   38.6747   56.6168   37.1260 C   0  0  0  0  0  0
   39.6507   56.9462   36.1116 C   0  0  0  0  0  0
   40.9430   56.8894   36.7282 C   0  0  0  0  0  0
   42.1254   57.0668   35.9947 C   0  0  0  0  0  0
   41.9969   57.3206   34.6297 C   0  0  0  0  0  0
   40.7571   57.4466   34.0190 C   0  0  0  0  0  0
   39.5861   57.2786   34.7483 C   0  0  0  0  0  0
   37.2192   56.4030   37.0021 C   0  0  0  0  0  0
   36.4866   55.9850   35.9531 C   0  0  0  0  0  0
   35.1035   55.9699   36.3456 C   0  0  0  0  0  0
   34.1122   55.6648   35.6842 O   0  0  0  0  0  0
   35.1008   56.3724   37.6170 N   0  0  0  0  0  0
   36.3150   56.6506   38.0946 C   0  0  0  0  0  0
   36.5571   57.0435   39.2347 O   0  0  0  0  0  0
   36.9077   55.5432   34.6190 C   0  0  0  0  0  0
   36.3421   55.9711   33.3659 C   0  0  0  0  0  0
   35.2956   56.8383   33.0021 C   0  0  0  0  0  0
   34.9891   57.0085   31.6544 C   0  0  0  0  0  0
   35.7442   56.3797   30.6677 C   0  0  0  0  0  0
   36.8335   55.5718   30.9788 C   0  0  0  0  0  0
   37.0931   55.3394   32.3329 C   0  0  0  0  0  0
   38.0391   54.5366   32.9466 N   0  0  0  0  0  0
   37.9074   54.6123   34.3265 C   0  0  0  0  0  0
   38.7840   53.7140   35.2101 C   0  0  0  0  0  0
   39.9862   53.2595   34.5071 N   0  0  2  0  0  0
   39.6313   52.6792   33.2147 C   0  0  0  0  0  0
   39.1004   53.7770   32.2667 C   0  0  0  0  0  0
   41.3310   56.4287   40.0774 H   0  0  0  0  0  0
   42.3788   55.6357   38.8716 H   0  0  0  0  0  0
   42.4223   57.4026   39.0679 H   0  0  0  0  0  0
   39.0537   56.2886   39.3074 H   0  0  0  0  0  0
   43.1001   57.0112   36.4547 H   0  0  0  0  0  0
   42.8905   57.4519   34.0371 H   0  0  0  0  0  0
   40.7076   57.6681   32.9615 H   0  0  0  0  0  0
   38.6368   57.3785   34.2526 H   0  0  0  0  0  0
   34.2507   56.4744   38.1578 H   0  0  0  0  0  0
   34.7096   57.3400   33.7558 H   0  0  0  0  0  0
   34.1577   57.6393   31.3728 H   0  0  0  0  0  0
   35.4853   56.5219   29.6302 H   0  0  0  0  0  0
   37.4231   55.1271   30.1921 H   0  0  0  0  0  0
   39.0866   54.2097   36.1293 H   0  0  0  0  0  0
   38.2221   52.8389   35.5283 H   0  0  0  0  0  0
   40.4913   52.5777   35.0614 H   0  0  0  0  0  0
   40.4903   52.1586   32.7887 H   0  0  0  0  0  0
   38.8654   51.9198   33.3703 H   0  0  0  0  0  0
   38.7222   53.3479   31.3409 H   0  0  0  0  0  0
   39.9037   54.4671   32.0017 H   0  0  0  0  0  0
  1  2  1  0  0  0
  1 31  1  0  0  0
  1 32  1  0  0  0
  1 33  1  0  0  0
  2  6  1  0  0  0
  2  3  1  0  0  0
  3  4  2  0  0  0
  3 34  1  0  0  0
  4  5  1  0  0  0
  4 11  1  0  0  0
  5 10  2  0  0  0
  5  6  1  0  0  0
  6  7  2  0  0  0
  7  8  1  0  0  0
  7 35  1  0  0  0
  8  9  2  0  0  0
  8 36  1  0  0  0
  9 10  1  0  0  0
  9 37  1  0  0  0
 10 38  1  0  0  0
 11 16  1  0  0  0
 11 12  2  0  0  0
 12 13  1  0  0  0
 12 18  1  0  0  0
 13 14  2  0  0  0
 13 15  1  0  0  0
 15 16  1  0  0  0
 15 39  1  0  0  0
 16 17  2  0  0  0
 18 26  2  0  0  0
 18 19  1  0  0  0
 19 24  2  0  0  0
 19 20  1  0  0  0
 20 21  2  0  0  0
 20 40  1  0  0  0
 21 22  1  0  0  0
 21 41  1  0  0  0
 22 23  2  0  0  0
 22 42  1  0  0  0
 23 24  1  0  0  0
 23 43  1  0  0  0
 24 25  1  0  0  0
 25 30  1  0  0  0
 25 26  1  0  0  0
 26 27  1  0  0  0
 27 28  1  0  0  0
 27 44  1  0  0  0
 27 45  1  0  0  0
 28 29  1  0  0  0
 28 46  1  0  0  0
 29 30  1  0  0  0
 29 47  1  0  0  0
 29 48  1  0  0  0
 30 49  1  0  0  0
 30 50  1  0  0  0
M  END
> <s_m_entry_id>
4278

> <s_m_entry_name>
ligand_docking-pose.48

> <s_m_Source_Path>
/home/csk/Desktop/cluster/DUD-E-result/kpcb

> <s_m_Source_File>
ligand_docking-pose.sdf

> <i_m_Source_File_Index>
48

> <i_lp_mmshare_version>
53161

> <r_lp_tautomer_probability>
1

> <s_lp_Force_Field>
OPLS_2005

> <r_lp_Energy>
31.884405

> <b_lp_Chiralities_Consistent>
1

> <s_lp_Variant>
160532-1

> <s_i_glide_gridfile>
glide-grid_2i0e

> <i_i_glide_lignum>
452

> <i_i_glide_rotatable_bonds>
2

> <r_i_docking_score>
-9.4399855367663

> <r_i_glide_ligand_efficiency>
-0.314666184558877

> <r_i_glide_ligand_efficiency_sa>
-0.977740996077321

> <r_i_glide_ligand_efficiency_ln>
-2.14486757083392

> <r_i_glide_gscore>
-9.4399855367663

> <r_i_glide_lipo>
-2.85515618269346

> <r_i_glide_hbond>
-0.608

> <r_i_glide_metal>
0

> <r_i_glide_rewards>
-2.70264153903642

> <r_i_glide_evdw>
-50.0433959960938

> <r_i_glide_ecoul>
-6.30865335464478

> <r_i_glide_erotb>
0.174279987964973

> <r_i_glide_esite>
0

> <r_i_glide_emodel>
-87.988892483462

> <r_i_glide_energy>
-56.3520493507385

> <r_i_glide_einternal>
1.39967250823975

> <i_i_glide_confnum>
10

> <i_i_glide_posenum>
86

> <r_i_glide_eff_state_penalty>
0

> <i_f3d_flags>
0

> <s_user_duplicate_titles>
160532

> <s_m_subgroup_title>
dock_pv

> <s_m_subgroupid>
dock_pv1

> <b_m_subgroup_collapsed>
0

$$$$
160455
                    3D
 Schrodinger Suite 2021-1.
 56 61  0  0  1  0            999 V2000
   41.6844   56.2301   39.3011 C   0  0  0  0  0  0
   40.7152   56.4326   38.2370 N   0  0  0  0  0  0
   39.3519   56.3594   38.3850 C   0  0  0  0  0  0
   38.7082   56.5116   37.1664 C   0  0  0  0  0  0
   39.7562   56.8354   36.2225 C   0  0  0  0  0  0
   41.0050   56.7022   36.9121 C   0  0  0  0  0  0
   42.2374   56.8511   36.2612 C   0  0  0  0  0  0
   42.2074   57.1724   34.9043 C   0  0  0  0  0  0
   41.0140   57.3789   34.2248 C   0  0  0  0  0  0
   39.7902   57.2287   34.8719 C   0  0  0  0  0  0
   37.2553   56.3648   36.9508 C   0  0  0  0  0  0
   36.5738   56.0327   35.8377 C   0  0  0  0  0  0
   35.1718   56.0113   36.1569 C   0  0  0  0  0  0
   34.2145   55.7233   35.4420 O   0  0  0  0  0  0
   35.1011   56.3724   37.4396 N   0  0  0  0  0  0
   36.2936   56.5844   38.0028 C   0  0  0  0  0  0
   36.4740   56.9085   39.1761 O   0  0  0  0  0  0
   37.0579   55.5909   34.5236 C   0  0  0  0  0  0
   38.0270   54.5637   34.2592 C   0  0  0  0  0  0
   38.7608   53.6846   35.0728 C   0  0  0  0  0  0
   39.6428   52.7850   34.4802 C   0  0  0  0  0  0
   39.8060   52.7471   33.0998 C   0  0  0  0  0  0
   39.0998   53.5951   32.2482 C   0  0  0  0  0  0
   38.2052   54.5007   32.8409 C   0  0  0  0  0  0
   37.3743   55.4638   32.2843 N   0  0  0  0  0  0
   36.7019   56.1312   33.2959 C   0  0  0  0  0  0
   35.7558   57.2580   32.9349 C   0  0  0  0  0  0
   34.4778   56.7631   32.2377 C   0  0  0  0  0  0
   34.6408   55.6394   31.1915 C   0  0  2  0  0  0
   35.8531   55.7214   30.2300 C   0  0  0  0  0  0
   37.2760   55.8061   30.8534 C   0  0  0  0  0  0
   33.4055   55.6203   30.4373 N   0  0  0  0  0  0
   41.1802   56.0797   40.2559 H   0  0  0  0  0  0
   42.2949   55.3556   39.0689 H   0  0  0  0  0  0
   42.3289   57.1072   39.3710 H   0  0  0  0  0  0
   38.9437   56.1293   39.3601 H   0  0  0  0  0  0
   43.1762   56.7284   36.7800 H   0  0  0  0  0  0
   43.1431   57.3001   34.3766 H   0  0  0  0  0  0
   41.0379   57.6517   33.1796 H   0  0  0  0  0  0
   38.8787   57.4050   34.3263 H   0  0  0  0  0  0
   34.2268   56.4671   37.9383 H   0  0  0  0  0  0
   38.6521   53.7095   36.1455 H   0  0  0  0  0  0
   40.2193   52.1093   35.0967 H   0  0  0  0  0  0
   40.5002   52.0327   32.6758 H   0  0  0  0  0  0
   39.2431   53.5345   31.1792 H   0  0  0  0  0  0
   35.4798   57.8363   33.8161 H   0  0  0  0  0  0
   36.2616   57.9706   32.2849 H   0  0  0  0  0  0
   33.8035   56.3720   32.9991 H   0  0  0  0  0  0
   33.9771   57.6333   31.8050 H   0  0  0  0  0  0
   34.7003   54.6820   31.7116 H   0  0  0  0  0  0
   35.8397   54.8364   29.5910 H   0  0  0  0  0  0
   35.7223   56.5704   29.5572 H   0  0  0  0  0  0
   37.6632   56.8209   30.7458 H   0  0  0  0  0  0
   37.9589   55.1731   30.2867 H   0  0  0  0  0  0
   33.4776   55.1724   29.5309 H   0  0  0  0  0  0
   32.6556   55.1784   30.9488 H   0  0  0  0  0  0
  1  2  1  0  0  0
  1 33  1  0  0  0
  1 34  1  0  0  0
  1 35  1  0  0  0
  2  6  1  0  0  0
  2  3  1  0  0  0
  3  4  2  0  0  0
  3 36  1  0  0  0
  4  5  1  0  0  0
  4 11  1  0  0  0
  5 10  2  0  0  0
  5  6  1  0  0  0
  6  7  2  0  0  0
  7  8  1  0  0  0
  7 37  1  0  0  0
  8  9  2  0  0  0
  8 38  1  0  0  0
  9 10  1  0  0  0
  9 39  1  0  0  0
 10 40  1  0  0  0
 11 16  1  0  0  0
 11 12  2  0  0  0
 12 13  1  0  0  0
 12 18  1  0  0  0
 13 14  2  0  0  0
 13 15  1  0  0  0
 15 16  1  0  0  0
 15 41  1  0  0  0
 16 17  2  0  0  0
 18 26  2  0  0  0
 18 19  1  0  0  0
 19 24  2  0  0  0
 19 20  1  0  0  0
 20 21  2  0  0  0
 20 42  1  0  0  0
 21 22  1  0  0  0
 21 43  1  0  0  0
 22 23  2  0  0  0
 22 44  1  0  0  0
 23 24  1  0  0  0
 23 45  1  0  0  0
 24 25  1  0  0  0
 25 31  1  0  0  0
 25 26  1  0  0  0
 26 27  1  0  0  0
 27 28  1  0  0  0
 27 46  1  0  0  0
 27 47  1  0  0  0
 28 29  1  0  0  0
 28 48  1  0  0  0
 28 49  1  0  0  0
 29 30  1  0  0  0
 29 32  1  0  0  0
 29 50  1  0  0  0
 30 31  1  0  0  0
 30 51  1  0  0  0
 30 52  1  0  0  0
 31 53  1  0  0  0
 31 54  1  0  0  0
 32 55  1  0  0  0
 32 56  1  0  0  0
M  END
> <s_m_entry_id>
4279

> <s_m_entry_name>
ligand_docking-pose.49

> <s_m_Source_Path>
/home/csk/Desktop/cluster/DUD-E-result/kpcb

> <s_m_Source_File>
ligand_docking-pose.sdf

> <i_m_Source_File_Index>
49

> <i_lp_mmshare_version>
53161

> <r_lp_tautomer_probability>
1

> <s_lp_Force_Field>
OPLS_2005

> <r_lp_Energy>
33.663636

> <b_lp_Chiralities_Consistent>
1

> <s_lp_Variant>
160455-2

> <s_i_glide_gridfile>
glide-grid_2i0e

> <i_i_glide_lignum>
447

> <i_i_glide_rotatable_bonds>
2

> <r_i_docking_score>
-9.43854908713679

> <r_i_glide_ligand_efficiency>
-0.294954658973025

> <r_i_glide_ligand_efficiency_sa>
-0.936422670791604

> <r_i_glide_ligand_efficiency_ln>
-2.11354842574086

> <r_i_glide_gscore>
-9.43854908713679

> <r_i_glide_lipo>
-2.9788153028352

> <r_i_glide_hbond>
-0.630476707938968

> <r_i_glide_metal>
0

> <r_i_glide_rewards>
-2.50505921114435

> <r_i_glide_evdw>
-52.586181640625

> <r_i_glide_ecoul>
-5.65963840484619

> <r_i_glide_erotb>
0.154056977539903

> <r_i_glide_esite>
0

> <r_i_glide_emodel>
-88.7818121360973

> <r_i_glide_energy>
-58.2458200454712

> <r_i_glide_einternal>
1.66668212413788

> <i_i_glide_confnum>
1

> <i_i_glide_posenum>
19

> <r_i_glide_eff_state_penalty>
0

> <i_f3d_flags>
0

> <s_user_duplicate_titles>
160455

> <s_m_subgroup_title>
dock_pv

> <s_m_subgroupid>
dock_pv1

> <b_m_subgroup_collapsed>
0

$$$$
81403
                    3D
 Schrodinger Suite 2021-1.
 44 48  0  0  1  0            999 V2000
   41.7004   56.3361   39.3881 C   0  0  0  0  0  0
   40.7158   56.5249   38.3347 N   0  0  0  0  0  0
   39.3564   56.4235   38.4974 C   0  0  0  0  0  0
   38.6978   56.5635   37.2854 C   0  0  0  0  0  0
   39.7297   56.8875   36.3270 C   0  0  0  0  0  0
   40.9880   56.7691   37.0006 C   0  0  0  0  0  0
   42.2097   56.9031   36.3270 C   0  0  0  0  0  0
   42.1582   57.1782   34.9612 C   0  0  0  0  0  0
   40.9529   57.3791   34.2979 C   0  0  0  0  0  0
   39.7393   57.2540   34.9690 C   0  0  0  0  0  0
   37.2481   56.3741   37.0910 C   0  0  0  0  0  0
   36.5616   55.9141   36.0294 C   0  0  0  0  0  0
   35.1616   55.9183   36.3581 C   0  0  0  0  0  0
   34.1986   55.5712   35.6795 O   0  0  0  0  0  0
   35.1008   56.3820   37.6073 N   0  0  0  0  0  0
   36.2948   56.6900   38.1191 C   0  0  0  0  0  0
   36.4895   57.1601   39.2367 O   0  0  0  0  0  0
   37.0695   55.4258   34.7458 C   0  0  0  0  0  0
   38.1849   54.6233   34.5847 C   0  0  0  0  0  0
   38.4686   54.4502   33.2512 N   0  0  0  0  0  0
   37.4825   55.0692   32.5027 C   0  0  0  0  0  0
   36.5441   55.6370   33.4202 C   0  0  0  0  0  0
   35.3927   56.2533   32.9004 C   0  0  0  0  0  0
   35.1594   56.2194   31.5296 C   0  0  0  0  0  0
   36.1136   55.7113   30.6570 C   0  0  0  0  0  0
   37.3156   55.1720   31.1171 C   0  0  0  0  0  0
   33.6480   56.7728   30.9132 Cl  0  0  0  0  0  0
   39.5972   53.6981   32.7232 C   0  0  0  0  0  0
   42.3874   57.1835   39.3979 H   0  0  0  0  0  0
   41.2112   56.2636   40.3601 H   0  0  0  0  0  0
   42.2611   55.4207   39.1950 H   0  0  0  0  0  0
   38.9582   56.1898   39.4761 H   0  0  0  0  0  0
   43.1583   56.7962   36.8328 H   0  0  0  0  0  0
   43.0834   57.2756   34.4108 H   0  0  0  0  0  0
   40.9598   57.6239   33.2452 H   0  0  0  0  0  0
   38.8136   57.4005   34.4363 H   0  0  0  0  0  0
   34.2293   56.5160   38.1032 H   0  0  0  0  0  0
   38.8493   54.2067   35.3299 H   0  0  0  0  0  0
   34.6590   56.6929   33.5545 H   0  0  0  0  0  0
   35.9025   55.7096   29.5965 H   0  0  0  0  0  0
   38.0460   54.7720   30.4278 H   0  0  0  0  0  0
   40.2507   53.3661   33.5310 H   0  0  0  0  0  0
   39.2296   52.8281   32.1774 H   0  0  0  0  0  0
   40.1674   54.3302   32.0419 H   0  0  0  0  0  0
  1  2  1  0  0  0
  1 29  1  0  0  0
  1 30  1  0  0  0
  1 31  1  0  0  0
  2  6  1  0  0  0
  2  3  1  0  0  0
  3  4  2  0  0  0
  3 32  1  0  0  0
  4  5  1  0  0  0
  4 11  1  0  0  0
  5 10  2  0  0  0
  5  6  1  0  0  0
  6  7  2  0  0  0
  7  8  1  0  0  0
  7 33  1  0  0  0
  8  9  2  0  0  0
  8 34  1  0  0  0
  9 10  1  0  0  0
  9 35  1  0  0  0
 10 36  1  0  0  0
 11 16  1  0  0  0
 11 12  2  0  0  0
 12 13  1  0  0  0
 12 18  1  0  0  0
 13 14  2  0  0  0
 13 15  1  0  0  0
 15 16  1  0  0  0
 15 37  1  0  0  0
 16 17  2  0  0  0
 18 22  1  0  0  0
 18 19  2  0  0  0
 19 20  1  0  0  0
 19 38  1  0  0  0
 20 21  1  0  0  0
 20 28  1  0  0  0
 21 26  1  0  0  0
 21 22  2  0  0  0
 22 23  1  0  0  0
 23 24  2  0  0  0
 23 39  1  0  0  0
 24 25  1  0  0  0
 24 27  1  0  0  0
 25 26  2  0  0  0
 25 40  1  0  0  0
 26 41  1  0  0  0
 28 42  1  0  0  0
 28 43  1  0  0  0
 28 44  1  0  0  0
M  END
> <s_m_entry_id>
4280

> <s_m_entry_name>
ligand_docking-pose.50

> <s_m_Source_Path>
/home/csk/Desktop/cluster/DUD-E-result/kpcb

> <s_m_Source_File>
ligand_docking-pose.sdf

> <i_m_Source_File_Index>
50

> <i_lp_mmshare_version>
53161

> <r_lp_tautomer_probability>
1

> <s_lp_Force_Field>
OPLS_2005

> <r_lp_Energy>
22.648294

> <b_lp_Chiralities_Consistent>
1

> <s_lp_Variant>
81403-1

> <s_i_glide_gridfile>
glide-grid_2i0e

> <i_i_glide_lignum>
484

> <i_i_glide_rotatable_bonds>
2

> <r_i_docking_score>
-9.42887776451737

> <r_i_glide_ligand_efficiency>
-0.336745634447049

> <r_i_glide_ligand_efficiency_sa>
-1.02255807875339

> <r_i_glide_ligand_efficiency_ln>
-2.17646183193139

> <r_i_glide_gscore>
-9.42887776451737

> <r_i_glide_lipo>
-2.77325331016683

> <r_i_glide_hbond>
-0.608

> <r_i_glide_metal>
0

> <r_i_glide_rewards>
-2.81725532958439

> <r_i_glide_evdw>
-47.0549774169922

> <r_i_glide_ecoul>
-7.04829788208008

> <r_i_glide_erotb>
0.179624428395471

> <r_i_glide_esite>
0

> <r_i_glide_emodel>
-81.5977838951858

> <r_i_glide_energy>
-54.1032752990723

> <r_i_glide_einternal>
3.82299208641052

> <i_i_glide_confnum>
3

> <i_i_glide_posenum>
190

> <r_i_glide_eff_state_penalty>
0

> <i_f3d_flags>
0

> <s_user_duplicate_titles>
81403

> <s_m_subgroup_title>
dock_pv

> <s_m_subgroupid>
dock_pv1

> <b_m_subgroup_collapsed>
0

$$$$
277
                    3D
 Schrodinger Suite 2021-1.
 53 57  0  0  1  0            999 V2000
   38.8156   54.0782   31.6261 C   0  0  0  0  0  0
   37.8770   54.8290   32.4395 N   0  0  0  0  0  0
   37.9253   54.9254   33.8133 C   0  0  0  0  0  0
   36.9051   55.7377   34.2764 C   0  0  0  0  0  0
   36.1887   56.1680   33.1043 C   0  0  0  0  0  0
   36.7695   55.5165   31.9768 C   0  0  0  0  0  0
   36.2251   55.6410   30.6914 C   0  0  0  0  0  0
   35.0492   56.3733   30.5648 C   0  0  0  0  0  0
   34.5153   57.0896   31.6308 C   0  0  0  0  0  0
   35.1009   57.0278   32.8928 C   0  0  0  0  0  0
   36.5516   56.0710   35.6629 C   0  0  0  0  0  0
   37.3108   56.4869   36.6952 C   0  0  0  0  0  0
   36.4206   56.7238   37.8098 C   0  0  0  0  0  0
   36.6485   57.1697   38.9315 O   0  0  0  0  0  0
   35.2065   56.3724   37.3821 N   0  0  0  0  0  0
   35.1865   55.9719   36.1127 C   0  0  0  0  0  0
   34.1859   55.6072   35.4977 O   0  0  0  0  0  0
   38.7778   56.6764   36.7499 C   0  0  0  0  0  0
   39.5997   56.9149   35.6603 C   0  0  0  0  0  0
   40.9243   56.9602   36.0271 N   0  0  0  0  0  0
   41.0057   56.8401   37.4031 C   0  0  0  0  0  0
   39.6808   56.5766   37.8786 C   0  0  0  0  0  0
   39.5282   56.2789   39.2421 C   0  0  0  0  0  0
   40.6275   56.3224   40.0947 C   0  0  0  0  0  0
   41.8895   56.6420   39.6144 C   0  0  0  0  0  0
   42.1130   56.8994   38.2643 C   0  0  0  0  0  0
   42.0507   57.0698   35.0998 C   0  0  0  0  0  0
   43.0019   55.8511   35.1839 C   0  0  0  0  0  0
   42.2437   54.1954   35.0638 S   0  0  0  0  0  0
   42.0772   53.9788   33.2868 C   0  0  0  0  0  0
   42.4445   54.8707   32.4779 N   0  0  0  0  0  0
   41.5148   52.7719   32.9849 N   0  0  0  0  0  0
   38.6272   54.2277   30.5635 H   0  0  0  0  0  0
   39.8147   54.4511   31.8210 H   0  0  0  0  0  0
   38.7528   53.0158   31.8668 H   0  0  0  0  0  0
   38.6978   54.3992   34.3582 H   0  0  0  0  0  0
   36.6621   55.1709   29.8265 H   0  0  0  0  0  0
   34.5588   56.4027   29.6035 H   0  0  0  0  0  0
   33.6315   57.6920   31.4757 H   0  0  0  0  0  0
   34.7004   57.5916   33.7192 H   0  0  0  0  0  0
   34.3767   56.4382   37.9539 H   0  0  0  0  0  0
   39.3448   57.0285   34.6166 H   0  0  0  0  0  0
   38.5694   55.9971   39.6365 H   0  0  0  0  0  0
   40.4961   56.1016   41.1447 H   0  0  0  0  0  0
   42.7212   56.6700   40.3035 H   0  0  0  0  0  0
   43.1073   57.1264   37.9103 H   0  0  0  0  0  0
   41.6726   57.1917   34.0836 H   0  0  0  0  0  0
   42.5995   57.9720   35.3502 H   0  0  0  0  0  0
   43.7947   55.9453   34.4404 H   0  0  0  0  0  0
   43.5319   55.8644   36.1339 H   0  0  0  0  0  0
   42.2933   54.5942   31.5193 H   0  0  0  0  0  0
   41.5783   52.4498   32.0308 H   0  0  0  0  0  0
   41.5608   52.0414   33.6861 H   0  0  0  0  0  0
  1  2  1  0  0  0
  1 33  1  0  0  0
  1 34  1  0  0  0
  1 35  1  0  0  0
  2  6  1  0  0  0
  2  3  1  0  0  0
  3  4  2  0  0  0
  3 36  1  0  0  0
  4  5  1  0  0  0
  4 11  1  0  0  0
  5 10  2  0  0  0
  5  6  1  0  0  0
  6  7  2  0  0  0
  7  8  1  0  0  0
  7 37  1  0  0  0
  8  9  2  0  0  0
  8 38  1  0  0  0
  9 10  1  0  0  0
  9 39  1  0  0  0
 10 40  1  0  0  0
 11 16  1  0  0  0
 11 12  2  0  0  0
 12 13  1  0  0  0
 12 18  1  0  0  0
 13 14  2  0  0  0
 13 15  1  0  0  0
 15 16  1  0  0  0
 15 41  1  0  0  0
 16 17  2  0  0  0
 18 22  1  0  0  0
 18 19  2  0  0  0
 19 20  1  0  0  0
 19 42  1  0  0  0
 20 21  1  0  0  0
 20 27  1  0  0  0
 21 26  1  0  0  0
 21 22  2  0  0  0
 22 23  1  0  0  0
 23 24  2  0  0  0
 23 43  1  0  0  0
 24 25  1  0  0  0
 24 44  1  0  0  0
 25 26  2  0  0  0
 25 45  1  0  0  0
 26 46  1  0  0  0
 27 28  1  0  0  0
 27 47  1  0  0  0
 27 48  1  0  0  0
 28 29  1  0  0  0
 28 49  1  0  0  0
 28 50  1  0  0  0
 29 30  1  0  0  0
 30 31  2  3  0  0
 30 32  1  0  0  0
 31 51  1  0  0  0
 32 52  1  0  0  0
 32 53  1  0  0  0
M  END
> <s_m_entry_id>
4281

> <s_m_entry_name>
ligand_docking-pose.51

> <s_m_Source_Path>
/home/csk/Desktop/cluster/DUD-E-result/kpcb

> <s_m_Source_File>
ligand_docking-pose.sdf

> <i_m_Source_File_Index>
51

> <i_lp_mmshare_version>
53161

> <r_lp_tautomer_probability>
1

> <s_lp_Force_Field>
OPLS_2005

> <r_lp_Energy>
16.409188

> <b_lp_Chiralities_Consistent>
1

> <s_lp_Variant>
277-1

> <s_i_glide_gridfile>
glide-grid_2i0e

> <i_i_glide_lignum>
482

> <i_i_glide_rotatable_bonds>
6

> <r_i_docking_score>
-9.41200502150484

> <r_i_glide_ligand_efficiency>
-0.294125156922026

> <r_i_glide_ligand_efficiency_sa>
-0.933789165937917

> <r_i_glide_ligand_efficiency_ln>
-2.10760448588196

> <r_i_glide_gscore>
-9.41200502150484

> <r_i_glide_lipo>
-2.61334032510998

> <r_i_glide_hbond>
-0.73220238343209

> <r_i_glide_metal>
0

> <r_i_glide_rewards>
-2.39662210343652

> <r_i_glide_evdw>
-52.7709045410156

> <r_i_glide_ecoul>
-8.9160041809082

> <r_i_glide_erotb>
0.426857940516571

> <r_i_glide_esite>
-0.120752295855801

> <r_i_glide_emodel>
-95.411264478855

> <r_i_glide_energy>
-61.6869087219238

> <r_i_glide_einternal>
7.81895017623901

> <i_i_glide_confnum>
90

> <i_i_glide_posenum>
327

> <r_i_glide_eff_state_penalty>
0

> <i_f3d_flags>
0

> <s_user_duplicate_titles>
277

> <s_m_subgroup_title>
dock_pv

> <s_m_subgroupid>
dock_pv1

> <b_m_subgroup_collapsed>
0

$$$$
81079
                    3D
 Schrodinger Suite 2021-1.
 43 47  0  0  1  0            999 V2000
   41.5793   56.2969   39.1737 C   0  0  0  0  0  0
   40.5645   56.5486   38.1622 N   0  0  0  0  0  0
   39.2146   56.3731   38.3413 C   0  0  0  0  0  0
   38.5263   56.6204   37.1650 C   0  0  0  0  0  0
   39.5244   57.0295   36.2073 C   0  0  0  0  0  0
   40.7980   56.9193   36.8490 C   0  0  0  0  0  0
   41.9959   57.1722   36.1678 C   0  0  0  0  0  0
   41.9006   57.5683   34.8341 C   0  0  0  0  0  0
   40.6787   57.7183   34.1952 C   0  0  0  0  0  0
   39.4899   57.4625   34.8692 C   0  0  0  0  0  0
   37.0834   56.4221   36.9658 C   0  0  0  0  0  0
   36.4155   55.9837   35.8819 C   0  0  0  0  0  0
   35.0172   55.9247   36.2123 C   0  0  0  0  0  0
   34.0646   55.5727   35.5191 O   0  0  0  0  0  0
   34.9417   56.3716   37.4688 N   0  0  0  0  0  0
   36.1229   56.7063   37.9954 C   0  0  0  0  0  0
   36.3023   57.1593   39.1243 O   0  0  0  0  0  0
   36.9925   55.4354   34.6198 C   0  0  0  0  0  0
   38.0428   54.5173   34.7365 C   0  0  0  0  0  0
   38.6960   54.0019   33.6275 C   0  0  0  0  0  0
   38.3024   54.3694   32.3502 C   0  0  0  0  0  0
   37.2170   55.2488   32.1593 C   0  0  0  0  0  0
   36.5601   55.8206   33.2986 C   0  0  0  0  0  0
   35.5182   56.7641   33.0483 C   0  0  0  0  0  0
   35.0983   57.0498   31.7523 C   0  0  0  0  0  0
   35.7109   56.4417   30.6655 C   0  0  0  0  0  0
   36.7769   55.5729   30.8525 C   0  0  0  0  0  0
   41.1158   56.1530   40.1503 H   0  0  0  0  0  0
   42.1419   55.4012   38.9052 H   0  0  0  0  0  0
   42.2614   57.1466   39.2218 H   0  0  0  0  0  0
   38.8442   56.0372   39.3015 H   0  0  0  0  0  0
   42.9595   57.0773   36.6462 H   0  0  0  0  0  0
   42.8082   57.7696   34.2829 H   0  0  0  0  0  0
   40.6501   58.0302   33.1619 H   0  0  0  0  0  0
   38.5502   57.5724   34.3505 H   0  0  0  0  0  0
   34.0684   56.4801   37.9685 H   0  0  0  0  0  0
   38.3832   54.2095   35.7132 H   0  0  0  0  0  0
   39.5142   53.3075   33.7594 H   0  0  0  0  0  0
   38.8110   53.9506   31.4922 H   0  0  0  0  0  0
   35.0273   57.2624   33.8685 H   0  0  0  0  0  0
   34.2892   57.7463   31.5898 H   0  0  0  0  0  0
   35.3769   56.6647   29.6632 H   0  0  0  0  0  0
   37.2784   55.1496   29.9953 H   0  0  0  0  0  0
  1  2  1  0  0  0
  1 28  1  0  0  0
  1 29  1  0  0  0
  1 30  1  0  0  0
  2  6  1  0  0  0
  2  3  1  0  0  0
  3  4  2  0  0  0
  3 31  1  0  0  0
  4  5  1  0  0  0
  4 11  1  0  0  0
  5 10  2  0  0  0
  5  6  1  0  0  0
  6  7  2  0  0  0
  7  8  1  0  0  0
  7 32  1  0  0  0
  8  9  2  0  0  0
  8 33  1  0  0  0
  9 10  1  0  0  0
  9 34  1  0  0  0
 10 35  1  0  0  0
 11 16  1  0  0  0
 11 12  2  0  0  0
 12 13  1  0  0  0
 12 18  1  0  0  0
 13 14  2  0  0  0
 13 15  1  0  0  0
 15 16  1  0  0  0
 15 36  1  0  0  0
 16 17  2  0  0  0
 18 23  1  0  0  0
 18 19  2  0  0  0
 19 20  1  0  0  0
 19 37  1  0  0  0
 20 21  2  0  0  0
 20 38  1  0  0  0
 21 22  1  0  0  0
 21 39  1  0  0  0
 22 27  2  0  0  0
 22 23  1  0  0  0
 23 24  2  0  0  0
 24 25  1  0  0  0
 24 40  1  0  0  0
 25 26  2  0  0  0
 25 41  1  0  0  0
 26 27  1  0  0  0
 26 42  1  0  0  0
 27 43  1  0  0  0
M  END
> <s_m_entry_id>
4282

> <s_m_entry_name>
ligand_docking-pose.52

> <s_m_Source_Path>
/home/csk/Desktop/cluster/DUD-E-result/kpcb

> <s_m_Source_File>
ligand_docking-pose.sdf

> <i_m_Source_File_Index>
52

> <i_lp_mmshare_version>
53161

> <r_lp_tautomer_probability>
1

> <s_lp_Force_Field>
OPLS_2005

> <r_lp_Energy>
29.443045

> <b_lp_Chiralities_Consistent>
1

> <s_lp_Variant>
81079-1

> <s_i_glide_gridfile>
glide-grid_2i0e

> <i_i_glide_lignum>
453

> <i_i_glide_rotatable_bonds>
2

> <r_i_docking_score>
-9.38543942336724

> <r_i_glide_ligand_efficiency>
-0.34760886753212

> <r_i_glide_ligand_efficiency_sa>
-1.0428266014507

> <r_i_glide_ligand_efficiency_ln>
-2.18477556669811

> <r_i_glide_gscore>
-9.38543942336724

> <r_i_glide_lipo>
-2.90630966923102

> <r_i_glide_hbond>
-0.608

> <r_i_glide_metal>
0

> <r_i_glide_rewards>
-2.89982221246146

> <r_i_glide_evdw>
-43.4727363586426

> <r_i_glide_ecoul>
-6.75222539901733

> <r_i_glide_erotb>
0.215163086109974

> <r_i_glide_esite>
0

> <r_i_glide_emodel>
-79.5647163083937

> <r_i_glide_energy>
-50.2249617576599

> <r_i_glide_einternal>
1.43566107749939

> <i_i_glide_confnum>
16

> <i_i_glide_posenum>
299

> <r_i_glide_eff_state_penalty>
0

> <i_f3d_flags>
0

> <s_user_duplicate_titles>
81079

> <s_m_subgroup_title>
dock_pv

> <s_m_subgroupid>
dock_pv1

> <b_m_subgroup_collapsed>
0

$$$$
259078
                    3D
 Schrodinger Suite 2021-1.
 46 51  0  0  1  0            999 V2000
   39.6265   55.2726   32.0831 C   0  0  0  0  0  0
   38.4225   55.5585   32.8578 N   0  0  0  0  0  0
   37.1980   55.6767   32.2072 C   0  0  0  0  0  0
   36.8790   55.5721   30.8385 C   0  0  0  0  0  0
   35.5552   55.7590   30.4564 C   0  0  0  0  0  0
   34.5701   56.0445   31.3867 C   0  0  0  0  0  0
   34.8763   56.1428   32.7388 C   0  0  0  0  0  0
   36.2036   55.9507   33.1765 C   0  0  0  0  0  0
   36.8363   55.9725   34.4443 C   0  0  0  0  0  0
   38.2331   55.7232   34.2479 C   0  0  0  0  0  0
   39.1057   55.7043   35.3858 C   0  0  0  0  0  0
   38.5856   56.0304   36.6833 C   0  0  0  0  0  0
   39.6646   56.0497   37.5985 C   0  0  0  0  0  0
   39.7809   56.3575   38.9706 C   0  0  0  0  0  0
   41.0172   56.2451   39.5982 C   0  0  0  0  0  0
   42.1370   55.8309   38.8926 C   0  0  0  0  0  0
   42.0696   55.5225   37.5377 C   0  0  0  0  0  0
   40.8235   55.6414   36.8949 C   0  0  0  0  0  0
   40.4712   55.4001   35.5720 N   0  0  0  0  0  0
   41.4929   54.9537   34.6281 C   0  0  0  0  0  0
   42.3786   56.1315   34.1510 C   0  0  0  0  0  0
   41.6664   57.3899   33.8668 C   0  0  0  0  0  0
   41.1009   58.3720   33.6383 N   0  0  0  0  0  0
   37.2032   56.2535   36.8332 C   0  0  0  0  0  0
   36.3539   56.1822   35.7531 C   0  0  0  0  0  0
   34.9711   56.3718   36.2800 C   0  0  0  0  0  0
   33.9008   56.3554   35.6882 O   0  0  0  0  0  0
   35.1013   56.5836   37.5951 N   0  0  0  0  0  0
   36.3649   56.5644   38.0357 C   0  0  0  0  0  0
   36.6856   56.7711   39.2022 O   0  0  0  0  0  0
   39.5036   55.5573   31.0406 H   0  0  0  0  0  0
   40.4537   55.8679   32.4242 H   0  0  0  0  0  0
   39.8357   54.2034   32.1064 H   0  0  0  0  0  0
   37.6125   55.3284   30.0846 H   0  0  0  0  0  0
   35.2883   55.6652   29.4121 H   0  0  0  0  0  0
   33.5527   56.1871   31.0513 H   0  0  0  0  0  0
   34.0751   56.3703   33.4146 H   0  0  0  0  0  0
   38.9454   56.6738   39.5657 H   0  0  0  0  0  0
   41.1044   56.4774   40.6494 H   0  0  0  0  0  0
   43.0832   55.7432   39.4066 H   0  0  0  0  0  0
   42.9604   55.1985   37.0194 H   0  0  0  0  0  0
   42.1258   54.2208   35.1291 H   0  0  0  0  0  0
   41.0378   54.3636   33.8507 H   0  0  0  0  0  0
   43.1238   56.3698   34.9090 H   0  0  0  0  0  0
   42.9335   55.8475   33.2574 H   0  0  0  0  0  0
   34.3066   56.7720   38.1939 H   0  0  0  0  0  0
  1  2  1  0  0  0
  1 31  1  0  0  0
  1 32  1  0  0  0
  1 33  1  0  0  0
  2 10  1  0  0  0
  2  3  1  0  0  0
  3  8  2  0  0  0
  3  4  1  0  0  0
  4  5  2  0  0  0
  4 34  1  0  0  0
  5  6  1  0  0  0
  5 35  1  0  0  0
  6  7  2  0  0  0
  6 36  1  0  0  0
  7  8  1  0  0  0
  7 37  1  0  0  0
  8  9  1  0  0  0
  9 25  2  0  0  0
  9 10  1  0  0  0
 10 11  2  0  0  0
 11 19  1  0  0  0
 11 12  1  0  0  0
 12 13  1  0  0  0
 12 24  2  0  0  0
 13 18  2  0  0  0
 13 14  1  0  0  0
 14 15  2  0  0  0
 14 38  1  0  0  0
 15 16  1  0  0  0
 15 39  1  0  0  0
 16 17  2  0  0  0
 16 40  1  0  0  0
 17 18  1  0  0  0
 17 41  1  0  0  0
 18 19  1  0  0  0
 19 20  1  0  0  0
 20 21  1  0  0  0
 20 42  1  0  0  0
 20 43  1  0  0  0
 21 22  1  0  0  0
 21 44  1  0  0  0
 21 45  1  0  0  0
 22 23  3  0  0  0
 24 29  1  0  0  0
 24 25  1  0  0  0
 25 26  1  0  0  0
 26 27  2  0  0  0
 26 28  1  0  0  0
 28 29  1  0  0  0
 28 46  1  0  0  0
 29 30  2  0  0  0
M  END
> <s_m_entry_id>
4283

> <s_m_entry_name>
ligand_docking-pose.53

> <s_m_Source_Path>
/home/csk/Desktop/cluster/DUD-E-result/kpcb

> <s_m_Source_File>
ligand_docking-pose.sdf

> <i_m_Source_File_Index>
53

> <i_lp_mmshare_version>
53161

> <r_lp_tautomer_probability>
1

> <s_lp_Force_Field>
OPLS_2005

> <r_lp_Energy>
108.753744

> <b_lp_Chiralities_Consistent>
1

> <s_lp_Variant>
259078-1

> <s_i_glide_gridfile>
glide-grid_2i0e

> <i_i_glide_lignum>
401

> <i_i_glide_rotatable_bonds>
2

> <r_i_docking_score>
-9.36562212396599

> <r_i_glide_ligand_efficiency>
-0.3121874041322

> <r_i_glide_ligand_efficiency_sa>
-0.970038848969161

> <r_i_glide_ligand_efficiency_ln>
-2.12797139319141

> <r_i_glide_gscore>
-9.36562212396599

> <r_i_glide_lipo>
-2.50784431063745

> <r_i_glide_hbond>
-0.608

> <r_i_glide_metal>
0

> <r_i_glide_rewards>
-2.94448929574719

> <r_i_glide_evdw>
-45.4741706848145

> <r_i_glide_ecoul>
-7.4616641998291

> <r_i_glide_erotb>
0.088756119807697

> <r_i_glide_esite>
-0.00108647317396039

> <r_i_glide_emodel>
-82.7083708101635

> <r_i_glide_energy>
-52.9358348846436

> <r_i_glide_einternal>
0.571885645389557

> <i_i_glide_confnum>
1

> <i_i_glide_posenum>
277

> <r_i_glide_eff_state_penalty>
0

> <i_f3d_flags>
0

> <s_user_duplicate_titles>
259078

> <s_m_subgroup_title>
dock_pv

> <s_m_subgroupid>
dock_pv1

> <b_m_subgroup_collapsed>
0

$$$$
366624
                    3D
 Schrodinger Suite 2021-1.
 41 46  0  0  1  0            999 V2000
   34.7961   56.0572   30.2912 C   0  0  0  0  0  0
   34.1618   56.6450   31.3779 C   0  0  0  0  0  0
   34.8188   56.7222   32.6043 C   0  0  0  0  0  0
   36.1032   56.1839   32.7904 C   0  0  0  0  0  0
   36.7503   55.6194   31.6678 C   0  0  0  0  0  0
   36.0899   55.5741   30.4365 C   0  0  0  0  0  0
   38.1642   55.0785   31.8073 C   0  0  0  0  0  0
   38.9921   55.9931   32.7220 C   0  0  0  0  0  0
   38.2630   56.2104   34.0472 C   0  0  0  0  0  0
   36.8479   56.2566   34.1060 C   0  0  0  0  0  0
   36.2009   56.3313   35.3599 C   0  0  0  0  0  0
   36.9253   56.4212   36.5444 C   0  0  0  0  0  0
   38.3313   56.4735   36.5145 C   0  0  0  0  0  0
   38.9660   56.3714   35.2496 C   0  0  0  0  0  0
   40.3285   56.4333   35.4698 N   0  0  0  0  0  0
   40.6014   56.5717   36.8107 C   0  0  0  0  0  0
   39.3566   56.5846   37.4954 C   0  0  0  0  0  0
   39.3725   56.6897   38.9004 C   0  0  0  0  0  0
   40.5930   56.7748   39.5660 C   0  0  0  0  0  0
   41.7941   56.7695   38.8654 C   0  0  0  0  0  0
   41.8286   56.6718   37.4747 C   0  0  0  0  0  0
   35.9844   56.4415   37.7103 C   0  0  0  0  0  0
   36.2227   56.5355   38.9064 O   0  0  0  0  0  0
   34.7661   56.3468   37.1771 N   0  0  0  0  0  0
   34.7361   56.3042   35.7316 C   0  0  0  0  0  0
   41.0286   56.3768   34.7471 H   0  0  0  0  0  0
   34.3007   55.9985   29.3318 H   0  0  0  0  0  0
   33.1680   57.0550   31.2613 H   0  0  0  0  0  0
   34.3118   57.2447   33.3879 H   0  0  0  0  0  0
   36.5880   55.1616   29.5718 H   0  0  0  0  0  0
   38.1234   54.0732   32.2301 H   0  0  0  0  0  0
   38.6489   54.9804   30.8338 H   0  0  0  0  0  0
   39.9638   55.5247   32.8915 H   0  0  0  0  0  0
   39.1946   56.9489   32.2380 H   0  0  0  0  0  0
   38.4724   56.6919   39.4870 H   0  0  0  0  0  0
   40.6031   56.8445   40.6445 H   0  0  0  0  0  0
   42.7209   56.8382   39.4155 H   0  0  0  0  0  0
   42.7689   56.6604   36.9428 H   0  0  0  0  0  0
   33.9281   56.4075   37.7430 H   0  0  0  0  0  0
   34.1734   57.1782   35.4125 H   0  0  0  0  0  0
   34.2209   55.4094   35.3776 H   0  0  0  0  0  0
  1  6  1  0  0  0
  1  2  2  0  0  0
  1 27  1  0  0  0
  2  3  1  0  0  0
  2 28  1  0  0  0
  3  4  2  0  0  0
  3 29  1  0  0  0
  4 10  1  0  0  0
  4  5  1  0  0  0
  5  6  2  0  0  0
  5  7  1  0  0  0
  6 30  1  0  0  0
  7  8  1  0  0  0
  7 31  1  0  0  0
  7 32  1  0  0  0
  8  9  1  0  0  0
  8 33  1  0  0  0
  8 34  1  0  0  0
  9 14  2  0  0  0
  9 10  1  0  0  0
 10 11  2  0  0  0
 11 25  1  0  0  0
 11 12  1  0  0  0
 12 13  2  0  0  0
 12 22  1  0  0  0
 13 17  1  0  0  0
 13 14  1  0  0  0
 14 15  1  0  0  0
 15 26  1  0  0  0
 15 16  1  0  0  0
 16 21  1  0  0  0
 16 17  2  0  0  0
 17 18  1  0  0  0
 18 19  2  0  0  0
 18 35  1  0  0  0
 19 20  1  0  0  0
 19 36  1  0  0  0
 20 21  2  0  0  0
 20 37  1  0  0  0
 21 38  1  0  0  0
 22 23  2  0  0  0
 22 24  1  0  0  0
 24 25  1  0  0  0
 24 39  1  0  0  0
 25 40  1  0  0  0
 25 41  1  0  0  0
M  END
> <s_m_entry_id>
4284

> <s_m_entry_name>
ligand_docking-pose.54

> <s_m_Source_Path>
/home/csk/Desktop/cluster/DUD-E-result/kpcb

> <s_m_Source_File>
ligand_docking-pose.sdf

> <i_m_Source_File_Index>
54

> <i_lp_mmshare_version>
53161

> <r_lp_tautomer_probability>
1

> <s_lp_Force_Field>
OPLS_2005

> <r_lp_Energy>
66.680409

> <b_lp_Chiralities_Consistent>
1

> <s_lp_Variant>
366624-1

> <s_i_glide_gridfile>
glide-grid_2i0e

> <i_i_glide_lignum>
45

> <i_i_glide_rotatable_bonds>
0

> <r_i_docking_score>
-9.36521929340804

> <r_i_glide_ligand_efficiency>
-0.374608771736322

> <r_i_glide_ligand_efficiency_sa>
-1.09536269227186

> <r_i_glide_ligand_efficiency_ln>
-2.21983762551262

> <r_i_glide_gscore>
-9.36521929340804

> <r_i_glide_lipo>
-3.13699723688102

> <r_i_glide_hbond>
-0.608

> <r_i_glide_metal>
0

> <r_i_glide_rewards>
-2.65965730013359

> <r_i_glide_evdw>
-40.8735885620117

> <r_i_glide_ecoul>
-6.11256885528564

> <r_i_glide_erotb>
0

> <r_i_glide_esite>
0

> <r_i_glide_emodel>
-73.6594618996922

> <r_i_glide_energy>
-46.9861574172974

> <r_i_glide_einternal>
0

> <i_i_glide_confnum>
2

> <i_i_glide_posenum>
5

> <r_i_glide_eff_state_penalty>
0

> <i_f3d_flags>
0

> <s_user_duplicate_titles>
366624

> <s_m_subgroup_title>
dock_pv

> <s_m_subgroupid>
dock_pv1

> <b_m_subgroup_collapsed>
0

$$$$
35186
                    3D
 Schrodinger Suite 2021-1.
 42 48  0  0  1  0            999 V2000
   40.6289   56.8059   40.0916 C   0  0  0  0  0  0
   41.8610   56.7183   39.4571 C   0  0  0  0  0  0
   41.9607   56.5456   38.0795 C   0  0  0  0  0  0
   40.7669   56.4594   37.3417 C   0  0  0  0  0  0
   39.4935   56.5430   37.9716 C   0  0  0  0  0  0
   39.4443   56.7216   39.3681 C   0  0  0  0  0  0
   38.5065   56.3959   36.9663 C   0  0  0  0  0  0
   37.0981   56.3721   36.9537 C   0  0  0  0  0  0
   36.3872   56.1847   35.7867 C   0  0  0  0  0  0
   37.0457   56.0616   34.5456 C   0  0  0  0  0  0
   36.6178   55.9185   33.2070 C   0  0  0  0  0  0
   35.3503   55.8734   32.5950 C   0  0  0  0  0  0
   35.2617   55.7139   31.2155 C   0  0  0  0  0  0
   36.4035   55.5721   30.4397 C   0  0  0  0  0  0
   37.6783   55.5813   31.0081 C   0  0  0  0  0  0
   37.7799   55.8048   32.3921 C   0  0  0  0  0  0
   38.8999   55.9703   33.2051 N   0  0  0  0  0  0
   38.4642   56.0826   34.5293 C   0  0  0  0  0  0
   39.1868   56.2342   35.7345 C   0  0  0  0  0  0
   40.5560   56.2806   35.9805 N   0  0  0  0  0  0
   41.6344   56.1050   35.0273 C   0  0  0  0  0  0
   41.3776   57.1701   33.5474 S   0  0  1  0  0  0
   42.7208   57.1494   32.8197 O   0  0  0  0  0  0
   40.2719   55.9549   32.6876 C   0  0  0  0  0  0
   34.9400   56.1602   36.1514 C   0  0  0  0  0  0
   33.9551   55.9930   35.4409 O   0  0  0  0  0  0
   34.9036   56.3716   37.4753 N   0  0  0  0  0  0
   36.1065   56.5309   38.0468 C   0  0  0  0  0  0
   36.3009   56.7721   39.2320 O   0  0  0  0  0  0
   40.5878   56.9319   41.1645 H   0  0  0  0  0  0
   42.7634   56.7805   40.0445 H   0  0  0  0  0  0
   42.9363   56.4760   37.6236 H   0  0  0  0  0  0
   38.5176   56.7755   39.9110 H   0  0  0  0  0  0
   34.4405   55.9728   33.1610 H   0  0  0  0  0  0
   34.2912   55.6884   30.7396 H   0  0  0  0  0  0
   36.2940   55.4139   29.3764 H   0  0  0  0  0  0
   38.5478   55.4516   30.3813 H   0  0  0  0  0  0
   42.5793   56.4216   35.4690 H   0  0  0  0  0  0
   41.7340   55.0487   34.7749 H   0  0  0  0  0  0
   40.6658   54.9394   32.7263 H   0  0  0  0  0  0
   40.2590   56.2515   31.6390 H   0  0  0  0  0  0
   34.0379   56.4573   37.9915 H   0  0  0  0  0  0
  1  6  1  0  0  0
  1  2  2  0  0  0
  1 30  1  0  0  0
  2  3  1  0  0  0
  2 31  1  0  0  0
  3  4  2  0  0  0
  3 32  1  0  0  0
  4 20  1  0  0  0
  4  5  1  0  0  0
  5  6  2  0  0  0
  5  7  1  0  0  0
  6 33  1  0  0  0
  7 19  2  0  0  0
  7  8  1  0  0  0
  8 28  1  0  0  0
  8  9  2  0  0  0
  9 10  1  0  0  0
  9 25  1  0  0  0
 10 18  2  0  0  0
 10 11  1  0  0  0
 11 16  2  0  0  0
 11 12  1  0  0  0
 12 13  2  0  0  0
 12 34  1  0  0  0
 13 14  1  0  0  0
 13 35  1  0  0  0
 14 15  2  0  0  0
 14 36  1  0  0  0
 15 16  1  0  0  0
 15 37  1  0  0  0
 16 17  1  0  0  0
 17 24  1  0  0  0
 17 18  1  0  0  0
 18 19  1  0  0  0
 19 20  1  0  0  0
 20 21  1  0  0  0
 21 22  1  0  0  0
 21 38  1  0  0  0
 21 39  1  0  0  0
 22 23  2  0  0  0
 22 24  1  0  0  0
 24 40  1  0  0  0
 24 41  1  0  0  0
 25 26  2  0  0  0
 25 27  1  0  0  0
 27 28  1  0  0  0
 27 42  1  0  0  0
 28 29  2  0  0  0
M  END
> <s_m_entry_id>
4285

> <s_m_entry_name>
ligand_docking-pose.55

> <s_m_Source_Path>
/home/csk/Desktop/cluster/DUD-E-result/kpcb

> <s_m_Source_File>
ligand_docking-pose.sdf

> <i_m_Source_File_Index>
55

> <i_lp_mmshare_version>
53161

> <r_lp_tautomer_probability>
1

> <s_lp_Force_Field>
OPLS_2005

> <r_lp_Energy>
102.379377

> <b_lp_Chiralities_Consistent>
1

> <s_lp_Variant>
35186-1

> <s_i_glide_gridfile>
glide-grid_2i0e

> <i_i_glide_lignum>
22

> <i_i_glide_rotatable_bonds>
0

> <r_i_docking_score>
-9.35640517186846

> <r_i_glide_ligand_efficiency>
-0.322634661098913

> <r_i_glide_ligand_efficiency_sa>
-0.991235896731045

> <r_i_glide_ligand_efficiency_ln>
-2.1423795263939

> <r_i_glide_gscore>
-9.35640517186846

> <r_i_glide_lipo>
-2.35715558102772

> <r_i_glide_hbond>
-0.608

> <r_i_glide_metal>
0

> <r_i_glide_rewards>
-2.83984468552153

> <r_i_glide_evdw>
-45.4532737731934

> <r_i_glide_ecoul>
-8.52494144439697

> <r_i_glide_erotb>
0

> <r_i_glide_esite>
0

> <r_i_glide_emodel>
-84.1905908903271

> <r_i_glide_energy>
-53.9782152175903

> <r_i_glide_einternal>
0

> <i_i_glide_confnum>
1

> <i_i_glide_posenum>
1

> <r_i_glide_eff_state_penalty>
0

> <i_f3d_flags>
0

> <s_user_duplicate_titles>
35186

> <s_m_subgroup_title>
dock_pv

> <s_m_subgroupid>
dock_pv1

> <b_m_subgroup_collapsed>
0

$$$$
259079
                    3D
 Schrodinger Suite 2021-1.
 62 67  0  0  1  0            999 V2000
   41.6673   57.1739   34.8001 C   0  0  0  0  0  0
   40.6589   56.7743   35.7670 N   0  0  0  0  0  0
   40.9231   56.7225   37.1281 C   0  0  0  0  0  0
   42.1341   56.8535   37.8281 C   0  0  0  0  0  0
   42.0874   56.7718   39.2183 C   0  0  0  0  0  0
   40.8920   56.5862   39.8996 C   0  0  0  0  0  0
   39.6873   56.4757   39.2122 C   0  0  0  0  0  0
   39.6879   56.5455   37.8056 C   0  0  0  0  0  0
   38.6718   56.5039   36.8247 C   0  0  0  0  0  0
   39.3166   56.4437   35.5571 C   0  0  0  0  0  0
   38.5581   56.2016   34.3854 C   0  0  0  0  0  0
   37.1416   56.2444   34.4613 C   0  0  0  0  0  0
   36.6366   56.1165   33.1563 C   0  0  0  0  0  0
   35.3380   56.1734   32.6192 C   0  0  0  0  0  0
   35.1467   55.9346   31.2483 C   0  0  0  0  0  0
   36.2376   55.6268   30.4436 C   0  0  0  0  0  0
   37.5357   55.5727   30.9388 C   0  0  0  0  0  0
   37.7313   55.8332   32.3046 C   0  0  0  0  0  0
   38.8943   55.8244   33.0722 N   0  0  0  0  0  0
   40.1554   55.2958   32.5216 C   0  0  0  0  0  0
   40.3542   53.7711   32.7670 C   0  0  2  0  0  0
   41.6135   53.1982   32.0495 C   0  0  0  0  0  0
   41.7624   53.5720   30.6329 N   0  0  0  0  0  0
   43.0547   53.1431   30.1091 C   0  0  0  0  0  0
   40.7016   53.0542   29.7729 C   0  0  0  0  0  0
   39.2038   53.0097   32.4301 O   0  0  0  0  0  0
   33.9243   55.9640   30.6105 O   0  0  0  0  0  0
   32.7742   56.3863   31.3259 C   0  0  0  0  0  0
   36.5171   56.4015   35.7089 C   0  0  0  0  0  0
   37.2626   56.4928   36.8747 C   0  0  0  0  0  0
   36.3209   56.6222   38.0360 C   0  0  0  0  0  0
   36.5455   56.7722   39.2345 O   0  0  0  0  0  0
   35.1004   56.5693   37.4914 N   0  0  0  0  0  0
   35.0580   56.4425   36.0467 C   0  0  0  0  0  0
   42.3065   57.9374   35.2415 H   0  0  0  0  0  0
   42.2866   56.3172   34.5340 H   0  0  0  0  0  0
   41.1913   57.6367   33.9372 H   0  0  0  0  0  0
   43.0752   56.9991   37.3217 H   0  0  0  0  0  0
   43.0047   56.8543   39.7830 H   0  0  0  0  0  0
   40.8912   56.5252   40.9786 H   0  0  0  0  0  0
   38.7833   56.3177   39.7742 H   0  0  0  0  0  0
   34.5018   56.3882   33.2653 H   0  0  0  0  0  0
   36.0681   55.4151   29.3991 H   0  0  0  0  0  0
   38.3486   55.3142   30.2754 H   0  0  0  0  0  0
   40.1722   55.5114   31.4540 H   0  0  0  0  0  0
   41.0047   55.8397   32.8832 H   0  0  0  0  0  0
   40.4901   53.6187   33.8391 H   0  0  0  0  0  0
   42.4941   53.5296   32.6026 H   0  0  0  0  0  0
   41.6256   52.1087   32.1426 H   0  0  0  0  0  0
   43.2224   53.5608   29.1152 H   0  0  0  0  0  0
   43.8736   53.4867   30.7447 H   0  0  0  0  0  0
   43.1172   52.0556   30.0370 H   0  0  0  0  0  0
   40.8778   53.3078   28.7278 H   0  0  0  0  0  0
   40.6295   51.9718   29.8376 H   0  0  0  0  0  0
   39.7352   53.4793   30.0389 H   0  0  0  0  0  0
   39.4914   52.1843   32.0232 H   0  0  0  0  0  0
   31.9009   56.3177   30.6781 H   0  0  0  0  0  0
   32.5930   55.7564   32.1960 H   0  0  0  0  0  0
   32.8713   57.4266   31.6368 H   0  0  0  0  0  0
   34.2570   56.6856   38.0426 H   0  0  0  0  0  0
   34.5277   55.5342   35.7580 H   0  0  0  0  0  0
   34.5384   57.2930   35.6049 H   0  0  0  0  0  0
  1  2  1  0  0  0
  1 35  1  0  0  0
  1 36  1  0  0  0
  1 37  1  0  0  0
  2 10  1  0  0  0
  2  3  1  0  0  0
  3  8  2  0  0  0
  3  4  1  0  0  0
  4  5  2  0  0  0
  4 38  1  0  0  0
  5  6  1  0  0  0
  5 39  1  0  0  0
  6  7  2  0  0  0
  6 40  1  0  0  0
  7  8  1  0  0  0
  7 41  1  0  0  0
  8  9  1  0  0  0
  9 30  2  0  0  0
  9 10  1  0  0  0
 10 11  2  0  0  0
 11 19  1  0  0  0
 11 12  1  0  0  0
 12 13  1  0  0  0
 12 29  2  0  0  0
 13 18  2  0  0  0
 13 14  1  0  0  0
 14 15  2  0  0  0
 14 42  1  0  0  0
 15 16  1  0  0  0
 15 27  1  0  0  0
 16 17  2  0  0  0
 16 43  1  0  0  0
 17 18  1  0  0  0
 17 44  1  0  0  0
 18 19  1  0  0  0
 19 20  1  0  0  0
 20 21  1  0  0  0
 20 45  1  0  0  0
 20 46  1  0  0  0
 21 22  1  0  0  0
 21 26  1  0  0  0
 21 47  1  0  0  0
 22 23  1  0  0  0
 22 48  1  0  0  0
 22 49  1  0  0  0
 23 24  1  0  0  0
 23 25  1  0  0  0
 24 50  1  0  0  0
 24 51  1  0  0  0
 24 52  1  0  0  0
 25 53  1  0  0  0
 25 54  1  0  0  0
 25 55  1  0  0  0
 26 56  1  0  0  0
 27 28  1  0  0  0
 28 57  1  0  0  0
 28 58  1  0  0  0
 28 59  1  0  0  0
 29 34  1  0  0  0
 29 30  1  0  0  0
 30 31  1  0  0  0
 31 32  2  0  0  0
 31 33  1  0  0  0
 33 34  1  0  0  0
 33 60  1  0  0  0
 34 61  1  0  0  0
 34 62  1  0  0  0
M  END
> <s_m_entry_id>
4286

> <s_m_entry_name>
ligand_docking-pose.56

> <s_m_Source_Path>
/home/csk/Desktop/cluster/DUD-E-result/kpcb

> <s_m_Source_File>
ligand_docking-pose.sdf

> <i_m_Source_File_Index>
56

> <i_lp_mmshare_version>
53161

> <r_lp_tautomer_probability>
1

> <s_lp_Force_Field>
OPLS_2005

> <r_lp_Energy>
110.291151

> <b_lp_Chiralities_Consistent>
1

> <s_lp_Variant>
259079-1

> <s_i_glide_gridfile>
glide-grid_2i0e

> <i_i_glide_lignum>
408

> <i_i_glide_rotatable_bonds>
6

> <r_i_docking_score>
-9.33778942159671

> <r_i_glide_ligand_efficiency>
-0.27464086534108

> <r_i_glide_ligand_efficiency_sa>
-0.889729787426186

> <r_i_glide_ligand_efficiency_ln>
-2.0629795993523

> <r_i_glide_gscore>
-9.33778942159671

> <r_i_glide_lipo>
-2.99785713994112

> <r_i_glide_hbond>
-0.621565931064232

> <r_i_glide_metal>
0

> <r_i_glide_rewards>
-1.83791726695384

> <r_i_glide_evdw>
-50.5006561279297

> <r_i_glide_ecoul>
-10.386082649231

> <r_i_glide_erotb>
0.20249612014361

> <r_i_glide_esite>
0

> <r_i_glide_emodel>
-94.5139395406274

> <r_i_glide_energy>
-60.8867387771606

> <r_i_glide_einternal>
0.986587584018707

> <i_i_glide_confnum>
1

> <i_i_glide_posenum>
167

> <r_i_glide_eff_state_penalty>
0

> <i_f3d_flags>
0

> <s_user_duplicate_titles>
259079

> <s_m_subgroup_title>
dock_pv

> <s_m_subgroupid>
dock_pv1

> <b_m_subgroup_collapsed>
0

$$$$
35305
                    3D
 Schrodinger Suite 2021-1.
 43 49  0  0  1  0            999 V2000
   40.7018   56.8523   39.9678 C   0  0  0  0  0  0
   41.9116   56.7384   39.2956 C   0  0  0  0  0  0
   41.9688   56.5341   37.9182 C   0  0  0  0  0  0
   40.7501   56.4468   37.2254 C   0  0  0  0  0  0
   39.4958   56.5589   37.8961 C   0  0  0  0  0  0
   39.4909   56.7649   39.2870 C   0  0  0  0  0  0
   38.4744   56.4051   36.9278 C   0  0  0  0  0  0
   37.0643   56.3825   36.9406 C   0  0  0  0  0  0
   36.3357   56.1926   35.7823 C   0  0  0  0  0  0
   36.9786   56.0562   34.5362 C   0  0  0  0  0  0
   36.5568   55.9131   33.1980 C   0  0  0  0  0  0
   35.2908   55.8818   32.5816 C   0  0  0  0  0  0
   35.2110   55.7189   31.2021 C   0  0  0  0  0  0
   36.3608   55.5719   30.4370 C   0  0  0  0  0  0
   37.6331   55.5767   31.0060 C   0  0  0  0  0  0
   37.7253   55.7767   32.3892 C   0  0  0  0  0  0
   38.8404   55.8902   33.2103 N   0  0  0  0  0  0
   38.3901   56.0576   34.5118 C   0  0  0  0  0  0
   39.1240   56.2211   35.6909 C   0  0  0  0  0  0
   40.4979   56.2414   35.8759 N   0  0  0  0  0  0
   41.5226   55.9920   34.8712 C   0  0  0  0  0  0
   41.2309   56.4936   33.5326 N   0  0  2  0  0  0
   40.2268   55.7705   32.7534 C   0  0  0  0  0  0
   42.3695   56.7930   32.8376 O   0  0  0  0  0  0
   34.8970   56.1690   36.1639 C   0  0  0  0  0  0
   33.9043   56.0082   35.4603 O   0  0  0  0  0  0
   34.8794   56.3721   37.4907 N   0  0  0  0  0  0
   36.0893   56.5363   38.0486 C   0  0  0  0  0  0
   36.3010   56.7730   39.2325 O   0  0  0  0  0  0
   40.6969   57.0059   41.0375 H   0  0  0  0  0  0
   42.8353   56.8094   39.8537 H   0  0  0  0  0  0
   42.9236   56.4431   37.4198 H   0  0  0  0  0  0
   38.5785   56.8441   39.8504 H   0  0  0  0  0  0
   34.3799   55.9902   33.1452 H   0  0  0  0  0  0
   34.2451   55.6942   30.7167 H   0  0  0  0  0  0
   36.2706   55.4142   29.3724 H   0  0  0  0  0  0
   38.5095   55.4464   30.3865 H   0  0  0  0  0  0
   42.4365   56.4717   35.2273 H   0  0  0  0  0  0
   41.7213   54.9180   34.8453 H   0  0  0  0  0  0
   40.4738   54.7086   32.7000 H   0  0  0  0  0  0
   40.2511   56.1526   31.7298 H   0  0  0  0  0  0
   42.7475   55.9208   32.6934 H   0  0  0  0  0  0
   34.0206   56.4535   38.0188 H   0  0  0  0  0  0
  1  6  1  0  0  0
  1  2  2  0  0  0
  1 30  1  0  0  0
  2  3  1  0  0  0
  2 31  1  0  0  0
  3  4  2  0  0  0
  3 32  1  0  0  0
  4 20  1  0  0  0
  4  5  1  0  0  0
  5  6  2  0  0  0
  5  7  1  0  0  0
  6 33  1  0  0  0
  7 19  2  0  0  0
  7  8  1  0  0  0
  8 28  1  0  0  0
  8  9  2  0  0  0
  9 10  1  0  0  0
  9 25  1  0  0  0
 10 18  2  0  0  0
 10 11  1  0  0  0
 11 16  2  0  0  0
 11 12  1  0  0  0
 12 13  2  0  0  0
 12 34  1  0  0  0
 13 14  1  0  0  0
 13 35  1  0  0  0
 14 15  2  0  0  0
 14 36  1  0  0  0
 15 16  1  0  0  0
 15 37  1  0  0  0
 16 17  1  0  0  0
 17 23  1  0  0  0
 17 18  1  0  0  0
 18 19  1  0  0  0
 19 20  1  0  0  0
 20 21  1  0  0  0
 21 22  1  0  0  0
 21 38  1  0  0  0
 21 39  1  0  0  0
 22 23  1  0  0  0
 22 24  1  0  0  0
 23 40  1  0  0  0
 23 41  1  0  0  0
 24 42  1  0  0  0
 25 26  2  0  0  0
 25 27  1  0  0  0
 27 28  1  0  0  0
 27 43  1  0  0  0
 28 29  2  0  0  0
M  END
> <s_m_entry_id>
4287

> <s_m_entry_name>
ligand_docking-pose.57

> <s_m_Source_Path>
/home/csk/Desktop/cluster/DUD-E-result/kpcb

> <s_m_Source_File>
ligand_docking-pose.sdf

> <i_m_Source_File_Index>
57

> <i_lp_mmshare_version>
53161

> <r_lp_tautomer_probability>
1

> <s_lp_Force_Field>
OPLS_2005

> <r_lp_Energy>
97.941926

> <b_lp_Chiralities_Consistent>
1

> <s_lp_Variant>
35305-1

> <s_i_glide_gridfile>
glide-grid_2i0e

> <i_i_glide_lignum>
16

> <i_i_glide_rotatable_bonds>
1

> <r_i_docking_score>
-9.33743902228321

> <r_i_glide_ligand_efficiency>
-0.3219806559408

> <r_i_glide_ligand_efficiency_sa>
-0.989226585681947

> <r_i_glide_ligand_efficiency_ln>
-2.13803675907893

> <r_i_glide_gscore>
-9.33743902228321

> <r_i_glide_lipo>
-2.31324906170918

> <r_i_glide_hbond>
-0.608

> <r_i_glide_metal>
0

> <r_i_glide_rewards>
-2.97408247384918

> <r_i_glide_evdw>
-43.2420196533203

> <r_i_glide_ecoul>
-8.53337669372559

> <r_i_glide_erotb>
0

> <r_i_glide_esite>
0

> <r_i_glide_emodel>
-81.0310595235534

> <r_i_glide_energy>
-51.7753963470459

> <r_i_glide_einternal>
1.22324287891388

> <i_i_glide_confnum>
1

> <i_i_glide_posenum>
8

> <r_i_glide_eff_state_penalty>
0

> <i_f3d_flags>
0

> <s_user_duplicate_titles>
35305

> <s_m_subgroup_title>
dock_pv

> <s_m_subgroupid>
dock_pv1

> <b_m_subgroup_collapsed>
0

$$$$
243650
                    3D
 Schrodinger Suite 2021-1.
 49 56  0  0  1  0            999 V2000
   40.7956   58.1766   33.4318 C   0  0  0  0  0  0
   41.0835   56.7478   33.3541 N   0  0  1  0  0  0
   41.4262   56.0766   34.6084 C   0  0  2  0  0  0
   41.5303   54.5956   34.1920 C   0  0  0  0  0  0
   40.7296   54.4834   32.8819 C   0  0  0  0  0  0
   40.1284   55.8820   32.6564 C   0  0  1  0  0  0
   38.7318   55.9400   33.1349 N   0  0  0  0  0  0
   37.5960   55.8032   32.3424 C   0  0  0  0  0  0
   37.4727   55.6039   30.9637 C   0  0  0  0  0  0
   36.1837   55.5722   30.4314 C   0  0  0  0  0  0
   35.0524   55.6956   31.2256 C   0  0  0  0  0  0
   35.1630   55.8537   32.6017 C   0  0  0  0  0  0
   36.4445   55.9056   33.1845 C   0  0  0  0  0  0
   36.8994   56.0477   34.5127 C   0  0  0  0  0  0
   38.3033   56.0682   34.4465 C   0  0  0  0  0  0
   39.0736   56.2237   35.5954 C   0  0  0  0  0  0
   40.4529   56.2635   35.7027 N   0  0  0  0  0  0
   40.7631   56.4579   37.0429 C   0  0  0  0  0  0
   42.0070   56.5643   37.6793 C   0  0  0  0  0  0
   42.0102   56.7477   39.0619 C   0  0  0  0  0  0
   40.8307   56.8217   39.7953 C   0  0  0  0  0  0
   39.5898   56.7225   39.1737 C   0  0  0  0  0  0
   39.5363   56.5383   37.7780 C   0  0  0  0  0  0
   38.4718   56.3902   36.8564 C   0  0  0  0  0  0
   37.0610   56.3673   36.9183 C   0  0  0  0  0  0
   36.2974   56.1751   35.7813 C   0  0  0  0  0  0
   34.8725   56.1499   36.2025 C   0  0  0  0  0  0
   33.8667   55.9744   35.5230 O   0  0  0  0  0  0
   34.8896   56.3725   37.5257 N   0  0  0  0  0  0
   36.1141   56.5324   38.0525 C   0  0  0  0  0  0
   36.3496   56.7741   39.2284 O   0  0  0  0  0  0
   42.3713   56.4589   34.9952 H   0  0  0  0  0  0
   40.0790   56.1403   31.5969 H   0  0  0  0  0  0
   41.6300   58.7045   33.8943 H   0  0  0  0  0  0
   40.6506   58.5930   32.4370 H   0  0  0  0  0  0
   39.9004   58.3782   34.0177 H   0  0  0  0  0  0
   42.5732   54.3254   34.0158 H   0  0  0  0  0  0
   41.1557   53.9122   34.9566 H   0  0  0  0  0  0
   41.3993   54.2311   32.0579 H   0  0  0  0  0  0
   39.9764   53.6931   32.9255 H   0  0  0  0  0  0
   38.3346   55.4842   30.3241 H   0  0  0  0  0  0
   36.0641   55.4187   29.3662 H   0  0  0  0  0  0
   34.0751   55.6561   30.7625 H   0  0  0  0  0  0
   34.2623   55.9383   33.1888 H   0  0  0  0  0  0
   42.9372   56.5014   37.1347 H   0  0  0  0  0  0
   42.9593   56.8254   39.5755 H   0  0  0  0  0  0
   40.8809   56.9541   40.8670 H   0  0  0  0  0  0
   38.6974   56.7752   39.7790 H   0  0  0  0  0  0
   34.0410   56.4614   38.0730 H   0  0  0  0  0  0
  1  2  1  0  0  0
  1 34  1  0  0  0
  1 35  1  0  0  0
  1 36  1  0  0  0
  2  6  1  0  0  0
  2  3  1  0  0  0
  3 32  1  0  0  0
  3 17  1  0  0  0
  3  4  1  0  0  0
  4  5  1  0  0  0
  4 37  1  0  0  0
  4 38  1  0  0  0
  5  6  1  0  0  0
  5 39  1  0  0  0
  5 40  1  0  0  0
  6 33  1  0  0  0
  6  7  1  0  0  0
  7 15  1  0  0  0
  7  8  1  0  0  0
  8 13  2  0  0  0
  8  9  1  0  0  0
  9 10  2  0  0  0
  9 41  1  0  0  0
 10 11  1  0  0  0
 10 42  1  0  0  0
 11 12  2  0  0  0
 11 43  1  0  0  0
 12 13  1  0  0  0
 12 44  1  0  0  0
 13 14  1  0  0  0
 14 26  2  0  0  0
 14 15  1  0  0  0
 15 16  2  0  0  0
 16 24  1  0  0  0
 16 17  1  0  0  0
 17 18  1  0  0  0
 18 23  1  0  0  0
 18 19  2  0  0  0
 19 20  1  0  0  0
 19 45  1  0  0  0
 20 21  2  0  0  0
 20 46  1  0  0  0
 21 22  1  0  0  0
 21 47  1  0  0  0
 22 23  2  0  0  0
 22 48  1  0  0  0
 23 24  1  0  0  0
 24 25  2  0  0  0
 25 30  1  0  0  0
 25 26  1  0  0  0
 26 27  1  0  0  0
 27 28  2  0  0  0
 27 29  1  0  0  0
 29 30  1  0  0  0
 29 49  1  0  0  0
 30 31  2  0  0  0
M  END
> <s_m_entry_id>
4288

> <s_m_entry_name>
ligand_docking-pose.58

> <s_m_Source_Path>
/home/csk/Desktop/cluster/DUD-E-result/kpcb

> <s_m_Source_File>
ligand_docking-pose.sdf

> <i_m_Source_File_Index>
58

> <i_lp_mmshare_version>
53161

> <r_lp_tautomer_probability>
1

> <s_lp_Force_Field>
OPLS_2005

> <r_lp_Energy>
128.104452

> <b_lp_Chiralities_Consistent>
1

> <s_lp_Variant>
243650-1

> <s_i_glide_gridfile>
glide-grid_2i0e

> <i_i_glide_lignum>
501

> <i_i_glide_rotatable_bonds>
0

> <r_i_docking_score>
-9.32506922106464

> <r_i_glide_ligand_efficiency>
-0.300808684550472

> <r_i_glide_ligand_efficiency_sa>
-0.944954580636506

> <r_i_glide_ligand_efficiency_ln>
-2.10308888840094

> <r_i_glide_gscore>
-9.32506922106464

> <r_i_glide_lipo>
-2.65280560227017

> <r_i_glide_hbond>
-0.608

> <r_i_glide_metal>
0

> <r_i_glide_rewards>
-2.73858641466239

> <r_i_glide_evdw>
-45.3821601867676

> <r_i_glide_ecoul>
-7.04379463195801

> <r_i_glide_erotb>
0

> <r_i_glide_esite>
0

> <r_i_glide_emodel>
-82.0329926799001

> <r_i_glide_energy>
-52.4259548187256

> <r_i_glide_einternal>
0

> <i_i_glide_confnum>
1

> <i_i_glide_posenum>
316

> <r_i_glide_eff_state_penalty>
0

> <i_f3d_flags>
0

> <s_user_duplicate_titles>
243650

> <s_m_subgroup_title>
dock_pv

> <s_m_subgroupid>
dock_pv1

> <b_m_subgroup_collapsed>
0

$$$$
322457
                    3D
 Schrodinger Suite 2021-1.
 58 64  0  0  1  0            999 V2000
   43.8602   54.3718   33.0534 C   0  0  0  0  0  0
   42.4330   54.7297   33.5283 C   0  0  1  0  0  0
   42.1420   56.2255   33.3573 C   0  0  0  0  0  0
   40.6199   56.2496   33.4337 C   0  0  1  0  0  0
   40.2487   55.0794   32.7638 O   0  0  0  0  0  0
   41.2603   54.0765   32.7325 C   0  0  0  0  0  0
   40.6236   52.8076   33.3269 C   0  0  0  0  0  0
   41.5444   53.8681   31.2375 C   0  0  0  0  0  0
   39.9039   56.3284   34.7215 N   0  0  0  0  0  0
   40.3973   56.5220   36.0288 C   0  0  0  0  0  0
   41.6975   56.7096   36.5456 C   0  0  0  0  0  0
   41.8638   56.8227   37.9229 C   0  0  0  0  0  0
   40.7915   56.7717   38.7952 C   0  0  0  0  0  0
   39.4999   56.6159   38.3157 C   0  0  0  0  0  0
   39.2785   56.5024   36.9291 C   0  0  0  0  0  0
   38.1038   56.3555   36.1693 C   0  0  0  0  0  0
   38.5091   56.2354   34.8210 C   0  0  0  0  0  0
   37.5361   56.0564   33.8199 C   0  0  0  0  0  0
   36.1669   55.9858   34.1363 C   0  0  0  0  0  0
   35.4649   55.8203   32.9259 C   0  0  0  0  0  0
   34.0984   55.7004   32.6202 C   0  0  0  0  0  0
   33.7176   55.5954   31.2841 C   0  0  0  0  0  0
   34.6670   55.5729   30.2695 C   0  0  0  0  0  0
   36.0355   55.6360   30.5384 C   0  0  0  0  0  0
   36.4225   55.7845   31.8759 C   0  0  0  0  0  0
   37.6725   55.9102   32.4539 N   0  0  0  0  0  0
   35.7789   56.0956   35.4740 C   0  0  0  0  0  0
   36.7229   56.3096   36.4732 C   0  0  0  0  0  0
   35.9881   56.4931   37.7692 C   0  0  0  0  0  0
   36.3972   56.7715   38.8892 O   0  0  0  0  0  0
   34.7012   56.3380   37.4538 N   0  0  0  0  0  0
   34.4088   56.0540   36.0658 C   0  0  0  0  0  0
   42.4899   54.3398   34.8892 O   0  0  0  0  0  0
   40.2301   57.0999   32.8694 H   0  0  0  0  0  0
   38.5591   55.8715   31.9668 H   0  0  0  0  0  0
   44.0416   54.6650   32.0200 H   0  0  0  0  0  0
   44.6221   54.8675   33.6572 H   0  0  0  0  0  0
   44.0496   53.2981   33.1231 H   0  0  0  0  0  0
   42.4131   56.5385   32.3500 H   0  0  0  0  0  0
   42.6377   56.9267   34.0137 H   0  0  0  0  0  0
   41.3176   51.9722   33.2390 H   0  0  0  0  0  0
   40.3489   52.9283   34.3758 H   0  0  0  0  0  0
   39.7160   52.5289   32.7869 H   0  0  0  0  0  0
   42.2409   53.0431   31.0710 H   0  0  0  0  0  0
   40.6345   53.6558   30.6740 H   0  0  0  0  0  0
   41.9881   54.7707   30.8351 H   0  0  0  0  0  0
   42.5949   56.7204   35.9583 H   0  0  0  0  0  0
   42.8591   56.9417   38.3254 H   0  0  0  0  0  0
   40.9599   56.8496   39.8601 H   0  0  0  0  0  0
   38.6987   56.5663   39.0300 H   0  0  0  0  0  0
   33.3490   55.7080   33.3973 H   0  0  0  0  0  0
   32.6699   55.5309   31.0281 H   0  0  0  0  0  0
   34.3360   55.4735   29.2439 H   0  0  0  0  0  0
   36.7541   55.5712   29.7372 H   0  0  0  0  0  0
   33.9653   56.5365   38.1242 H   0  0  0  0  0  0
   33.7458   56.8136   35.6546 H   0  0  0  0  0  0
   33.9198   55.0845   35.9617 H   0  0  0  0  0  0
   42.5868   53.3833   34.9252 H   0  0  0  0  0  0
  1  2  1  0  0  0
  1 36  1  0  0  0
  1 37  1  0  0  0
  1 38  1  0  0  0
  2  6  1  0  0  0
  2  3  1  0  0  0
  2 33  1  0  0  0
  3  4  1  0  0  0
  3 39  1  0  0  0
  3 40  1  0  0  0
  4 34  1  0  0  0
  4  5  1  0  0  0
  4  9  1  0  0  0
  5  6  1  0  0  0
  6  7  1  0  0  0
  6  8  1  0  0  0
  7 41  1  0  0  0
  7 42  1  0  0  0
  7 43  1  0  0  0
  8 44  1  0  0  0
  8 45  1  0  0  0
  8 46  1  0  0  0
  9 17  1  0  0  0
  9 10  1  0  0  0
 10 15  2  0  0  0
 10 11  1  0  0  0
 11 12  2  0  0  0
 11 47  1  0  0  0
 12 13  1  0  0  0
 12 48  1  0  0  0
 13 14  2  0  0  0
 13 49  1  0  0  0
 14 15  1  0  0  0
 14 50  1  0  0  0
 15 16  1  0  0  0
 16 28  2  0  0  0
 16 17  1  0  0  0
 17 18  2  0  0  0
 18 26  1  0  0  0
 18 19  1  0  0  0
 19 20  1  0  0  0
 19 27  2  0  0  0
 20 25  2  0  0  0
 20 21  1  0  0  0
 21 22  2  0  0  0
 21 51  1  0  0  0
 22 23  1  0  0  0
 22 52  1  0  0  0
 23 24  2  0  0  0
 23 53  1  0  0  0
 24 25  1  0  0  0
 24 54  1  0  0  0
 25 26  1  0  0  0
 26 35  1  0  0  0
 27 32  1  0  0  0
 27 28  1  0  0  0
 28 29  1  0  0  0
 29 30  2  0  0  0
 29 31  1  0  0  0
 31 32  1  0  0  0
 31 55  1  0  0  0
 32 56  1  0  0  0
 32 57  1  0  0  0
 33 58  1  0  0  0
M  END
> <s_m_entry_id>
4289

> <s_m_entry_name>
ligand_docking-pose.59

> <s_m_Source_Path>
/home/csk/Desktop/cluster/DUD-E-result/kpcb

> <s_m_Source_File>
ligand_docking-pose.sdf

> <i_m_Source_File_Index>
59

> <i_lp_mmshare_version>
53161

> <r_lp_tautomer_probability>
1

> <s_lp_Force_Field>
OPLS_2005

> <r_lp_Energy>
104.874136

> <b_lp_Chiralities_Consistent>
1

> <s_lp_Variant>
322457-1

> <s_i_glide_gridfile>
glide-grid_2i0e

> <i_i_glide_lignum>
331

> <i_i_glide_rotatable_bonds>
2

> <r_i_docking_score>
-9.32363356652566

> <r_i_glide_ligand_efficiency>
-0.282534350500777

> <r_i_glide_ligand_efficiency_sa>
-0.906238627578094

> <r_i_glide_ligand_efficiency_ln>
-2.07352783000433

> <r_i_glide_gscore>
-9.32363356652566

> <r_i_glide_lipo>
-3.04389649250724

> <r_i_glide_hbond>
-0.608

> <r_i_glide_metal>
0

> <r_i_glide_rewards>
-1.97740204421167

> <r_i_glide_evdw>
-48.8600082397461

> <r_i_glide_ecoul>
-8.82441425323486

> <r_i_glide_erotb>
0.0723275201657849

> <r_i_glide_esite>
0

> <r_i_glide_emodel>
-88.8688557744272

> <r_i_glide_energy>
-57.684422492981

> <r_i_glide_einternal>
2.30007266998291

> <i_i_glide_confnum>
9

> <i_i_glide_posenum>
263

> <r_i_glide_eff_state_penalty>
0

> <i_f3d_flags>
0

> <s_user_duplicate_titles>
322457

> <s_m_subgroup_title>
dock_pv

> <s_m_subgroupid>
dock_pv1

> <b_m_subgroup_collapsed>
0

$$$$
232
                    3D
 Schrodinger Suite 2021-1.
 54 58  0  0  1  0            999 V2000
   41.7758   56.4933   39.0626 C   0  0  0  0  0  0
   40.7463   56.6887   38.0551 N   0  0  0  0  0  0
   39.3972   56.5610   38.2709 C   0  0  0  0  0  0
   38.6781   56.7343   37.0955 C   0  0  0  0  0  0
   39.6715   57.0790   36.1007 C   0  0  0  0  0  0
   40.9602   56.9800   36.7210 C   0  0  0  0  0  0
   42.1506   57.1672   36.0033 C   0  0  0  0  0  0
   42.0378   57.4553   34.6438 C   0  0  0  0  0  0
   40.8046   57.6245   34.0310 C   0  0  0  0  0  0
   39.6261   57.4577   34.7482 C   0  0  0  0  0  0
   37.2121   56.5754   36.9721 C   0  0  0  0  0  0
   36.4430   56.2428   35.9164 C   0  0  0  0  0  0
   35.0683   56.2238   36.3323 C   0  0  0  0  0  0
   34.0573   55.9733   35.6801 O   0  0  0  0  0  0
   35.1010   56.5414   37.6271 N   0  0  0  0  0  0
   36.3303   56.7732   38.0907 C   0  0  0  0  0  0
   36.6009   57.1277   39.2367 O   0  0  0  0  0  0
   36.8280   55.8420   34.5691 C   0  0  0  0  0  0
   37.8780   55.0052   34.2933 C   0  0  0  0  0  0
   37.9957   54.7570   32.9471 N   0  0  0  0  0  0
   36.9970   55.4691   32.2943 C   0  0  0  0  0  0
   36.2607   56.1811   33.2953 C   0  0  0  0  0  0
   35.2158   57.0234   32.8908 C   0  0  0  0  0  0
   34.8562   57.0696   31.5463 C   0  0  0  0  0  0
   35.5618   56.3430   30.5930 C   0  0  0  0  0  0
   36.6717   55.5724   30.9331 C   0  0  0  0  0  0
   39.0545   53.9616   32.3202 C   0  0  0  0  0  0
   39.1267   52.5013   32.8325 C   0  0  0  0  0  0
   39.5144   52.2477   34.3133 C   0  0  0  0  0  0
   40.9087   52.7486   34.7569 C   0  0  0  0  0  0
   41.0134   54.1536   34.7959 O   0  0  0  0  0  0
   42.4290   57.3659   39.0857 H   0  0  0  0  0  0
   41.3294   56.3610   40.0478 H   0  0  0  0  0  0
   42.3644   55.6095   38.8101 H   0  0  0  0  0  0
   39.0481   56.2998   39.2606 H   0  0  0  0  0  0
   43.1197   57.0767   36.4719 H   0  0  0  0  0  0
   42.9350   57.5722   34.0553 H   0  0  0  0  0  0
   40.7646   57.8704   32.9786 H   0  0  0  0  0  0
   38.6846   57.5718   34.2449 H   0  0  0  0  0  0
   34.2609   56.6349   38.1830 H   0  0  0  0  0  0
   38.5925   54.6069   34.9892 H   0  0  0  0  0  0
   34.6988   57.6140   33.6263 H   0  0  0  0  0  0
   34.0196   57.6786   31.2372 H   0  0  0  0  0  0
   35.2535   56.3730   29.5578 H   0  0  0  0  0  0
   37.2402   55.0736   30.1634 H   0  0  0  0  0  0
   38.9043   53.9523   31.2405 H   0  0  0  0  0  0
   39.9963   54.4873   32.4814 H   0  0  0  0  0  0
   38.1720   52.0111   32.6265 H   0  0  0  0  0  0
   39.8500   51.9755   32.2074 H   0  0  0  0  0  0
   38.7409   52.5707   35.0053 H   0  0  0  0  0  0
   39.5035   51.1725   34.4593 H   0  0  0  0  0  0
   41.1816   52.3274   35.7269 H   0  0  0  0  0  0
   41.6580   52.3961   34.0462 H   0  0  0  0  0  0
   41.9244   54.3843   35.0050 H   0  0  0  0  0  0
  1  2  1  0  0  0
  1 32  1  0  0  0
  1 33  1  0  0  0
  1 34  1  0  0  0
  2  6  1  0  0  0
  2  3  1  0  0  0
  3  4  2  0  0  0
  3 35  1  0  0  0
  4  5  1  0  0  0
  4 11  1  0  0  0
  5 10  2  0  0  0
  5  6  1  0  0  0
  6  7  2  0  0  0
  7  8  1  0  0  0
  7 36  1  0  0  0
  8  9  2  0  0  0
  8 37  1  0  0  0
  9 10  1  0  0  0
  9 38  1  0  0  0
 10 39  1  0  0  0
 11 16  1  0  0  0
 11 12  2  0  0  0
 12 13  1  0  0  0
 12 18  1  0  0  0
 13 14  2  0  0  0
 13 15  1  0  0  0
 15 16  1  0  0  0
 15 40  1  0  0  0
 16 17  2  0  0  0
 18 22  1  0  0  0
 18 19  2  0  0  0
 19 20  1  0  0  0
 19 41  1  0  0  0
 20 21  1  0  0  0
 20 27  1  0  0  0
 21 26  1  0  0  0
 21 22  2  0  0  0
 22 23  1  0  0  0
 23 24  2  0  0  0
 23 42  1  0  0  0
 24 25  1  0  0  0
 24 43  1  0  0  0
 25 26  2  0  0  0
 25 44  1  0  0  0
 26 45  1  0  0  0
 27 28  1  0  0  0
 27 46  1  0  0  0
 27 47  1  0  0  0
 28 29  1  0  0  0
 28 48  1  0  0  0
 28 49  1  0  0  0
 29 30  1  0  0  0
 29 50  1  0  0  0
 29 51  1  0  0  0
 30 31  1  0  0  0
 30 52  1  0  0  0
 30 53  1  0  0  0
 31 54  1  0  0  0
M  END
> <s_m_entry_id>
4291

> <s_m_entry_name>
ligand_docking-pose.61

> <s_m_Source_Path>
/home/csk/Desktop/cluster/DUD-E-result/kpcb

> <s_m_Source_File>
ligand_docking-pose.sdf

> <i_m_Source_File_Index>
61

> <i_lp_mmshare_version>
53161

> <r_lp_tautomer_probability>
1

> <s_lp_Force_Field>
OPLS_2005

> <r_lp_Energy>
25.103329

> <b_lp_Chiralities_Consistent>
1

> <s_lp_Variant>
232-1

> <s_i_glide_gridfile>
glide-grid_2i0e

> <i_i_glide_lignum>
469

> <i_i_glide_rotatable_bonds>
7

> <r_i_docking_score>
-9.29192613949721

> <r_i_glide_ligand_efficiency>
-0.299739552887007

> <r_i_glide_ligand_efficiency_sa>
-0.94159603111788

> <r_i_glide_ligand_efficiency_ln>
-2.09561410779401

> <r_i_glide_gscore>
-9.29192613949721

> <r_i_glide_lipo>
-2.90889602450087

> <r_i_glide_hbond>
-0.608

> <r_i_glide_metal>
0

> <r_i_glide_rewards>
-2.62716751112149

> <r_i_glide_evdw>
-50.6877365112305

> <r_i_glide_ecoul>
-7.32106971740723

> <r_i_glide_erotb>
0.484684679297748

> <r_i_glide_esite>
0

> <r_i_glide_emodel>
-89.8085096182308

> <r_i_glide_energy>
-58.0088062286377

> <r_i_glide_einternal>
4.12171649932861

> <i_i_glide_confnum>
12

> <i_i_glide_posenum>
57

> <r_i_glide_eff_state_penalty>
0

> <i_f3d_flags>
0

> <s_user_duplicate_titles>
232

> <s_m_subgroup_title>
dock_pv

> <s_m_subgroupid>
dock_pv1

> <b_m_subgroup_collapsed>
0

$$$$
81388
                    3D
 Schrodinger Suite 2021-1.
 46 50  0  0  1  0            999 V2000
   41.5095   56.2052   39.1480 C   0  0  0  0  0  0
   40.5155   56.4233   38.1086 N   0  0  0  0  0  0
   39.1599   56.2795   38.2699 C   0  0  0  0  0  0
   38.4918   56.4782   37.0712 C   0  0  0  0  0  0
   39.5107   56.8903   36.1338 C   0  0  0  0  0  0
   40.7744   56.7761   36.7965 C   0  0  0  0  0  0
   41.9859   57.0138   36.1339 C   0  0  0  0  0  0
   41.9153   57.3936   34.7940 C   0  0  0  0  0  0
   40.7026   57.5769   34.1436 C   0  0  0  0  0  0
   39.5013   57.3435   34.8032 C   0  0  0  0  0  0
   37.0417   56.3168   36.8507 C   0  0  0  0  0  0
   36.3508   56.0195   35.7338 C   0  0  0  0  0  0
   34.9467   56.0841   36.0343 C   0  0  0  0  0  0
   33.9804   55.9107   35.2924 O   0  0  0  0  0  0
   34.8910   56.3719   37.3369 N   0  0  0  0  0  0
   36.0913   56.5155   37.9096 C   0  0  0  0  0  0
   36.2971   56.7815   39.0927 O   0  0  0  0  0  0
   36.8325   55.5789   34.4235 C   0  0  0  0  0  0
   36.3395   55.9587   33.1893 C   0  0  0  0  0  0
   37.0950   55.4097   32.1801 N   0  0  0  0  0  0
   38.0844   54.6134   32.7352 C   0  0  0  0  0  0
   37.9215   54.6765   34.1543 C   0  0  0  0  0  0
   38.7850   53.9182   34.9628 C   0  0  0  0  0  0
   39.7896   53.1633   34.3657 C   0  0  0  0  0  0
   39.9422   53.1368   32.9836 C   0  0  0  0  0  0
   39.0994   53.8521   32.1359 C   0  0  0  0  0  0
   40.9625   52.3719   32.4362 N   0  0  0  0  0  0
   36.9301   55.6990   30.7665 C   0  0  0  0  0  0
   42.1291   57.0984   39.2494 H   0  0  0  0  0  0
   41.0245   55.9927   40.1016 H   0  0  0  0  0  0
   42.1394   55.3595   38.8683 H   0  0  0  0  0  0
   38.7704   55.9781   39.2334 H   0  0  0  0  0  0
   42.9410   56.9096   36.6283 H   0  0  0  0  0  0
   42.8325   57.5716   34.2509 H   0  0  0  0  0  0
   40.6985   57.8915   33.1095 H   0  0  0  0  0  0
   38.5707   57.4830   34.2805 H   0  0  0  0  0  0
   34.0234   56.4908   37.8413 H   0  0  0  0  0  0
   35.5245   56.6259   32.9485 H   0  0  0  0  0  0
   38.6890   53.9376   36.0369 H   0  0  0  0  0  0
   40.4647   52.5937   34.9892 H   0  0  0  0  0  0
   39.2242   53.8133   31.0628 H   0  0  0  0  0  0
   40.8732   52.0959   31.4683 H   0  0  0  0  0  0
   41.4877   51.7673   33.0593 H   0  0  0  0  0  0
   35.9932   56.2289   30.5867 H   0  0  0  0  0  0
   37.7667   56.3162   30.4380 H   0  0  0  0  0  0
   36.9238   54.7721   30.1957 H   0  0  0  0  0  0
  1  2  1  0  0  0
  1 29  1  0  0  0
  1 30  1  0  0  0
  1 31  1  0  0  0
  2  6  1  0  0  0
  2  3  1  0  0  0
  3  4  2  0  0  0
  3 32  1  0  0  0
  4  5  1  0  0  0
  4 11  1  0  0  0
  5 10  2  0  0  0
  5  6  1  0  0  0
  6  7  2  0  0  0
  7  8  1  0  0  0
  7 33  1  0  0  0
  8  9  2  0  0  0
  8 34  1  0  0  0
  9 10  1  0  0  0
  9 35  1  0  0  0
 10 36  1  0  0  0
 11 16  1  0  0  0
 11 12  2  0  0  0
 12 13  1  0  0  0
 12 18  1  0  0  0
 13 14  2  0  0  0
 13 15  1  0  0  0
 15 16  1  0  0  0
 15 37  1  0  0  0
 16 17  2  0  0  0
 18 22  1  0  0  0
 18 19  2  0  0  0
 19 20  1  0  0  0
 19 38  1  0  0  0
 20 21  1  0  0  0
 20 28  1  0  0  0
 21 26  1  0  0  0
 21 22  2  0  0  0
 22 23  1  0  0  0
 23 24  2  0  0  0
 23 39  1  0  0  0
 24 25  1  0  0  0
 24 40  1  0  0  0
 25 26  2  0  0  0
 25 27  1  0  0  0
 26 41  1  0  0  0
 27 42  1  0  0  0
 27 43  1  0  0  0
 28 44  1  0  0  0
 28 45  1  0  0  0
 28 46  1  0  0  0
M  END
> <s_m_entry_id>
4292

> <s_m_entry_name>
ligand_docking-pose.62

> <s_m_Source_Path>
/home/csk/Desktop/cluster/DUD-E-result/kpcb

> <s_m_Source_File>
ligand_docking-pose.sdf

> <i_m_Source_File_Index>
62

> <i_lp_mmshare_version>
53161

> <r_lp_tautomer_probability>
1

> <s_lp_Force_Field>
OPLS_2005

> <r_lp_Energy>
24.227472

> <b_lp_Chiralities_Consistent>
1

> <s_lp_Variant>
81388-1

> <s_i_glide_gridfile>
glide-grid_2i0e

> <i_i_glide_lignum>
485

> <i_i_glide_rotatable_bonds>
2

> <r_i_docking_score>
-9.28961214328431

> <r_i_glide_ligand_efficiency>
-0.331771862260154

> <r_i_glide_ligand_efficiency_sa>
-1.00745477699882

> <r_i_glide_ligand_efficiency_ln>
-2.14431523753448

> <r_i_glide_gscore>
-9.28961214328431

> <r_i_glide_lipo>
-2.01698320098149

> <r_i_glide_hbond>
-0.876568819549871

> <r_i_glide_metal>
0

> <r_i_glide_rewards>
-2.90037829469322

> <r_i_glide_evdw>
-45.9091339111328

> <r_i_glide_ecoul>
-8.97422981262207

> <r_i_glide_erotb>
0.196855527427575

> <r_i_glide_esite>
-0.0509461880373458

> <r_i_glide_emodel>
-84.5721328082666

> <r_i_glide_energy>
-54.8833637237549

> <r_i_glide_einternal>
2.5765700340271

> <i_i_glide_confnum>
7

> <i_i_glide_posenum>
138

> <r_i_glide_eff_state_penalty>
0

> <i_f3d_flags>
0

> <s_user_duplicate_titles>
81388

> <s_m_subgroup_title>
dock_pv

> <s_m_subgroupid>
dock_pv1

> <b_m_subgroup_collapsed>
0

$$$$
366607
                    3D
 Schrodinger Suite 2021-1.
 40 45  0  0  1  0            999 V2000
   35.0360   56.1176   30.2482 C   0  0  0  0  0  0
   34.4081   56.7706   31.3011 C   0  0  0  0  0  0
   35.0313   56.8290   32.5450 C   0  0  0  0  0  0
   36.2598   56.1913   32.7779 C   0  0  0  0  0  0
   36.9287   55.6058   31.6841 C   0  0  0  0  0  0
   36.3007   55.5719   30.4369 C   0  0  0  0  0  0
   38.3313   55.0497   31.8820 C   0  0  0  0  0  0
   39.1295   55.9717   32.8269 C   0  0  0  0  0  0
   38.3520   56.1845   34.1284 C   0  0  0  0  0  0
   36.9365   56.2018   34.1259 C   0  0  0  0  0  0
   36.2441   56.2038   35.3546 C   0  0  0  0  0  0
   36.8920   56.3578   36.5590 C   0  0  0  0  0  0
   38.2936   56.4577   36.5987 C   0  0  0  0  0  0
   38.9957   56.3590   35.3665 C   0  0  0  0  0  0
   40.3423   56.4421   35.6608 N   0  0  0  0  0  0
   40.5394   56.5806   37.0167 C   0  0  0  0  0  0
   39.2579   56.5939   37.6298 C   0  0  0  0  0  0
   39.1856   56.7053   39.0314 C   0  0  0  0  0  0
   40.3650   56.7876   39.7677 C   0  0  0  0  0  0
   41.6063   56.7719   39.1398 C   0  0  0  0  0  0
   41.7250   56.6782   37.7536 C   0  0  0  0  0  0
   35.8620   56.3724   37.6324 C   0  0  0  0  0  0
   35.9942   56.5463   38.8372 O   0  0  0  0  0  0
   34.6970   56.1486   37.0119 N   0  0  0  0  0  0
   34.7996   55.9833   35.6850 C   0  0  0  0  0  0
   33.8651   55.6863   34.9470 O   0  0  0  0  0  0
   41.0842   56.3874   34.9787 H   0  0  0  0  0  0
   34.5586   56.0608   29.2802 H   0  0  0  0  0  0
   33.4449   57.2368   31.1518 H   0  0  0  0  0  0
   34.5426   57.3821   33.3304 H   0  0  0  0  0  0
   36.8016   55.1101   29.6003 H   0  0  0  0  0  0
   38.2618   54.0493   32.3122 H   0  0  0  0  0  0
   38.8511   54.9404   30.9279 H   0  0  0  0  0  0
   40.0970   55.5111   33.0298 H   0  0  0  0  0  0
   39.3387   56.9291   32.3486 H   0  0  0  0  0  0
   38.2460   56.7071   39.5576 H   0  0  0  0  0  0
   40.3124   56.8581   40.8446 H   0  0  0  0  0  0
   42.5006   56.8347   39.7422 H   0  0  0  0  0  0
   42.6956   56.6635   37.2796 H   0  0  0  0  0  0
   33.8170   56.1017   37.5047 H   0  0  0  0  0  0
  1  6  1  0  0  0
  1  2  2  0  0  0
  1 28  1  0  0  0
  2  3  1  0  0  0
  2 29  1  0  0  0
  3  4  2  0  0  0
  3 30  1  0  0  0
  4 10  1  0  0  0
  4  5  1  0  0  0
  5  6  2  0  0  0
  5  7  1  0  0  0
  6 31  1  0  0  0
  7  8  1  0  0  0
  7 32  1  0  0  0
  7 33  1  0  0  0
  8  9  1  0  0  0
  8 34  1  0  0  0
  8 35  1  0  0  0
  9 14  2  0  0  0
  9 10  1  0  0  0
 10 11  2  0  0  0
 11 25  1  0  0  0
 11 12  1  0  0  0
 12 13  2  0  0  0
 12 22  1  0  0  0
 13 17  1  0  0  0
 13 14  1  0  0  0
 14 15  1  0  0  0
 15 27  1  0  0  0
 15 16  1  0  0  0
 16 21  1  0  0  0
 16 17  2  0  0  0
 17 18  1  0  0  0
 18 19  2  0  0  0
 18 36  1  0  0  0
 19 20  1  0  0  0
 19 37  1  0  0  0
 20 21  2  0  0  0
 20 38  1  0  0  0
 21 39  1  0  0  0
 22 23  2  0  0  0
 22 24  1  0  0  0
 24 25  1  0  0  0
 24 40  1  0  0  0
 25 26  2  0  0  0
M  END
> <s_m_entry_id>
4293

> <s_m_entry_name>
ligand_docking-pose.63

> <s_m_Source_Path>
/home/csk/Desktop/cluster/DUD-E-result/kpcb

> <s_m_Source_File>
ligand_docking-pose.sdf

> <i_m_Source_File_Index>
63

> <i_lp_mmshare_version>
53161

> <r_lp_tautomer_probability>
1

> <s_lp_Force_Field>
OPLS_2005

> <r_lp_Energy>
73.41167

> <b_lp_Chiralities_Consistent>
1

> <s_lp_Variant>
366607-1

> <s_i_glide_gridfile>
glide-grid_2i0e

> <i_i_glide_lignum>
46

> <i_i_glide_rotatable_bonds>
0

> <r_i_docking_score>
-9.28389746268631

> <r_i_glide_ligand_efficiency>
-0.357072979334089

> <r_i_glide_ligand_efficiency_sa>
-1.05782729626291

> <r_i_glide_ligand_efficiency_ln>
-2.18029285615964

> <r_i_glide_gscore>
-9.28389746268631

> <r_i_glide_lipo>
-2.81289842917537

> <r_i_glide_hbond>
-0.428017370643007

> <r_i_glide_metal>
0

> <r_i_glide_rewards>
-2.98163932812062

> <r_i_glide_evdw>
-44.3501014709473

> <r_i_glide_ecoul>
-5.62558174133301

> <r_i_glide_erotb>
0

> <r_i_glide_esite>
0

> <r_i_glide_emodel>
-78.5837371461947

> <r_i_glide_energy>
-49.9756832122803

> <r_i_glide_einternal>
0

> <i_i_glide_confnum>
2

> <i_i_glide_posenum>
85

> <r_i_glide_eff_state_penalty>
0

> <i_f3d_flags>
0

> <s_user_duplicate_titles>
366607

> <s_m_subgroup_title>
dock_pv

> <s_m_subgroupid>
dock_pv1

> <b_m_subgroup_collapsed>
0

$$$$
92673
                    3D
 Schrodinger Suite 2021-1.
 40 45  0  0  1  0            999 V2000
   38.9067   55.5612   31.5630 C   0  0  0  0  0  0
   37.6817   55.7027   32.3463 N   0  0  0  0  0  0
   36.4089   55.6869   31.7848 C   0  0  0  0  0  0
   36.0015   55.5721   30.4498 C   0  0  0  0  0  0
   34.6314   55.5801   30.1915 C   0  0  0  0  0  0
   33.6880   55.6781   31.2094 C   0  0  0  0  0  0
   34.0859   55.7825   32.5384 C   0  0  0  0  0  0
   35.4591   55.8061   32.8385 C   0  0  0  0  0  0
   36.1701   55.9336   34.0421 C   0  0  0  0  0  0
   37.5417   55.8820   33.7215 C   0  0  0  0  0  0
   38.4904   56.0056   34.7431 C   0  0  0  0  0  0
   38.1059   56.1792   36.0942 C   0  0  0  0  0  0
   39.3080   56.2722   36.8386 C   0  0  0  0  0  0
   39.5928   56.4364   38.2075 C   0  0  0  0  0  0
   40.9243   56.4939   38.6206 C   0  0  0  0  0  0
   41.9658   56.3892   37.7037 C   0  0  0  0  0  0
   41.7315   56.2182   36.3377 C   0  0  0  0  0  0
   40.3969   56.1608   35.9223 C   0  0  0  0  0  0
   39.8649   55.9913   34.6603 N   0  0  0  0  0  0
   36.7251   56.2213   36.3960 C   0  0  0  0  0  0
   35.7806   56.0919   35.3816 C   0  0  0  0  0  0
   34.4062   56.1746   35.9630 C   0  0  0  0  0  0
   34.7010   56.3717   37.3685 N   0  0  0  0  0  0
   35.9971   56.4052   37.6973 C   0  0  0  0  0  0
   36.4249   56.5779   38.8348 O   0  0  0  0  0  0
   40.4062   55.8676   33.8185 H   0  0  0  0  0  0
   39.7978   55.5834   32.1823 H   0  0  0  0  0  0
   38.8839   54.6108   31.0280 H   0  0  0  0  0  0
   38.9624   56.3718   30.8376 H   0  0  0  0  0  0
   36.7043   55.4621   29.6388 H   0  0  0  0  0  0
   34.2997   55.4882   29.1702 H   0  0  0  0  0  0
   32.6370   55.6720   30.9622 H   0  0  0  0  0  0
   33.3455   55.8593   33.3194 H   0  0  0  0  0  0
   38.8106   56.5084   38.9438 H   0  0  0  0  0  0
   41.1495   56.6171   39.6697 H   0  0  0  0  0  0
   42.9850   56.4334   38.0595 H   0  0  0  0  0  0
   42.5532   56.1282   35.6438 H   0  0  0  0  0  0
   33.8172   55.2692   35.8116 H   0  0  0  0  0  0
   33.8447   57.0214   35.5728 H   0  0  0  0  0  0
   33.9716   56.5614   38.0479 H   0  0  0  0  0  0
  1  2  1  0  0  0
  1 27  1  0  0  0
  1 28  1  0  0  0
  1 29  1  0  0  0
  2 10  1  0  0  0
  2  3  1  0  0  0
  3  8  2  0  0  0
  3  4  1  0  0  0
  4  5  2  0  0  0
  4 30  1  0  0  0
  5  6  1  0  0  0
  5 31  1  0  0  0
  6  7  2  0  0  0
  6 32  1  0  0  0
  7  8  1  0  0  0
  7 33  1  0  0  0
  8  9  1  0  0  0
  9 21  2  0  0  0
  9 10  1  0  0  0
 10 11  2  0  0  0
 11 19  1  0  0  0
 11 12  1  0  0  0
 12 13  1  0  0  0
 12 20  2  0  0  0
 13 18  2  0  0  0
 13 14  1  0  0  0
 14 15  2  0  0  0
 14 34  1  0  0  0
 15 16  1  0  0  0
 15 35  1  0  0  0
 16 17  2  0  0  0
 16 36  1  0  0  0
 17 18  1  0  0  0
 17 37  1  0  0  0
 18 19  1  0  0  0
 19 26  1  0  0  0
 20 24  1  0  0  0
 20 21  1  0  0  0
 21 22  1  0  0  0
 22 23  1  0  0  0
 22 38  1  0  0  0
 22 39  1  0  0  0
 23 24  1  0  0  0
 23 40  1  0  0  0
 24 25  2  0  0  0
M  END
> <s_m_entry_id>
4294

> <s_m_entry_name>
ligand_docking-pose.64

> <s_m_Source_Path>
/home/csk/Desktop/cluster/DUD-E-result/kpcb

> <s_m_Source_File>
ligand_docking-pose.sdf

> <i_m_Source_File_Index>
64

> <i_lp_mmshare_version>
53161

> <r_lp_tautomer_probability>
1

> <s_lp_Force_Field>
OPLS_2005

> <r_lp_Energy>
69.145986

> <b_lp_Chiralities_Consistent>
1

> <s_lp_Variant>
92673-1

> <s_i_glide_gridfile>
glide-grid_2i0e

> <i_i_glide_lignum>
418

> <i_i_glide_rotatable_bonds>
0

> <r_i_docking_score>
-9.26721024546738

> <r_i_glide_ligand_efficiency>
-0.370688409818695

> <r_i_glide_ligand_efficiency_sa>
-1.08389948449681

> <r_i_glide_ligand_efficiency_ln>
-2.19660654405653

> <r_i_glide_gscore>
-9.26721024546738

> <r_i_glide_lipo>
-2.90915664605283

> <r_i_glide_hbond>
-0.607419848515705

> <r_i_glide_metal>
0

> <r_i_glide_rewards>
-2.77831965540172

> <r_i_glide_evdw>
-38.82421875

> <r_i_glide_ecoul>
-6.87402105331421

> <r_i_glide_erotb>
0

> <r_i_glide_esite>
0

> <r_i_glide_emodel>
-71.6595163605611

> <r_i_glide_energy>
-45.6982398033142

> <r_i_glide_einternal>
0

> <i_i_glide_confnum>
1

> <i_i_glide_posenum>
119

> <r_i_glide_eff_state_penalty>
0

> <i_f3d_flags>
0

> <s_user_duplicate_titles>
92673

> <s_m_subgroup_title>
dock_pv

> <s_m_subgroupid>
dock_pv1

> <b_m_subgroup_collapsed>
0

$$$$
18397
                    3D
 Schrodinger Suite 2021-1.
 37 42  0  0  1  0            999 V2000
   33.6724   55.6071   31.2420 C   0  0  0  0  0  0
   34.6233   55.5720   30.2267 C   0  0  0  0  0  0
   35.9897   55.6262   30.4943 C   0  0  0  0  0  0
   36.3776   55.7650   31.8318 C   0  0  0  0  0  0
   35.4175   55.8143   32.8866 C   0  0  0  0  0  0
   34.0519   55.7098   32.5796 C   0  0  0  0  0  0
   36.1227   55.9793   34.0953 C   0  0  0  0  0  0
   35.7511   56.1063   35.4441 C   0  0  0  0  0  0
   36.7112   56.3134   36.4335 C   0  0  0  0  0  0
   38.0860   56.3564   36.1074 C   0  0  0  0  0  0
   39.2980   56.5073   36.8237 C   0  0  0  0  0  0
   39.6079   56.6459   38.1893 C   0  0  0  0  0  0
   40.9407   56.7732   38.5691 C   0  0  0  0  0  0
   41.9650   56.7783   37.6255 C   0  0  0  0  0  0
   41.7060   56.6397   36.2622 C   0  0  0  0  0  0
   40.3686   56.4946   35.8756 C   0  0  0  0  0  0
   39.8188   56.3118   34.6197 N   0  0  0  0  0  0
   38.4513   56.2190   34.7498 C   0  0  0  0  0  0
   37.4883   56.0318   33.7620 C   0  0  0  0  0  0
   37.6343   55.8770   32.3996 N   0  0  0  0  0  0
   36.0019   56.4906   37.7429 C   0  0  0  0  0  0
   36.4486   56.7383   38.8598 O   0  0  0  0  0  0
   34.7025   56.3582   37.4494 N   0  0  0  0  0  0
   34.3921   56.0756   36.0624 C   0  0  0  0  0  0
   40.3363   56.2428   33.7564 H   0  0  0  0  0  0
   38.5097   55.8582   31.8943 H   0  0  0  0  0  0
   32.6243   55.5516   30.9819 H   0  0  0  0  0  0
   34.3002   55.4759   29.2014 H   0  0  0  0  0  0
   36.7059   55.5632   29.6899 H   0  0  0  0  0  0
   33.2987   55.7293   33.3544 H   0  0  0  0  0  0
   38.8415   56.6400   38.9471 H   0  0  0  0  0  0
   41.1913   56.8737   39.6146 H   0  0  0  0  0  0
   42.9887   56.8835   37.9585 H   0  0  0  0  0  0
   42.5144   56.6330   35.5441 H   0  0  0  0  0  0
   33.9755   56.5673   38.1309 H   0  0  0  0  0  0
   33.9032   55.1042   35.9660 H   0  0  0  0  0  0
   33.7223   56.8362   35.6617 H   0  0  0  0  0  0
  1  6  1  0  0  0
  1  2  2  0  0  0
  1 27  1  0  0  0
  2  3  1  0  0  0
  2 28  1  0  0  0
  3  4  2  0  0  0
  3 29  1  0  0  0
  4 20  1  0  0  0
  4  5  1  0  0  0
  5  6  2  0  0  0
  5  7  1  0  0  0
  6 30  1  0  0  0
  7 19  2  0  0  0
  7  8  1  0  0  0
  8 24  1  0  0  0
  8  9  2  0  0  0
  9 10  1  0  0  0
  9 21  1  0  0  0
 10 18  2  0  0  0
 10 11  1  0  0  0
 11 16  2  0  0  0
 11 12  1  0  0  0
 12 13  2  0  0  0
 12 31  1  0  0  0
 13 14  1  0  0  0
 13 32  1  0  0  0
 14 15  2  0  0  0
 14 33  1  0  0  0
 15 16  1  0  0  0
 15 34  1  0  0  0
 16 17  1  0  0  0
 17 25  1  0  0  0
 17 18  1  0  0  0
 18 19  1  0  0  0
 19 20  1  0  0  0
 20 26  1  0  0  0
 21 22  2  0  0  0
 21 23  1  0  0  0
 23 24  1  0  0  0
 23 35  1  0  0  0
 24 36  1  0  0  0
 24 37  1  0  0  0
M  END
> <s_m_entry_id>
4295

> <s_m_entry_name>
ligand_docking-pose.65

> <s_m_Source_Path>
/home/csk/Desktop/cluster/DUD-E-result/kpcb

> <s_m_Source_File>
ligand_docking-pose.sdf

> <i_m_Source_File_Index>
65

> <i_lp_mmshare_version>
53161

> <r_lp_tautomer_probability>
1

> <s_lp_Force_Field>
OPLS_2005

> <r_lp_Energy>
67.579224

> <b_lp_Chiralities_Consistent>
1

> <s_lp_Variant>
18397-1

> <s_i_glide_gridfile>
glide-grid_2i0e

> <i_i_glide_lignum>
34

> <i_i_glide_rotatable_bonds>
0

> <r_i_docking_score>
-9.25762033135682

> <r_i_glide_ligand_efficiency>
-0.385734180473201

> <r_i_glide_ligand_efficiency_sa>
-1.11264991090202

> <r_i_glide_ligand_efficiency_ln>
-2.21577334981006

> <r_i_glide_gscore>
-9.25762033135682

> <r_i_glide_lipo>
-2.96519925139457

> <r_i_glide_hbond>
-0.608

> <r_i_glide_metal>
0

> <r_i_glide_rewards>
-2.70584863981484

> <r_i_glide_evdw>
-38.1330642700195

> <r_i_glide_ecoul>
-7.14612817764282

> <r_i_glide_erotb>
0

> <r_i_glide_esite>
0

> <r_i_glide_emodel>
-70.5859597579366

> <r_i_glide_energy>
-45.2791924476624

> <r_i_glide_einternal>
0

> <i_i_glide_confnum>
1

> <i_i_glide_posenum>
369

> <r_i_glide_eff_state_penalty>
0

> <i_f3d_flags>
0

> <s_user_duplicate_titles>
18397

> <s_m_subgroup_title>
dock_pv

> <s_m_subgroupid>
dock_pv1

> <b_m_subgroup_collapsed>
0

$$$$
35304
                    3D
 Schrodinger Suite 2021-1.
 42 48  0  0  1  0            999 V2000
   41.1616   56.7691   39.4722 C   0  0  0  0  0  0
   42.2905   56.7216   38.6632 C   0  0  0  0  0  0
   42.1943   56.6034   37.2778 C   0  0  0  0  0  0
   40.9094   56.5257   36.7175 C   0  0  0  0  0  0
   39.7371   56.5833   37.5322 C   0  0  0  0  0  0
   39.8829   56.7086   38.9256 C   0  0  0  0  0  0
   38.6159   56.4740   36.6794 C   0  0  0  0  0  0
   37.2147   56.4625   36.8534 C   0  0  0  0  0  0
   36.3614   56.2947   35.7753 C   0  0  0  0  0  0
   36.8624   56.1438   34.4618 C   0  0  0  0  0  0
   36.3019   55.9740   33.1737 C   0  0  0  0  0  0
   34.9804   55.9096   32.6917 C   0  0  0  0  0  0
   34.7627   55.7185   31.3284 C   0  0  0  0  0  0
   35.8264   55.5721   30.4457 C   0  0  0  0  0  0
   37.1499   55.6142   30.8816 C   0  0  0  0  0  0
   37.3803   55.8378   32.2461 C   0  0  0  0  0  0
   38.5730   55.9717   32.9479 N   0  0  0  0  0  0
   38.2616   56.1490   34.2845 C   0  0  0  0  0  0
   39.1240   56.3206   35.3741 C   0  0  0  0  0  0
   40.5079   56.3713   35.3943 N   0  0  0  0  0  0
   41.4220   56.1865   34.2649 C   0  0  0  0  0  0
   40.9544   56.6613   32.9677 N   0  0  2  0  0  0
   39.9053   55.8557   32.3538 C   0  0  0  0  0  0
   34.9697   56.3060   36.3108 C   0  0  0  0  0  0
   33.9022   56.1794   35.7166 O   0  0  0  0  0  0
   35.1004   56.4962   37.6353 N   0  0  0  0  0  0
   36.3649   56.6112   38.0695 C   0  0  0  0  0  0
   36.6971   56.8066   39.2367 O   0  0  0  0  0  0
   41.2778   56.8504   40.5434 H   0  0  0  0  0  0
   43.2677   56.7698   39.1214 H   0  0  0  0  0  0
   43.0877   56.5577   36.6730 H   0  0  0  0  0  0
   39.0343   56.7397   39.5890 H   0  0  0  0  0  0
   34.1320   56.0045   33.3491 H   0  0  0  0  0  0
   33.7533   55.6751   30.9466 H   0  0  0  0  0  0
   35.6236   55.4021   29.3964 H   0  0  0  0  0  0
   37.9595   55.4750   30.1792 H   0  0  0  0  0  0
   42.3413   56.7264   34.4950 H   0  0  0  0  0  0
   41.6867   55.1283   34.2163 H   0  0  0  0  0  0
   41.7404   56.6765   32.3305 H   0  0  0  0  0  0
   40.1802   54.7985   32.3380 H   0  0  0  0  0  0
   39.8286   56.1726   31.3119 H   0  0  0  0  0  0
   34.2952   56.5806   38.2444 H   0  0  0  0  0  0
  1  6  1  0  0  0
  1  2  2  0  0  0
  1 29  1  0  0  0
  2  3  1  0  0  0
  2 30  1  0  0  0
  3  4  2  0  0  0
  3 31  1  0  0  0
  4 20  1  0  0  0
  4  5  1  0  0  0
  5  6  2  0  0  0
  5  7  1  0  0  0
  6 32  1  0  0  0
  7 19  2  0  0  0
  7  8  1  0  0  0
  8 27  1  0  0  0
  8  9  2  0  0  0
  9 10  1  0  0  0
  9 24  1  0  0  0
 10 18  2  0  0  0
 10 11  1  0  0  0
 11 16  2  0  0  0
 11 12  1  0  0  0
 12 13  2  0  0  0
 12 33  1  0  0  0
 13 14  1  0  0  0
 13 34  1  0  0  0
 14 15  2  0  0  0
 14 35  1  0  0  0
 15 16  1  0  0  0
 15 36  1  0  0  0
 16 17  1  0  0  0
 17 23  1  0  0  0
 17 18  1  0  0  0
 18 19  1  0  0  0
 19 20  1  0  0  0
 20 21  1  0  0  0
 21 22  1  0  0  0
 21 37  1  0  0  0
 21 38  1  0  0  0
 22 23  1  0  0  0
 22 39  1  0  0  0
 23 40  1  0  0  0
 23 41  1  0  0  0
 24 25  2  0  0  0
 24 26  1  0  0  0
 26 27  1  0  0  0
 26 42  1  0  0  0
 27 28  2  0  0  0
M  END
> <s_m_entry_id>
4296

> <s_m_entry_name>
ligand_docking-pose.66

> <s_m_Source_Path>
/home/csk/Desktop/cluster/DUD-E-result/kpcb

> <s_m_Source_File>
ligand_docking-pose.sdf

> <i_m_Source_File_Index>
66

> <i_lp_mmshare_version>
53161

> <r_lp_tautomer_probability>
1

> <s_lp_Force_Field>
OPLS_2005

> <r_lp_Energy>
100.294146

> <b_lp_Chiralities_Consistent>
1

> <s_lp_Variant>
35304-1

> <s_i_glide_gridfile>
glide-grid_2i0e

> <i_i_glide_lignum>
15

> <i_i_glide_rotatable_bonds>
0

> <r_i_docking_score>
-9.25345700300859

> <r_i_glide_ligand_efficiency>
-0.330480607250307

> <r_i_glide_ligand_efficiency_sa>
-1.00353376628039

> <r_i_glide_ligand_efficiency_ln>
-2.1359695695978

> <r_i_glide_gscore>
-9.25345700300859

> <r_i_glide_lipo>
-2.45718393742803

> <r_i_glide_hbond>
-0.608

> <r_i_glide_metal>
0

> <r_i_glide_rewards>
-3.09743782807751

> <r_i_glide_evdw>
-44.7509689331055

> <r_i_glide_ecoul>
-5.68857860565186

> <r_i_glide_erotb>
0

> <r_i_glide_esite>
0

> <r_i_glide_emodel>
-79.0880970806202

> <r_i_glide_energy>
-50.4395475387573

> <r_i_glide_einternal>
0

> <i_i_glide_confnum>
1

> <i_i_glide_posenum>
112

> <r_i_glide_eff_state_penalty>
0

> <i_f3d_flags>
0

> <s_user_duplicate_titles>
35304

> <s_m_subgroup_title>
dock_pv

> <s_m_subgroupid>
dock_pv1

> <b_m_subgroup_collapsed>
0

$$$$
322200
                    3D
 Schrodinger Suite 2021-1.
 59 65  0  0  1  0            999 V2000
   42.0758   52.9562   34.1939 C   0  0  0  0  0  0
   42.0287   54.2164   33.2974 C   0  0  0  0  0  0
   43.1959   55.2273   33.4912 C   0  0  1  0  0  0
   42.7673   55.9613   34.7531 C   0  0  0  0  0  0
   41.2721   56.1150   34.4912 C   0  0  1  0  0  0
   40.9174   54.9537   33.7929 O   0  0  0  0  0  0
   40.3561   56.3002   35.6190 N   0  0  0  0  0  0
   40.6573   56.5085   36.9746 C   0  0  0  0  0  0
   41.8824   56.6799   37.6539 C   0  0  0  0  0  0
   41.8604   56.7822   39.0432 C   0  0  0  0  0  0
   40.6726   56.7639   39.7571 C   0  0  0  0  0  0
   39.4527   56.6469   39.1042 C   0  0  0  0  0  0
   39.4233   56.5268   37.7011 C   0  0  0  0  0  0
   38.3633   56.4076   36.7750 C   0  0  0  0  0  0
   38.9649   56.2768   35.5054 C   0  0  0  0  0  0
   38.1565   56.1226   34.3686 C   0  0  0  0  0  0
   36.7525   56.0953   34.4637 C   0  0  0  0  0  0
   36.2478   55.9442   33.1563 C   0  0  0  0  0  0
   34.9499   55.8773   32.6273 C   0  0  0  0  0  0
   34.7944   55.7002   31.2528 C   0  0  0  0  0  0
   35.9001   55.5744   30.4172 C   0  0  0  0  0  0
   37.2071   55.6257   30.9057 C   0  0  0  0  0  0
   37.3638   55.8328   32.2792 C   0  0  0  0  0  0
   38.5075   55.9531   33.0447 N   0  0  0  0  0  0
   36.1636   56.2108   35.7265 C   0  0  0  0  0  0
   36.9499   56.3808   36.8618 C   0  0  0  0  0  0
   36.0361   56.5331   38.0371 C   0  0  0  0  0  0
   36.3011   56.7721   39.2095 O   0  0  0  0  0  0
   34.8019   56.3725   37.5428 N   0  0  0  0  0  0
   34.7168   56.1765   36.1098 C   0  0  0  0  0  0
   44.6088   54.5870   33.6089 C   0  0  0  0  0  0
   45.0054   53.9719   32.3913 O   0  0  0  0  0  0
   43.3521   56.1679   32.4374 O   0  0  0  0  0  0
   41.6871   53.8458   31.8362 C   0  0  0  0  0  0
   41.0833   56.9627   33.8287 H   0  0  0  0  0  0
   39.4574   55.8688   32.7074 H   0  0  0  0  0  0
   42.9069   52.3076   33.9237 H   0  0  0  0  0  0
   42.1798   53.1963   35.2516 H   0  0  0  0  0  0
   41.1606   52.3725   34.0952 H   0  0  0  0  0  0
   43.2513   56.9278   34.8990 H   0  0  0  0  0  0
   42.9307   55.3181   35.6183 H   0  0  0  0  0  0
   42.8391   56.7325   37.1598 H   0  0  0  0  0  0
   42.7926   56.8920   39.5798 H   0  0  0  0  0  0
   40.6948   56.8425   40.8349 H   0  0  0  0  0  0
   38.5607   56.6338   39.7013 H   0  0  0  0  0  0
   34.0805   55.9576   33.2639 H   0  0  0  0  0  0
   33.8043   55.6497   30.8251 H   0  0  0  0  0  0
   35.7447   55.4146   29.3594 H   0  0  0  0  0  0
   38.0549   55.5085   30.2480 H   0  0  0  0  0  0
   33.9780   56.5362   38.1152 H   0  0  0  0  0  0
   34.1329   56.9739   35.6510 H   0  0  0  0  0  0
   34.2370   55.2250   35.8792 H   0  0  0  0  0  0
   45.3527   55.3444   33.8596 H   0  0  0  0  0  0
   44.6520   53.8487   34.4127 H   0  0  0  0  0  0
   44.7072   53.0474   32.3931 H   0  0  0  0  0  0
   43.7608   55.6813   31.7110 H   0  0  0  0  0  0
   42.4750   53.2400   31.3878 H   0  0  0  0  0  0
   40.7644   53.2685   31.7795 H   0  0  0  0  0  0
   41.5423   54.7294   31.2137 H   0  0  0  0  0  0
  1  2  1  0  0  0
  1 37  1  0  0  0
  1 38  1  0  0  0
  1 39  1  0  0  0
  2  6  1  0  0  0
  2  3  1  0  0  0
  2 34  1  0  0  0
  3  4  1  0  0  0
  3 31  1  0  0  0
  3 33  1  0  0  0
  4  5  1  0  0  0
  4 40  1  0  0  0
  4 41  1  0  0  0
  5 35  1  0  0  0
  5  6  1  0  0  0
  5  7  1  0  0  0
  7 15  1  0  0  0
  7  8  1  0  0  0
  8 13  2  0  0  0
  8  9  1  0  0  0
  9 10  2  0  0  0
  9 42  1  0  0  0
 10 11  1  0  0  0
 10 43  1  0  0  0
 11 12  2  0  0  0
 11 44  1  0  0  0
 12 13  1  0  0  0
 12 45  1  0  0  0
 13 14  1  0  0  0
 14 26  2  0  0  0
 14 15  1  0  0  0
 15 16  2  0  0  0
 16 24  1  0  0  0
 16 17  1  0  0  0
 17 18  1  0  0  0
 17 25  2  0  0  0
 18 23  2  0  0  0
 18 19  1  0  0  0
 19 20  2  0  0  0
 19 46  1  0  0  0
 20 21  1  0  0  0
 20 47  1  0  0  0
 21 22  2  0  0  0
 21 48  1  0  0  0
 22 23  1  0  0  0
 22 49  1  0  0  0
 23 24  1  0  0  0
 24 36  1  0  0  0
 25 30  1  0  0  0
 25 26  1  0  0  0
 26 27  1  0  0  0
 27 28  2  0  0  0
 27 29  1  0  0  0
 29 30  1  0  0  0
 29 50  1  0  0  0
 30 51  1  0  0  0
 30 52  1  0  0  0
 31 32  1  0  0  0
 31 53  1  0  0  0
 31 54  1  0  0  0
 32 55  1  0  0  0
 33 56  1  0  0  0
 34 57  1  0  0  0
 34 58  1  0  0  0
 34 59  1  0  0  0
M  END
> <s_m_entry_id>
4298

> <s_m_entry_name>
ligand_docking-pose.68

> <s_m_Source_Path>
/home/csk/Desktop/cluster/DUD-E-result/kpcb

> <s_m_Source_File>
ligand_docking-pose.sdf

> <i_m_Source_File_Index>
68

> <i_lp_mmshare_version>
53161

> <r_lp_tautomer_probability>
1

> <s_lp_Force_Field>
OPLS_2005

> <r_lp_Energy>
111.577089

> <b_lp_Chiralities_Consistent>
1

> <s_lp_Variant>
322200-1

> <s_i_glide_gridfile>
glide-grid_2i0e

> <i_i_glide_lignum>
326

> <i_i_glide_rotatable_bonds>
4

> <r_i_docking_score>
-9.22631918398125

> <r_i_glide_ligand_efficiency>
-0.271362328940625

> <r_i_glide_ligand_efficiency_sa>
-0.879108602224839

> <r_i_glide_ligand_efficiency_ln>
-2.03835269722878

> <r_i_glide_gscore>
-9.22631918398125

> <r_i_glide_lipo>
-2.85574498703479

> <r_i_glide_hbond>
-0.576000022791661

> <r_i_glide_metal>
0

> <r_i_glide_rewards>
-1.82135099423071

> <r_i_glide_evdw>
-42.4450759887695

> <r_i_glide_ecoul>
-13.2434902191162

> <r_i_glide_erotb>
0.135554152381816

> <r_i_glide_esite>
0

> <r_i_glide_emodel>
-86.8044274448873

> <r_i_glide_energy>
-55.6885662078857

> <r_i_glide_einternal>
3.09317255020142

> <i_i_glide_confnum>
6

> <i_i_glide_posenum>
359

> <r_i_glide_eff_state_penalty>
0

> <i_f3d_flags>
0

> <s_user_duplicate_titles>
322200

> <s_m_subgroup_title>
dock_pv

> <s_m_subgroupid>
dock_pv1

> <b_m_subgroup_collapsed>
0

$$$$
259039
                    3D
 Schrodinger Suite 2021-1.
 50 55  0  0  1  0            999 V2000
   41.7397   57.2511   34.8967 C   0  0  0  0  0  0
   40.6783   56.8879   35.8242 N   0  0  0  0  0  0
   40.9180   56.7990   37.1920 C   0  0  0  0  0  0
   42.1209   56.8849   37.9193 C   0  0  0  0  0  0
   42.0519   56.7723   39.3056 C   0  0  0  0  0  0
   40.8417   56.5954   39.9604 C   0  0  0  0  0  0
   39.6501   56.5198   39.2496 C   0  0  0  0  0  0
   39.6729   56.6199   37.8438 C   0  0  0  0  0  0
   38.6734   56.5714   36.8471 C   0  0  0  0  0  0
   39.3240   56.5940   35.5784 C   0  0  0  0  0  0
   38.5575   56.3707   34.3929 C   0  0  0  0  0  0
   37.1350   56.2387   34.4908 C   0  0  0  0  0  0
   36.6307   56.0451   33.1847 C   0  0  0  0  0  0
   35.3328   55.9042   32.6567 C   0  0  0  0  0  0
   35.1497   55.6656   31.2901 C   0  0  0  0  0  0
   36.2553   55.5720   30.4586 C   0  0  0  0  0  0
   37.5553   55.6905   30.9385 C   0  0  0  0  0  0
   37.7355   55.9622   32.3048 C   0  0  0  0  0  0
   38.8984   56.1905   33.0359 N   0  0  0  0  0  0
   40.2051   56.1300   32.3792 C   0  0  0  0  0  0
   40.8945   54.7757   32.6117 C   0  0  0  0  0  0
   42.2692   54.7679   32.0859 C   0  0  0  0  0  0
   43.3498   54.7720   31.6738 N   0  0  0  0  0  0
   33.9206   55.5004   30.6882 O   0  0  0  0  0  0
   32.7491   55.4569   31.4901 C   0  0  0  0  0  0
   36.5203   56.3153   35.7587 C   0  0  0  0  0  0
   37.2700   56.4826   36.9001 C   0  0  0  0  0  0
   36.3173   56.5627   38.0461 C   0  0  0  0  0  0
   36.5325   56.7722   39.2353 O   0  0  0  0  0  0
   35.1009   56.3737   37.5197 N   0  0  0  0  0  0
   35.0915   56.2123   36.1889 C   0  0  0  0  0  0
   34.0779   56.0297   35.5242 O   0  0  0  0  0  0
   42.6202   57.6105   35.4263 H   0  0  0  0  0  0
   42.0593   56.3851   34.3256 H   0  0  0  0  0  0
   41.4093   58.0838   34.2778 H   0  0  0  0  0  0
   43.0825   57.0114   37.4446 H   0  0  0  0  0  0
   42.9615   56.8230   39.8849 H   0  0  0  0  0  0
   40.8229   56.5088   41.0379 H   0  0  0  0  0  0
   38.7422   56.3527   39.7980 H   0  0  0  0  0  0
   34.4713   55.9760   33.2861 H   0  0  0  0  0  0
   36.1042   55.3613   29.4087 H   0  0  0  0  0  0
   38.3822   55.5711   30.2554 H   0  0  0  0  0  0
   40.0958   56.2858   31.3069 H   0  0  0  0  0  0
   40.7949   56.9915   32.6438 H   0  0  0  0  0  0
   40.9362   54.5235   33.6713 H   0  0  0  0  0  0
   40.3450   53.9760   32.1145 H   0  0  0  0  0  0
   31.8985   55.2753   30.8374 H   0  0  0  0  0  0
   32.5762   56.3976   32.0138 H   0  0  0  0  0  0
   32.7871   54.6439   32.2187 H   0  0  0  0  0  0
   34.2511   56.4015   38.0669 H   0  0  0  0  0  0
  1  2  1  0  0  0
  1 33  1  0  0  0
  1 34  1  0  0  0
  1 35  1  0  0  0
  2 10  1  0  0  0
  2  3  1  0  0  0
  3  8  2  0  0  0
  3  4  1  0  0  0
  4  5  2  0  0  0
  4 36  1  0  0  0
  5  6  1  0  0  0
  5 37  1  0  0  0
  6  7  2  0  0  0
  6 38  1  0  0  0
  7  8  1  0  0  0
  7 39  1  0  0  0
  8  9  1  0  0  0
  9 27  2  0  0  0
  9 10  1  0  0  0
 10 11  2  0  0  0
 11 19  1  0  0  0
 11 12  1  0  0  0
 12 13  1  0  0  0
 12 26  2  0  0  0
 13 18  2  0  0  0
 13 14  1  0  0  0
 14 15  2  0  0  0
 14 40  1  0  0  0
 15 16  1  0  0  0
 15 24  1  0  0  0
 16 17  2  0  0  0
 16 41  1  0  0  0
 17 18  1  0  0  0
 17 42  1  0  0  0
 18 19  1  0  0  0
 19 20  1  0  0  0
 20 21  1  0  0  0
 20 43  1  0  0  0
 20 44  1  0  0  0
 21 22  1  0  0  0
 21 45  1  0  0  0
 21 46  1  0  0  0
 22 23  3  0  0  0
 24 25  1  0  0  0
 25 47  1  0  0  0
 25 48  1  0  0  0
 25 49  1  0  0  0
 26 31  1  0  0  0
 26 27  1  0  0  0
 27 28  1  0  0  0
 28 29  2  0  0  0
 28 30  1  0  0  0
 30 31  1  0  0  0
 30 50  1  0  0  0
 31 32  2  0  0  0
M  END
> <s_m_entry_id>
4299

> <s_m_entry_name>
ligand_docking-pose.69

> <s_m_Source_Path>
/home/csk/Desktop/cluster/DUD-E-result/kpcb

> <s_m_Source_File>
ligand_docking-pose.sdf

> <i_m_Source_File_Index>
69

> <i_lp_mmshare_version>
53161

> <r_lp_tautomer_probability>
1

> <s_lp_Force_Field>
OPLS_2005

> <r_lp_Energy>
111.488496

> <b_lp_Chiralities_Consistent>
1

> <s_lp_Variant>
259039-1

> <s_i_glide_gridfile>
glide-grid_2i0e

> <i_i_glide_lignum>
414

> <i_i_glide_rotatable_bonds>
3

> <r_i_docking_score>
-9.22218113079234

> <r_i_glide_ligand_efficiency>
-0.288193160337261

> <r_i_glide_ligand_efficiency_sa>
-0.914956250721816

> <r_i_glide_ligand_efficiency_ln>
-2.0650977423476

> <r_i_glide_gscore>
-9.22218113079234

> <r_i_glide_lipo>
-2.79964503041145

> <r_i_glide_hbond>
-0.608

> <r_i_glide_metal>
0

> <r_i_glide_rewards>
-2.45244252743055

> <r_i_glide_evdw>
-49.3173828125

> <r_i_glide_ecoul>
-6.33160972595215

> <r_i_glide_erotb>
0.0777089758820409

> <r_i_glide_esite>
-0.024191949314552

> <r_i_glide_emodel>
-86.424301942176

> <r_i_glide_energy>
-55.6489925384521

> <r_i_glide_einternal>
0.972911179065704

> <i_i_glide_confnum>
1

> <i_i_glide_posenum>
57

> <r_i_glide_eff_state_penalty>
0

> <i_f3d_flags>
0

> <s_user_duplicate_titles>
259039

> <s_m_subgroup_title>
dock_pv

> <s_m_subgroupid>
dock_pv1

> <b_m_subgroup_collapsed>
0

$$$$
159971
                    3D
 Schrodinger Suite 2021-1.
 59 64  0  0  1  0            999 V2000
   41.8202   57.4602   35.1490 C   0  0  0  0  0  0
   40.7538   57.1717   36.0927 N   0  0  0  0  0  0
   39.4224   57.1042   35.7696 C   0  0  0  0  0  0
   38.6660   56.6948   36.8531 C   0  0  0  0  0  0
   39.6068   56.5011   37.9288 C   0  0  0  0  0  0
   40.9109   56.8014   37.4170 C   0  0  0  0  0  0
   42.0656   56.6961   38.2067 C   0  0  0  0  0  0
   41.8993   56.2869   39.5291 C   0  0  0  0  0  0
   40.6460   55.9829   40.0484 C   0  0  0  0  0  0
   39.5008   56.0780   39.2626 C   0  0  0  0  0  0
   37.2154   56.4658   36.8112 C   0  0  0  0  0  0
   36.4996   55.9906   35.7824 C   0  0  0  0  0  0
   35.1184   55.9385   36.1679 C   0  0  0  0  0  0
   34.1432   55.5762   35.5133 O   0  0  0  0  0  0
   35.1014   56.3785   37.4312 N   0  0  0  0  0  0
   36.3095   56.7208   37.8989 C   0  0  0  0  0  0
   36.5373   57.1719   39.0195 O   0  0  0  0  0  0
   36.9834   55.5344   34.4796 C   0  0  0  0  0  0
   38.0032   54.5487   34.2458 C   0  0  0  0  0  0
   38.7678   53.7162   35.0806 C   0  0  0  0  0  0
   39.6810   52.8332   34.5097 C   0  0  0  0  0  0
   39.8507   52.7725   33.1310 C   0  0  0  0  0  0
   39.1255   53.5873   32.2623 C   0  0  0  0  0  0
   38.2012   54.4753   32.8347 C   0  0  0  0  0  0
   37.3537   55.4118   32.2623 N   0  0  0  0  0  0
   36.5943   56.0266   33.2451 C   0  0  0  0  0  0
   35.5465   57.0559   32.8523 C   0  0  0  0  0  0
   34.3326   56.4616   32.0884 C   0  0  2  0  0  0
   34.6938   55.3038   31.1137 C   0  0  0  0  0  0
   35.8911   55.5747   30.1754 C   0  0  0  0  0  0
   37.2835   55.7513   30.8364 C   0  0  0  0  0  0
   33.5655   57.5943   31.3765 C   0  0  0  0  0  0
   32.3011   57.1349   30.8370 N   0  0  0  0  0  0
   41.4512   58.0992   34.3454 H   0  0  0  0  0  0
   42.6329   57.9717   35.6622 H   0  0  0  0  0  0
   42.1922   56.5237   34.7318 H   0  0  0  0  0  0
   39.1130   57.3310   34.7588 H   0  0  0  0  0  0
   43.0485   56.9171   37.8169 H   0  0  0  0  0  0
   42.7679   56.1928   40.1656 H   0  0  0  0  0  0
   40.5555   55.6584   41.0758 H   0  0  0  0  0  0
   38.5430   55.8117   39.6798 H   0  0  0  0  0  0
   34.2512   56.4693   37.9708 H   0  0  0  0  0  0
   38.6493   53.7561   36.1529 H   0  0  0  0  0  0
   40.2712   52.1822   35.1407 H   0  0  0  0  0  0
   40.5657   52.0692   32.7240 H   0  0  0  0  0  0
   39.2761   53.5136   31.1941 H   0  0  0  0  0  0
   35.1873   57.5985   33.7270 H   0  0  0  0  0  0
   36.0222   57.8217   32.2387 H   0  0  0  0  0  0
   33.6699   56.0283   32.8401 H   0  0  0  0  0  0
   34.9034   54.4019   31.6912 H   0  0  0  0  0  0
   33.8251   55.0436   30.5073 H   0  0  0  0  0  0
   35.9473   54.7719   29.4454 H   0  0  0  0  0  0
   35.6727   56.4565   29.5736 H   0  0  0  0  0  0
   37.6047   56.7894   30.7416 H   0  0  0  0  0  0
   38.0267   55.1720   30.2871 H   0  0  0  0  0  0
   33.3835   58.4403   32.0375 H   0  0  0  0  0  0
   34.1811   57.9710   30.5699 H   0  0  0  0  0  0
   31.6269   56.9921   31.5772 H   0  0  0  0  0  0
   31.9003   57.8116   30.2031 H   0  0  0  0  0  0
  1  2  1  0  0  0
  1 34  1  0  0  0
  1 35  1  0  0  0
  1 36  1  0  0  0
  2  6  1  0  0  0
  2  3  1  0  0  0
  3  4  2  0  0  0
  3 37  1  0  0  0
  4  5  1  0  0  0
  4 11  1  0  0  0
  5 10  2  0  0  0
  5  6  1  0  0  0
  6  7  2  0  0  0
  7  8  1  0  0  0
  7 38  1  0  0  0
  8  9  2  0  0  0
  8 39  1  0  0  0
  9 10  1  0  0  0
  9 40  1  0  0  0
 10 41  1  0  0  0
 11 16  1  0  0  0
 11 12  2  0  0  0
 12 13  1  0  0  0
 12 18  1  0  0  0
 13 14  2  0  0  0
 13 15  1  0  0  0
 15 16  1  0  0  0
 15 42  1  0  0  0
 16 17  2  0  0  0
 18 26  2  0  0  0
 18 19  1  0  0  0
 19 24  2  0  0  0
 19 20  1  0  0  0
 20 21  2  0  0  0
 20 43  1  0  0  0
 21 22  1  0  0  0
 21 44  1  0  0  0
 22 23  2  0  0  0
 22 45  1  0  0  0
 23 24  1  0  0  0
 23 46  1  0  0  0
 24 25  1  0  0  0
 25 31  1  0  0  0
 25 26  1  0  0  0
 26 27  1  0  0  0
 27 28  1  0  0  0
 27 47  1  0  0  0
 27 48  1  0  0  0
 28 29  1  0  0  0
 28 32  1  0  0  0
 28 49  1  0  0  0
 29 30  1  0  0  0
 29 50  1  0  0  0
 29 51  1  0  0  0
 30 31  1  0  0  0
 30 52  1  0  0  0
 30 53  1  0  0  0
 31 54  1  0  0  0
 31 55  1  0  0  0
 32 33  1  0  0  0
 32 56  1  0  0  0
 32 57  1  0  0  0
 33 58  1  0  0  0
 33 59  1  0  0  0
M  END
> <s_m_entry_id>
4300

> <s_m_entry_name>
ligand_docking-pose.70

> <s_m_Source_Path>
/home/csk/Desktop/cluster/DUD-E-result/kpcb

> <s_m_Source_File>
ligand_docking-pose.sdf

> <i_m_Source_File_Index>
70

> <i_lp_mmshare_version>
53161

> <r_lp_tautomer_probability>
1

> <s_lp_Force_Field>
OPLS_2005

> <r_lp_Energy>
38.017289

> <b_lp_Chiralities_Consistent>
1

> <s_lp_Variant>
159971-2

> <s_i_glide_gridfile>
glide-grid_2i0e

> <i_i_glide_lignum>
441

> <i_i_glide_rotatable_bonds>
3

> <r_i_docking_score>
-9.20138236223784

> <r_i_glide_ligand_efficiency>
-0.278829768552662

> <r_i_glide_ligand_efficiency_sa>
-0.894356053815079

> <r_i_glide_ligand_efficiency_ln>
-2.04633979515358

> <r_i_glide_gscore>
-9.20138236223784

> <r_i_glide_lipo>
-2.89484880654339

> <r_i_glide_hbond>
-0.608

> <r_i_glide_metal>
0

> <r_i_glide_rewards>
-2.37307578750784

> <r_i_glide_evdw>
-53.3234519958496

> <r_i_glide_ecoul>
-5.36353445053101

> <r_i_glide_erotb>
0.145244999185524

> <r_i_glide_esite>
0

> <r_i_glide_emodel>
-89.396390598699

> <r_i_glide_energy>
-58.6869864463806

> <r_i_glide_einternal>
4.68135547637939

> <i_i_glide_confnum>
4

> <i_i_glide_posenum>
82

> <r_i_glide_eff_state_penalty>
0

> <i_f3d_flags>
0

> <s_user_duplicate_titles>
159971

> <s_m_subgroup_title>
dock_pv

> <s_m_subgroupid>
dock_pv1

> <b_m_subgroup_collapsed>
0

$$$$
259203
                    3D
 Schrodinger Suite 2021-1.
 55 60  0  0  1  0            999 V2000
   41.3151   57.4212   34.3903 C   0  0  0  0  0  0
   40.4210   57.0250   35.4674 N   0  0  0  0  0  0
   40.8315   56.9796   36.7962 C   0  0  0  0  0  0
   42.1034   57.1317   37.3704 C   0  0  0  0  0  0
   42.2059   57.0232   38.7570 C   0  0  0  0  0  0
   41.0897   56.8002   39.5738 C   0  0  0  0  0  0
   39.8292   56.6815   38.9954 C   0  0  0  0  0  0
   39.6838   56.7650   37.5989 C   0  0  0  0  0  0
   38.5732   56.6716   36.7375 C   0  0  0  0  0  0
   39.0734   56.6485   35.4026 C   0  0  0  0  0  0
   38.1921   56.3466   34.3282 C   0  0  0  0  0  0
   36.8099   56.1954   34.6054 C   0  0  0  0  0  0
   36.1491   55.9355   33.4098 C   0  0  0  0  0  0
   34.8009   55.6881   33.1264 C   0  0  0  0  0  0
   34.4058   55.4648   31.8181 C   0  0  0  0  0  0
   35.3512   55.5360   30.7861 C   0  0  0  0  0  0
   36.7115   55.7211   31.0400 C   0  0  0  0  0  0
   37.1081   55.9183   32.3730 C   0  0  0  0  0  0
   38.3670   56.0783   32.9572 N   0  0  0  0  0  0
   39.6050   55.8728   32.2045 C   0  0  0  0  0  0
   40.3453   54.6188   32.7061 C   0  0  0  0  0  0
   41.6796   54.4768   32.1050 C   0  0  0  0  0  0
   42.7305   54.3734   31.6351 N   0  0  0  0  0  0
   33.0792   55.1298   31.6629 O   0  0  0  0  0  0
   32.5057   55.1686   30.3714 C   0  0  0  0  0  0
   36.3253   56.3180   35.9081 C   0  0  0  0  0  0
   37.1852   56.5743   36.9547 C   0  0  0  0  0  0
   36.3618   56.7712   38.1891 C   0  0  0  0  0  0
   36.7012   57.1270   39.3077 O   0  0  0  0  0  0
   35.1017   56.5194   37.8171 N   0  0  0  0  0  0
   34.9188   56.2149   36.4152 C   0  0  0  0  0  0
   41.1365   56.6946   40.9505 O   0  0  0  0  0  0
   42.3862   56.8197   41.6192 C   0  0  0  0  0  0
   42.1645   57.9757   34.7873 H   0  0  0  0  0  0
   41.7079   56.5474   33.8784 H   0  0  0  0  0  0
   40.7924   58.1015   33.7202 H   0  0  0  0  0  0
   42.9880   57.3042   36.7742 H   0  0  0  0  0  0
   43.1896   57.1216   39.1898 H   0  0  0  0  0  0
   38.9860   56.4922   39.6396 H   0  0  0  0  0  0
   34.0625   55.6467   33.9115 H   0  0  0  0  0  0
   35.0592   55.3685   29.7607 H   0  0  0  0  0  0
   37.4173   55.6841   30.2255 H   0  0  0  0  0  0
   39.3884   55.7401   31.1455 H   0  0  0  0  0  0
   40.1987   56.7767   32.2150 H   0  0  0  0  0  0
   40.4772   54.6328   33.7877 H   0  0  0  0  0  0
   39.7784   53.7182   32.4678 H   0  0  0  0  0  0
   31.5011   54.7584   30.4337 H   0  0  0  0  0  0
   32.4320   56.2026   30.0370 H   0  0  0  0  0  0
   33.0486   54.5731   29.6365 H   0  0  0  0  0  0
   34.3122   56.6686   38.4368 H   0  0  0  0  0  0
   34.4894   55.2188   36.2932 H   0  0  0  0  0  0
   34.2426   56.9391   35.9577 H   0  0  0  0  0  0
   42.2290   56.7198   42.6935 H   0  0  0  0  0  0
   43.0832   56.0380   41.3126 H   0  0  0  0  0  0
   42.8392   57.7967   41.4419 H   0  0  0  0  0  0
  1  2  1  0  0  0
  1 34  1  0  0  0
  1 35  1  0  0  0
  1 36  1  0  0  0
  2 10  1  0  0  0
  2  3  1  0  0  0
  3  8  2  0  0  0
  3  4  1  0  0  0
  4  5  2  0  0  0
  4 37  1  0  0  0
  5  6  1  0  0  0
  5 38  1  0  0  0
  6  7  2  0  0  0
  6 32  1  0  0  0
  7  8  1  0  0  0
  7 39  1  0  0  0
  8  9  1  0  0  0
  9 27  2  0  0  0
  9 10  1  0  0  0
 10 11  2  0  0  0
 11 19  1  0  0  0
 11 12  1  0  0  0
 12 13  1  0  0  0
 12 26  2  0  0  0
 13 18  2  0  0  0
 13 14  1  0  0  0
 14 15  2  0  0  0
 14 40  1  0  0  0
 15 16  1  0  0  0
 15 24  1  0  0  0
 16 17  2  0  0  0
 16 41  1  0  0  0
 17 18  1  0  0  0
 17 42  1  0  0  0
 18 19  1  0  0  0
 19 20  1  0  0  0
 20 21  1  0  0  0
 20 43  1  0  0  0
 20 44  1  0  0  0
 21 22  1  0  0  0
 21 45  1  0  0  0
 21 46  1  0  0  0
 22 23  3  0  0  0
 24 25  1  0  0  0
 25 47  1  0  0  0
 25 48  1  0  0  0
 25 49  1  0  0  0
 26 31  1  0  0  0
 26 27  1  0  0  0
 27 28  1  0  0  0
 28 29  2  0  0  0
 28 30  1  0  0  0
 30 31  1  0  0  0
 30 50  1  0  0  0
 31 51  1  0  0  0
 31 52  1  0  0  0
 32 33  1  0  0  0
 33 53  1  0  0  0
 33 54  1  0  0  0
 33 55  1  0  0  0
M  END
> <s_m_entry_id>
4301

> <s_m_entry_name>
ligand_docking-pose.71

> <s_m_Source_Path>
/home/csk/Desktop/cluster/DUD-E-result/kpcb

> <s_m_Source_File>
ligand_docking-pose.sdf

> <i_m_Source_File_Index>
71

> <i_lp_mmshare_version>
53161

> <r_lp_tautomer_probability>
1

> <s_lp_Force_Field>
OPLS_2005

> <r_lp_Energy>
102.996498

> <b_lp_Chiralities_Consistent>
1

> <s_lp_Variant>
259203-1

> <s_i_glide_gridfile>
glide-grid_2i0e

> <i_i_glide_lignum>
415

> <i_i_glide_rotatable_bonds>
4

> <r_i_docking_score>
-9.17931883548749

> <r_i_glide_ligand_efficiency>
-0.278161176832954

> <r_i_glide_ligand_efficiency_sa>
-0.892211522923866

> <r_i_glide_ligand_efficiency_ln>
-2.04143298104313

> <r_i_glide_gscore>
-9.17931883548749

> <r_i_glide_lipo>
-3.24851511505593

> <r_i_glide_hbond>
-0.608

> <r_i_glide_metal>
0

> <r_i_glide_rewards>
-1.95900159263608

> <r_i_glide_evdw>
-47.7056846618652

> <r_i_glide_ecoul>
-6.88134145736694

> <r_i_glide_erotb>
0.0726354392776531

> <r_i_glide_esite>
-0.0189521153748263

> <r_i_glide_emodel>
-82.6849460757684

> <r_i_glide_energy>
-54.5870261192322

> <r_i_glide_einternal>
6.34359788894653

> <i_i_glide_confnum>
1

> <i_i_glide_posenum>
3

> <r_i_glide_eff_state_penalty>
0

> <i_f3d_flags>
0

> <s_user_duplicate_titles>
259203

> <s_m_subgroup_title>
dock_pv

> <s_m_subgroupid>
dock_pv1

> <b_m_subgroup_collapsed>
0

$$$$
35364
                    3D
 Schrodinger Suite 2021-1.
 41 47  0  0  1  0            999 V2000
   34.7745   55.7097   31.3275 C   0  0  0  0  0  0
   35.8430   55.5729   30.4469 C   0  0  0  0  0  0
   37.1649   55.6085   30.8883 C   0  0  0  0  0  0
   37.3906   55.8298   32.2531 C   0  0  0  0  0  0
   36.3087   55.9623   33.1787 C   0  0  0  0  0  0
   34.9891   55.8991   32.6902 C   0  0  0  0  0  0
   36.8648   56.1287   34.4685 C   0  0  0  0  0  0
   36.3591   56.2825   35.7797 C   0  0  0  0  0  0
   37.2092   56.4533   36.8586 C   0  0  0  0  0  0
   38.6121   56.4634   36.6875 C   0  0  0  0  0  0
   39.7331   56.5853   37.5383 C   0  0  0  0  0  0
   39.8814   56.7282   38.9312 C   0  0  0  0  0  0
   41.1607   56.8007   39.4746 C   0  0  0  0  0  0
   42.2887   56.7551   38.6613 C   0  0  0  0  0  0
   42.1908   56.6186   37.2771 C   0  0  0  0  0  0
   40.9057   56.5241   36.7223 C   0  0  0  0  0  0
   40.5082   56.3460   35.4015 N   0  0  0  0  0  0
   39.1224   56.2999   35.3846 C   0  0  0  0  0  0
   38.2641   56.1296   34.2944 C   0  0  0  0  0  0
   38.5833   55.9519   32.9560 N   0  0  0  0  0  0
   39.9171   55.8811   32.4051 C   0  0  0  0  0  0
   40.9226   56.6269   33.0165 O   0  0  0  0  0  0
   41.3745   56.1804   34.2566 C   0  0  0  0  0  0
   36.3596   56.6074   38.0703 C   0  0  0  0  0  0
   36.6876   56.8119   39.2354 O   0  0  0  0  0  0
   35.0968   56.4848   37.6351 N   0  0  0  0  0  0
   34.9674   56.2980   36.3102 C   0  0  0  0  0  0
   33.9016   56.1745   35.7127 O   0  0  0  0  0  0
   33.7643   55.6562   30.9445 H   0  0  0  0  0  0
   35.6444   55.3987   29.3981 H   0  0  0  0  0  0
   37.9783   55.4666   30.1921 H   0  0  0  0  0  0
   34.1368   55.9921   33.3463 H   0  0  0  0  0  0
   39.0320   56.7637   39.5954 H   0  0  0  0  0  0
   41.2800   56.8987   40.5452 H   0  0  0  0  0  0
   43.2678   56.8197   39.1146 H   0  0  0  0  0  0
   43.0816   56.5742   36.6687 H   0  0  0  0  0  0
   40.1921   54.8229   32.3574 H   0  0  0  0  0  0
   39.8557   56.2322   31.3735 H   0  0  0  0  0  0
   42.2963   56.7238   34.4702 H   0  0  0  0  0  0
   41.6392   55.1194   34.2092 H   0  0  0  0  0  0
   34.2886   56.5770   38.2391 H   0  0  0  0  0  0
  1  6  1  0  0  0
  1  2  2  0  0  0
  1 29  1  0  0  0
  2  3  1  0  0  0
  2 30  1  0  0  0
  3  4  2  0  0  0
  3 31  1  0  0  0
  4 20  1  0  0  0
  4  5  1  0  0  0
  5  6  2  0  0  0
  5  7  1  0  0  0
  6 32  1  0  0  0
  7 19  2  0  0  0
  7  8  1  0  0  0
  8 27  1  0  0  0
  8  9  2  0  0  0
  9 10  1  0  0  0
  9 24  1  0  0  0
 10 18  2  0  0  0
 10 11  1  0  0  0
 11 16  2  0  0  0
 11 12  1  0  0  0
 12 13  2  0  0  0
 12 33  1  0  0  0
 13 14  1  0  0  0
 13 34  1  0  0  0
 14 15  2  0  0  0
 14 35  1  0  0  0
 15 16  1  0  0  0
 15 36  1  0  0  0
 16 17  1  0  0  0
 17 23  1  0  0  0
 17 18  1  0  0  0
 18 19  1  0  0  0
 19 20  1  0  0  0
 20 21  1  0  0  0
 21 22  1  0  0  0
 21 37  1  0  0  0
 21 38  1  0  0  0
 22 23  1  0  0  0
 23 39  1  0  0  0
 23 40  1  0  0  0
 24 25  2  0  0  0
 24 26  1  0  0  0
 26 27  1  0  0  0
 26 41  1  0  0  0
 27 28  2  0  0  0
M  END
> <s_m_entry_id>
4302

> <s_m_entry_name>
ligand_docking-pose.72

> <s_m_Source_Path>
/home/csk/Desktop/cluster/DUD-E-result/kpcb

> <s_m_Source_File>
ligand_docking-pose.sdf

> <i_m_Source_File_Index>
72

> <i_lp_mmshare_version>
53161

> <r_lp_tautomer_probability>
1

> <s_lp_Force_Field>
OPLS_2005

> <r_lp_Energy>
88.397421

> <b_lp_Chiralities_Consistent>
1

> <s_lp_Variant>
35364-1

> <s_i_glide_gridfile>
glide-grid_2i0e

> <i_i_glide_lignum>
18

> <i_i_glide_rotatable_bonds>
0

> <r_i_docking_score>
-9.17855101187286

> <r_i_glide_ligand_efficiency>
-0.327805393281174

> <r_i_glide_ligand_efficiency_sa>
-0.99541024105334

> <r_i_glide_ligand_efficiency_ln>
-2.11867906750821

> <r_i_glide_gscore>
-9.17855101187286

> <r_i_glide_lipo>
-2.44951636701348

> <r_i_glide_hbond>
-0.608

> <r_i_glide_metal>
0

> <r_i_glide_rewards>
-3.08179051758582

> <r_i_glide_evdw>
-44.448055267334

> <r_i_glide_ecoul>
-5.4456090927124

> <r_i_glide_erotb>
0

> <r_i_glide_esite>
0

> <r_i_glide_emodel>
-78.0360462837502

> <r_i_glide_energy>
-49.8936643600464

> <r_i_glide_einternal>
0

> <i_i_glide_confnum>
1

> <i_i_glide_posenum>
290

> <r_i_glide_eff_state_penalty>
0

> <i_f3d_flags>
0

> <s_user_duplicate_titles>
35364

> <s_m_subgroup_title>
dock_pv

> <s_m_subgroupid>
dock_pv1

> <b_m_subgroup_collapsed>
0

$$$$
323134
                    3D
 Schrodinger Suite 2021-1.
 59 65  0  0  1  0            999 V2000
   41.1593   53.2183   34.1639 C   0  0  0  0  0  0
   41.6077   54.2773   33.1267 C   0  0  0  0  0  0
   42.8966   55.1143   33.4053 C   0  0  1  0  0  0
   42.4441   55.9949   34.5725 C   0  0  0  0  0  0
   40.9708   56.2795   34.2177 C   0  0  1  0  0  0
   40.6494   55.3241   33.2389 O   0  0  0  0  0  0
   39.9788   56.2919   35.3073 N   0  0  0  0  0  0
   40.2364   56.5231   36.6706 C   0  0  0  0  0  0
   41.4259   56.8291   37.3649 C   0  0  0  0  0  0
   41.3885   56.8741   38.7559 C   0  0  0  0  0  0
   40.2132   56.6740   39.4608 C   0  0  0  0  0  0
   39.0178   56.4488   38.7937 C   0  0  0  0  0  0
   39.0052   56.3976   37.3856 C   0  0  0  0  0  0
   37.9675   56.2642   36.4416 C   0  0  0  0  0  0
   38.5861   56.1802   35.1719 C   0  0  0  0  0  0
   37.7749   56.0192   34.0351 C   0  0  0  0  0  0
   36.3683   55.9721   34.1276 C   0  0  0  0  0  0
   35.8574   55.8657   32.8234 C   0  0  0  0  0  0
   34.5551   55.8341   32.2941 C   0  0  0  0  0  0
   34.3972   55.7071   30.9154 C   0  0  0  0  0  0
   35.5020   55.5721   30.0793 C   0  0  0  0  0  0
   36.8051   55.5717   30.5810 C   0  0  0  0  0  0
   36.9690   55.7605   31.9498 C   0  0  0  0  0  0
   38.1169   55.8679   32.7109 N   0  0  0  0  0  0
   35.7736   56.0446   35.3859 C   0  0  0  0  0  0
   36.5553   56.2104   36.5179 C   0  0  0  0  0  0
   35.6352   56.3720   37.6793 C   0  0  0  0  0  0
   35.9010   56.6337   38.8391 O   0  0  0  0  0  0
   34.4010   56.2243   37.1866 N   0  0  0  0  0  0
   34.3242   55.9944   35.7596 C   0  0  0  0  0  0
   44.1559   54.2613   33.7965 C   0  0  0  0  0  0
   45.2152   54.3697   33.1799 O   0  0  0  0  0  0
   44.1074   53.4284   34.8388 N   0  0  0  0  0  0
   43.2173   55.9729   32.3140 O   0  0  0  0  0  0
   41.4858   53.7090   31.6957 C   0  0  0  0  0  0
   40.8671   57.2577   33.7448 H   0  0  0  0  0  0
   39.0692   55.8009   32.3729 H   0  0  0  0  0  0
   41.8355   52.3721   34.1477 H   0  0  0  0  0  0
   41.1252   53.6001   35.1832 H   0  0  0  0  0  0
   40.1613   52.8415   33.9372 H   0  0  0  0  0  0
   43.0129   56.9210   34.6794 H   0  0  0  0  0  0
   42.4948   55.4263   35.4993 H   0  0  0  0  0  0
   42.3682   57.0237   36.8815 H   0  0  0  0  0  0
   42.2987   57.0771   39.3015 H   0  0  0  0  0  0
   40.2205   56.7095   40.5410 H   0  0  0  0  0  0
   38.1301   56.3051   39.3840 H   0  0  0  0  0  0
   33.6892   55.9157   32.9336 H   0  0  0  0  0  0
   33.4051   55.6917   30.4865 H   0  0  0  0  0  0
   35.3453   55.4323   29.0187 H   0  0  0  0  0  0
   37.6621   55.4098   29.9496 H   0  0  0  0  0  0
   33.5858   56.4009   37.7656 H   0  0  0  0  0  0
   33.7324   56.7721   35.2776 H   0  0  0  0  0  0
   33.8608   55.0296   35.5494 H   0  0  0  0  0  0
   43.2552   53.2535   35.3462 H   0  0  0  0  0  0
   44.9209   52.8612   35.0343 H   0  0  0  0  0  0
   42.3971   56.3561   31.9932 H   0  0  0  0  0  0
   42.2503   52.9523   31.5142 H   0  0  0  0  0  0
   40.5138   53.2403   31.5338 H   0  0  0  0  0  0
   41.5940   54.4783   30.9315 H   0  0  0  0  0  0
  1  2  1  0  0  0
  1 38  1  0  0  0
  1 39  1  0  0  0
  1 40  1  0  0  0
  2  6  1  0  0  0
  2  3  1  0  0  0
  2 35  1  0  0  0
  3  4  1  0  0  0
  3 31  1  0  0  0
  3 34  1  0  0  0
  4  5  1  0  0  0
  4 41  1  0  0  0
  4 42  1  0  0  0
  5 36  1  0  0  0
  5  6  1  0  0  0
  5  7  1  0  0  0
  7 15  1  0  0  0
  7  8  1  0  0  0
  8 13  2  0  0  0
  8  9  1  0  0  0
  9 10  2  0  0  0
  9 43  1  0  0  0
 10 11  1  0  0  0
 10 44  1  0  0  0
 11 12  2  0  0  0
 11 45  1  0  0  0
 12 13  1  0  0  0
 12 46  1  0  0  0
 13 14  1  0  0  0
 14 26  2  0  0  0
 14 15  1  0  0  0
 15 16  2  0  0  0
 16 24  1  0  0  0
 16 17  1  0  0  0
 17 18  1  0  0  0
 17 25  2  0  0  0
 18 23  2  0  0  0
 18 19  1  0  0  0
 19 20  2  0  0  0
 19 47  1  0  0  0
 20 21  1  0  0  0
 20 48  1  0  0  0
 21 22  2  0  0  0
 21 49  1  0  0  0
 22 23  1  0  0  0
 22 50  1  0  0  0
 23 24  1  0  0  0
 24 37  1  0  0  0
 25 30  1  0  0  0
 25 26  1  0  0  0
 26 27  1  0  0  0
 27 28  2  0  0  0
 27 29  1  0  0  0
 29 30  1  0  0  0
 29 51  1  0  0  0
 30 52  1  0  0  0
 30 53  1  0  0  0
 31 32  2  0  0  0
 31 33  1  0  0  0
 33 54  1  0  0  0
 33 55  1  0  0  0
 34 56  1  0  0  0
 35 57  1  0  0  0
 35 58  1  0  0  0
 35 59  1  0  0  0
M  END
> <s_m_entry_id>
4304

> <s_m_entry_name>
ligand_docking-pose.74

> <s_m_Source_Path>
/home/csk/Desktop/cluster/DUD-E-result/kpcb

> <s_m_Source_File>
ligand_docking-pose.sdf

> <i_m_Source_File_Index>
74

> <i_lp_mmshare_version>
53161

> <r_lp_tautomer_probability>
1

> <s_lp_Force_Field>
OPLS_2005

> <r_lp_Energy>
106.196426

> <b_lp_Chiralities_Consistent>
1

> <s_lp_Variant>
323134-1

> <s_i_glide_gridfile>
glide-grid_2i0e

> <i_i_glide_lignum>
324

> <i_i_glide_rotatable_bonds>
3

> <r_i_docking_score>
-9.17326676486363

> <r_i_glide_ligand_efficiency>
-0.262093336138961

> <r_i_glide_ligand_efficiency_sa>
-0.857324680953059

> <r_i_glide_ligand_efficiency_ln>
-2.01373564457429

> <r_i_glide_gscore>
-9.17326676486363

> <r_i_glide_lipo>
-2.9927994312327

> <r_i_glide_hbond>
-0.604951286882337

> <r_i_glide_metal>
0

> <r_i_glide_rewards>
-1.72262539751753

> <r_i_glide_evdw>
-48.7047920227051

> <r_i_glide_ecoul>
-9.17780303955078

> <r_i_glide_erotb>
0.064389867765967

> <r_i_glide_esite>
-0.105370459929156

> <r_i_glide_emodel>
-89.1656753375431

> <r_i_glide_energy>
-57.8825950622559

> <r_i_glide_einternal>
3.15110659599304

> <i_i_glide_confnum>
1

> <i_i_glide_posenum>
233

> <r_i_glide_eff_state_penalty>
0

> <i_f3d_flags>
0

> <s_user_duplicate_titles>
323134

> <s_m_subgroup_title>
dock_pv

> <s_m_subgroupid>
dock_pv1

> <b_m_subgroup_collapsed>
0

$$$$
259228
                    3D
 Schrodinger Suite 2021-1.
 51 56  0  0  1  0            999 V2000
   40.3003   53.3529   34.5251 C   0  0  0  0  0  0
   39.6485   54.3557   35.3563 N   0  0  0  0  0  0
   40.1848   54.8002   36.5560 C   0  0  0  0  0  0
   41.4354   54.5532   37.1444 C   0  0  0  0  0  0
   41.6831   55.1232   38.3927 C   0  0  0  0  0  0
   40.7296   55.8961   39.0469 C   0  0  0  0  0  0
   39.4780   56.1220   38.4805 C   0  0  0  0  0  0
   39.1890   55.5721   37.2171 C   0  0  0  0  0  0
   38.0367   55.5625   36.3991 C   0  0  0  0  0  0
   38.4339   55.0135   35.1536 C   0  0  0  0  0  0
   37.5911   55.1599   34.0268 C   0  0  0  0  0  0
   36.2554   55.5803   34.2148 C   0  0  0  0  0  0
   35.6283   55.6048   32.9643 C   0  0  0  0  0  0
   34.3032   55.8515   32.5675 C   0  0  0  0  0  0
   34.0180   55.9567   31.2104 C   0  0  0  0  0  0
   35.0244   55.8314   30.2601 C   0  0  0  0  0  0
   36.3458   55.5677   30.6219 C   0  0  0  0  0  0
   36.6375   55.4185   31.9873 C   0  0  0  0  0  0
   37.8321   55.1181   32.6492 N   0  0  0  0  0  0
   39.1187   55.0592   31.9514 C   0  0  0  0  0  0
   39.8579   56.4138   32.0102 C   0  0  0  0  0  0
   40.3554   56.8914   33.3838 C   0  0  0  0  0  0
   41.1010   58.1218   33.2383 N   0  0  0  0  0  0
   35.8057   55.9025   35.4960 C   0  0  0  0  0  0
   36.6963   55.9719   36.5580 C   0  0  0  0  0  0
   35.9566   56.4873   37.7528 C   0  0  0  0  0  0
   36.3464   56.7182   38.8922 O   0  0  0  0  0  0
   34.7010   56.6527   37.3218 N   0  0  0  0  0  0
   34.4459   56.3323   35.9365 C   0  0  0  0  0  0
   40.7555   52.5952   35.1638 H   0  0  0  0  0  0
   39.5649   52.8422   33.9041 H   0  0  0  0  0  0
   41.0899   53.8079   33.9284 H   0  0  0  0  0  0
   42.1886   53.9471   36.6594 H   0  0  0  0  0  0
   42.6389   54.9529   38.8655 H   0  0  0  0  0  0
   40.9576   56.3142   40.0161 H   0  0  0  0  0  0
   38.7524   56.7086   39.0207 H   0  0  0  0  0  0
   33.5162   55.9723   33.2958 H   0  0  0  0  0  0
   33.0049   56.1503   30.8881 H   0  0  0  0  0  0
   34.7672   55.9152   29.2141 H   0  0  0  0  0  0
   37.0978   55.4272   29.8620 H   0  0  0  0  0  0
   39.7206   54.2480   32.3185 H   0  0  0  0  0  0
   38.9445   54.7842   30.9106 H   0  0  0  0  0  0
   40.7009   56.3596   31.3228 H   0  0  0  0  0  0
   39.1870   57.1720   31.6163 H   0  0  0  0  0  0
   39.5238   57.0903   34.0586 H   0  0  0  0  0  0
   41.0046   56.1479   33.8440 H   0  0  0  0  0  0
   41.4861   58.3816   34.1358 H   0  0  0  0  0  0
   41.8913   57.9449   32.6372 H   0  0  0  0  0  0
   33.9604   56.9601   37.9488 H   0  0  0  0  0  0
   33.6942   55.5469   35.8542 H   0  0  0  0  0  0
   34.0833   57.2117   35.4049 H   0  0  0  0  0  0
  1  2  1  0  0  0
  1 30  1  0  0  0
  1 31  1  0  0  0
  1 32  1  0  0  0
  2 10  1  0  0  0
  2  3  1  0  0  0
  3  8  2  0  0  0
  3  4  1  0  0  0
  4  5  2  0  0  0
  4 33  1  0  0  0
  5  6  1  0  0  0
  5 34  1  0  0  0
  6  7  2  0  0  0
  6 35  1  0  0  0
  7  8  1  0  0  0
  7 36  1  0  0  0
  8  9  1  0  0  0
  9 25  2  0  0  0
  9 10  1  0  0  0
 10 11  2  0  0  0
 11 19  1  0  0  0
 11 12  1  0  0  0
 12 13  1  0  0  0
 12 24  2  0  0  0
 13 18  2  0  0  0
 13 14  1  0  0  0
 14 15  2  0  0  0
 14 37  1  0  0  0
 15 16  1  0  0  0
 15 38  1  0  0  0
 16 17  2  0  0  0
 16 39  1  0  0  0
 17 18  1  0  0  0
 17 40  1  0  0  0
 18 19  1  0  0  0
 19 20  1  0  0  0
 20 21  1  0  0  0
 20 41  1  0  0  0
 20 42  1  0  0  0
 21 22  1  0  0  0
 21 43  1  0  0  0
 21 44  1  0  0  0
 22 23  1  0  0  0
 22 45  1  0  0  0
 22 46  1  0  0  0
 23 47  1  0  0  0
 23 48  1  0  0  0
 24 29  1  0  0  0
 24 25  1  0  0  0
 25 26  1  0  0  0
 26 27  2  0  0  0
 26 28  1  0  0  0
 28 29  1  0  0  0
 28 49  1  0  0  0
 29 50  1  0  0  0
 29 51  1  0  0  0
M  END
> <s_m_entry_id>
4306

> <s_m_entry_name>
ligand_docking-pose.76

> <s_m_Source_Path>
/home/csk/Desktop/cluster/DUD-E-result/kpcb

> <s_m_Source_File>
ligand_docking-pose.sdf

> <i_m_Source_File_Index>
76

> <i_lp_mmshare_version>
53161

> <r_lp_tautomer_probability>
1

> <s_lp_Force_Field>
OPLS_2005

> <r_lp_Energy>
94.945847

> <b_lp_Chiralities_Consistent>
1

> <s_lp_Variant>
259228-1

> <s_i_glide_gridfile>
glide-grid_2i0e

> <i_i_glide_lignum>
400

> <i_i_glide_rotatable_bonds>
3

> <r_i_docking_score>
-9.16529419235145

> <r_i_glide_ligand_efficiency>
-0.316044627322464

> <r_i_glide_ligand_efficiency_sa>
-0.970989225100549

> <r_i_glide_ligand_efficiency_ln>
-2.0986199582408

> <r_i_glide_gscore>
-9.16529419235145

> <r_i_glide_lipo>
-3.02671668231985

> <r_i_glide_hbond>
-0.608

> <r_i_glide_metal>
0

> <r_i_glide_rewards>
-2.36017065826189

> <r_i_glide_evdw>
-41.2251892089844

> <r_i_glide_ecoul>
-8.63356971740723

> <r_i_glide_erotb>
0.185888066290591

> <r_i_glide_esite>
0

> <r_i_glide_emodel>
-76.7392824515819

> <r_i_glide_energy>
-49.8587589263916

> <r_i_glide_einternal>
2.89015436172485

> <i_i_glide_confnum>
4

> <i_i_glide_posenum>
270

> <r_i_glide_eff_state_penalty>
0

> <i_f3d_flags>
0

> <s_user_duplicate_titles>
259228

> <s_m_subgroup_title>
dock_pv

> <s_m_subgroupid>
dock_pv1

> <b_m_subgroup_collapsed>
0

$$$$
35344
                    3D
 Schrodinger Suite 2021-1.
 45 51  0  0  1  0            999 V2000
   42.0098   54.6333   32.3329 C   0  0  0  0  0  0
   40.9168   55.1800   33.1327 N   0  0  0  0  0  0
   39.8463   55.7440   32.3063 C   0  0  0  0  0  0
   38.5245   55.8372   32.9287 N   0  0  0  0  0  0
   37.3218   55.7754   32.2336 C   0  0  0  0  0  0
   37.0745   55.5722   30.8663 C   0  0  0  0  0  0
   35.7483   55.5750   30.4416 C   0  0  0  0  0  0
   34.6970   55.7683   31.3304 C   0  0  0  0  0  0
   34.9325   55.9505   32.6912 C   0  0  0  0  0  0
   36.2572   55.9595   33.1676 C   0  0  0  0  0  0
   36.8342   56.1136   34.4538 C   0  0  0  0  0  0
   38.2316   56.0659   34.2661 C   0  0  0  0  0  0
   39.1038   56.2211   35.3458 C   0  0  0  0  0  0
   38.6124   56.4014   36.6589 C   0  0  0  0  0  0
   39.7502   56.5093   37.4945 C   0  0  0  0  0  0
   39.9214   56.6662   38.8825 C   0  0  0  0  0  0
   41.2101   56.7724   39.3971 C   0  0  0  0  0  0
   42.3240   56.7327   38.5674 C   0  0  0  0  0  0
   42.2044   56.5644   37.1898 C   0  0  0  0  0  0
   40.9094   56.4361   36.6609 C   0  0  0  0  0  0
   40.4897   56.2100   35.3547 N   0  0  0  0  0  0
   41.3861   56.0594   34.2061 C   0  0  0  0  0  0
   37.2126   56.4298   36.8438 C   0  0  0  0  0  0
   36.3495   56.2937   35.7703 C   0  0  0  0  0  0
   34.9664   56.3703   36.3090 C   0  0  0  0  0  0
   33.9008   56.2987   35.7117 O   0  0  0  0  0  0
   35.1010   56.5443   37.6314 N   0  0  0  0  0  0
   36.3703   56.5999   38.0646 C   0  0  0  0  0  0
   36.7017   56.7691   39.2359 O   0  0  0  0  0  0
   41.6385   53.9008   31.6141 H   0  0  0  0  0  0
   42.5284   55.4208   31.7832 H   0  0  0  0  0  0
   42.7360   54.1187   32.9644 H   0  0  0  0  0  0
   40.1229   56.7367   31.9469 H   0  0  0  0  0  0
   39.7304   55.1201   31.4178 H   0  0  0  0  0  0
   37.8697   55.3996   30.1552 H   0  0  0  0  0  0
   35.5293   55.4133   29.3950 H   0  0  0  0  0  0
   33.6845   55.7681   30.9550 H   0  0  0  0  0  0
   34.0948   56.0859   33.3510 H   0  0  0  0  0  0
   39.0818   56.6957   39.5587 H   0  0  0  0  0  0
   41.3505   56.8896   40.4628 H   0  0  0  0  0  0
   43.3099   56.8278   39.0019 H   0  0  0  0  0  0
   43.0881   56.5218   36.5694 H   0  0  0  0  0  0
   42.3206   55.6534   34.5968 H   0  0  0  0  0  0
   41.6204   57.0519   33.8209 H   0  0  0  0  0  0
   34.3050   56.6657   38.2449 H   0  0  0  0  0  0
  1  2  1  0  0  0
  1 30  1  0  0  0
  1 31  1  0  0  0
  1 32  1  0  0  0
  2 22  1  0  0  0
  2  3  1  0  0  0
  3  4  1  0  0  0
  3 33  1  0  0  0
  3 34  1  0  0  0
  4 12  1  0  0  0
  4  5  1  0  0  0
  5 10  2  0  0  0
  5  6  1  0  0  0
  6  7  2  0  0  0
  6 35  1  0  0  0
  7  8  1  0  0  0
  7 36  1  0  0  0
  8  9  2  0  0  0
  8 37  1  0  0  0
  9 10  1  0  0  0
  9 38  1  0  0  0
 10 11  1  0  0  0
 11 24  2  0  0  0
 11 12  1  0  0  0
 12 13  2  0  0  0
 13 21  1  0  0  0
 13 14  1  0  0  0
 14 15  1  0  0  0
 14 23  2  0  0  0
 15 20  2  0  0  0
 15 16  1  0  0  0
 16 17  2  0  0  0
 16 39  1  0  0  0
 17 18  1  0  0  0
 17 40  1  0  0  0
 18 19  2  0  0  0
 18 41  1  0  0  0
 19 20  1  0  0  0
 19 42  1  0  0  0
 20 21  1  0  0  0
 21 22  1  0  0  0
 22 43  1  0  0  0
 22 44  1  0  0  0
 23 28  1  0  0  0
 23 24  1  0  0  0
 24 25  1  0  0  0
 25 26  2  0  0  0
 25 27  1  0  0  0
 27 28  1  0  0  0
 27 45  1  0  0  0
 28 29  2  0  0  0
M  END
> <s_m_entry_id>
4307

> <s_m_entry_name>
ligand_docking-pose.77

> <s_m_Source_Path>
/home/csk/Desktop/cluster/DUD-E-result/kpcb

> <s_m_Source_File>
ligand_docking-pose.sdf

> <i_m_Source_File_Index>
77

> <i_lp_mmshare_version>
53161

> <r_lp_tautomer_probability>
1

> <s_lp_Force_Field>
OPLS_2005

> <r_lp_Energy>
103.538033

> <b_lp_Chiralities_Consistent>
1

> <s_lp_Variant>
35344-1

> <s_i_glide_gridfile>
glide-grid_2i0e

> <i_i_glide_lignum>
502

> <i_i_glide_rotatable_bonds>
0

> <r_i_docking_score>
-9.15259140551437

> <r_i_glide_ligand_efficiency>
-0.315606600190151

> <r_i_glide_ligand_efficiency_sa>
-0.969643466973347

> <r_i_glide_ligand_efficiency_ln>
-2.09571134216999

> <r_i_glide_gscore>
-9.15259140551437

> <r_i_glide_lipo>
-2.44549044143698

> <r_i_glide_hbond>
-0.608

> <r_i_glide_metal>
0

> <r_i_glide_rewards>
-2.9937879252514

> <r_i_glide_evdw>
-44.2065925598145

> <r_i_glide_ecoul>
-5.96655607223511

> <r_i_glide_erotb>
0

> <r_i_glide_esite>
0

> <r_i_glide_emodel>
-78.5132556477024

> <r_i_glide_energy>
-50.1731486320496

> <r_i_glide_einternal>
0

> <i_i_glide_confnum>
1

> <i_i_glide_posenum>
40

> <r_i_glide_eff_state_penalty>
0

> <i_f3d_flags>
0

> <s_user_duplicate_titles>
35344

> <s_m_subgroup_title>
dock_pv

> <s_m_subgroupid>
dock_pv1

> <b_m_subgroup_collapsed>
0

$$$$
35225
                    3D
 Schrodinger Suite 2021-1.
 49 55  0  0  1  0            999 V2000
   41.0532   57.9818   33.4938 C   0  0  0  0  0  0
   41.4262   56.7650   34.3613 C   0  0  1  0  0  0
   40.5269   56.5882   35.4873 N   0  0  0  0  0  0
   40.8985   56.6803   36.8244 C   0  0  0  0  0  0
   42.1583   56.8674   37.4182 C   0  0  0  0  0  0
   42.2179   56.8972   38.8104 C   0  0  0  0  0  0
   41.0769   56.7725   39.5941 C   0  0  0  0  0  0
   39.8222   56.6155   39.0130 C   0  0  0  0  0  0
   39.7160   56.5639   37.6101 C   0  0  0  0  0  0
   38.6273   56.4178   36.7212 C   0  0  0  0  0  0
   39.1733   56.2858   35.4209 C   0  0  0  0  0  0
   38.3539   55.9849   34.3126 C   0  0  0  0  0  0
   36.9424   56.0050   34.4767 C   0  0  0  0  0  0
   36.3835   55.8866   33.1868 C   0  0  0  0  0  0
   35.0649   55.9370   32.6939 C   0  0  0  0  0  0
   34.8395   55.8027   31.3276 C   0  0  0  0  0  0
   35.8964   55.6239   30.4465 C   0  0  0  0  0  0
   37.2153   55.5721   30.8899 C   0  0  0  0  0  0
   37.4542   55.6880   32.2703 C   0  0  0  0  0  0
   38.6477   55.6091   32.9905 N   0  0  0  0  0  0
   39.9132   55.1845   32.3350 C   0  0  1  0  0  0
   41.4993   55.1891   33.3673 S   0  0  0  0  0  0
   42.6252   55.3279   32.4377 O   0  0  0  0  0  0
   41.4533   54.0585   34.3003 O   0  0  0  0  0  0
   39.7924   53.7483   31.7563 C   0  0  0  0  0  0
   36.4087   56.1643   35.7756 C   0  0  0  0  0  0
   37.2289   56.3578   36.8677 C   0  0  0  0  0  0
   36.3510   56.5236   38.0614 C   0  0  0  0  0  0
   36.6486   56.7699   39.2282 O   0  0  0  0  0  0
   35.0990   56.3715   37.6037 N   0  0  0  0  0  0
   35.0062   56.1603   36.2809 C   0  0  0  0  0  0
   33.9563   56.0044   35.6659 O   0  0  0  0  0  0
   41.1807   58.9128   34.0466 H   0  0  0  0  0  0
   41.6902   58.0305   32.6110 H   0  0  0  0  0  0
   40.0216   57.9542   33.1476 H   0  0  0  0  0  0
   42.4415   56.8900   34.7317 H   0  0  0  0  0  0
   43.0648   56.9653   36.8397 H   0  0  0  0  0  0
   43.1766   57.0196   39.2931 H   0  0  0  0  0  0
   41.1644   56.7981   40.6706 H   0  0  0  0  0  0
   38.9634   56.5081   39.6547 H   0  0  0  0  0  0
   34.2202   56.0912   33.3418 H   0  0  0  0  0  0
   33.8300   55.8421   30.9437 H   0  0  0  0  0  0
   35.6906   55.5146   29.3909 H   0  0  0  0  0  0
   38.0148   55.4245   30.1791 H   0  0  0  0  0  0
   40.1081   55.8940   31.5309 H   0  0  0  0  0  0
   39.0587   53.6518   30.9601 H   0  0  0  0  0  0
   40.7388   53.4142   31.3267 H   0  0  0  0  0  0
   39.5278   53.0273   32.5316 H   0  0  0  0  0  0
   34.2787   56.4597   38.1902 H   0  0  0  0  0  0
  1  2  1  0  0  0
  1 33  1  0  0  0
  1 34  1  0  0  0
  1 35  1  0  0  0
  2 22  1  0  0  0
  2  3  1  0  0  0
  2 36  1  0  0  0
  3 11  1  0  0  0
  3  4  1  0  0  0
  4  9  2  0  0  0
  4  5  1  0  0  0
  5  6  2  0  0  0
  5 37  1  0  0  0
  6  7  1  0  0  0
  6 38  1  0  0  0
  7  8  2  0  0  0
  7 39  1  0  0  0
  8  9  1  0  0  0
  8 40  1  0  0  0
  9 10  1  0  0  0
 10 27  2  0  0  0
 10 11  1  0  0  0
 11 12  2  0  0  0
 12 20  1  0  0  0
 12 13  1  0  0  0
 13 14  1  0  0  0
 13 26  2  0  0  0
 14 19  2  0  0  0
 14 15  1  0  0  0
 15 16  2  0  0  0
 15 41  1  0  0  0
 16 17  1  0  0  0
 16 42  1  0  0  0
 17 18  2  0  0  0
 17 43  1  0  0  0
 18 19  1  0  0  0
 18 44  1  0  0  0
 19 20  1  0  0  0
 20 21  1  0  0  0
 21 22  1  0  0  0
 21 25  1  0  0  0
 21 45  1  0  0  0
 22 23  2  0  0  0
 22 24  2  0  0  0
 25 46  1  0  0  0
 25 47  1  0  0  0
 25 48  1  0  0  0
 26 31  1  0  0  0
 26 27  1  0  0  0
 27 28  1  0  0  0
 28 29  2  0  0  0
 28 30  1  0  0  0
 30 31  1  0  0  0
 30 49  1  0  0  0
 31 32  2  0  0  0
M  END
> <s_m_entry_id>
4308

> <s_m_entry_name>
ligand_docking-pose.78

> <s_m_Source_Path>
/home/csk/Desktop/cluster/DUD-E-result/kpcb

> <s_m_Source_File>
ligand_docking-pose.sdf

> <i_m_Source_File_Index>
78

> <i_lp_mmshare_version>
53161

> <r_lp_tautomer_probability>
1

> <s_lp_Force_Field>
OPLS_2005

> <r_lp_Energy>
120.862165

> <b_lp_Chiralities_Consistent>
1

> <s_lp_Variant>
35225-2

> <s_i_glide_gridfile>
glide-grid_2i0e

> <i_i_glide_lignum>
334

> <i_i_glide_rotatable_bonds>
0

> <r_i_docking_score>
-9.15054254837989

> <r_i_glide_ligand_efficiency>
-0.285954454636871

> <r_i_glide_ligand_efficiency_sa>
-0.907848803162337

> <r_i_glide_ligand_efficiency_ln>
-2.04905591095145

> <r_i_glide_gscore>
-9.15054254837989

> <r_i_glide_lipo>
-2.83713374333373

> <r_i_glide_hbond>
-0.608

> <r_i_glide_metal>
0

> <r_i_glide_rewards>
-2.38342713763746

> <r_i_glide_evdw>
-52.2912216186523

> <r_i_glide_ecoul>
-4.37139225006104

> <r_i_glide_erotb>
0

> <r_i_glide_esite>
-0.0517117489669289

> <r_i_glide_emodel>
-83.6298775329411

> <r_i_glide_energy>
-56.6626138687134

> <r_i_glide_einternal>
0

> <i_i_glide_confnum>
1

> <i_i_glide_posenum>
22

> <r_i_glide_eff_state_penalty>
0

> <i_f3d_flags>
0

> <s_user_duplicate_titles>
35225

> <s_m_subgroup_title>
dock_pv

> <s_m_subgroupid>
dock_pv1

> <b_m_subgroup_collapsed>
0

$$$$
322942
                    3D
 Schrodinger Suite 2021-1.
 62 68  0  0  1  0            999 V2000
   39.7918   52.7468   32.8356 C   0  0  0  0  0  0
   40.8238   53.8918   32.7595 C   0  0  0  0  0  0
   41.8003   53.9891   33.9690 C   0  0  2  0  0  0
   42.0394   55.4960   34.0285 C   0  0  0  0  0  0
   40.6308   56.0492   33.7563 C   0  0  1  0  0  0
   40.1172   55.1335   32.8244 O   0  0  0  0  0  0
   39.7063   56.2117   34.8984 N   0  0  0  0  0  0
   40.0592   56.6018   36.2003 C   0  0  0  0  0  0
   41.2748   57.0538   36.7511 C   0  0  0  0  0  0
   41.3660   57.1719   38.1346 C   0  0  0  0  0  0
   40.2826   56.9210   38.9632 C   0  0  0  0  0  0
   39.0441   56.5936   38.4285 C   0  0  0  0  0  0
   38.9065   56.4651   37.0342 C   0  0  0  0  0  0
   37.7934   56.2656   36.1970 C   0  0  0  0  0  0
   38.3038   56.1363   34.8792 C   0  0  0  0  0  0
   37.3989   55.9678   33.8156 C   0  0  0  0  0  0
   36.0083   55.9253   34.0300 C   0  0  0  0  0  0
   35.3883   55.8007   32.7726 C   0  0  0  0  0  0
   34.0447   55.7372   32.3625 C   0  0  0  0  0  0
   33.7630   55.6407   31.0015 C   0  0  0  0  0  0
   34.7886   55.5720   30.0626 C   0  0  0  0  0  0
   36.1313   55.5808   30.4370 C   0  0  0  0  0  0
   36.4175   55.7309   31.7963 C   0  0  0  0  0  0
   37.6235   55.8331   32.4624 N   0  0  0  0  0  0
   35.5245   56.0185   35.3371 C   0  0  0  0  0  0
   36.3938   56.2016   36.4043 C   0  0  0  0  0  0
   35.5664   56.3575   37.6458 C   0  0  0  0  0  0
   35.9016   56.5958   38.8014 O   0  0  0  0  0  0
   34.3011   56.2172   37.2370 N   0  0  0  0  0  0
   34.1125   55.9858   35.8215 C   0  0  0  0  0  0
   43.1004   53.1374   33.8292 C   0  0  0  0  0  0
   44.1753   53.5684   34.6478 O   0  0  0  0  0  0
   41.0633   53.5741   35.1431 O   0  0  0  0  0  0
   41.7238   53.4450   36.4016 C   0  0  0  0  0  0
   41.4764   53.9161   31.3555 C   0  0  0  0  0  0
   40.6756   57.0414   33.3042 H   0  0  0  0  0  0
   38.5443   55.7785   32.0444 H   0  0  0  0  0  0
   40.2960   51.7780   32.8632 H   0  0  0  0  0  0
   39.1602   52.8265   33.7207 H   0  0  0  0  0  0
   39.1244   52.7479   31.9732 H   0  0  0  0  0  0
   42.7006   55.8229   33.2243 H   0  0  0  0  0  0
   42.5032   55.7898   34.9540 H   0  0  0  0  0  0
   42.1338   57.3132   36.1562 H   0  0  0  0  0  0
   42.3047   57.4762   38.5736 H   0  0  0  0  0  0
   40.3924   57.0185   40.0338 H   0  0  0  0  0  0
   38.2168   56.4442   39.1000 H   0  0  0  0  0  0
   33.2391   55.7780   33.0792 H   0  0  0  0  0  0
   32.7369   55.6085   30.6634 H   0  0  0  0  0  0
   34.5356   55.4687   29.0173 H   0  0  0  0  0  0
   36.9086   55.4756   29.6974 H   0  0  0  0  0  0
   33.5306   56.4225   37.8679 H   0  0  0  0  0  0
   33.5013   56.7722   35.3830 H   0  0  0  0  0  0
   33.6196   55.0303   35.6376 H   0  0  0  0  0  0
   42.8946   52.0879   34.0354 H   0  0  0  0  0  0
   43.4921   53.1721   32.8157 H   0  0  0  0  0  0
   44.8540   52.8859   34.6099 H   0  0  0  0  0  0
   40.9760   53.2920   37.1796 H   0  0  0  0  0  0
   42.3882   52.5801   36.4189 H   0  0  0  0  0  0
   42.2968   54.3316   36.6692 H   0  0  0  0  0  0
   41.9738   52.9717   31.1299 H   0  0  0  0  0  0
   40.7263   54.0709   30.5787 H   0  0  0  0  0  0
   42.2085   54.7158   31.2489 H   0  0  0  0  0  0
  1  2  1  0  0  0
  1 38  1  0  0  0
  1 39  1  0  0  0
  1 40  1  0  0  0
  2  6  1  0  0  0
  2  3  1  0  0  0
  2 35  1  0  0  0
  3  4  1  0  0  0
  3 31  1  0  0  0
  3 33  1  0  0  0
  4  5  1  0  0  0
  4 41  1  0  0  0
  4 42  1  0  0  0
  5 36  1  0  0  0
  5  6  1  0  0  0
  5  7  1  0  0  0
  7 15  1  0  0  0
  7  8  1  0  0  0
  8 13  2  0  0  0
  8  9  1  0  0  0
  9 10  2  0  0  0
  9 43  1  0  0  0
 10 11  1  0  0  0
 10 44  1  0  0  0
 11 12  2  0  0  0
 11 45  1  0  0  0
 12 13  1  0  0  0
 12 46  1  0  0  0
 13 14  1  0  0  0
 14 26  2  0  0  0
 14 15  1  0  0  0
 15 16  2  0  0  0
 16 24  1  0  0  0
 16 17  1  0  0  0
 17 18  1  0  0  0
 17 25  2  0  0  0
 18 23  2  0  0  0
 18 19  1  0  0  0
 19 20  2  0  0  0
 19 47  1  0  0  0
 20 21  1  0  0  0
 20 48  1  0  0  0
 21 22  2  0  0  0
 21 49  1  0  0  0
 22 23  1  0  0  0
 22 50  1  0  0  0
 23 24  1  0  0  0
 24 37  1  0  0  0
 25 30  1  0  0  0
 25 26  1  0  0  0
 26 27  1  0  0  0
 27 28  2  0  0  0
 27 29  1  0  0  0
 29 30  1  0  0  0
 29 51  1  0  0  0
 30 52  1  0  0  0
 30 53  1  0  0  0
 31 32  1  0  0  0
 31 54  1  0  0  0
 31 55  1  0  0  0
 32 56  1  0  0  0
 33 34  1  0  0  0
 34 57  1  0  0  0
 34 58  1  0  0  0
 34 59  1  0  0  0
 35 60  1  0  0  0
 35 61  1  0  0  0
 35 62  1  0  0  0
M  END
> <s_m_entry_id>
4309

> <s_m_entry_name>
ligand_docking-pose.79

> <s_m_Source_Path>
/home/csk/Desktop/cluster/DUD-E-result/kpcb

> <s_m_Source_File>
ligand_docking-pose.sdf

> <i_m_Source_File_Index>
79

> <i_lp_mmshare_version>
53161

> <r_lp_tautomer_probability>
1

> <s_lp_Force_Field>
OPLS_2005

> <r_lp_Energy>
110.166896

> <b_lp_Chiralities_Consistent>
1

> <s_lp_Variant>
322942-1

> <s_i_glide_gridfile>
glide-grid_2i0e

> <i_i_glide_lignum>
327

> <i_i_glide_rotatable_bonds>
4

> <r_i_docking_score>
-9.14291123497174

> <r_i_glide_ligand_efficiency>
-0.261226035284907

> <r_i_glide_ligand_efficiency_sa>
-0.854487682351928

> <r_i_glide_ligand_efficiency_ln>
-2.00707193205833

> <r_i_glide_gscore>
-9.14291123497174

> <r_i_glide_lipo>
-3.08968465015822

> <r_i_glide_hbond>
-0.608

> <r_i_glide_metal>
0

> <r_i_glide_rewards>
-1.64985126791112

> <r_i_glide_evdw>
-47.1772880554199

> <r_i_glide_ecoul>
-10.431845664978

> <r_i_glide_erotb>
0.128265935615291

> <r_i_glide_esite>
0

> <r_i_glide_emodel>
-87.7438878276008

> <r_i_glide_energy>
-57.6091337203979

> <r_i_glide_einternal>
5.3039698600769

> <i_i_glide_confnum>
24

> <i_i_glide_posenum>
247

> <r_i_glide_eff_state_penalty>
0

> <i_f3d_flags>
0

> <s_user_duplicate_titles>
322942

> <s_m_subgroup_title>
dock_pv

> <s_m_subgroupid>
dock_pv1

> <b_m_subgroup_collapsed>
0

$$$$
81010
                    3D
 Schrodinger Suite 2021-1.
 40 43  0  0  1  0            999 V2000
   41.1027   58.1059   34.2912 C   0  0  0  0  0  0
   40.4222   57.5171   35.5149 C   0  0  0  0  0  0
   41.1666   57.1719   36.6433 C   0  0  0  0  0  0
   40.5335   56.6077   37.7481 C   0  0  0  0  0  0
   39.1606   56.3719   37.7209 C   0  0  0  0  0  0
   38.3890   56.6987   36.5959 C   0  0  0  0  0  0
   39.0461   57.2931   35.5083 C   0  0  0  0  0  0
   36.9264   56.3836   36.5365 C   0  0  0  0  0  0
   36.1842   56.0207   35.4700 C   0  0  0  0  0  0
   34.8200   55.8944   35.9097 C   0  0  0  0  0  0
   33.8221   55.5717   35.2734 O   0  0  0  0  0  0
   34.8312   56.2074   37.2062 N   0  0  0  0  0  0
   36.0467   56.4993   37.6735 C   0  0  0  0  0  0
   36.3010   56.8016   38.8372 O   0  0  0  0  0  0
   36.6073   55.7340   34.0854 C   0  0  0  0  0  0
   37.8068   55.1359   33.7348 C   0  0  0  0  0  0
   37.9452   55.0607   32.3705 N   0  0  0  0  0  0
   36.7773   55.5133   31.7830 C   0  0  0  0  0  0
   35.9076   55.9417   32.8355 C   0  0  0  0  0  0
   34.6427   56.4376   32.4762 C   0  0  0  0  0  0
   34.2480   56.4425   31.1427 C   0  0  0  0  0  0
   35.1055   55.9980   30.1462 C   0  0  0  0  0  0
   36.3963   55.5687   30.4368 C   0  0  0  0  0  0
   39.0986   54.5080   31.6749 C   0  0  0  0  0  0
   42.1831   57.9508   34.3120 H   0  0  0  0  0  0
   40.8992   59.1723   34.2185 H   0  0  0  0  0  0
   40.7302   57.6293   33.3829 H   0  0  0  0  0  0
   42.2347   57.3402   36.6657 H   0  0  0  0  0  0
   41.1078   56.3412   38.6230 H   0  0  0  0  0  0
   38.7027   55.9049   38.5808 H   0  0  0  0  0  0
   38.4831   57.5736   34.6310 H   0  0  0  0  0  0
   34.0000   56.2286   37.7789 H   0  0  0  0  0  0
   38.6135   54.7924   34.3662 H   0  0  0  0  0  0
   33.9488   56.7719   33.2232 H   0  0  0  0  0  0
   33.2558   56.7840   30.8792 H   0  0  0  0  0  0
   34.7548   55.9875   29.1233 H   0  0  0  0  0  0
   37.0401   55.1907   29.6505 H   0  0  0  0  0  0
   39.4079   55.1921   30.8824 H   0  0  0  0  0  0
   39.9328   54.3661   32.3651 H   0  0  0  0  0  0
   38.8297   53.5477   31.2324 H   0  0  0  0  0  0
  1  2  1  0  0  0
  1 25  1  0  0  0
  1 26  1  0  0  0
  1 27  1  0  0  0
  2  7  1  0  0  0
  2  3  2  0  0  0
  3  4  1  0  0  0
  3 28  1  0  0  0
  4  5  2  0  0  0
  4 29  1  0  0  0
  5  6  1  0  0  0
  5 30  1  0  0  0
  6  7  2  0  0  0
  6  8  1  0  0  0
  7 31  1  0  0  0
  8 13  1  0  0  0
  8  9  2  0  0  0
  9 10  1  0  0  0
  9 15  1  0  0  0
 10 11  2  0  0  0
 10 12  1  0  0  0
 12 13  1  0  0  0
 12 32  1  0  0  0
 13 14  2  0  0  0
 15 19  1  0  0  0
 15 16  2  0  0  0
 16 17  1  0  0  0
 16 33  1  0  0  0
 17 18  1  0  0  0
 17 24  1  0  0  0
 18 23  1  0  0  0
 18 19  2  0  0  0
 19 20  1  0  0  0
 20 21  2  0  0  0
 20 34  1  0  0  0
 21 22  1  0  0  0
 21 35  1  0  0  0
 22 23  2  0  0  0
 22 36  1  0  0  0
 23 37  1  0  0  0
 24 38  1  0  0  0
 24 39  1  0  0  0
 24 40  1  0  0  0
M  END
> <s_m_entry_id>
4310

> <s_m_entry_name>
ligand_docking-pose.80

> <s_m_Source_Path>
/home/csk/Desktop/cluster/DUD-E-result/kpcb

> <s_m_Source_File>
ligand_docking-pose.sdf

> <i_m_Source_File_Index>
80

> <i_lp_mmshare_version>
53161

> <r_lp_tautomer_probability>
1

> <s_lp_Force_Field>
OPLS_2005

> <r_lp_Energy>
22.964829

> <b_lp_Chiralities_Consistent>
1

> <s_lp_Variant>
81010-1

> <s_i_glide_gridfile>
glide-grid_2i0e

> <i_i_glide_lignum>
312

> <i_i_glide_rotatable_bonds>
2

> <r_i_docking_score>
-9.13854482177085

> <r_i_glide_ligand_efficiency>
-0.380772700907119

> <r_i_glide_ligand_efficiency_sa>
-1.09833852737264

> <r_i_glide_ligand_efficiency_ln>
-2.18727311634704

> <r_i_glide_gscore>
-9.13854482177085

> <r_i_glide_lipo>
-2.69113083994017

> <r_i_glide_hbond>
-0.549662398896571

> <r_i_glide_metal>
0

> <r_i_glide_rewards>
-3.20654160049674

> <r_i_glide_evdw>
-42.400749206543

> <r_i_glide_ecoul>
-5.54389238357544

> <r_i_glide_erotb>
0.260411335426094

> <r_i_glide_esite>
0

> <r_i_glide_emodel>
-75.6027523426843

> <r_i_glide_energy>
-47.9446415901184

> <r_i_glide_einternal>
0.196677505970001

> <i_i_glide_confnum>
5

> <i_i_glide_posenum>
11

> <r_i_glide_eff_state_penalty>
0

> <i_f3d_flags>
0

> <s_user_duplicate_titles>
81010

> <s_m_subgroup_title>
dock_pv

> <s_m_subgroupid>
dock_pv1

> <b_m_subgroup_collapsed>
0

$$$$
243211
                    3D
 Schrodinger Suite 2021-1.
 46 53  0  0  1  0            999 V2000
   34.8028   55.7315   31.3102 C   0  0  0  0  0  0
   35.8743   55.5721   30.4384 C   0  0  0  0  0  0
   37.1947   55.6043   30.8850 C   0  0  0  0  0  0
   37.4132   55.8245   32.2520 C   0  0  0  0  0  0
   36.3226   55.9721   33.1687 C   0  0  0  0  0  0
   35.0072   55.9269   32.6732 C   0  0  0  0  0  0
   36.8671   56.1289   34.4651 C   0  0  0  0  0  0
   36.3631   56.2868   35.7755 C   0  0  0  0  0  0
   37.2170   56.4308   36.8588 C   0  0  0  0  0  0
   38.6203   56.4125   36.6955 C   0  0  0  0  0  0
   39.7573   56.5231   37.5340 C   0  0  0  0  0  0
   39.9222   56.7087   38.9201 C   0  0  0  0  0  0
   41.2102   56.7591   39.4486 C   0  0  0  0  0  0
   42.3282   56.6326   38.6310 C   0  0  0  0  0  0
   42.2157   56.4490   37.2541 C   0  0  0  0  0  0
   40.9244   56.3960   36.7103 C   0  0  0  0  0  0
   40.5061   56.2198   35.3951 N   0  0  0  0  0  0
   39.1213   56.2368   35.3931 C   0  0  0  0  0  0
   38.2648   56.1031   34.3012 C   0  0  0  0  0  0
   38.6010   55.9449   32.9655 N   0  0  0  0  0  0
   39.9607   55.8561   32.3953 C   0  0  2  0  0  0
   40.5520   54.4462   32.5299 C   0  0  0  0  0  0
   41.3959   54.5075   33.8095 C   0  0  0  0  0  0
   41.3738   55.9928   34.2260 C   0  0  1  0  0  0
   40.9248   56.7334   33.0507 N   0  0  2  0  0  0
   36.3685   56.5927   38.0706 C   0  0  0  0  0  0
   36.7008   56.7719   39.2369 O   0  0  0  0  0  0
   35.1008   56.5123   37.6319 N   0  0  0  0  0  0
   34.9711   56.3408   36.3037 C   0  0  0  0  0  0
   33.9025   56.2605   35.7026 O   0  0  0  0  0  0
   39.8393   56.1469   31.3498 H   0  0  0  0  0  0
   42.3583   56.3420   34.5385 H   0  0  0  0  0  0
   33.7960   55.6935   30.9199 H   0  0  0  0  0  0
   35.6789   55.4005   29.3877 H   0  0  0  0  0  0
   38.0097   55.4575   30.1921 H   0  0  0  0  0  0
   34.1546   56.0370   33.3236 H   0  0  0  0  0  0
   39.0787   56.8007   39.5855 H   0  0  0  0  0  0
   41.3444   56.8940   40.5120 H   0  0  0  0  0  0
   43.3127   56.6701   39.0759 H   0  0  0  0  0  0
   43.1009   56.3457   36.6455 H   0  0  0  0  0  0
   39.7913   53.6626   32.5637 H   0  0  0  0  0  0
   41.1937   54.2349   31.6707 H   0  0  0  0  0  0
   40.9973   53.8486   34.5848 H   0  0  0  0  0  0
   42.4179   54.1774   33.6047 H   0  0  0  0  0  0
   40.4864   57.6013   33.3288 H   0  0  0  0  0  0
   34.2930   56.6164   38.2327 H   0  0  0  0  0  0
  1  6  1  0  0  0
  1  2  2  0  0  0
  1 33  1  0  0  0
  2  3  1  0  0  0
  2 34  1  0  0  0
  3  4  2  0  0  0
  3 35  1  0  0  0
  4 20  1  0  0  0
  4  5  1  0  0  0
  5  6  2  0  0  0
  5  7  1  0  0  0
  6 36  1  0  0  0
  7 19  2  0  0  0
  7  8  1  0  0  0
  8 29  1  0  0  0
  8  9  2  0  0  0
  9 10  1  0  0  0
  9 26  1  0  0  0
 10 18  2  0  0  0
 10 11  1  0  0  0
 11 16  2  0  0  0
 11 12  1  0  0  0
 12 13  2  0  0  0
 12 37  1  0  0  0
 13 14  1  0  0  0
 13 38  1  0  0  0
 14 15  2  0  0  0
 14 39  1  0  0  0
 15 16  1  0  0  0
 15 40  1  0  0  0
 16 17  1  0  0  0
 17 24  1  0  0  0
 17 18  1  0  0  0
 18 19  1  0  0  0
 19 20  1  0  0  0
 20 21  1  0  0  0
 21 31  1  0  0  0
 21 25  1  0  0  0
 21 22  1  0  0  0
 22 23  1  0  0  0
 22 41  1  0  0  0
 22 42  1  0  0  0
 23 24  1  0  0  0
 23 43  1  0  0  0
 23 44  1  0  0  0
 24 32  1  0  0  0
 24 25  1  0  0  0
 25 45  1  0  0  0
 26 27  2  0  0  0
 26 28  1  0  0  0
 28 29  1  0  0  0
 28 46  1  0  0  0
 29 30  2  0  0  0
M  END
> <s_m_entry_id>
4311

> <s_m_entry_name>
ligand_docking-pose.81

> <s_m_Source_Path>
/home/csk/Desktop/cluster/DUD-E-result/kpcb

> <s_m_Source_File>
ligand_docking-pose.sdf

> <i_m_Source_File_Index>
81

> <i_lp_mmshare_version>
53161

> <r_lp_tautomer_probability>
1

> <s_lp_Force_Field>
OPLS_2005

> <r_lp_Energy>
121.103333

> <b_lp_Chiralities_Consistent>
1

> <s_lp_Variant>
243211-1

> <s_i_glide_gridfile>
glide-grid_2i0e

> <i_i_glide_lignum>
9

> <i_i_glide_rotatable_bonds>
0

> <r_i_docking_score>
-9.13843035293372

> <r_i_glide_ligand_efficiency>
-0.304614345097791

> <r_i_glide_ligand_efficiency_sa>
-0.946507593794615

> <r_i_glide_ligand_efficiency_ln>
-2.07635094736026

> <r_i_glide_gscore>
-9.13843035293372

> <r_i_glide_lipo>
-2.41478603824447

> <r_i_glide_hbond>
-0.608

> <r_i_glide_metal>
0

> <r_i_glide_rewards>
-2.87988372127495

> <r_i_glide_evdw>
-46.6524467468262

> <r_i_glide_ecoul>
-6.02092170715332

> <r_i_glide_erotb>
0

> <r_i_glide_esite>
0

> <r_i_glide_emodel>
-82.6876551249167

> <r_i_glide_energy>
-52.6733684539795

> <r_i_glide_einternal>
0

> <i_i_glide_confnum>
1

> <i_i_glide_posenum>
277

> <r_i_glide_eff_state_penalty>
0

> <i_f3d_flags>
0

> <s_user_duplicate_titles>
243211

> <s_m_subgroup_title>
dock_pv

> <s_m_subgroupid>
dock_pv1

> <b_m_subgroup_collapsed>
0

$$$$
322758
                    3D
 Schrodinger Suite 2021-1.
 58 64  0  0  1  0            999 V2000
   44.8596   56.4274   34.7292 C   0  0  0  0  0  0
   43.5983   56.2401   33.8532 C   0  0  2  0  0  0
   42.4321   57.1020   34.3796 C   0  0  0  0  0  0
   41.2790   56.1050   34.4498 C   0  0  1  0  0  0
   41.8708   54.8572   34.5760 O   0  0  0  0  0  0
   43.0380   54.7716   33.7736 C   0  0  0  0  0  0
   43.8872   53.6626   34.4352 C   0  0  0  0  0  0
   42.5828   54.3187   32.3602 C   0  0  0  0  0  0
   40.3042   56.2711   35.5228 N   0  0  0  0  0  0
   40.6143   56.3604   36.8819 C   0  0  0  0  0  0
   41.8529   56.3284   37.5474 C   0  0  0  0  0  0
   41.8614   56.4903   38.9310 C   0  0  0  0  0  0
   40.6893   56.6658   39.6482 C   0  0  0  0  0  0
   39.4539   56.6588   39.0118 C   0  0  0  0  0  0
   39.3962   56.4905   37.6133 C   0  0  0  0  0  0
   38.3274   56.3788   36.6934 C   0  0  0  0  0  0
   38.9139   56.2133   35.4136 C   0  0  0  0  0  0
   38.0890   56.0350   34.2894 C   0  0  0  0  0  0
   36.6862   56.0386   34.4059 C   0  0  0  0  0  0
   36.1618   55.8911   33.1053 C   0  0  0  0  0  0
   34.8521   55.8634   32.5937 C   0  0  0  0  0  0
   34.6740   55.7127   31.2188 C   0  0  0  0  0  0
   35.7649   55.5727   30.3647 C   0  0  0  0  0  0
   37.0790   55.5738   30.8379 C   0  0  0  0  0  0
   37.2608   55.7527   32.2110 C   0  0  0  0  0  0
   38.4165   55.8246   32.9648 N   0  0  0  0  0  0
   36.1138   56.1798   35.6791 C   0  0  0  0  0  0
   36.9154   56.3666   36.8010 C   0  0  0  0  0  0
   36.0194   56.5273   37.9904 C   0  0  0  0  0  0
   36.3007   56.7720   39.1574 O   0  0  0  0  0  0
   34.7771   56.3715   37.5116 N   0  0  0  0  0  0
   34.6709   56.1634   36.0826 C   0  0  0  0  0  0
   44.0296   56.7514   32.6030 O   0  0  0  0  0  0
   40.7484   56.1348   33.5072 H   0  0  0  0  0  0
   39.3531   55.7329   32.5968 H   0  0  0  0  0  0
   44.6898   56.1009   35.7554 H   0  0  0  0  0  0
   45.7133   55.8650   34.3448 H   0  0  0  0  0  0
   45.1596   57.4767   34.7798 H   0  0  0  0  0  0
   42.1558   57.9151   33.7088 H   0  0  0  0  0  0
   42.6371   57.5605   35.3459 H   0  0  0  0  0  0
   44.8436   53.5383   33.9288 H   0  0  0  0  0  0
   44.0801   53.8597   35.4904 H   0  0  0  0  0  0
   43.3801   52.6969   34.3877 H   0  0  0  0  0  0
   43.4395   54.1405   31.7097 H   0  0  0  0  0  0
   42.0240   53.3839   32.4137 H   0  0  0  0  0  0
   41.9402   55.0513   31.8714 H   0  0  0  0  0  0
   42.7822   56.1712   37.0246 H   0  0  0  0  0  0
   42.8046   56.4746   39.4592 H   0  0  0  0  0  0
   40.7299   56.7835   40.7218 H   0  0  0  0  0  0
   38.5701   56.7592   39.6164 H   0  0  0  0  0  0
   33.9978   55.9640   33.2456 H   0  0  0  0  0  0
   33.6778   55.6986   30.8047 H   0  0  0  0  0  0
   35.5894   55.4394   29.3068 H   0  0  0  0  0  0
   37.9111   55.4420   30.1634 H   0  0  0  0  0  0
   33.9631   56.5307   38.0997 H   0  0  0  0  0  0
   34.0832   56.9597   35.6218 H   0  0  0  0  0  0
   34.1776   55.2115   35.8761 H   0  0  0  0  0  0
   44.6360   56.1154   32.2169 H   0  0  0  0  0  0
  1  2  1  0  0  0
  1 36  1  0  0  0
  1 37  1  0  0  0
  1 38  1  0  0  0
  2  6  1  0  0  0
  2  3  1  0  0  0
  2 33  1  0  0  0
  3  4  1  0  0  0
  3 39  1  0  0  0
  3 40  1  0  0  0
  4 34  1  0  0  0
  4  5  1  0  0  0
  4  9  1  0  0  0
  5  6  1  0  0  0
  6  7  1  0  0  0
  6  8  1  0  0  0
  7 41  1  0  0  0
  7 42  1  0  0  0
  7 43  1  0  0  0
  8 44  1  0  0  0
  8 45  1  0  0  0
  8 46  1  0  0  0
  9 17  1  0  0  0
  9 10  1  0  0  0
 10 15  2  0  0  0
 10 11  1  0  0  0
 11 12  2  0  0  0
 11 47  1  0  0  0
 12 13  1  0  0  0
 12 48  1  0  0  0
 13 14  2  0  0  0
 13 49  1  0  0  0
 14 15  1  0  0  0
 14 50  1  0  0  0
 15 16  1  0  0  0
 16 28  2  0  0  0
 16 17  1  0  0  0
 17 18  2  0  0  0
 18 26  1  0  0  0
 18 19  1  0  0  0
 19 20  1  0  0  0
 19 27  2  0  0  0
 20 25  2  0  0  0
 20 21  1  0  0  0
 21 22  2  0  0  0
 21 51  1  0  0  0
 22 23  1  0  0  0
 22 52  1  0  0  0
 23 24  2  0  0  0
 23 53  1  0  0  0
 24 25  1  0  0  0
 24 54  1  0  0  0
 25 26  1  0  0  0
 26 35  1  0  0  0
 27 32  1  0  0  0
 27 28  1  0  0  0
 28 29  1  0  0  0
 29 30  2  0  0  0
 29 31  1  0  0  0
 31 32  1  0  0  0
 31 55  1  0  0  0
 32 56  1  0  0  0
 32 57  1  0  0  0
 33 58  1  0  0  0
M  END
> <s_m_entry_id>
4313

> <s_m_entry_name>
ligand_docking-pose.83

> <s_m_Source_Path>
/home/csk/Desktop/cluster/DUD-E-result/kpcb

> <s_m_Source_File>
ligand_docking-pose.sdf

> <i_m_Source_File_Index>
83

> <i_lp_mmshare_version>
53161

> <r_lp_tautomer_probability>
1

> <s_lp_Force_Field>
OPLS_2005

> <r_lp_Energy>
105.92369

> <b_lp_Chiralities_Consistent>
1

> <s_lp_Variant>
322758-1

> <s_i_glide_gridfile>
glide-grid_2i0e

> <i_i_glide_lignum>
332

> <i_i_glide_rotatable_bonds>
2

> <r_i_docking_score>
-9.10599874780264

> <r_i_glide_ligand_efficiency>
-0.275939355994019

> <r_i_glide_ligand_efficiency_sa>
-0.885084956316188

> <r_i_glide_ligand_efficiency_ln>
-2.02512697317312

> <r_i_glide_gscore>
-9.10599874780264

> <r_i_glide_lipo>
-2.94502301637094

> <r_i_glide_hbond>
-0.608

> <r_i_glide_metal>
0

> <r_i_glide_rewards>
-1.92342723116597

> <r_i_glide_evdw>
-45.9222221374512

> <r_i_glide_ecoul>
-9.37176609039307

> <r_i_glide_erotb>
0.0723275201657849

> <r_i_glide_esite>
0

> <r_i_glide_emodel>
-84.8059412691094

> <r_i_glide_energy>
-55.2939882278442

> <r_i_glide_einternal>
1.07711124420166

> <i_i_glide_confnum>
5

> <i_i_glide_posenum>
338

> <r_i_glide_eff_state_penalty>
0

> <i_f3d_flags>
0

> <s_user_duplicate_titles>
322758

> <s_m_subgroup_title>
dock_pv

> <s_m_subgroupid>
dock_pv1

> <b_m_subgroup_collapsed>
0

$$$$
157862
                    3D
 Schrodinger Suite 2021-1.
 38 42  0  0  1  0            999 V2000
   36.0891   56.5003   30.8164 C   0  0  0  0  0  0
   35.3526   57.1733   31.7847 C   0  0  0  0  0  0
   35.5590   56.9525   33.1444 C   0  0  0  0  0  0
   36.5084   55.9817   33.5065 C   0  0  0  0  0  0
   37.2700   55.2774   32.5235 C   0  0  0  0  0  0
   37.0641   55.5719   31.1696 C   0  0  0  0  0  0
   38.1286   54.3749   33.2228 C   0  0  0  0  0  0
   37.8938   54.5587   34.5672 C   0  0  0  0  0  0
   36.9328   55.5299   34.7540 N   0  0  0  0  0  0
   36.4915   55.9963   36.0097 C   0  0  0  0  0  0
   37.2416   56.3886   37.0592 C   0  0  0  0  0  0
   36.3391   56.7654   38.1129 C   0  0  0  0  0  0
   36.6108   57.1720   39.2372 O   0  0  0  0  0  0
   35.1076   56.5675   37.6297 N   0  0  0  0  0  0
   35.1054   56.1066   36.3771 C   0  0  0  0  0  0
   34.1056   55.8484   35.7117 O   0  0  0  0  0  0
   38.6585   56.4296   37.1825 N   0  0  0  0  0  0
   39.3401   56.0155   38.3111 C   0  0  0  0  0  0
   40.6985   56.0936   38.1281 C   0  0  0  0  0  0
   40.9028   56.5977   36.8105 C   0  0  0  0  0  0
   39.6089   56.8377   36.2412 C   0  0  0  0  0  0
   39.4790   57.3813   34.9530 C   0  0  0  0  0  0
   40.6438   57.6233   34.2287 C   0  0  0  0  0  0
   41.9014   57.3643   34.7568 C   0  0  0  0  0  0
   42.0494   56.8666   36.0492 C   0  0  0  0  0  0
   35.9011   56.7023   29.7726 H   0  0  0  0  0  0
   34.6061   57.8906   31.4757 H   0  0  0  0  0  0
   34.9928   57.5060   33.8777 H   0  0  0  0  0  0
   37.6501   55.0800   30.4078 H   0  0  0  0  0  0
   38.8428   53.6829   32.7957 H   0  0  0  0  0  0
   38.3490   54.0798   35.4254 H   0  0  0  0  0  0
   34.2566   56.7570   38.1485 H   0  0  0  0  0  0
   38.7882   55.6643   39.1723 H   0  0  0  0  0  0
   41.4488   55.8047   38.8498 H   0  0  0  0  0  0
   38.5188   57.5709   34.5061 H   0  0  0  0  0  0
   40.5716   58.0098   33.2222 H   0  0  0  0  0  0
   42.7798   57.5657   34.1600 H   0  0  0  0  0  0
   43.0357   56.6899   36.4547 H   0  0  0  0  0  0
  1  6  1  0  0  0
  1  2  2  0  0  0
  1 26  1  0  0  0
  2  3  1  0  0  0
  2 27  1  0  0  0
  3  4  2  0  0  0
  3 28  1  0  0  0
  4  9  1  0  0  0
  4  5  1  0  0  0
  5  6  2  0  0  0
  5  7  1  0  0  0
  6 29  1  0  0  0
  7  8  2  0  0  0
  7 30  1  0  0  0
  8  9  1  0  0  0
  8 31  1  0  0  0
  9 10  1  0  0  0
 10 15  1  0  0  0
 10 11  2  0  0  0
 11 12  1  0  0  0
 11 17  1  0  0  0
 12 13  2  0  0  0
 12 14  1  0  0  0
 14 15  1  0  0  0
 14 32  1  0  0  0
 15 16  2  0  0  0
 17 21  1  0  0  0
 17 18  1  0  0  0
 18 19  2  0  0  0
 18 33  1  0  0  0
 19 20  1  0  0  0
 19 34  1  0  0  0
 20 25  2  0  0  0
 20 21  1  0  0  0
 21 22  2  0  0  0
 22 23  1  0  0  0
 22 35  1  0  0  0
 23 24  2  0  0  0
 23 36  1  0  0  0
 24 25  1  0  0  0
 24 37  1  0  0  0
 25 38  1  0  0  0
M  END
> <s_m_entry_id>
4315

> <s_m_entry_name>
ligand_docking-pose.85

> <s_m_Source_Path>
/home/csk/Desktop/cluster/DUD-E-result/kpcb

> <s_m_Source_File>
ligand_docking-pose.sdf

> <i_m_Source_File_Index>
85

> <i_lp_mmshare_version>
53161

> <r_lp_tautomer_probability>
1

> <s_lp_Force_Field>
OPLS_2005

> <r_lp_Energy>
36.428782

> <b_lp_Chiralities_Consistent>
1

> <s_lp_Variant>
157862-1

> <s_i_glide_gridfile>
glide-grid_2i0e

> <i_i_glide_lignum>
57

> <i_i_glide_rotatable_bonds>
2

> <r_i_docking_score>
-9.09123704176312

> <r_i_glide_ligand_efficiency>
-0.363649481670525

> <r_i_glide_ligand_efficiency_sa>
-1.06331753375563

> <r_i_glide_ligand_efficiency_ln>
-2.15489562128725

> <r_i_glide_gscore>
-9.09123704176312

> <r_i_glide_lipo>
-2.60616560228833

> <r_i_glide_hbond>
-0.608

> <r_i_glide_metal>
0

> <r_i_glide_rewards>
-3.15651539711221

> <r_i_glide_evdw>
-43.571460723877

> <r_i_glide_ecoul>
-5.2479248046875

> <r_i_glide_erotb>
0.245205714534392

> <r_i_glide_esite>
0

> <r_i_glide_emodel>
-75.7428442522696

> <r_i_glide_energy>
-48.8193855285645

> <r_i_glide_einternal>
1.65279579162598

> <i_i_glide_confnum>
1

> <i_i_glide_posenum>
387

> <r_i_glide_eff_state_penalty>
0

> <i_f3d_flags>
0

> <s_user_duplicate_titles>
157862

> <s_m_subgroup_title>
dock_pv

> <s_m_subgroupid>
dock_pv1

> <b_m_subgroup_collapsed>
0

$$$$
259046
                    3D
 Schrodinger Suite 2021-1.
 50 55  0  0  1  0            999 V2000
   41.0395   56.3115   33.6347 C   0  0  0  0  0  0
   40.0871   56.3811   34.7356 N   0  0  0  0  0  0
   40.5384   56.6011   36.0337 C   0  0  0  0  0  0
   41.8383   56.8195   36.5211 C   0  0  0  0  0  0
   42.0106   56.9021   37.8971 C   0  0  0  0  0  0
   40.9563   56.7669   38.7876 C   0  0  0  0  0  0
   39.6532   56.6011   38.2951 C   0  0  0  0  0  0
   39.4267   56.5333   36.9043 C   0  0  0  0  0  0
   38.2635   56.4063   36.1067 C   0  0  0  0  0  0
   38.6794   56.2903   34.7399 C   0  0  0  0  0  0
   37.6920   56.1189   33.7152 C   0  0  0  0  0  0
   36.3070   56.0646   34.0724 C   0  0  0  0  0  0
   35.5511   55.8999   32.8849 C   0  0  0  0  0  0
   34.1722   55.7975   32.6036 C   0  0  0  0  0  0
   33.7405   55.6477   31.2903 C   0  0  0  0  0  0
   34.6527   55.5763   30.2510 C   0  0  0  0  0  0
   36.0223   55.6446   30.4816 C   0  0  0  0  0  0
   36.4619   55.8294   31.8064 C   0  0  0  0  0  0
   37.7483   55.9720   32.3132 N   0  0  0  0  0  0
   38.8848   55.8714   31.4043 C   0  0  0  0  0  0
   39.3290   54.4033   31.2042 C   0  0  0  0  0  0
   39.2091   53.5154   32.3767 C   0  0  0  0  0  0
   39.1079   52.8222   33.2974 N   0  0  0  0  0  0
   35.9449   56.1822   35.4286 C   0  0  0  0  0  0
   36.8878   56.3677   36.4146 C   0  0  0  0  0  0
   36.1444   56.5284   37.7046 C   0  0  0  0  0  0
   36.5536   56.7716   38.8368 O   0  0  0  0  0  0
   34.8521   56.3697   37.3967 N   0  0  0  0  0  0
   34.6146   56.1480   36.1001 C   0  0  0  0  0  0
   33.5011   55.9720   35.6258 O   0  0  0  0  0  0
   41.2913   56.7997   40.1263 O   0  0  0  0  0  0
   40.3108   56.4464   41.0913 C   0  0  0  0  0  0
   42.0574   56.1688   33.9925 H   0  0  0  0  0  0
   40.8445   55.4341   33.0286 H   0  0  0  0  0  0
   41.0255   57.2458   33.0737 H   0  0  0  0  0  0
   42.7019   56.9036   35.8789 H   0  0  0  0  0  0
   43.0060   57.0496   38.2893 H   0  0  0  0  0  0
   38.8409   56.5006   38.9894 H   0  0  0  0  0  0
   33.4217   55.8391   33.3667 H   0  0  0  0  0  0
   32.6838   55.5806   31.0736 H   0  0  0  0  0  0
   34.2951   55.4456   29.2384 H   0  0  0  0  0  0
   36.7007   55.5542   29.6478 H   0  0  0  0  0  0
   38.5825   56.2639   30.4378 H   0  0  0  0  0  0
   39.6488   56.5795   31.6723 H   0  0  0  0  0  0
   38.7041   53.9610   30.4333 H   0  0  0  0  0  0
   40.3547   54.3570   30.8360 H   0  0  0  0  0  0
   34.1076   56.4543   38.0753 H   0  0  0  0  0  0
   40.7582   56.4403   42.0854 H   0  0  0  0  0  0
   39.5010   57.1721   41.1026 H   0  0  0  0  0  0
   39.9016   55.4527   40.9005 H   0  0  0  0  0  0
  1  2  1  0  0  0
  1 33  1  0  0  0
  1 34  1  0  0  0
  1 35  1  0  0  0
  2 10  1  0  0  0
  2  3  1  0  0  0
  3  8  2  0  0  0
  3  4  1  0  0  0
  4  5  2  0  0  0
  4 36  1  0  0  0
  5  6  1  0  0  0
  5 37  1  0  0  0
  6  7  2  0  0  0
  6 31  1  0  0  0
  7  8  1  0  0  0
  7 38  1  0  0  0
  8  9  1  0  0  0
  9 25  2  0  0  0
  9 10  1  0  0  0
 10 11  2  0  0  0
 11 19  1  0  0  0
 11 12  1  0  0  0
 12 13  1  0  0  0
 12 24  2  0  0  0
 13 18  2  0  0  0
 13 14  1  0  0  0
 14 15  2  0  0  0
 14 39  1  0  0  0
 15 16  1  0  0  0
 15 40  1  0  0  0
 16 17  2  0  0  0
 16 41  1  0  0  0
 17 18  1  0  0  0
 17 42  1  0  0  0
 18 19  1  0  0  0
 19 20  1  0  0  0
 20 21  1  0  0  0
 20 43  1  0  0  0
 20 44  1  0  0  0
 21 22  1  0  0  0
 21 45  1  0  0  0
 21 46  1  0  0  0
 22 23  3  0  0  0
 24 29  1  0  0  0
 24 25  1  0  0  0
 25 26  1  0  0  0
 26 27  2  0  0  0
 26 28  1  0  0  0
 28 29  1  0  0  0
 28 47  1  0  0  0
 29 30  2  0  0  0
 31 32  1  0  0  0
 32 48  1  0  0  0
 32 49  1  0  0  0
 32 50  1  0  0  0
M  END
> <s_m_entry_id>
4316

> <s_m_entry_name>
ligand_docking-pose.86

> <s_m_Source_Path>
/home/csk/Desktop/cluster/DUD-E-result/kpcb

> <s_m_Source_File>
ligand_docking-pose.sdf

> <i_m_Source_File_Index>
86

> <i_lp_mmshare_version>
53161

> <r_lp_tautomer_probability>
1

> <s_lp_Force_Field>
OPLS_2005

> <r_lp_Energy>
112.20319

> <b_lp_Chiralities_Consistent>
1

> <s_lp_Variant>
259046-1

> <s_i_glide_gridfile>
glide-grid_2i0e

> <i_i_glide_lignum>
402

> <i_i_glide_rotatable_bonds>
3

> <r_i_docking_score>
-9.07517561162117

> <r_i_glide_ligand_efficiency>
-0.283599237863161

> <r_i_glide_ligand_efficiency_sa>
-0.900371456002575

> <r_i_glide_ligand_efficiency_ln>
-2.03217919938607

> <r_i_glide_gscore>
-9.07517561162117

> <r_i_glide_lipo>
-2.75051791099308

> <r_i_glide_hbond>
-0.563212812546749

> <r_i_glide_metal>
0

> <r_i_glide_rewards>
-2.53552802703677

> <r_i_glide_evdw>
-49.3408355712891

> <r_i_glide_ecoul>
-5.50936985015869

> <r_i_glide_erotb>
0.0777089758820409

> <r_i_glide_esite>
-0.0101785808383508

> <r_i_glide_emodel>
-84.9570127897443

> <r_i_glide_energy>
-54.8502054214478

> <r_i_glide_einternal>
1.38853061199188

> <i_i_glide_confnum>
2

> <i_i_glide_posenum>
99

> <r_i_glide_eff_state_penalty>
0

> <i_f3d_flags>
0

> <s_user_duplicate_titles>
259046

> <s_m_subgroup_title>
dock_pv

> <s_m_subgroupid>
dock_pv1

> <b_m_subgroup_collapsed>
0

$$$$
221
                    3D
 Schrodinger Suite 2021-1.
 58 62  0  0  1  0            999 V2000
   39.0164   54.4637   31.6134 C   0  0  0  0  0  0
   37.8856   55.0109   32.3498 N   0  0  0  0  0  0
   37.7820   55.1020   33.7188 C   0  0  0  0  0  0
   36.5991   55.7202   34.0922 C   0  0  0  0  0  0
   35.8760   55.9283   32.8513 C   0  0  0  0  0  0
   36.7190   55.4886   31.7817 C   0  0  0  0  0  0
   36.3232   55.5590   30.4376 C   0  0  0  0  0  0
   35.0379   56.0169   30.1675 C   0  0  0  0  0  0
   34.1989   56.4616   31.1797 C   0  0  0  0  0  0
   34.6107   56.4380   32.5107 C   0  0  0  0  0  0
   36.2044   56.0641   35.4798 C   0  0  0  0  0  0
   36.9449   56.5312   36.5107 C   0  0  0  0  0  0
   36.0644   56.7303   37.6367 C   0  0  0  0  0  0
   36.3011   57.1637   38.7642 O   0  0  0  0  0  0
   34.8554   56.3711   37.2039 N   0  0  0  0  0  0
   34.8432   55.9575   35.9358 C   0  0  0  0  0  0
   33.8485   55.5722   35.3305 O   0  0  0  0  0  0
   38.3963   56.8038   36.5718 C   0  0  0  0  0  0
   39.1660   57.1775   35.4864 C   0  0  0  0  0  0
   40.4938   57.2621   35.8152 N   0  0  0  0  0  0
   40.6302   57.0337   37.1736 C   0  0  0  0  0  0
   39.3297   56.7067   37.6796 C   0  0  0  0  0  0
   39.2282   56.3633   39.0411 C   0  0  0  0  0  0
   40.3628   56.3853   39.8491 C   0  0  0  0  0  0
   41.6042   56.7301   39.3330 C   0  0  0  0  0  0
   41.7705   57.0574   37.9900 C   0  0  0  0  0  0
   41.5713   57.4837   34.8550 C   0  0  0  0  0  0
   42.0493   56.1702   34.1773 C   0  0  0  0  0  0
   42.6869   55.1076   35.1119 C   0  0  0  0  0  0
   41.7137   54.3245   35.8811 N   0  0  0  0  0  0
   41.1011   53.2772   35.0669 C   0  0  0  0  0  0
   42.3664   53.6735   37.0149 C   0  0  0  0  0  0
   38.7019   53.5729   31.0663 H   0  0  0  0  0  0
   39.3807   55.2051   30.8982 H   0  0  0  0  0  0
   39.8245   54.1938   32.2886 H   0  0  0  0  0  0
   38.5947   54.7519   34.3391 H   0  0  0  0  0  0
   36.9526   55.1805   29.6423 H   0  0  0  0  0  0
   34.6802   56.0208   29.1476 H   0  0  0  0  0  0
   33.2076   56.8153   30.9301 H   0  0  0  0  0  0
   33.9275   56.7717   33.2666 H   0  0  0  0  0  0
   34.0254   56.4283   37.7772 H   0  0  0  0  0  0
   38.8735   57.3574   34.4611 H   0  0  0  0  0  0
   38.2921   56.0575   39.4788 H   0  0  0  0  0  0
   40.2726   56.1204   40.8934 H   0  0  0  0  0  0
   42.4655   56.7296   39.9858 H   0  0  0  0  0  0
   42.7474   57.2993   37.5979 H   0  0  0  0  0  0
   42.3945   57.9713   35.3753 H   0  0  0  0  0  0
   41.2249   58.1988   34.1055 H   0  0  0  0  0  0
   42.7854   56.4344   33.4189 H   0  0  0  0  0  0
   41.2070   55.7409   33.6362 H   0  0  0  0  0  0
   43.3161   55.6478   35.8206 H   0  0  0  0  0  0
   43.3676   54.4585   34.5592 H   0  0  0  0  0  0
   40.5816   53.6989   34.2136 H   0  0  0  0  0  0
   40.3680   52.7132   35.6435 H   0  0  0  0  0  0
   41.8435   52.5712   34.6870 H   0  0  0  0  0  0
   42.8764   54.3983   37.6503 H   0  0  0  0  0  0
   41.6303   53.1656   37.6386 H   0  0  0  0  0  0
   43.1009   52.9382   36.6879 H   0  0  0  0  0  0
  1  2  1  0  0  0
  1 33  1  0  0  0
  1 34  1  0  0  0
  1 35  1  0  0  0
  2  6  1  0  0  0
  2  3  1  0  0  0
  3  4  2  0  0  0
  3 36  1  0  0  0
  4  5  1  0  0  0
  4 11  1  0  0  0
  5 10  2  0  0  0
  5  6  1  0  0  0
  6  7  2  0  0  0
  7  8  1  0  0  0
  7 37  1  0  0  0
  8  9  2  0  0  0
  8 38  1  0  0  0
  9 10  1  0  0  0
  9 39  1  0  0  0
 10 40  1  0  0  0
 11 16  1  0  0  0
 11 12  2  0  0  0
 12 13  1  0  0  0
 12 18  1  0  0  0
 13 14  2  0  0  0
 13 15  1  0  0  0
 15 16  1  0  0  0
 15 41  1  0  0  0
 16 17  2  0  0  0
 18 22  1  0  0  0
 18 19  2  0  0  0
 19 20  1  0  0  0
 19 42  1  0  0  0
 20 21  1  0  0  0
 20 27  1  0  0  0
 21 26  1  0  0  0
 21 22  2  0  0  0
 22 23  1  0  0  0
 23 24  2  0  0  0
 23 43  1  0  0  0
 24 25  1  0  0  0
 24 44  1  0  0  0
 25 26  2  0  0  0
 25 45  1  0  0  0
 26 46  1  0  0  0
 27 28  1  0  0  0
 27 47  1  0  0  0
 27 48  1  0  0  0
 28 29  1  0  0  0
 28 49  1  0  0  0
 28 50  1  0  0  0
 29 30  1  0  0  0
 29 51  1  0  0  0
 29 52  1  0  0  0
 30 31  1  0  0  0
 30 32  1  0  0  0
 31 53  1  0  0  0
 31 54  1  0  0  0
 31 55  1  0  0  0
 32 56  1  0  0  0
 32 57  1  0  0  0
 32 58  1  0  0  0
M  END
> <s_m_entry_id>
4317

> <s_m_entry_name>
ligand_docking-pose.87

> <s_m_Source_Path>
/home/csk/Desktop/cluster/DUD-E-result/kpcb

> <s_m_Source_File>
ligand_docking-pose.sdf

> <i_m_Source_File_Index>
87

> <i_lp_mmshare_version>
53161

> <r_lp_tautomer_probability>
1

> <s_lp_Force_Field>
OPLS_2005

> <r_lp_Energy>
29.366423

> <b_lp_Chiralities_Consistent>
1

> <s_lp_Variant>
221-1

> <s_i_glide_gridfile>
glide-grid_2i0e

> <i_i_glide_lignum>
473

> <i_i_glide_rotatable_bonds>
6

> <r_i_docking_score>
-9.0439191464933

> <r_i_glide_ligand_efficiency>
-0.282622473327916

> <r_i_glide_ligand_efficiency_sa>
-0.897270421904608

> <r_i_glide_ligand_efficiency_ln>
-2.02518002482488

> <r_i_glide_gscore>
-9.0439191464933

> <r_i_glide_lipo>
-2.77477712527324

> <r_i_glide_hbond>
-0.535927828285491

> <r_i_glide_metal>
0

> <r_i_glide_rewards>
-2.5832603514327

> <r_i_glide_evdw>
-49.5317840576172

> <r_i_glide_ecoul>
-7.03479385375977

> <r_i_glide_erotb>
0.381854439442955

> <r_i_glide_esite>
0

> <r_i_glide_emodel>
-86.9381424208155

> <r_i_glide_energy>
-56.566577911377

> <r_i_glide_einternal>
6.7196364402771

> <i_i_glide_confnum>
249

> <i_i_glide_posenum>
20

> <r_i_glide_eff_state_penalty>
0

> <i_f3d_flags>
0

> <s_user_duplicate_titles>
221

> <s_m_subgroup_title>
dock_pv

> <s_m_subgroupid>
dock_pv1

> <b_m_subgroup_collapsed>
0

$$$$
259101
                    3D
 Schrodinger Suite 2021-1.
 61 66  0  0  1  0            999 V2000
   38.7252   56.5517   31.6369 C   0  0  0  0  0  0
   37.6502   56.0669   32.4935 N   0  0  0  0  0  0
   36.3779   55.8185   31.9962 C   0  0  0  0  0  0
   35.9167   55.7503   30.6717 C   0  0  0  0  0  0
   34.5500   55.5721   30.4683 C   0  0  0  0  0  0
   33.6685   55.4370   31.5310 C   0  0  0  0  0  0
   34.1222   55.4918   32.8463 C   0  0  0  0  0  0
   35.4933   55.6979   33.0983 C   0  0  0  0  0  0
   36.2629   55.8670   34.2746 C   0  0  0  0  0  0
   37.6286   55.9112   33.8848 C   0  0  0  0  0  0
   38.6431   55.9206   34.8753 C   0  0  0  0  0  0
   38.2936   56.1074   36.2446 C   0  0  0  0  0  0
   39.5007   56.1762   36.9796 C   0  0  0  0  0  0
   39.8020   56.3738   38.3415 C   0  0  0  0  0  0
   41.1353   56.3439   38.7747 C   0  0  0  0  0  0
   42.1528   56.1328   37.8535 C   0  0  0  0  0  0
   41.9011   55.9063   36.5032 C   0  0  0  0  0  0
   40.5658   55.9317   36.0728 C   0  0  0  0  0  0
   40.0236   55.6816   34.8160 N   0  0  0  0  0  0
   40.8052   55.0425   33.7506 C   0  0  0  0  0  0
   40.6025   53.5003   33.7234 C   0  0  1  0  0  0
   41.3443   52.7963   32.5566 C   0  0  0  0  0  0
   41.0650   53.3929   31.2438 N   0  0  0  0  0  0
   41.9144   52.7845   30.2237 C   0  0  0  0  0  0
   39.6686   53.2563   30.8371 C   0  0  0  0  0  0
   41.0720   52.9325   34.9366 O   0  0  0  0  0  0
   41.5312   56.5041   40.0898 O   0  0  0  0  0  0
   40.5570   56.4004   41.1227 C   0  0  0  0  0  0
   36.9282   56.1758   36.5925 C   0  0  0  0  0  0
   35.9476   56.0069   35.6397 C   0  0  0  0  0  0
   34.6367   56.0706   36.3385 C   0  0  0  0  0  0
   33.5063   55.9721   35.8749 O   0  0  0  0  0  0
   34.9244   56.2972   37.6287 N   0  0  0  0  0  0
   36.2350   56.3956   37.8990 C   0  0  0  0  0  0
   36.7000   56.6328   39.0096 O   0  0  0  0  0  0
   38.3011   57.1707   30.8394 H   0  0  0  0  0  0
   39.4222   57.1718   32.2014 H   0  0  0  0  0  0
   39.2407   55.7344   31.1510 H   0  0  0  0  0  0
   36.5849   55.8315   29.8306 H   0  0  0  0  0  0
   34.1711   55.5247   29.4572 H   0  0  0  0  0  0
   32.6169   55.2919   31.3308 H   0  0  0  0  0  0
   33.4039   55.3779   33.6369 H   0  0  0  0  0  0
   39.0187   56.5292   39.0570 H   0  0  0  0  0  0
   43.1740   56.1044   38.2044 H   0  0  0  0  0  0
   42.7246   55.7052   35.8352 H   0  0  0  0  0  0
   40.5709   55.4807   32.8016 H   0  0  0  0  0  0
   41.8605   55.2725   33.8815 H   0  0  0  0  0  0
   39.5380   53.2639   33.6696 H   0  0  0  0  0  0
   42.4194   52.8450   32.7431 H   0  0  0  0  0  0
   41.0750   51.7380   32.5282 H   0  0  0  0  0  0
   41.7212   53.2244   29.2435 H   0  0  0  0  0  0
   42.9691   52.9480   30.4465 H   0  0  0  0  0  0
   41.7473   51.7070   30.1536 H   0  0  0  0  0  0
   39.5005   53.8739   29.9564 H   0  0  0  0  0  0
   39.3872   52.2391   30.5833 H   0  0  0  0  0  0
   38.9721   53.6061   31.5976 H   0  0  0  0  0  0
   41.2353   51.9896   34.8017 H   0  0  0  0  0  0
   41.0426   56.5164   42.0925 H   0  0  0  0  0  0
   40.0797   55.4169   41.1083 H   0  0  0  0  0  0
   39.7887   57.1716   41.0442 H   0  0  0  0  0  0
   34.1980   56.4454   38.3184 H   0  0  0  0  0  0
  1  2  1  0  0  0
  1 36  1  0  0  0
  1 37  1  0  0  0
  1 38  1  0  0  0
  2 10  1  0  0  0
  2  3  1  0  0  0
  3  8  2  0  0  0
  3  4  1  0  0  0
  4  5  2  0  0  0
  4 39  1  0  0  0
  5  6  1  0  0  0
  5 40  1  0  0  0
  6  7  2  0  0  0
  6 41  1  0  0  0
  7  8  1  0  0  0
  7 42  1  0  0  0
  8  9  1  0  0  0
  9 30  2  0  0  0
  9 10  1  0  0  0
 10 11  2  0  0  0
 11 19  1  0  0  0
 11 12  1  0  0  0
 12 13  1  0  0  0
 12 29  2  0  0  0
 13 18  2  0  0  0
 13 14  1  0  0  0
 14 15  2  0  0  0
 14 43  1  0  0  0
 15 16  1  0  0  0
 15 27  1  0  0  0
 16 17  2  0  0  0
 16 44  1  0  0  0
 17 18  1  0  0  0
 17 45  1  0  0  0
 18 19  1  0  0  0
 19 20  1  0  0  0
 20 21  1  0  0  0
 20 46  1  0  0  0
 20 47  1  0  0  0
 21 22  1  0  0  0
 21 26  1  0  0  0
 21 48  1  0  0  0
 22 23  1  0  0  0
 22 49  1  0  0  0
 22 50  1  0  0  0
 23 24  1  0  0  0
 23 25  1  0  0  0
 24 51  1  0  0  0
 24 52  1  0  0  0
 24 53  1  0  0  0
 25 54  1  0  0  0
 25 55  1  0  0  0
 25 56  1  0  0  0
 26 57  1  0  0  0
 27 28  1  0  0  0
 28 58  1  0  0  0
 28 59  1  0  0  0
 28 60  1  0  0  0
 29 34  1  0  0  0
 29 30  1  0  0  0
 30 31  1  0  0  0
 31 32  2  0  0  0
 31 33  1  0  0  0
 33 34  1  0  0  0
 33 61  1  0  0  0
 34 35  2  0  0  0
M  END
> <s_m_entry_id>
4319

> <s_m_entry_name>
ligand_docking-pose.89

> <s_m_Source_Path>
/home/csk/Desktop/cluster/DUD-E-result/kpcb

> <s_m_Source_File>
ligand_docking-pose.sdf

> <i_m_Source_File_Index>
89

> <i_lp_mmshare_version>
53161

> <r_lp_tautomer_probability>
1

> <s_lp_Force_Field>
OPLS_2005

> <r_lp_Energy>
110.667636

> <b_lp_Chiralities_Consistent>
1

> <s_lp_Variant>
259101-2

> <s_i_glide_gridfile>
glide-grid_2i0e

> <i_i_glide_lignum>
411

> <i_i_glide_rotatable_bonds>
6

> <r_i_docking_score>
-8.96813178967431

> <r_i_glide_ligand_efficiency>
-0.256232336847838

> <r_i_glide_ligand_efficiency_sa>
-0.838152963650547

> <r_i_glide_ligand_efficiency_ln>
-1.96870396479476

> <r_i_glide_gscore>
-8.96813178967431

> <r_i_glide_lipo>
-2.53974856839996

> <r_i_glide_hbond>
-0.864

> <r_i_glide_metal>
0

> <r_i_glide_rewards>
-1.94624403262277

> <r_i_glide_evdw>
-50.2921333312988

> <r_i_glide_ecoul>
-8.62784576416016

> <r_i_glide_erotb>
0.191662370443735

> <r_i_glide_esite>
-0.00101802790635954

> <r_i_glide_emodel>
-88.9193172641087

> <r_i_glide_energy>
-58.919979095459

> <r_i_glide_einternal>
5.28165864944458

> <i_i_glide_confnum>
7

> <i_i_glide_posenum>
154

> <r_i_glide_eff_state_penalty>
0

> <i_f3d_flags>
0

> <s_user_duplicate_titles>
259101

> <s_m_subgroup_title>
dock_pv

> <s_m_subgroupid>
dock_pv1

> <b_m_subgroup_collapsed>
0

$$$$
243571
                    3D
 Schrodinger Suite 2021-1.
 47 54  0  0  1  0            999 V2000
   34.7058   55.7599   31.3254 C   0  0  0  0  0  0
   35.7596   55.5755   30.4383 C   0  0  0  0  0  0
   37.0856   55.5722   30.8676 C   0  0  0  0  0  0
   37.3286   55.7806   32.2313 C   0  0  0  0  0  0
   36.2611   55.9608   33.1634 C   0  0  0  0  0  0
   34.9362   55.9499   32.6857 C   0  0  0  0  0  0
   36.8349   56.1075   34.4513 C   0  0  0  0  0  0
   36.3513   56.2848   35.7676 C   0  0  0  0  0  0
   37.2118   56.4127   36.8443 C   0  0  0  0  0  0
   38.6108   56.3597   36.6610 C   0  0  0  0  0  0
   39.7480   56.4460   37.4984 C   0  0  0  0  0  0
   39.9155   56.6214   38.8858 C   0  0  0  0  0  0
   41.2036   56.6469   39.4129 C   0  0  0  0  0  0
   42.3192   56.5109   38.5941 C   0  0  0  0  0  0
   42.2009   56.3392   37.2152 C   0  0  0  0  0  0
   40.9073   56.3039   36.6754 C   0  0  0  0  0  0
   40.4873   56.1285   35.3605 N   0  0  0  0  0  0
   39.1028   56.1660   35.3518 C   0  0  0  0  0  0
   38.2308   56.0414   34.2675 C   0  0  0  0  0  0
   38.5300   55.8482   32.9275 N   0  0  0  0  0  0
   39.8530   55.6688   32.3143 C   0  0  2  0  0  0
   40.2070   54.1574   32.2518 C   0  0  0  0  0  0
   40.5239   53.6786   33.5558 O   0  0  0  0  0  0
   41.6610   54.3468   34.0970 C   0  0  0  0  0  0
   41.3850   55.8726   34.2257 C   0  0  1  0  0  0
   40.9382   56.4339   32.9432 N   0  0  2  0  0  0
   36.3715   56.5973   38.0639 C   0  0  0  0  0  0
   36.7020   56.7719   39.2341 O   0  0  0  0  0  0
   35.1002   56.5406   37.6307 N   0  0  0  0  0  0
   34.9688   56.3716   36.3037 C   0  0  0  0  0  0
   33.9012   56.3117   35.7028 O   0  0  0  0  0  0
   39.7887   56.0383   31.2907 H   0  0  0  0  0  0
   42.3302   56.3665   34.4472 H   0  0  0  0  0  0
   33.6934   55.7458   30.9508 H   0  0  0  0  0  0
   35.5453   55.4069   29.3915 H   0  0  0  0  0  0
   37.8854   55.4020   30.1621 H   0  0  0  0  0  0
   34.0945   56.0802   33.3451 H   0  0  0  0  0  0
   39.0746   56.7220   39.5525 H   0  0  0  0  0  0
   41.3401   56.7721   40.4769 H   0  0  0  0  0  0
   43.3048   56.5333   39.0363 H   0  0  0  0  0  0
   43.0822   56.2304   36.6016 H   0  0  0  0  0  0
   39.3730   53.5770   31.8556 H   0  0  0  0  0  0
   41.0431   53.9824   31.5711 H   0  0  0  0  0  0
   41.8939   53.9105   35.0686 H   0  0  0  0  0  0
   42.5366   54.1628   33.4697 H   0  0  0  0  0  0
   40.6680   57.4012   33.0555 H   0  0  0  0  0  0
   34.2949   56.6515   38.2361 H   0  0  0  0  0  0
  1  6  1  0  0  0
  1  2  2  0  0  0
  1 34  1  0  0  0
  2  3  1  0  0  0
  2 35  1  0  0  0
  3  4  2  0  0  0
  3 36  1  0  0  0
  4 20  1  0  0  0
  4  5  1  0  0  0
  5  6  2  0  0  0
  5  7  1  0  0  0
  6 37  1  0  0  0
  7 19  2  0  0  0
  7  8  1  0  0  0
  8 30  1  0  0  0
  8  9  2  0  0  0
  9 10  1  0  0  0
  9 27  1  0  0  0
 10 18  2  0  0  0
 10 11  1  0  0  0
 11 16  2  0  0  0
 11 12  1  0  0  0
 12 13  2  0  0  0
 12 38  1  0  0  0
 13 14  1  0  0  0
 13 39  1  0  0  0
 14 15  2  0  0  0
 14 40  1  0  0  0
 15 16  1  0  0  0
 15 41  1  0  0  0
 16 17  1  0  0  0
 17 25  1  0  0  0
 17 18  1  0  0  0
 18 19  1  0  0  0
 19 20  1  0  0  0
 20 21  1  0  0  0
 21 32  1  0  0  0
 21 26  1  0  0  0
 21 22  1  0  0  0
 22 23  1  0  0  0
 22 42  1  0  0  0
 22 43  1  0  0  0
 23 24  1  0  0  0
 24 25  1  0  0  0
 24 44  1  0  0  0
 24 45  1  0  0  0
 25 33  1  0  0  0
 25 26  1  0  0  0
 26 46  1  0  0  0
 27 28  2  0  0  0
 27 29  1  0  0  0
 29 30  1  0  0  0
 29 47  1  0  0  0
 30 31  2  0  0  0
M  END
> <s_m_entry_id>
4320

> <s_m_entry_name>
ligand_docking-pose.90

> <s_m_Source_Path>
/home/csk/Desktop/cluster/DUD-E-result/kpcb

> <s_m_Source_File>
ligand_docking-pose.sdf

> <i_m_Source_File_Index>
90

> <i_lp_mmshare_version>
53161

> <r_lp_tautomer_probability>
1

> <s_lp_Force_Field>
OPLS_2005

> <r_lp_Energy>
114.413335

> <b_lp_Chiralities_Consistent>
1

> <s_lp_Variant>
243571-1

> <s_i_glide_gridfile>
glide-grid_2i0e

> <i_i_glide_lignum>
11

> <i_i_glide_rotatable_bonds>
0

> <r_i_docking_score>
-8.96810371084931

> <r_i_glide_ligand_efficiency>
-0.289293668091913

> <r_i_glide_ligand_efficiency_sa>
-0.908781530763025

> <r_i_glide_ligand_efficiency_ln>
-2.0225822261683

> <r_i_glide_gscore>
-8.96810371084931

> <r_i_glide_lipo>
-2.40721519219024

> <r_i_glide_hbond>
-0.608

> <r_i_glide_metal>
0

> <r_i_glide_rewards>
-2.77643276850181

> <r_i_glide_evdw>
-47.5108642578125

> <r_i_glide_ecoul>
-5.33240222930908

> <r_i_glide_erotb>
0

> <r_i_glide_esite>
-0.00105220287026496

> <r_i_glide_emodel>
-82.1111777591023

> <r_i_glide_energy>
-52.8432664871216

> <r_i_glide_einternal>
0

> <i_i_glide_confnum>
1

> <i_i_glide_posenum>
81

> <r_i_glide_eff_state_penalty>
0

> <i_f3d_flags>
0

> <s_user_duplicate_titles>
243571

> <s_m_subgroup_title>
dock_pv

> <s_m_subgroupid>
dock_pv1

> <b_m_subgroup_collapsed>
0

$$$$
269832
                    3D
 Schrodinger Suite 2021-1.
 57 62  0  0  1  0            999 V2000
   42.5501   54.4648   37.6567 C   0  0  0  0  0  0
   42.9636   55.7885   37.5416 C   0  0  0  0  0  0
   42.2800   56.6911   36.7290 C   0  0  0  0  0  0
   41.1510   56.2297   36.0357 C   0  0  0  0  0  0
   40.7101   54.8767   36.1461 C   0  0  0  0  0  0
   41.4354   53.9985   36.9654 C   0  0  0  0  0  0
   39.5453   54.6332   35.3725 C   0  0  0  0  0  0
   39.1102   55.7453   34.6826 C   0  0  0  0  0  0
   40.1212   57.1532   34.9526 S   0  0  0  0  0  0
   37.9571   55.8259   33.7942 C   0  0  0  0  0  0
   36.6041   56.0330   34.0880 C   0  0  0  0  0  0
   35.9158   56.0075   32.8092 C   0  0  0  0  0  0
   34.5816   56.1692   32.3816 C   0  0  0  0  0  0
   34.2547   56.0453   31.0344 C   0  0  0  0  0  0
   35.2263   55.7433   30.0930 C   0  0  0  0  0  0
   36.5589   55.5719   30.4544 C   0  0  0  0  0  0
   36.8949   55.7279   31.8059 C   0  0  0  0  0  0
   38.1241   55.6466   32.4333 N   0  0  0  0  0  0
   39.3965   55.3659   31.7592 C   0  0  0  0  0  0
   39.5730   53.8540   31.5121 C   0  0  0  0  0  0
   40.9809   53.4171   31.0499 C   0  0  0  0  0  0
   41.9008   53.1720   32.1614 N   0  0  0  0  0  0
   42.6653   54.2274   32.7319 C   0  0  0  0  0  0
   42.7089   55.4667   32.4389 N   0  0  0  0  0  0
   43.7331   56.0878   33.2387 C   0  0  0  0  0  0
   44.3701   54.9820   34.0625 C   0  0  0  0  0  0
   43.5470   53.8412   33.7651 N   0  0  0  0  0  0
   36.0649   56.2056   35.4583 C   0  0  0  0  0  0
   36.7579   56.5937   36.5387 C   0  0  0  0  0  0
   35.8918   56.5562   37.6668 C   0  0  0  0  0  0
   36.1618   56.7990   38.8370 O   0  0  0  0  0  0
   34.7008   56.2024   37.1880 N   0  0  0  0  0  0
   34.7116   55.9476   35.8779 C   0  0  0  0  0  0
   33.7407   55.5720   35.2327 O   0  0  0  0  0  0
   43.1015   53.7813   38.2872 H   0  0  0  0  0  0
   43.8383   56.1146   38.0849 H   0  0  0  0  0  0
   42.6187   57.7139   36.6315 H   0  0  0  0  0  0
   41.1349   52.9661   37.0617 H   0  0  0  0  0  0
   39.0588   53.6706   35.3261 H   0  0  0  0  0  0
   33.7894   56.3720   33.0739 H   0  0  0  0  0  0
   33.2284   56.1614   30.7133 H   0  0  0  0  0  0
   34.9329   55.6068   29.0607 H   0  0  0  0  0  0
   37.2901   55.2629   29.7217 H   0  0  0  0  0  0
   40.2038   55.7583   32.3673 H   0  0  0  0  0  0
   39.4439   55.9387   30.8363 H   0  0  0  0  0  0
   38.8690   53.5663   30.7333 H   0  0  0  0  0  0
   39.2879   53.2810   32.3967 H   0  0  0  0  0  0
   41.4040   54.1150   30.3256 H   0  0  0  0  0  0
   40.8734   52.4682   30.5215 H   0  0  0  0  0  0
   42.4135   52.3009   32.0632 H   0  0  0  0  0  0
   43.2730   56.8551   33.8645 H   0  0  0  0  0  0
   44.4541   56.5586   32.5693 H   0  0  0  0  0  0
   45.3965   54.7841   33.7495 H   0  0  0  0  0  0
   44.3466   55.1864   35.1333 H   0  0  0  0  0  0
   43.9721   52.9317   33.8989 H   0  0  0  0  0  0
   37.7981   56.8643   36.6003 H   0  0  0  0  0  0
   33.8734   56.1304   37.7624 H   0  0  0  0  0  0
  1  6  1  0  0  0
  1  2  2  0  0  0
  1 35  1  0  0  0
  2  3  1  0  0  0
  2 36  1  0  0  0
  3  4  2  0  0  0
  3 37  1  0  0  0
  4  9  1  0  0  0
  4  5  1  0  0  0
  5  6  2  0  0  0
  5  7  1  0  0  0
  6 38  1  0  0  0
  7  8  2  0  0  0
  7 39  1  0  0  0
  8  9  1  0  0  0
  8 10  1  0  0  0
 10 18  1  0  0  0
 10 11  2  0  0  0
 11 12  1  0  0  0
 11 28  1  0  0  0
 12 17  2  0  0  0
 12 13  1  0  0  0
 13 14  2  0  0  0
 13 40  1  0  0  0
 14 15  1  0  0  0
 14 41  1  0  0  0
 15 16  2  0  0  0
 15 42  1  0  0  0
 16 17  1  0  0  0
 16 43  1  0  0  0
 17 18  1  0  0  0
 18 19  1  0  0  0
 19 20  1  0  0  0
 19 44  1  0  0  0
 19 45  1  0  0  0
 20 21  1  0  0  0
 20 46  1  0  0  0
 20 47  1  0  0  0
 21 22  1  0  0  0
 21 48  1  0  0  0
 21 49  1  0  0  0
 22 23  1  0  0  0
 22 50  1  0  0  0
 23 27  1  0  0  0
 23 24  2  0  0  0
 24 25  1  0  0  0
 25 26  1  0  0  0
 25 51  1  0  0  0
 25 52  1  0  0  0
 26 27  1  0  0  0
 26 53  1  0  0  0
 26 54  1  0  0  0
 27 55  1  0  0  0
 28 33  1  0  0  0
 28 29  2  0  0  0
 29 30  1  0  0  0
 29 56  1  0  0  0
 30 31  2  0  0  0
 30 32  1  0  0  0
 32 33  1  0  0  0
 32 57  1  0  0  0
 33 34  2  0  0  0
M  END
> <s_m_entry_id>
4321

> <s_m_entry_name>
ligand_docking-pose.91

> <s_m_Source_Path>
/home/csk/Desktop/cluster/DUD-E-result/kpcb

> <s_m_Source_File>
ligand_docking-pose.sdf

> <i_m_Source_File_Index>
91

> <i_lp_mmshare_version>
53161

> <r_lp_tautomer_probability>
1

> <s_lp_Force_Field>
OPLS_2005

> <r_lp_Energy>
36.249028

> <b_lp_Chiralities_Consistent>
1

> <s_lp_Variant>
269832-1

> <s_i_glide_gridfile>
glide-grid_2i0e

> <i_i_glide_lignum>
64

> <i_i_glide_rotatable_bonds>
7

> <r_i_docking_score>
-8.93145593849513

> <r_i_glide_ligand_efficiency>
-0.262689880543974

> <r_i_glide_ligand_efficiency_sa>
-0.851013236086105

> <r_i_glide_ligand_efficiency_ln>
-1.97320913566701

> <r_i_glide_gscore>
-8.93145593849513

> <r_i_glide_lipo>
-2.39800832557645

> <r_i_glide_hbond>
-0.626436071659377

> <r_i_glide_metal>
0

> <r_i_glide_rewards>
-2.18462068997354

> <r_i_glide_evdw>
-51.2615966796875

> <r_i_glide_ecoul>
-9.3516321182251

> <r_i_glide_erotb>
0.384756782552956

> <r_i_glide_esite>
-0.141322982120582

> <r_i_glide_emodel>
-93.2869073329557

> <r_i_glide_energy>
-60.6132287979126

> <r_i_glide_einternal>
4.15066528320312

> <i_i_glide_confnum>
13

> <i_i_glide_posenum>
339

> <r_i_glide_eff_state_penalty>
0

> <i_f3d_flags>
0

> <s_user_duplicate_titles>
269832

> <s_m_subgroup_title>
dock_pv

> <s_m_subgroupid>
dock_pv1

> <b_m_subgroup_collapsed>
0

$$$$
2864
                    3D
 Schrodinger Suite 2021-1.
 36 41  0  0  1  0            999 V2000
   41.1503   56.7767   39.5099 C   0  0  0  0  0  0
   42.2850   56.6719   38.7122 C   0  0  0  0  0  0
   42.2007   56.4923   37.3326 C   0  0  0  0  0  0
   40.9204   56.4231   36.7738 C   0  0  0  0  0  0
   39.7387   56.5336   37.5724 C   0  0  0  0  0  0
   39.8738   56.7134   38.9607 C   0  0  0  0  0  0
   38.6245   56.4205   36.7102 C   0  0  0  0  0  0
   37.2212   56.4395   36.8638 C   0  0  0  0  0  0
   36.3821   56.2919   35.7761 C   0  0  0  0  0  0
   36.9026   56.1200   34.4739 C   0  0  0  0  0  0
   36.3581   55.9494   33.1813 C   0  0  0  0  0  0
   35.0441   55.8867   32.6854 C   0  0  0  0  0  0
   34.8468   55.7035   31.3197 C   0  0  0  0  0  0
   35.9223   55.5757   30.4478 C   0  0  0  0  0  0
   37.2417   55.6237   30.8962 C   0  0  0  0  0  0
   37.4473   55.8171   32.2653 C   0  0  0  0  0  0
   38.6220   55.9111   32.9873 N   0  0  0  0  0  0
   38.3047   56.0968   34.3146 C   0  0  0  0  0  0
   39.1509   56.2449   35.4127 C   0  0  0  0  0  0
   40.5273   56.2448   35.4610 N   0  0  0  0  0  0
   34.9839   56.3613   36.2853 C   0  0  0  0  0  0
   33.9269   56.2902   35.6668 O   0  0  0  0  0  0
   35.0963   56.5337   37.6142 N   0  0  0  0  0  0
   36.3589   56.6074   38.0659 C   0  0  0  0  0  0
   36.6765   56.7891   39.2361 O   0  0  0  0  0  0
   39.5521   55.8444   32.5943 H   0  0  0  0  0  0
   41.1558   56.1228   34.6777 H   0  0  0  0  0  0
   41.2608   56.9168   40.5733 H   0  0  0  0  0  0
   43.2583   56.7279   39.1772 H   0  0  0  0  0  0
   43.0937   56.4048   36.7300 H   0  0  0  0  0  0
   39.0192   56.7961   39.6117 H   0  0  0  0  0  0
   34.1882   55.9729   33.3332 H   0  0  0  0  0  0
   33.8429   55.6533   30.9280 H   0  0  0  0  0  0
   35.7298   55.4232   29.3950 H   0  0  0  0  0  0
   38.0678   55.5088   30.2085 H   0  0  0  0  0  0
   34.2803   56.6459   38.2067 H   0  0  0  0  0  0
  1  6  1  0  0  0
  1  2  2  0  0  0
  1 28  1  0  0  0
  2  3  1  0  0  0
  2 29  1  0  0  0
  3  4  2  0  0  0
  3 30  1  0  0  0
  4 20  1  0  0  0
  4  5  1  0  0  0
  5  6  2  0  0  0
  5  7  1  0  0  0
  6 31  1  0  0  0
  7 19  2  0  0  0
  7  8  1  0  0  0
  8 24  1  0  0  0
  8  9  2  0  0  0
  9 10  1  0  0  0
  9 21  1  0  0  0
 10 18  2  0  0  0
 10 11  1  0  0  0
 11 16  2  0  0  0
 11 12  1  0  0  0
 12 13  2  0  0  0
 12 32  1  0  0  0
 13 14  1  0  0  0
 13 33  1  0  0  0
 14 15  2  0  0  0
 14 34  1  0  0  0
 15 16  1  0  0  0
 15 35  1  0  0  0
 16 17  1  0  0  0
 17 26  1  0  0  0
 17 18  1  0  0  0
 18 19  1  0  0  0
 19 20  1  0  0  0
 20 27  1  0  0  0
 21 22  2  0  0  0
 21 23  1  0  0  0
 23 24  1  0  0  0
 23 36  1  0  0  0
 24 25  2  0  0  0
M  END
> <s_m_entry_id>
4322

> <s_m_entry_name>
ligand_docking-pose.92

> <s_m_Source_Path>
/home/csk/Desktop/cluster/DUD-E-result/kpcb

> <s_m_Source_File>
ligand_docking-pose.sdf

> <i_m_Source_File_Index>
92

> <i_lp_mmshare_version>
53161

> <r_lp_tautomer_probability>
1

> <s_lp_Force_Field>
OPLS_2005

> <r_lp_Energy>
74.184872

> <b_lp_Chiralities_Consistent>
1

> <s_lp_Variant>
2864-1

> <s_i_glide_gridfile>
glide-grid_2i0e

> <i_i_glide_lignum>
35

> <i_i_glide_rotatable_bonds>
0

> <r_i_docking_score>
-8.92650593560396

> <r_i_glide_ligand_efficiency>
-0.357060237424158

> <r_i_glide_ligand_efficiency_sa>
-1.04405046671851

> <r_i_glide_ligand_efficiency_ln>
-2.11584941253464

> <r_i_glide_gscore>
-8.92650593560396

> <r_i_glide_lipo>
-2.41081197898247

> <r_i_glide_hbond>
-0.608

> <r_i_glide_metal>
0

> <r_i_glide_rewards>
-3.08024389577707

> <r_i_glide_evdw>
-39.8778076171875

> <r_i_glide_ecoul>
-5.55706453323364

> <r_i_glide_erotb>
0

> <r_i_glide_esite>
0

> <r_i_glide_emodel>
-70.4671690297702

> <r_i_glide_energy>
-45.4348721504211

> <r_i_glide_einternal>
0

> <i_i_glide_confnum>
1

> <i_i_glide_posenum>
187

> <r_i_glide_eff_state_penalty>
0

> <i_f3d_flags>
0

> <s_user_duplicate_titles>
2864

> <s_m_subgroup_title>
dock_pv

> <s_m_subgroupid>
dock_pv1

> <b_m_subgroup_collapsed>
0

$$$$
270375
                    3D
 Schrodinger Suite 2021-1.
 55 59  0  0  1  0            999 V2000
   40.7348   52.3720   36.0373 C   0  0  0  0  0  0
   39.5032   52.3423   35.3931 C   0  0  0  0  0  0
   38.9571   53.5086   34.8738 C   0  0  0  0  0  0
   39.6607   54.7425   34.9650 C   0  0  0  0  0  0
   40.9318   54.7605   35.6230 C   0  0  0  0  0  0
   41.4501   53.5580   36.1603 C   0  0  0  0  0  0
   41.6519   55.9752   35.7115 C   0  0  0  0  0  0
   41.1375   57.1403   35.1534 C   0  0  0  0  0  0
   39.9071   57.1290   34.5058 C   0  0  0  0  0  0
   39.1583   55.9524   34.4050 C   0  0  0  0  0  0
   37.8616   55.9817   33.6632 C   0  0  0  0  0  0
   36.5523   56.0915   34.1503 C   0  0  0  0  0  0
   35.6922   56.0003   32.9787 C   0  0  0  0  0  0
   34.3008   55.9840   32.7399 C   0  0  0  0  0  0
   33.8030   55.9795   31.4411 C   0  0  0  0  0  0
   34.6619   55.9724   30.3544 C   0  0  0  0  0  0
   36.0402   55.9366   30.5174 C   0  0  0  0  0  0
   36.5434   55.9362   31.8299 C   0  0  0  0  0  0
   37.8480   55.8699   32.2854 N   0  0  0  0  0  0
   39.0315   55.8025   31.4183 C   0  0  0  0  0  0
   39.0628   54.5540   30.5074 C   0  0  0  0  0  0
   39.5470   53.2528   31.1654 C   0  0  0  0  0  0
   41.3501   53.1404   31.3966 S   0  0  0  0  0  0
   41.9927   52.7713   29.7388 C   0  0  0  0  0  0
   43.2235   52.5591   29.6370 N   0  0  0  0  0  0
   41.1014   52.7705   28.7011 N   0  0  0  0  0  0
   36.2136   56.2696   35.5899 C   0  0  0  0  0  0
   37.0255   56.7476   36.5470 C   0  0  0  0  0  0
   36.3140   56.7714   37.7843 C   0  0  0  0  0  0
   36.7014   57.1427   38.8891 O   0  0  0  0  0  0
   35.0994   56.3136   37.4942 N   0  0  0  0  0  0
   34.9421   55.9956   36.2076 C   0  0  0  0  0  0
   33.9011   55.5720   35.7241 O   0  0  0  0  0  0
   41.1537   51.4582   36.4354 H   0  0  0  0  0  0
   38.9758   51.4046   35.2955 H   0  0  0  0  0  0
   37.9967   53.4694   34.3801 H   0  0  0  0  0  0
   42.4146   53.5570   36.6483 H   0  0  0  0  0  0
   42.6121   55.9887   36.2056 H   0  0  0  0  0  0
   41.7062   58.0566   35.2174 H   0  0  0  0  0  0
   39.5343   58.0415   34.0671 H   0  0  0  0  0  0
   33.5816   55.9835   33.5340 H   0  0  0  0  0  0
   32.7348   55.9819   31.2706 H   0  0  0  0  0  0
   34.2528   55.9585   29.3538 H   0  0  0  0  0  0
   36.6796   55.8874   29.6483 H   0  0  0  0  0  0
   39.9525   55.8482   31.9983 H   0  0  0  0  0  0
   39.0159   56.7170   30.8372 H   0  0  0  0  0  0
   39.7061   54.7679   29.6644 H   0  0  0  0  0  0
   38.1037   54.3745   30.0391 H   0  0  0  0  0  0
   39.2340   52.3897   30.5766 H   0  0  0  0  0  0
   39.0608   53.1208   32.1312 H   0  0  0  0  0  0
   43.6608   52.5312   30.5548 H   0  0  0  0  0  0
   41.4371   52.7018   27.7552 H   0  0  0  0  0  0
   40.0940   52.7726   28.8405 H   0  0  0  0  0  0
   38.0464   57.0745   36.4505 H   0  0  0  0  0  0
   34.3532   56.2453   38.1694 H   0  0  0  0  0  0
  1  6  1  0  0  0
  1  2  2  0  0  0
  1 34  1  0  0  0
  2  3  1  0  0  0
  2 35  1  0  0  0
  3  4  2  0  0  0
  3 36  1  0  0  0
  4 10  1  0  0  0
  4  5  1  0  0  0
  5  6  2  0  0  0
  5  7  1  0  0  0
  6 37  1  0  0  0
  7  8  2  0  0  0
  7 38  1  0  0  0
  8  9  1  0  0  0
  8 39  1  0  0  0
  9 10  2  0  0  0
  9 40  1  0  0  0
 10 11  1  0  0  0
 11 19  1  0  0  0
 11 12  2  0  0  0
 12 13  1  0  0  0
 12 27  1  0  0  0
 13 18  2  0  0  0
 13 14  1  0  0  0
 14 15  2  0  0  0
 14 41  1  0  0  0
 15 16  1  0  0  0
 15 42  1  0  0  0
 16 17  2  0  0  0
 16 43  1  0  0  0
 17 18  1  0  0  0
 17 44  1  0  0  0
 18 19  1  0  0  0
 19 20  1  0  0  0
 20 21  1  0  0  0
 20 45  1  0  0  0
 20 46  1  0  0  0
 21 22  1  0  0  0
 21 47  1  0  0  0
 21 48  1  0  0  0
 22 23  1  0  0  0
 22 49  1  0  0  0
 22 50  1  0  0  0
 23 24  1  0  0  0
 24 25  2  3  0  0
 24 26  1  0  0  0
 25 51  1  0  0  0
 26 52  1  0  0  0
 26 53  1  0  0  0
 27 32  1  0  0  0
 27 28  2  0  0  0
 28 29  1  0  0  0
 28 54  1  0  0  0
 29 30  2  0  0  0
 29 31  1  0  0  0
 31 32  1  0  0  0
 31 55  1  0  0  0
 32 33  2  0  0  0
M  END
> <s_m_entry_id>
4323

> <s_m_entry_name>
ligand_docking-pose.93

> <s_m_Source_Path>
/home/csk/Desktop/cluster/DUD-E-result/kpcb

> <s_m_Source_File>
ligand_docking-pose.sdf

> <i_m_Source_File_Index>
93

> <i_lp_mmshare_version>
53161

> <r_lp_tautomer_probability>
1

> <s_lp_Force_Field>
OPLS_2005

> <r_lp_Energy>
30.934483

> <b_lp_Chiralities_Consistent>
1

> <s_lp_Variant>
270375-2

> <s_i_glide_gridfile>
glide-grid_2i0e

> <i_i_glide_lignum>
48

> <i_i_glide_rotatable_bonds>
7

> <r_i_docking_score>
-8.90953522256561

> <r_i_glide_ligand_efficiency>
-0.269985915835321

> <r_i_glide_ligand_efficiency_sa>
-0.865989092647845

> <r_i_glide_ligand_efficiency_ln>
-1.98143450239409

> <r_i_glide_gscore>
-8.90953522256561

> <r_i_glide_lipo>
-2.50599513814363

> <r_i_glide_hbond>
-0.607242150043014

> <r_i_glide_metal>
0

> <r_i_glide_rewards>
-2.2912025073358

> <r_i_glide_evdw>
-52.526252746582

> <r_i_glide_ecoul>
-8.03793907165527

> <r_i_glide_erotb>
0.476265792516867

> <r_i_glide_esite>
-0.149357721482637

> <r_i_glide_emodel>
-93.5407317787202

> <r_i_glide_energy>
-60.5641918182373

> <r_i_glide_einternal>
3.92290830612183

> <i_i_glide_confnum>
19

> <i_i_glide_posenum>
348

> <r_i_glide_eff_state_penalty>
0

> <i_f3d_flags>
0

> <s_user_duplicate_titles>
270375

> <s_m_subgroup_title>
dock_pv

> <s_m_subgroupid>
dock_pv1

> <b_m_subgroup_collapsed>
0

$$$$
160615
                    3D
 Schrodinger Suite 2021-1.
 56 61  0  0  1  0            999 V2000
   38.8980   53.5129   32.3244 C   0  0  0  0  0  0
   38.0409   54.4930   32.9757 N   0  0  0  0  0  0
   37.9221   54.6455   34.3372 C   0  0  0  0  0  0
   37.0163   55.6440   34.6372 C   0  0  0  0  0  0
   36.4851   56.0947   33.3763 C   0  0  0  0  0  0
   37.1557   55.3579   32.3490 C   0  0  0  0  0  0
   36.8838   55.5718   30.9902 C   0  0  0  0  0  0
   35.9040   56.5094   30.6726 C   0  0  0  0  0  0
   35.2397   57.2391   31.6520 C   0  0  0  0  0  0
   35.5278   57.0549   33.0017 C   0  0  0  0  0  0
   36.6892   56.1216   35.9794 C   0  0  0  0  0  0
   37.5113   56.4382   36.9982 C   0  0  0  0  0  0
   36.6756   56.8161   38.1078 C   0  0  0  0  0  0
   36.9864   57.1726   39.2374 O   0  0  0  0  0  0
   35.4184   56.7252   37.6645 N   0  0  0  0  0  0
   35.3290   56.2995   36.4051 C   0  0  0  0  0  0
   34.2847   56.1145   35.7837 O   0  0  0  0  0  0
   38.9961   56.4489   37.0297 C   0  0  0  0  0  0
   39.8486   56.8506   35.9368 C   0  0  0  0  0  0
   39.6269   57.4243   34.6716 C   0  0  0  0  0  0
   40.6958   57.6177   33.8010 C   0  0  0  0  0  0
   41.9867   57.2662   34.1728 C   0  0  0  0  0  0
   42.2680   56.7357   35.4298 C   0  0  0  0  0  0
   41.1885   56.5456   36.3063 C   0  0  0  0  0  0
   41.1590   56.0645   37.6011 N   0  0  0  0  0  0
   39.8470   56.0516   38.0721 C   0  0  0  0  0  0
   39.5708   55.6663   39.5270 C   0  0  0  0  0  0
   40.7041   54.7753   40.0642 C   0  0  0  0  0  0
   42.0754   55.4270   39.8335 C   0  0  2  0  0  0
   42.3381   55.5284   38.3087 C   0  0  0  0  0  0
   43.1722   54.6141   40.5624 C   0  0  0  0  0  0
   44.4965   55.1741   40.3609 N   0  0  0  0  0  0
   39.6963   53.1997   32.9988 H   0  0  0  0  0  0
   38.3084   52.6424   32.0380 H   0  0  0  0  0  0
   39.3489   53.9514   31.4336 H   0  0  0  0  0  0
   38.5295   54.0428   34.9984 H   0  0  0  0  0  0
   37.3955   55.0217   30.2124 H   0  0  0  0  0  0
   35.6574   56.6747   29.6337 H   0  0  0  0  0  0
   34.4904   57.9607   31.3587 H   0  0  0  0  0  0
   35.0081   57.6348   33.7495 H   0  0  0  0  0  0
   34.6050   56.9373   38.2261 H   0  0  0  0  0  0
   38.6316   57.6920   34.3609 H   0  0  0  0  0  0
   40.5199   58.0355   32.8202 H   0  0  0  0  0  0
   42.7966   57.4230   33.4753 H   0  0  0  0  0  0
   43.2830   56.4894   35.7057 H   0  0  0  0  0  0
   39.5087   56.5717   40.1318 H   0  0  0  0  0  0
   38.6090   55.1719   39.6409 H   0  0  0  0  0  0
   40.5427   54.6136   41.1315 H   0  0  0  0  0  0
   40.7005   53.7732   39.6324 H   0  0  0  0  0  0
   42.0592   56.4362   40.2506 H   0  0  0  0  0  0
   42.5506   54.5435   37.8878 H   0  0  0  0  0  0
   43.2052   56.1564   38.1001 H   0  0  0  0  0  0
   42.9683   54.5957   41.6340 H   0  0  0  0  0  0
   43.1742   53.5770   40.2187 H   0  0  0  0  0  0
   45.1743   54.6416   40.8877 H   0  0  0  0  0  0
   44.7567   55.0531   39.3910 H   0  0  0  0  0  0
  1  2  1  0  0  0
  1 33  1  0  0  0
  1 34  1  0  0  0
  1 35  1  0  0  0
  2  6  1  0  0  0
  2  3  1  0  0  0
  3  4  2  0  0  0
  3 36  1  0  0  0
  4  5  1  0  0  0
  4 11  1  0  0  0
  5 10  2  0  0  0
  5  6  1  0  0  0
  6  7  2  0  0  0
  7  8  1  0  0  0
  7 37  1  0  0  0
  8  9  2  0  0  0
  8 38  1  0  0  0
  9 10  1  0  0  0
  9 39  1  0  0  0
 10 40  1  0  0  0
 11 16  1  0  0  0
 11 12  2  0  0  0
 12 13  1  0  0  0
 12 18  1  0  0  0
 13 14  2  0  0  0
 13 15  1  0  0  0
 15 16  1  0  0  0
 15 41  1  0  0  0
 16 17  2  0  0  0
 18 26  2  0  0  0
 18 19  1  0  0  0
 19 24  2  0  0  0
 19 20  1  0  0  0
 20 21  2  0  0  0
 20 42  1  0  0  0
 21 22  1  0  0  0
 21 43  1  0  0  0
 22 23  2  0  0  0
 22 44  1  0  0  0
 23 24  1  0  0  0
 23 45  1  0  0  0
 24 25  1  0  0  0
 25 30  1  0  0  0
 25 26  1  0  0  0
 26 27  1  0  0  0
 27 28  1  0  0  0
 27 46  1  0  0  0
 27 47  1  0  0  0
 28 29  1  0  0  0
 28 48  1  0  0  0
 28 49  1  0  0  0
 29 30  1  0  0  0
 29 31  1  0  0  0
 29 50  1  0  0  0
 30 51  1  0  0  0
 30 52  1  0  0  0
 31 32  1  0  0  0
 31 53  1  0  0  0
 31 54  1  0  0  0
 32 55  1  0  0  0
 32 56  1  0  0  0
M  END
> <s_m_entry_id>
4326

> <s_m_entry_name>
ligand_docking-pose.96

> <s_m_Source_Path>
/home/csk/Desktop/cluster/DUD-E-result/kpcb

> <s_m_Source_File>
ligand_docking-pose.sdf

> <i_m_Source_File_Index>
96

> <i_lp_mmshare_version>
53161

> <r_lp_tautomer_probability>
1

> <s_lp_Force_Field>
OPLS_2005

> <r_lp_Energy>
31.68752

> <b_lp_Chiralities_Consistent>
1

> <s_lp_Variant>
160615-2

> <s_i_glide_gridfile>
glide-grid_2i0e

> <i_i_glide_lignum>
430

> <i_i_glide_rotatable_bonds>
3

> <r_i_docking_score>
-8.87673045000153

> <r_i_glide_ligand_efficiency>
-0.277397826562548

> <r_i_glide_ligand_efficiency_sa>
-0.880683202380756

> <r_i_glide_ligand_efficiency_ln>
-1.98774191828863

> <r_i_glide_gscore>
-8.87673045000153

> <r_i_glide_lipo>
-2.94391387713503

> <r_i_glide_hbond>
-0.56301015826018

> <r_i_glide_metal>
0

> <r_i_glide_rewards>
-2.43705004957496

> <r_i_glide_evdw>
-49.8822898864746

> <r_i_glide_ecoul>
-3.95132565498352

> <r_i_glide_erotb>
0.154056977539903

> <r_i_glide_esite>
0

> <r_i_glide_emodel>
-76.7932037481069

> <r_i_glide_energy>
-53.8336155414581

> <r_i_glide_einternal>
4.60211133956909

> <i_i_glide_confnum>
15

> <i_i_glide_posenum>
348

> <r_i_glide_eff_state_penalty>
0

> <i_f3d_flags>
0

> <s_user_duplicate_titles>
160615

> <s_m_subgroup_title>
dock_pv

> <s_m_subgroupid>
dock_pv1

> <b_m_subgroup_collapsed>
0

$$$$
129621
                    3D
 Schrodinger Suite 2021-1.
 62 69  0  0  1  0            999 V2000
   41.9023   57.6884   34.5381 C   0  0  0  0  0  0
   41.1104   56.3959   34.3505 C   0  0  2  0  0  0
   42.0813   55.1774   33.9655 C   0  0  2  0  0  0
   42.0510   54.9589   32.3581 C   0  0  2  0  0  0
   40.5964   54.9074   31.7140 C   0  0  0  0  0  0
   39.7290   55.4763   32.7873 C   0  0  1  0  0  0
   40.3416   56.6493   33.2268 O   0  0  0  0  0  0
   38.3237   55.6551   32.9235 N   0  0  0  0  0  0
   37.2152   55.6984   32.0916 C   0  0  0  0  0  0
   37.0860   55.5720   30.7059 C   0  0  0  0  0  0
   35.7948   55.6258   30.1691 C   0  0  0  0  0  0
   34.6695   55.7962   30.9719 C   0  0  0  0  0  0
   34.7957   55.9240   32.3476 C   0  0  0  0  0  0
   36.0712   55.8809   32.9344 C   0  0  0  0  0  0
   36.5223   55.9830   34.2721 C   0  0  0  0  0  0
   37.9130   55.9446   34.2161 C   0  0  0  0  0  0
   38.7315   56.1063   35.3624 C   0  0  0  0  0  0
   40.1410   56.2011   35.4792 N   0  0  0  0  0  0
   40.4128   56.2290   36.8485 C   0  0  0  0  0  0
   41.6363   56.2373   37.5358 C   0  0  0  0  0  0
   41.5979   56.3144   38.9285 C   0  0  0  0  0  0
   40.3970   56.3876   39.6260 C   0  0  0  0  0  0
   39.1759   56.3720   38.9580 C   0  0  0  0  0  0
   39.1686   56.2850   37.5563 C   0  0  0  0  0  0
   38.1239   56.2247   36.6178 C   0  0  0  0  0  0
   36.7172   56.2416   36.6890 C   0  0  0  0  0  0
   35.9352   56.1161   35.5397 C   0  0  0  0  0  0
   34.4984   56.1111   35.9293 C   0  0  0  0  0  0
   33.5016   55.9714   35.2369 O   0  0  0  0  0  0
   34.5123   56.3085   37.2449 N   0  0  0  0  0  0
   35.8201   56.3768   37.8756 C   0  0  0  0  0  0
   33.4078   55.8259   30.4369 O   0  0  0  0  0  0
   42.9543   53.9723   31.7663 N   0  0  1  0  0  0
   44.3608   54.2621   32.0108 C   0  0  0  0  0  0
   41.7041   54.0068   34.7018 O   0  0  0  0  0  0
   42.7283   53.0510   34.9652 C   0  0  0  0  0  0
   43.0873   55.4471   34.2946 H   0  0  0  0  0  0
   42.4469   55.9052   31.9823 H   0  0  0  0  0  0
   42.6789   57.5718   35.2944 H   0  0  0  0  0  0
   42.3745   57.9717   33.6005 H   0  0  0  0  0  0
   41.2365   58.4970   34.8359 H   0  0  0  0  0  0
   40.5205   55.5392   30.8368 H   0  0  0  0  0  0
   40.2659   53.8964   31.4691 H   0  0  0  0  0  0
   39.7558   54.6588   33.5200 H   0  0  0  0  0  0
   37.9433   55.3987   30.0702 H   0  0  0  0  0  0
   35.6740   55.5061   29.1020 H   0  0  0  0  0  0
   33.9042   56.0642   32.9314 H   0  0  0  0  0  0
   42.5824   56.1714   37.0207 H   0  0  0  0  0  0
   42.5256   56.3167   39.4786 H   0  0  0  0  0  0
   40.4090   56.4457   40.7051 H   0  0  0  0  0  0
   38.2550   56.4118   39.5205 H   0  0  0  0  0  0
   33.6632   56.4653   37.7809 H   0  0  0  0  0  0
   35.9468   55.5713   38.5986 H   0  0  0  0  0  0
   35.9453   57.3264   38.3959 H   0  0  0  0  0  0
   33.3508   55.8409   29.4697 H   0  0  0  0  0  0
   42.7631   53.0265   32.0897 H   0  0  0  0  0  0
   44.9791   53.5162   31.5095 H   0  0  0  0  0  0
   44.6397   55.2416   31.6210 H   0  0  0  0  0  0
   44.6027   54.2193   33.0725 H   0  0  0  0  0  0
   42.3286   52.2679   35.6113 H   0  0  0  0  0  0
   43.0897   52.5686   34.0544 H   0  0  0  0  0  0
   43.5748   53.5018   35.4870 H   0  0  0  0  0  0
  1  2  1  0  0  0
  1 39  1  0  0  0
  1 40  1  0  0  0
  1 41  1  0  0  0
  2  7  1  0  0  0
  2 18  1  0  0  0
  2  3  1  0  0  0
  3 37  1  0  0  0
  3  4  1  0  0  0
  3 35  1  0  0  0
  4 38  1  0  0  0
  4  5  1  0  0  0
  4 33  1  0  0  0
  5  6  1  0  0  0
  5 42  1  0  0  0
  5 43  1  0  0  0
  6  7  1  0  0  0
  6  8  1  0  0  0
  6 44  1  0  0  0
  8 16  1  0  0  0
  8  9  1  0  0  0
  9 14  2  0  0  0
  9 10  1  0  0  0
 10 11  2  0  0  0
 10 45  1  0  0  0
 11 12  1  0  0  0
 11 46  1  0  0  0
 12 13  2  0  0  0
 12 32  1  0  0  0
 13 14  1  0  0  0
 13 47  1  0  0  0
 14 15  1  0  0  0
 15 27  2  0  0  0
 15 16  1  0  0  0
 16 17  2  0  0  0
 17 25  1  0  0  0
 17 18  1  0  0  0
 18 19  1  0  0  0
 19 24  1  0  0  0
 19 20  2  0  0  0
 20 21  1  0  0  0
 20 48  1  0  0  0
 21 22  2  0  0  0
 21 49  1  0  0  0
 22 23  1  0  0  0
 22 50  1  0  0  0
 23 24  2  0  0  0
 23 51  1  0  0  0
 24 25  1  0  0  0
 25 26  2  0  0  0
 26 31  1  0  0  0
 26 27  1  0  0  0
 27 28  1  0  0  0
 28 29  2  0  0  0
 28 30  1  0  0  0
 30 31  1  0  0  0
 30 52  1  0  0  0
 31 53  1  0  0  0
 31 54  1  0  0  0
 32 55  1  0  0  0
 33 34  1  0  0  0
 33 56  1  0  0  0
 34 57  1  0  0  0
 34 58  1  0  0  0
 34 59  1  0  0  0
 35 36  1  0  0  0
 36 60  1  0  0  0
 36 61  1  0  0  0
 36 62  1  0  0  0
M  END
> <s_m_entry_id>
4327

> <s_m_entry_name>
ligand_docking-pose.97

> <s_m_Source_Path>
/home/csk/Desktop/cluster/DUD-E-result/kpcb

> <s_m_Source_File>
ligand_docking-pose.sdf

> <i_m_Source_File_Index>
97

> <i_lp_mmshare_version>
53161

> <r_lp_tautomer_probability>
1

> <s_lp_Force_Field>
OPLS_2005

> <r_lp_Energy>
153.615281

> <b_lp_Chiralities_Consistent>
1

> <s_lp_Variant>
129621-2

> <s_i_glide_gridfile>
glide-grid_2i0e

> <i_i_glide_lignum>
264

> <i_i_glide_rotatable_bonds>
3

> <r_i_docking_score>
-8.86578512689216

> <r_i_glide_ligand_efficiency>
-0.246271809080338

> <r_i_glide_ligand_efficiency_sa>
-0.813171596065604

> <r_i_glide_ligand_efficiency_ln>
-1.93427478885436

> <r_i_glide_gscore>
-8.86578512689216

> <r_i_glide_lipo>
-3.1226974124957

> <r_i_glide_hbond>
-0.476515495733241

> <r_i_glide_metal>
0

> <r_i_glide_rewards>
-1.65771453929616

> <r_i_glide_evdw>
-48.0831031799316

> <r_i_glide_ecoul>
-8.03135013580322

> <r_i_glide_erotb>
0

> <r_i_glide_esite>
0

> <r_i_glide_emodel>
-84.6733202168845

> <r_i_glide_energy>
-56.1144533157349

> <r_i_glide_einternal>
3.47691512107849

> <i_i_glide_confnum>
1

> <i_i_glide_posenum>
24

> <r_i_glide_eff_state_penalty>
0

> <i_f3d_flags>
0

> <s_user_duplicate_titles>
129621

> <s_m_subgroup_title>
dock_pv

> <s_m_subgroupid>
dock_pv1

> <b_m_subgroup_collapsed>
0

$$$$
92677
                    3D
 Schrodinger Suite 2021-1.
 46 51  0  0  1  0            999 V2000
   41.3581   54.1363   35.1881 C   0  0  0  0  0  0
   40.5239   54.9912   36.0224 N   0  0  0  0  0  0
   40.8551   55.3312   37.3263 C   0  0  0  0  0  0
   42.0301   55.0918   38.0570 C   0  0  0  0  0  0
   42.0646   55.5261   39.3807 C   0  0  0  0  0  0
   40.9801   56.1666   39.9680 C   0  0  0  0  0  0
   39.8073   56.3920   39.2527 C   0  0  0  0  0  0
   39.7258   55.9716   37.9114 C   0  0  0  0  0  0
   38.6966   55.9826   36.9402 C   0  0  0  0  0  0
   39.2842   55.5565   35.7218 C   0  0  0  0  0  0
   38.5612   55.6683   34.5135 C   0  0  0  0  0  0
   37.1726   55.9331   34.5627 C   0  0  0  0  0  0
   36.6798   55.8327   33.2556 C   0  0  0  0  0  0
   35.3806   55.9022   32.7233 C   0  0  0  0  0  0
   35.2095   55.7613   31.3499 C   0  0  0  0  0  0
   36.3020   55.5731   30.5122 C   0  0  0  0  0  0
   37.6097   55.5389   31.0014 C   0  0  0  0  0  0
   37.7926   55.6528   32.3886 C   0  0  0  0  0  0
   38.9514   55.6524   33.1677 N   0  0  0  0  0  0
   40.3105   55.6951   32.6055 C   0  0  0  0  0  0
   41.1506   56.8562   33.1842 C   0  0  0  0  0  0
   42.4330   56.7717   32.8363 F   0  0  0  0  0  0
   40.7008   58.0600   32.8372 F   0  0  0  0  0  0
   36.5617   56.2067   35.7937 C   0  0  0  0  0  0
   37.3217   56.3026   36.9490 C   0  0  0  0  0  0
   36.4205   56.7162   38.0682 C   0  0  0  0  0  0
   36.6941   56.9527   39.2371 O   0  0  0  0  0  0
   35.1927   56.7720   37.5316 N   0  0  0  0  0  0
   35.1241   56.4928   36.1094 C   0  0  0  0  0  0
   41.8916   53.4199   35.8143 H   0  0  0  0  0  0
   40.7301   53.5518   34.5170 H   0  0  0  0  0  0
   42.0931   54.7271   34.6451 H   0  0  0  0  0  0
   42.8833   54.5887   37.6241 H   0  0  0  0  0  0
   42.9564   55.3550   39.9659 H   0  0  0  0  0  0
   41.0420   56.4829   40.9991 H   0  0  0  0  0  0
   38.9855   56.8770   39.7506 H   0  0  0  0  0  0
   34.5229   56.0462   33.3626 H   0  0  0  0  0  0
   34.2166   55.7947   30.9252 H   0  0  0  0  0  0
   36.1342   55.4510   29.4517 H   0  0  0  0  0  0
   38.4357   55.3853   30.3227 H   0  0  0  0  0  0
   40.7799   54.7259   32.7332 H   0  0  0  0  0  0
   40.2550   55.8344   31.5263 H   0  0  0  0  0  0
   41.1606   56.8624   34.2708 H   0  0  0  0  0  0
   34.3692   56.9988   38.0778 H   0  0  0  0  0  0
   34.4689   55.6414   35.9169 H   0  0  0  0  0  0
   34.7302   57.3556   35.5690 H   0  0  0  0  0  0
  1  2  1  0  0  0
  1 30  1  0  0  0
  1 31  1  0  0  0
  1 32  1  0  0  0
  2 10  1  0  0  0
  2  3  1  0  0  0
  3  8  2  0  0  0
  3  4  1  0  0  0
  4  5  2  0  0  0
  4 33  1  0  0  0
  5  6  1  0  0  0
  5 34  1  0  0  0
  6  7  2  0  0  0
  6 35  1  0  0  0
  7  8  1  0  0  0
  7 36  1  0  0  0
  8  9  1  0  0  0
  9 25  2  0  0  0
  9 10  1  0  0  0
 10 11  2  0  0  0
 11 19  1  0  0  0
 11 12  1  0  0  0
 12 13  1  0  0  0
 12 24  2  0  0  0
 13 18  2  0  0  0
 13 14  1  0  0  0
 14 15  2  0  0  0
 14 37  1  0  0  0
 15 16  1  0  0  0
 15 38  1  0  0  0
 16 17  2  0  0  0
 16 39  1  0  0  0
 17 18  1  0  0  0
 17 40  1  0  0  0
 18 19  1  0  0  0
 19 20  1  0  0  0
 20 21  1  0  0  0
 20 41  1  0  0  0
 20 42  1  0  0  0
 21 22  1  0  0  0
 21 23  1  0  0  0
 21 43  1  0  0  0
 24 29  1  0  0  0
 24 25  1  0  0  0
 25 26  1  0  0  0
 26 27  2  0  0  0
 26 28  1  0  0  0
 28 29  1  0  0  0
 28 44  1  0  0  0
 29 45  1  0  0  0
 29 46  1  0  0  0
M  END
> <s_m_entry_id>
4330

> <s_m_entry_name>
ligand_docking-pose.100

> <s_m_Source_Path>
/home/csk/Desktop/cluster/DUD-E-result/kpcb

> <s_m_Source_File>
ligand_docking-pose.sdf

> <i_m_Source_File_Index>
100

> <i_lp_mmshare_version>
53161

> <r_lp_tautomer_probability>
1

> <s_lp_Force_Field>
OPLS_2005

> <r_lp_Energy>
92.124402

> <b_lp_Chiralities_Consistent>
1

> <s_lp_Variant>
92677-1

> <s_i_glide_gridfile>
glide-grid_2i0e

> <i_i_glide_lignum>
417

> <i_i_glide_rotatable_bonds>
2

> <r_i_docking_score>
-8.81927821534926

> <r_i_glide_ligand_efficiency>
-0.304113041908595

> <r_i_glide_ligand_efficiency_sa>
-0.934331614517558

> <r_i_glide_ligand_efficiency_ln>
-2.01939107371542

> <r_i_glide_gscore>
-8.81927821534926

> <r_i_glide_lipo>
-2.62891649576522

> <r_i_glide_hbond>
-0.608

> <r_i_glide_metal>
0

> <r_i_glide_rewards>
-2.63269744561007

> <r_i_glide_evdw>
-39.8336296081543

> <r_i_glide_ecoul>
-6.98618412017822

> <r_i_glide_erotb>
0.0899931486923621

> <r_i_glide_esite>
-4.83242318847572e-05

> <r_i_glide_emodel>
-71.323596062317

> <r_i_glide_energy>
-46.8198137283325

> <r_i_glide_einternal>
2.53849101066589

> <i_i_glide_confnum>
2

> <i_i_glide_posenum>
132

> <r_i_glide_eff_state_penalty>
0

> <i_f3d_flags>
0

> <s_user_duplicate_titles>
92677

> <s_m_subgroup_title>
dock_pv

> <s_m_subgroupid>
dock_pv1

> <b_m_subgroup_collapsed>
0

$$$$
269951
                    3D
 Schrodinger Suite 2021-1.
 52 56  0  0  1  0            999 V2000
   43.1384   56.0328   36.2487 C   0  0  0  0  0  0
   42.4705   55.0231   36.9445 C   0  0  0  0  0  0
   41.1250   54.7463   36.6989 C   0  0  0  0  0  0
   40.4876   55.5187   35.7206 C   0  0  0  0  0  0
   41.1339   56.5525   35.0130 C   0  0  0  0  0  0
   42.4871   56.8059   35.2818 C   0  0  0  0  0  0
   40.1332   57.0884   34.1445 C   0  0  0  0  0  0
   38.9912   56.3065   34.3194 C   0  0  0  0  0  0
   39.2015   55.3716   35.2933 O   0  0  0  0  0  0
   37.6622   56.2461   33.6818 C   0  0  0  0  0  0
   36.3774   56.2124   34.2668 C   0  0  0  0  0  0
   35.4576   55.9389   33.1600 C   0  0  0  0  0  0
   34.0763   55.6651   33.0083 C   0  0  0  0  0  0
   33.5140   55.4971   31.7460 C   0  0  0  0  0  0
   34.2943   55.5803   30.6078 C   0  0  0  0  0  0
   35.6579   55.8133   30.6824 C   0  0  0  0  0  0
   36.2261   55.9753   31.9563 C   0  0  0  0  0  0
   37.5481   56.1574   32.3008 N   0  0  0  0  0  0
   38.6209   56.1775   31.2937 C   0  0  0  0  0  0
   38.8960   54.7808   30.6928 C   0  0  0  0  0  0
   39.5973   53.7995   31.6347 C   0  0  0  0  0  0
   38.4978   52.9894   32.8378 S   0  0  0  0  0  0
   39.6105   52.5124   34.1714 C   0  0  0  0  0  0
   39.1018   51.9714   35.1839 N   0  0  0  0  0  0
   40.9398   52.7720   33.9607 N   0  0  0  0  0  0
   36.1175   56.3751   35.7352 C   0  0  0  0  0  0
   36.9962   56.7714   36.6750 C   0  0  0  0  0  0
   36.3532   56.7723   37.9490 C   0  0  0  0  0  0
   36.8135   57.0691   39.0482 O   0  0  0  0  0  0
   35.1013   56.4073   37.7012 N   0  0  0  0  0  0
   34.8526   56.2149   36.4085 C   0  0  0  0  0  0
   33.7404   55.9718   35.9736 O   0  0  0  0  0  0
   44.1839   56.2127   36.4572 H   0  0  0  0  0  0
   43.0110   54.4342   37.6738 H   0  0  0  0  0  0
   40.6080   53.9530   37.2150 H   0  0  0  0  0  0
   43.0217   57.5718   34.7429 H   0  0  0  0  0  0
   40.2465   57.9038   33.4479 H   0  0  0  0  0  0
   33.4031   55.5715   33.8329 H   0  0  0  0  0  0
   32.4564   55.2993   31.6423 H   0  0  0  0  0  0
   33.8459   55.4348   29.6370 H   0  0  0  0  0  0
   36.2468   55.8280   29.7795 H   0  0  0  0  0  0
   39.5318   56.6060   31.7002 H   0  0  0  0  0  0
   38.2994   56.8561   30.5060 H   0  0  0  0  0  0
   39.5016   54.8511   29.7955 H   0  0  0  0  0  0
   37.9635   54.3721   30.3264 H   0  0  0  0  0  0
   40.4111   54.3398   32.1183 H   0  0  0  0  0  0
   40.0515   52.9973   31.0495 H   0  0  0  0  0  0
   39.8069   51.7231   35.8614 H   0  0  0  0  0  0
   41.5867   52.2513   34.5377 H   0  0  0  0  0  0
   41.2473   52.9174   33.0118 H   0  0  0  0  0  0
   38.0292   57.0470   36.5511 H   0  0  0  0  0  0
   34.3788   56.3663   38.4055 H   0  0  0  0  0  0
  1  6  1  0  0  0
  1  2  2  0  0  0
  1 33  1  0  0  0
  2  3  1  0  0  0
  2 34  1  0  0  0
  3  4  2  0  0  0
  3 35  1  0  0  0
  4  9  1  0  0  0
  4  5  1  0  0  0
  5  6  2  0  0  0
  5  7  1  0  0  0
  6 36  1  0  0  0
  7  8  2  0  0  0
  7 37  1  0  0  0
  8  9  1  0  0  0
  8 10  1  0  0  0
 10 18  1  0  0  0
 10 11  2  0  0  0
 11 12  1  0  0  0
 11 26  1  0  0  0
 12 17  2  0  0  0
 12 13  1  0  0  0
 13 14  2  0  0  0
 13 38  1  0  0  0
 14 15  1  0  0  0
 14 39  1  0  0  0
 15 16  2  0  0  0
 15 40  1  0  0  0
 16 17  1  0  0  0
 16 41  1  0  0  0
 17 18  1  0  0  0
 18 19  1  0  0  0
 19 20  1  0  0  0
 19 42  1  0  0  0
 19 43  1  0  0  0
 20 21  1  0  0  0
 20 44  1  0  0  0
 20 45  1  0  0  0
 21 22  1  0  0  0
 21 46  1  0  0  0
 21 47  1  0  0  0
 22 23  1  0  0  0
 23 24  2  3  0  0
 23 25  1  0  0  0
 24 48  1  0  0  0
 25 49  1  0  0  0
 25 50  1  0  0  0
 26 31  1  0  0  0
 26 27  2  0  0  0
 27 28  1  0  0  0
 27 51  1  0  0  0
 28 29  2  0  0  0
 28 30  1  0  0  0
 30 31  1  0  0  0
 30 52  1  0  0  0
 31 32  2  0  0  0
M  END
> <s_m_entry_id>
4332

> <s_m_entry_name>
ligand_docking-pose.102

> <s_m_Source_Path>
/home/csk/Desktop/cluster/DUD-E-result/kpcb

> <s_m_Source_File>
ligand_docking-pose.sdf

> <i_m_Source_File_Index>
102

> <i_lp_mmshare_version>
53161

> <r_lp_tautomer_probability>
1

> <s_lp_Force_Field>
OPLS_2005

> <r_lp_Energy>
16.6489

> <b_lp_Chiralities_Consistent>
1

> <s_lp_Variant>
269951-1

> <s_i_glide_gridfile>
glide-grid_2i0e

> <i_i_glide_lignum>
61

> <i_i_glide_rotatable_bonds>
7

> <r_i_docking_score>
-8.79877331977687

> <r_i_glide_ligand_efficiency>
-0.274961666243027

> <r_i_glide_ligand_efficiency_sa>
-0.87294887548175

> <r_i_glide_ligand_efficiency_ln>
-1.97028519180021

> <r_i_glide_gscore>
-8.79877331977687

> <r_i_glide_lipo>
-2.70070493754683

> <r_i_glide_hbond>
-0.599024782579988

> <r_i_glide_metal>
0

> <r_i_glide_rewards>
-2.18626741427625

> <r_i_glide_evdw>
-51.4999504089355

> <r_i_glide_ecoul>
-7.58353900909424

> <r_i_glide_erotb>
0.495999001754988

> <r_i_glide_esite>
-0.0962468153178753

> <r_i_glide_emodel>
-88.4752866068067

> <r_i_glide_energy>
-59.0834894180298

> <r_i_glide_einternal>
6.23021221160889

> <i_i_glide_confnum>
37

> <i_i_glide_posenum>
360

> <r_i_glide_eff_state_penalty>
0

> <i_f3d_flags>
0

> <s_user_duplicate_titles>
269951

> <s_m_subgroup_title>
dock_pv

> <s_m_subgroupid>
dock_pv1

> <b_m_subgroup_collapsed>
0

$$$$
296926
                    3D
 Schrodinger Suite 2021-1.
 63 68  0  0  1  0            999 V2000
   43.5013   53.7156   35.6589 C   0  0  0  0  0  0
   43.3140   55.0453   35.0779 N   0  0  0  0  0  0
   44.4420   55.3337   34.1930 C   0  0  0  0  0  0
   42.0348   55.0867   34.3625 C   0  0  0  0  0  0
   41.6224   56.5055   33.9082 C   0  0  0  0  0  0
   41.5362   57.5647   35.0295 C   0  0  0  0  0  0
   40.6128   57.1727   36.0914 N   0  0  0  0  0  0
   40.8983   56.7412   37.3707 C   0  0  0  0  0  0
   42.1058   56.5736   38.0599 C   0  0  0  0  0  0
   42.0241   56.1062   39.3712 C   0  0  0  0  0  0
   40.8016   55.8140   39.9684 C   0  0  0  0  0  0
   39.6047   55.9740   39.2736 C   0  0  0  0  0  0
   39.6361   56.4469   37.9529 C   0  0  0  0  0  0
   38.6739   56.7164   36.9158 C   0  0  0  0  0  0
   39.2900   57.1718   35.8492 N   0  0  0  0  0  0
   37.2107   56.5349   36.9276 C   0  0  0  0  0  0
   36.4072   56.1708   35.9127 C   0  0  0  0  0  0
   35.0468   56.1870   36.3709 C   0  0  0  0  0  0
   34.0104   55.9447   35.7553 O   0  0  0  0  0  0
   35.1288   56.5354   37.6574 N   0  0  0  0  0  0
   36.3796   56.7720   38.0750 C   0  0  0  0  0  0
   36.6950   57.1410   39.2050 O   0  0  0  0  0  0
   36.7851   55.7778   34.5570 C   0  0  0  0  0  0
   37.8498   54.9601   34.2602 C   0  0  0  0  0  0
   37.9923   54.7827   32.9035 N   0  0  0  0  0  0
   36.9512   55.4630   32.2714 C   0  0  0  0  0  0
   36.1899   56.1181   33.2955 C   0  0  0  0  0  0
   35.1000   56.9190   32.9201 C   0  0  0  0  0  0
   34.7472   57.0086   31.5774 C   0  0  0  0  0  0
   35.4746   56.3371   30.6023 C   0  0  0  0  0  0
   36.5954   55.5719   30.9159 C   0  0  0  0  0  0
   39.0866   54.1069   32.3217 C   0  0  0  0  0  0
   39.6543   52.9811   32.9372 C   0  0  0  0  0  0
   40.7863   52.3935   32.3730 C   0  0  0  0  0  0
   41.2963   52.9102   31.1860 C   0  0  0  0  0  0
   40.7411   53.9708   30.5561 N   0  0  0  0  0  0
   39.6566   54.5530   31.1237 C   0  0  0  0  0  0
   42.7182   53.4994   36.3860 H   0  0  0  0  0  0
   44.4536   53.6469   36.1882 H   0  0  0  0  0  0
   43.4842   52.9287   34.9010 H   0  0  0  0  0  0
   44.3789   56.3426   33.7865 H   0  0  0  0  0  0
   45.3857   55.2709   34.7371 H   0  0  0  0  0  0
   44.4856   54.6310   33.3578 H   0  0  0  0  0  0
   42.0900   54.4300   33.4954 H   0  0  0  0  0  0
   41.2512   54.6881   35.0090 H   0  0  0  0  0  0
   42.2761   56.8467   33.1053 H   0  0  0  0  0  0
   40.6457   56.4293   33.4288 H   0  0  0  0  0  0
   42.5193   57.7228   35.4742 H   0  0  0  0  0  0
   41.2124   58.5259   34.6290 H   0  0  0  0  0  0
   43.0602   56.7822   37.5985 H   0  0  0  0  0  0
   42.9329   55.9536   39.9351 H   0  0  0  0  0  0
   40.7787   55.4431   40.9829 H   0  0  0  0  0  0
   38.6730   55.7122   39.7501 H   0  0  0  0  0  0
   34.3138   56.6492   38.2451 H   0  0  0  0  0  0
   38.5684   54.5190   34.9368 H   0  0  0  0  0  0
   34.5248   57.4409   33.6692 H   0  0  0  0  0  0
   33.8905   57.6006   31.2880 H   0  0  0  0  0  0
   35.1608   56.4058   29.5705 H   0  0  0  0  0  0
   37.1344   55.0599   30.1318 H   0  0  0  0  0  0
   39.2562   52.5766   33.8567 H   0  0  0  0  0  0
   41.2854   51.5677   32.8376 H   0  0  0  0  0  0
   42.1731   52.4695   30.7321 H   0  0  0  0  0  0
   39.2884   55.4257   30.6086 H   0  0  0  0  0  0
  1  2  1  0  0  0
  1 38  1  0  0  0
  1 39  1  0  0  0
  1 40  1  0  0  0
  2  3  1  0  0  0
  2  4  1  0  0  0
  3 41  1  0  0  0
  3 42  1  0  0  0
  3 43  1  0  0  0
  4  5  1  0  0  0
  4 44  1  0  0  0
  4 45  1  0  0  0
  5  6  1  0  0  0
  5 46  1  0  0  0
  5 47  1  0  0  0
  6  7  1  0  0  0
  6 48  1  0  0  0
  6 49  1  0  0  0
  7 15  1  0  0  0
  7  8  1  0  0  0
  8 13  2  0  0  0
  8  9  1  0  0  0
  9 10  2  0  0  0
  9 50  1  0  0  0
 10 11  1  0  0  0
 10 51  1  0  0  0
 11 12  2  0  0  0
 11 52  1  0  0  0
 12 13  1  0  0  0
 12 53  1  0  0  0
 13 14  1  0  0  0
 14 15  2  0  0  0
 14 16  1  0  0  0
 16 21  1  0  0  0
 16 17  2  0  0  0
 17 18  1  0  0  0
 17 23  1  0  0  0
 18 19  2  0  0  0
 18 20  1  0  0  0
 20 21  1  0  0  0
 20 54  1  0  0  0
 21 22  2  0  0  0
 23 27  1  0  0  0
 23 24  2  0  0  0
 24 25  1  0  0  0
 24 55  1  0  0  0
 25 26  1  0  0  0
 25 32  1  0  0  0
 26 31  1  0  0  0
 26 27  2  0  0  0
 27 28  1  0  0  0
 28 29  2  0  0  0
 28 56  1  0  0  0
 29 30  1  0  0  0
 29 57  1  0  0  0
 30 31  2  0  0  0
 30 58  1  0  0  0
 31 59  1  0  0  0
 32 37  1  0  0  0
 32 33  2  0  0  0
 33 34  1  0  0  0
 33 60  1  0  0  0
 34 35  2  0  0  0
 34 61  1  0  0  0
 35 36  1  0  0  0
 35 62  1  0  0  0
 36 37  2  0  0  0
 37 63  1  0  0  0
M  END
> <s_m_entry_id>
4335

> <s_m_entry_name>
ligand_docking-pose.105

> <s_m_Source_Path>
/home/csk/Desktop/cluster/DUD-E-result/kpcb

> <s_m_Source_File>
ligand_docking-pose.sdf

> <i_m_Source_File_Index>
105

> <i_lp_mmshare_version>
53161

> <r_lp_tautomer_probability>
1

> <s_lp_Force_Field>
OPLS_2005

> <r_lp_Energy>
30.728482

> <b_lp_Chiralities_Consistent>
1

> <s_lp_Variant>
296926-1

> <s_i_glide_gridfile>
glide-grid_2i0e

> <i_i_glide_lignum>
520

> <i_i_glide_rotatable_bonds>
7

> <r_i_docking_score>
-8.77721595882804

> <r_i_glide_ligand_efficiency>
-0.237222052941299

> <r_i_glide_ligand_efficiency_sa>
-0.790476507551859

> <r_i_glide_ligand_efficiency_ln>
-1.90357237433329

> <r_i_glide_gscore>
-8.77721595882804

> <r_i_glide_lipo>
-2.64865469248853

> <r_i_glide_hbond>
-0.608

> <r_i_glide_metal>
0

> <r_i_glide_rewards>
-2.03967638524672

> <r_i_glide_evdw>
-55.2626419067383

> <r_i_glide_ecoul>
-7.15298128128052

> <r_i_glide_erotb>
0.355194406436196

> <r_i_glide_esite>
0

> <r_i_glide_emodel>
-96.4855105078408

> <r_i_glide_energy>
-62.4156231880188

> <r_i_glide_einternal>
1.03228628635406

> <i_i_glide_confnum>
98

> <i_i_glide_posenum>
127

> <r_i_glide_eff_state_penalty>
0

> <i_f3d_flags>
0

> <s_user_duplicate_titles>
296926

> <s_m_subgroup_title>
dock_pv

> <s_m_subgroupid>
dock_pv1

> <b_m_subgroup_collapsed>
0

$$$$
259102
                    3D
 Schrodinger Suite 2021-1.
 57 62  0  0  1  0            999 V2000
   38.6889   56.3348   31.4910 C   0  0  0  0  0  0
   37.6132   55.9711   32.4011 N   0  0  0  0  0  0
   36.3119   55.7758   31.9572 C   0  0  0  0  0  0
   35.7986   55.6955   30.6519 C   0  0  0  0  0  0
   34.4180   55.5722   30.5059 C   0  0  0  0  0  0
   33.5724   55.5014   31.6041 C   0  0  0  0  0  0
   34.0772   55.5704   32.8990 C   0  0  0  0  0  0
   35.4639   55.7226   33.0963 C   0  0  0  0  0  0
   36.2806   55.8912   34.2403 C   0  0  0  0  0  0
   37.6286   55.9102   33.7965 C   0  0  0  0  0  0
   38.6836   55.9953   34.7359 C   0  0  0  0  0  0
   38.3928   56.2850   36.0956 C   0  0  0  0  0  0
   39.6256   56.5484   36.7280 C   0  0  0  0  0  0
   39.9831   56.9518   38.0273 C   0  0  0  0  0  0
   41.3236   57.1719   38.3253 C   0  0  0  0  0  0
   42.3053   57.0272   37.3543 C   0  0  0  0  0  0
   41.9953   56.6140   36.0615 C   0  0  0  0  0  0
   40.6525   56.3358   35.7668 C   0  0  0  0  0  0
   40.0644   55.7931   34.6292 N   0  0  0  0  0  0
   40.8074   55.0291   33.6121 C   0  0  0  0  0  0
   41.1630   53.5855   34.0800 C   0  0  2  0  0  0
   42.3205   53.4306   35.1108 C   0  0  0  0  0  0
   43.5640   54.1744   34.8456 N   0  0  0  0  0  0
   44.2399   53.8065   33.6064 C   0  0  0  0  0  0
   44.4913   53.9750   35.9586 C   0  0  0  0  0  0
   41.3954   52.7768   32.9369 O   0  0  0  0  0  0
   37.0470   56.2875   36.5138 C   0  0  0  0  0  0
   36.0272   56.0556   35.6158 C   0  0  0  0  0  0
   34.7531   56.1104   36.3773 C   0  0  0  0  0  0
   33.6059   55.9721   35.9760 O   0  0  0  0  0  0
   35.1006   56.3720   37.6440 N   0  0  0  0  0  0
   36.4159   56.5083   37.8492 C   0  0  0  0  0  0
   36.9229   56.7708   38.9348 O   0  0  0  0  0  0
   38.3005   57.0595   30.7771 H   0  0  0  0  0  0
   39.5047   56.8224   32.0224 H   0  0  0  0  0  0
   39.0325   55.4551   30.9447 H   0  0  0  0  0  0
   36.4347   55.7264   29.7809 H   0  0  0  0  0  0
   33.9918   55.5159   29.5148 H   0  0  0  0  0  0
   32.5077   55.3994   31.4481 H   0  0  0  0  0  0
   33.3851   55.5139   33.7198 H   0  0  0  0  0  0
   39.2491   57.1056   38.7992 H   0  0  0  0  0  0
   41.6052   57.4787   39.3233 H   0  0  0  0  0  0
   43.3358   57.2285   37.6067 H   0  0  0  0  0  0
   42.7754   56.5102   35.3252 H   0  0  0  0  0  0
   40.1897   54.9046   32.7383 H   0  0  0  0  0  0
   41.6920   55.5899   33.3094 H   0  0  0  0  0  0
   40.2695   53.1531   34.5371 H   0  0  0  0  0  0
   41.9360   53.7238   36.0898 H   0  0  0  0  0  0
   42.5586   52.3698   35.2168 H   0  0  0  0  0  0
   43.6013   53.9448   32.7351 H   0  0  0  0  0  0
   45.1201   54.4310   33.4514 H   0  0  0  0  0  0
   44.5722   52.7721   33.6370 H   0  0  0  0  0  0
   44.0357   54.2622   36.9075 H   0  0  0  0  0  0
   44.8063   52.9320   36.0367 H   0  0  0  0  0  0
   45.3863   54.5865   35.8320 H   0  0  0  0  0  0
   41.7510   51.9209   33.2140 H   0  0  0  0  0  0
   34.4097   56.5024   38.3699 H   0  0  0  0  0  0
  1  2  1  0  0  0
  1 34  1  0  0  0
  1 35  1  0  0  0
  1 36  1  0  0  0
  2 10  1  0  0  0
  2  3  1  0  0  0
  3  8  2  0  0  0
  3  4  1  0  0  0
  4  5  2  0  0  0
  4 37  1  0  0  0
  5  6  1  0  0  0
  5 38  1  0  0  0
  6  7  2  0  0  0
  6 39  1  0  0  0
  7  8  1  0  0  0
  7 40  1  0  0  0
  8  9  1  0  0  0
  9 28  2  0  0  0
  9 10  1  0  0  0
 10 11  2  0  0  0
 11 19  1  0  0  0
 11 12  1  0  0  0
 12 13  1  0  0  0
 12 27  2  0  0  0
 13 18  2  0  0  0
 13 14  1  0  0  0
 14 15  2  0  0  0
 14 41  1  0  0  0
 15 16  1  0  0  0
 15 42  1  0  0  0
 16 17  2  0  0  0
 16 43  1  0  0  0
 17 18  1  0  0  0
 17 44  1  0  0  0
 18 19  1  0  0  0
 19 20  1  0  0  0
 20 21  1  0  0  0
 20 45  1  0  0  0
 20 46  1  0  0  0
 21 22  1  0  0  0
 21 26  1  0  0  0
 21 47  1  0  0  0
 22 23  1  0  0  0
 22 48  1  0  0  0
 22 49  1  0  0  0
 23 24  1  0  0  0
 23 25  1  0  0  0
 24 50  1  0  0  0
 24 51  1  0  0  0
 24 52  1  0  0  0
 25 53  1  0  0  0
 25 54  1  0  0  0
 25 55  1  0  0  0
 26 56  1  0  0  0
 27 32  1  0  0  0
 27 28  1  0  0  0
 28 29  1  0  0  0
 29 30  2  0  0  0
 29 31  1  0  0  0
 31 32  1  0  0  0
 31 57  1  0  0  0
 32 33  2  0  0  0
M  END
> <s_m_entry_id>
4338

> <s_m_entry_name>
ligand_docking-pose.108

> <s_m_Source_Path>
/home/csk/Desktop/cluster/DUD-E-result/kpcb

> <s_m_Source_File>
ligand_docking-pose.sdf

> <i_m_Source_File_Index>
108

> <i_lp_mmshare_version>
53161

> <r_lp_tautomer_probability>
1

> <s_lp_Force_Field>
OPLS_2005

> <r_lp_Energy>
108.078747

> <b_lp_Chiralities_Consistent>
1

> <s_lp_Variant>
259102-1

> <s_i_glide_gridfile>
glide-grid_2i0e

> <i_i_glide_lignum>
406

> <i_i_glide_rotatable_bonds>
5

> <r_i_docking_score>
-8.75068471816106

> <r_i_glide_ligand_efficiency>
-0.265172264186699

> <r_i_glide_ligand_efficiency_sa>
-0.850549139750242

> <r_i_glide_ligand_efficiency_ln>
-1.94610697269841

> <r_i_glide_gscore>
-8.75068471816106

> <r_i_glide_lipo>
-2.56837072537003

> <r_i_glide_hbond>
-0.717201878358299

> <r_i_glide_metal>
0

> <r_i_glide_rewards>
-2.31793785297599

> <r_i_glide_evdw>
-48.4907875061035

> <r_i_glide_ecoul>
-6.25482273101807

> <r_i_glide_erotb>
0.216100083204914

> <r_i_glide_esite>
-0.000511559703770117

> <r_i_glide_emodel>
-84.6298342385275

> <r_i_glide_energy>
-54.7456102371216

> <r_i_glide_einternal>
2.7969114780426

> <i_i_glide_confnum>
19

> <i_i_glide_posenum>
202

> <r_i_glide_eff_state_penalty>
0

> <i_f3d_flags>
0

> <s_user_duplicate_titles>
259102

> <s_m_subgroup_title>
dock_pv

> <s_m_subgroupid>
dock_pv1

> <b_m_subgroup_collapsed>
0

$$$$
215776
                    3D
 Schrodinger Suite 2021-1.
 62 69  0  0  1  0            999 V2000
   41.9613   57.4306   33.4778 C   0  0  0  0  0  0
   40.8659   56.3519   33.5715 C   0  0  2  0  0  0
   41.4754   54.9209   33.3179 C   0  0  2  0  0  0
   41.1501   54.4417   31.8817 C   0  0  2  0  0  0
   39.6256   54.4717   31.7164 C   0  0  0  0  0  0
   39.0819   55.8828   31.9740 C   0  0  2  0  0  0
   40.0264   56.7727   32.5088 O   0  0  0  0  0  0
   37.8623   55.8770   32.7384 N   0  0  0  0  0  0
   36.5728   55.7506   32.2285 C   0  0  0  0  0  0
   36.1138   55.6610   30.9040 C   0  0  0  0  0  0
   34.7363   55.5722   30.7041 C   0  0  0  0  0  0
   33.8432   55.5164   31.7688 C   0  0  0  0  0  0
   34.2934   55.5710   33.0852 C   0  0  0  0  0  0
   35.6703   55.7145   33.3294 C   0  0  0  0  0  0
   36.4287   55.8610   34.5075 C   0  0  0  0  0  0
   37.7717   55.9968   34.1148 C   0  0  0  0  0  0
   38.7792   56.2262   35.0596 C   0  0  0  0  0  0
   40.1510   56.4013   34.8673 N   0  0  0  0  0  0
   40.7168   56.5066   36.1492 C   0  0  0  0  0  0
   42.0596   56.5647   36.5686 C   0  0  0  0  0  0
   42.3218   56.7054   37.9292 C   0  0  0  0  0  0
   41.3025   56.7723   38.8667 C   0  0  0  0  0  0
   39.9719   56.6810   38.4786 C   0  0  0  0  0  0
   39.6602   56.5335   37.1139 C   0  0  0  0  0  0
   38.4466   56.3416   36.4302 C   0  0  0  0  0  0
   37.0921   56.2178   36.8175 C   0  0  0  0  0  0
   36.1138   55.9217   35.8750 C   0  0  0  0  0  0
   34.7869   55.7857   36.5533 C   0  0  1  0  0  0
   35.1517   55.9934   37.9339 N   0  0  0  0  0  0
   36.4166   56.3727   38.1507 C   0  0  0  0  0  0
   36.8570   56.7374   39.2365 O   0  0  0  0  0  0
   33.9010   56.7719   36.1245 O   0  0  0  0  0  0
   41.7407   53.1574   31.5212 N   0  0  1  0  0  0
   41.6331   52.7595   30.1252 C   0  0  0  0  0  0
   41.0179   53.9592   34.2847 O   0  0  0  0  0  0
   41.9972   53.0657   34.8053 C   0  0  0  0  0  0
   42.5607   54.9990   33.4198 H   0  0  0  0  0  0
   41.5757   55.1729   31.1929 H   0  0  0  0  0  0
   38.8025   56.3842   31.0468 H   0  0  0  0  0  0
   34.3648   54.7870   36.4233 H   0  0  0  0  0  0
   42.8703   57.1629   34.0047 H   0  0  0  0  0  0
   42.2547   57.5714   32.4374 H   0  0  0  0  0  0
   41.5919   58.3833   33.8601 H   0  0  0  0  0  0
   39.1693   53.7598   32.4084 H   0  0  0  0  0  0
   39.3179   54.1718   30.7136 H   0  0  0  0  0  0
   36.7858   55.6688   30.0579 H   0  0  0  0  0  0
   34.3512   55.5246   29.6944 H   0  0  0  0  0  0
   32.7845   55.4338   31.5688 H   0  0  0  0  0  0
   33.5825   55.5303   33.8959 H   0  0  0  0  0  0
   42.8945   56.4749   35.8979 H   0  0  0  0  0  0
   43.3477   56.7489   38.2645 H   0  0  0  0  0  0
   41.5470   56.8717   39.9143 H   0  0  0  0  0  0
   39.2107   56.6934   39.2400 H   0  0  0  0  0  0
   34.4605   55.9682   38.6682 H   0  0  0  0  0  0
   33.1084   56.7075   36.6642 H   0  0  0  0  0  0
   42.6080   52.8883   31.9792 H   0  0  0  0  0  0
   40.6051   52.5022   29.8656 H   0  0  0  0  0  0
   41.9848   53.5439   29.4542 H   0  0  0  0  0  0
   42.2352   51.8663   29.9587 H   0  0  0  0  0  0
   41.5270   52.3892   35.5191 H   0  0  0  0  0  0
   42.4560   52.4539   34.0274 H   0  0  0  0  0  0
   42.7839   53.6070   35.3326 H   0  0  0  0  0  0
  1  2  1  0  0  0
  1 41  1  0  0  0
  1 42  1  0  0  0
  1 43  1  0  0  0
  2  7  1  0  0  0
  2 18  1  0  0  0
  2  3  1  0  0  0
  3 37  1  0  0  0
  3  4  1  0  0  0
  3 35  1  0  0  0
  4 38  1  0  0  0
  4  5  1  0  0  0
  4 33  1  0  0  0
  5  6  1  0  0  0
  5 44  1  0  0  0
  5 45  1  0  0  0
  6 39  1  0  0  0
  6  7  1  0  0  0
  6  8  1  0  0  0
  8 16  1  0  0  0
  8  9  1  0  0  0
  9 14  2  0  0  0
  9 10  1  0  0  0
 10 11  2  0  0  0
 10 46  1  0  0  0
 11 12  1  0  0  0
 11 47  1  0  0  0
 12 13  2  0  0  0
 12 48  1  0  0  0
 13 14  1  0  0  0
 13 49  1  0  0  0
 14 15  1  0  0  0
 15 27  2  0  0  0
 15 16  1  0  0  0
 16 17  2  0  0  0
 17 25  1  0  0  0
 17 18  1  0  0  0
 18 19  1  0  0  0
 19 24  1  0  0  0
 19 20  2  0  0  0
 20 21  1  0  0  0
 20 50  1  0  0  0
 21 22  2  0  0  0
 21 51  1  0  0  0
 22 23  1  0  0  0
 22 52  1  0  0  0
 23 24  2  0  0  0
 23 53  1  0  0  0
 24 25  1  0  0  0
 25 26  2  0  0  0
 26 30  1  0  0  0
 26 27  1  0  0  0
 27 28  1  0  0  0
 28 40  1  0  0  0
 28 29  1  0  0  0
 28 32  1  0  0  0
 29 30  1  0  0  0
 29 54  1  0  0  0
 30 31  2  0  0  0
 32 55  1  0  0  0
 33 34  1  0  0  0
 33 56  1  0  0  0
 34 57  1  0  0  0
 34 58  1  0  0  0
 34 59  1  0  0  0
 35 36  1  0  0  0
 36 60  1  0  0  0
 36 61  1  0  0  0
 36 62  1  0  0  0
M  END
> <s_m_entry_id>
4339

> <s_m_entry_name>
ligand_docking-pose.109

> <s_m_Source_Path>
/home/csk/Desktop/cluster/DUD-E-result/kpcb

> <s_m_Source_File>
ligand_docking-pose.sdf

> <i_m_Source_File_Index>
109

> <i_lp_mmshare_version>
53161

> <r_lp_tautomer_probability>
1

> <s_lp_Force_Field>
OPLS_2005

> <r_lp_Energy>
124.115651

> <b_lp_Chiralities_Consistent>
1

> <s_lp_Variant>
215776-1

> <s_i_glide_gridfile>
glide-grid_2i0e

> <i_i_glide_lignum>
236

> <i_i_glide_rotatable_bonds>
3

> <r_i_docking_score>
-8.73989706453029

> <r_i_glide_ligand_efficiency>
-0.242774918459175

> <r_i_glide_ligand_efficiency_sa>
-0.801625117650974

> <r_i_glide_ligand_efficiency_ln>
-1.9068094147494

> <r_i_glide_gscore>
-8.73989706453029

> <r_i_glide_lipo>
-2.76040836775252

> <r_i_glide_hbond>
-0.446703137182669

> <r_i_glide_metal>
0

> <r_i_glide_rewards>
-1.99450006574439

> <r_i_glide_evdw>
-51.6902198791504

> <r_i_glide_ecoul>
-6.35849666595459

> <r_i_glide_erotb>
0

> <r_i_glide_esite>
0

> <r_i_glide_emodel>
-86.0326307492962

> <r_i_glide_energy>
-58.048716545105

> <r_i_glide_einternal>
0.421263039112091

> <i_i_glide_confnum>
2

> <i_i_glide_posenum>
78

> <r_i_glide_eff_state_penalty>
0

> <i_f3d_flags>
0

> <s_user_duplicate_titles>
215776

> <s_m_subgroup_title>
dock_pv

> <s_m_subgroupid>
dock_pv1

> <b_m_subgroup_collapsed>
0

$$$$
243763
                    3D
 Schrodinger Suite 2021-1.
 52 59  0  0  1  0            999 V2000
   41.9494   53.2907   33.0789 C   0  0  0  0  0  0
   40.9528   54.1481   33.7250 N   0  0  2  0  0  0
   40.1502   54.9244   32.7571 C   0  0  2  0  0  0
   40.8797   56.2024   32.2678 C   0  0  0  0  0  0
   41.4216   57.0731   33.4079 C   0  0  0  0  0  0
   42.2868   56.2017   34.3319 C   0  0  0  0  0  0
   41.5215   54.9445   34.8319 C   0  0  1  0  0  0
   40.5493   55.3410   35.8554 N   0  0  0  0  0  0
   40.8687   55.5646   37.1914 C   0  0  0  0  0  0
   42.0946   55.4426   37.8659 C   0  0  0  0  0  0
   42.1122   55.7345   39.2298 C   0  0  0  0  0  0
   40.9646   56.1342   39.9060 C   0  0  0  0  0  0
   39.7469   56.2588   39.2422 C   0  0  0  0  0  0
   39.6794   55.9721   37.8672 C   0  0  0  0  0  0
   38.6267   55.9723   36.9225 C   0  0  0  0  0  0
   39.2016   55.6160   35.6865 C   0  0  0  0  0  0
   38.4247   55.5764   34.5226 C   0  0  0  0  0  0
   38.8071   55.2768   33.2264 N   0  0  0  0  0  0
   37.6963   55.4548   32.4033 C   0  0  0  0  0  0
   37.5679   55.3561   31.0098 C   0  0  0  0  0  0
   36.3026   55.5726   30.4595 C   0  0  0  0  0  0
   35.2042   55.8844   31.2477 C   0  0  0  0  0  0
   35.3246   55.9976   32.6297 C   0  0  0  0  0  0
   36.5804   55.7884   33.2299 C   0  0  0  0  0  0
   37.0424   55.8525   34.5625 C   0  0  0  0  0  0
   36.4621   56.1288   35.8153 C   0  0  0  0  0  0
   37.2375   56.2178   36.9549 C   0  0  0  0  0  0
   36.3292   56.5866   38.0688 C   0  0  0  0  0  0
   36.5972   56.8220   39.2369 O   0  0  0  0  0  0
   35.1009   56.6206   37.5390 N   0  0  0  0  0  0
   35.0519   56.3725   36.2205 C   0  0  0  0  0  0
   34.0330   56.3612   35.5394 O   0  0  0  0  0  0
   39.9900   54.2788   31.8915 H   0  0  0  0  0  0
   42.2379   54.2994   35.3457 H   0  0  0  0  0  0
   41.4790   52.6223   32.3563 H   0  0  0  0  0  0
   42.7090   53.8713   32.5562 H   0  0  0  0  0  0
   42.4540   52.6581   33.8097 H   0  0  0  0  0  0
   41.7166   55.9140   31.6359 H   0  0  0  0  0  0
   40.2150   56.7930   31.6370 H   0  0  0  0  0  0
   42.0017   57.9053   33.0104 H   0  0  0  0  0  0
   40.5997   57.5205   33.9693 H   0  0  0  0  0  0
   43.1826   55.8893   33.7944 H   0  0  0  0  0  0
   42.6449   56.7979   35.1739 H   0  0  0  0  0  0
   42.9993   55.1260   37.3639 H   0  0  0  0  0  0
   43.0410   55.6410   39.7748 H   0  0  0  0  0  0
   41.0157   56.3452   40.9645 H   0  0  0  0  0  0
   38.8796   56.5557   39.8061 H   0  0  0  0  0  0
   38.4012   55.0989   30.3728 H   0  0  0  0  0  0
   36.1712   55.4768   29.3912 H   0  0  0  0  0  0
   34.2421   56.0432   30.7806 H   0  0  0  0  0  0
   34.4565   56.2546   33.2111 H   0  0  0  0  0  0
   34.2689   56.8272   38.0788 H   0  0  0  0  0  0
  1  2  1  0  0  0
  1 35  1  0  0  0
  1 36  1  0  0  0
  1 37  1  0  0  0
  2  7  1  0  0  0
  2  3  1  0  0  0
  3 33  1  0  0  0
  3 18  1  0  0  0
  3  4  1  0  0  0
  4  5  1  0  0  0
  4 38  1  0  0  0
  4 39  1  0  0  0
  5  6  1  0  0  0
  5 40  1  0  0  0
  5 41  1  0  0  0
  6  7  1  0  0  0
  6 42  1  0  0  0
  6 43  1  0  0  0
  7 34  1  0  0  0
  7  8  1  0  0  0
  8 16  1  0  0  0
  8  9  1  0  0  0
  9 14  2  0  0  0
  9 10  1  0  0  0
 10 11  2  0  0  0
 10 44  1  0  0  0
 11 12  1  0  0  0
 11 45  1  0  0  0
 12 13  2  0  0  0
 12 46  1  0  0  0
 13 14  1  0  0  0
 13 47  1  0  0  0
 14 15  1  0  0  0
 15 27  2  0  0  0
 15 16  1  0  0  0
 16 17  2  0  0  0
 17 25  1  0  0  0
 17 18  1  0  0  0
 18 19  1  0  0  0
 19 24  1  0  0  0
 19 20  2  0  0  0
 20 21  1  0  0  0
 20 48  1  0  0  0
 21 22  2  0  0  0
 21 49  1  0  0  0
 22 23  1  0  0  0
 22 50  1  0  0  0
 23 24  2  0  0  0
 23 51  1  0  0  0
 24 25  1  0  0  0
 25 26  2  0  0  0
 26 31  1  0  0  0
 26 27  1  0  0  0
 27 28  1  0  0  0
 28 29  2  0  0  0
 28 30  1  0  0  0
 30 31  1  0  0  0
 30 52  1  0  0  0
 31 32  2  0  0  0
M  END
> <s_m_entry_id>
4340

> <s_m_entry_name>
ligand_docking-pose.110

> <s_m_Source_Path>
/home/csk/Desktop/cluster/DUD-E-result/kpcb

> <s_m_Source_File>
ligand_docking-pose.sdf

> <i_m_Source_File_Index>
110

> <i_lp_mmshare_version>
53161

> <r_lp_tautomer_probability>
1

> <s_lp_Force_Field>
OPLS_2005

> <r_lp_Energy>
123.678446

> <b_lp_Chiralities_Consistent>
1

> <s_lp_Variant>
243763-1

> <s_i_glide_gridfile>
glide-grid_2i0e

> <i_i_glide_lignum>
500

> <i_i_glide_rotatable_bonds>
0

> <r_i_docking_score>
-8.73074506553797

> <r_i_glide_ligand_efficiency>
-0.272835783298062

> <r_i_glide_ligand_efficiency_sa>
-0.866199617843148

> <r_i_glide_ligand_efficiency_ln>
-1.95505181129595

> <r_i_glide_gscore>
-8.73074506553797

> <r_i_glide_lipo>
-2.3084404957623

> <r_i_glide_hbond>
-0.608

> <r_i_glide_metal>
0

> <r_i_glide_rewards>
-2.39454291556745

> <r_i_glide_evdw>
-44.195686340332

> <r_i_glide_ecoul>
-7.97635364532471

> <r_i_glide_erotb>
0

> <r_i_glide_esite>
-0.0135242903929157

> <r_i_glide_emodel>
-79.105068296722

> <r_i_glide_energy>
-52.1720399856567

> <r_i_glide_einternal>
0

> <i_i_glide_confnum>
1

> <i_i_glide_posenum>
6

> <r_i_glide_eff_state_penalty>
0

> <i_f3d_flags>
0

> <s_user_duplicate_titles>
243763

> <s_m_subgroup_title>
dock_pv

> <s_m_subgroupid>
dock_pv1

> <b_m_subgroup_collapsed>
0

$$$$
269985
                    3D
 Schrodinger Suite 2021-1.
 49 52  0  0  1  0            999 V2000
   41.5194   55.7692   35.8955 C   0  0  0  0  0  0
   40.6452   54.6838   35.9367 C   0  0  0  0  0  0
   39.4357   54.7465   35.2491 C   0  0  0  0  0  0
   39.1087   55.8922   34.5180 C   0  0  0  0  0  0
   39.9844   56.9824   34.4878 C   0  0  0  0  0  0
   41.1936   56.9193   35.1772 C   0  0  0  0  0  0
   37.8041   55.9495   33.7934 C   0  0  0  0  0  0
   36.5088   56.0680   34.3174 C   0  0  0  0  0  0
   35.6114   55.9885   33.1720 C   0  0  0  0  0  0
   34.2133   55.9709   32.9745 C   0  0  0  0  0  0
   33.6734   55.9599   31.6928 C   0  0  0  0  0  0
   34.4935   55.9688   30.5804 C   0  0  0  0  0  0
   35.8784   55.9639   30.7022 C   0  0  0  0  0  0
   36.4240   55.9532   31.9985 C   0  0  0  0  0  0
   37.7444   55.9095   32.4102 N   0  0  0  0  0  0
   38.8834   55.8785   31.4849 C   0  0  0  0  0  0
   38.9456   54.5832   30.6496 C   0  0  0  0  0  0
   39.4086   53.3208   31.3976 C   0  0  0  0  0  0
   41.1998   53.2393   31.7048 S   0  0  0  0  0  0
   41.8939   52.9451   30.0570 C   0  0  0  0  0  0
   41.1836   52.6240   29.0686 N   0  0  0  0  0  0
   43.2415   53.1709   30.0376 N   0  0  0  0  0  0
   36.2041   56.2539   35.7639 C   0  0  0  0  0  0
   37.0322   56.7296   36.7091 C   0  0  0  0  0  0
   36.3301   56.7719   37.9532 C   0  0  0  0  0  0
   36.7302   57.1480   39.0513 O   0  0  0  0  0  0
   35.1019   56.3427   37.6774 N   0  0  0  0  0  0
   34.9413   56.0000   36.4012 C   0  0  0  0  0  0
   33.9011   55.5716   35.9366 O   0  0  0  0  0  0
   42.4588   55.7170   36.4268 H   0  0  0  0  0  0
   40.9057   53.7978   36.4987 H   0  0  0  0  0  0
   38.7595   53.9030   35.2808 H   0  0  0  0  0  0
   39.7294   57.8725   33.9294 H   0  0  0  0  0  0
   41.8782   57.7551   35.1568 H   0  0  0  0  0  0
   33.5104   55.9727   33.7822 H   0  0  0  0  0  0
   32.5999   55.9566   31.5601 H   0  0  0  0  0  0
   34.0418   55.9632   29.5991 H   0  0  0  0  0  0
   36.4893   55.9480   29.8175 H   0  0  0  0  0  0
   39.8238   56.0205   32.0142 H   0  0  0  0  0  0
   38.7707   56.7434   30.8372 H   0  0  0  0  0  0
   39.6108   54.7554   29.8088 H   0  0  0  0  0  0
   37.9918   54.3835   30.1760 H   0  0  0  0  0  0
   39.1223   52.4307   30.8374 H   0  0  0  0  0  0
   38.8878   53.2413   32.3514 H   0  0  0  0  0  0
   40.1920   52.5328   29.2701 H   0  0  0  0  0  0
   43.7106   53.0598   29.1544 H   0  0  0  0  0  0
   43.7508   52.8675   30.8611 H   0  0  0  0  0  0
   38.0563   57.0444   36.5904 H   0  0  0  0  0  0
   34.3566   56.3009   38.3568 H   0  0  0  0  0  0
  1  6  1  0  0  0
  1  2  2  0  0  0
  1 30  1  0  0  0
  2  3  1  0  0  0
  2 31  1  0  0  0
  3  4  2  0  0  0
  3 32  1  0  0  0
  4  5  1  0  0  0
  4  7  1  0  0  0
  5  6  2  0  0  0
  5 33  1  0  0  0
  6 34  1  0  0  0
  7 15  1  0  0  0
  7  8  2  0  0  0
  8  9  1  0  0  0
  8 23  1  0  0  0
  9 14  2  0  0  0
  9 10  1  0  0  0
 10 11  2  0  0  0
 10 35  1  0  0  0
 11 12  1  0  0  0
 11 36  1  0  0  0
 12 13  2  0  0  0
 12 37  1  0  0  0
 13 14  1  0  0  0
 13 38  1  0  0  0
 14 15  1  0  0  0
 15 16  1  0  0  0
 16 17  1  0  0  0
 16 39  1  0  0  0
 16 40  1  0  0  0
 17 18  1  0  0  0
 17 41  1  0  0  0
 17 42  1  0  0  0
 18 19  1  0  0  0
 18 43  1  0  0  0
 18 44  1  0  0  0
 19 20  1  0  0  0
 20 21  2  3  0  0
 20 22  1  0  0  0
 21 45  1  0  0  0
 22 46  1  0  0  0
 22 47  1  0  0  0
 23 28  1  0  0  0
 23 24  2  0  0  0
 24 25  1  0  0  0
 24 48  1  0  0  0
 25 26  2  0  0  0
 25 27  1  0  0  0
 27 28  1  0  0  0
 27 49  1  0  0  0
 28 29  2  0  0  0
M  END
> <s_m_entry_id>
4341

> <s_m_entry_name>
ligand_docking-pose.111

> <s_m_Source_Path>
/home/csk/Desktop/cluster/DUD-E-result/kpcb

> <s_m_Source_File>
ligand_docking-pose.sdf

> <i_m_Source_File_Index>
111

> <i_lp_mmshare_version>
53161

> <r_lp_tautomer_probability>
1

> <s_lp_Force_Field>
OPLS_2005

> <r_lp_Energy>
26.132503

> <b_lp_Chiralities_Consistent>
1

> <s_lp_Variant>
269985-2

> <s_i_glide_gridfile>
glide-grid_2i0e

> <i_i_glide_lignum>
79

> <i_i_glide_rotatable_bonds>
7

> <r_i_docking_score>
-8.7280572652183

> <r_i_glide_ligand_efficiency>
-0.300967491904079

> <r_i_glide_ligand_efficiency_sa>
-0.924667488323495

> <r_i_glide_ligand_efficiency_ln>
-1.99850378929914

> <r_i_glide_gscore>
-8.7280572652183

> <r_i_glide_lipo>
-2.43346100825757

> <r_i_glide_hbond>
-0.655374179523324

> <r_i_glide_metal>
0

> <r_i_glide_rewards>
-2.65403525442875

> <r_i_glide_evdw>
-48.4173393249512

> <r_i_glide_ecoul>
-6.86958026885986

> <r_i_glide_erotb>
0.588315022567083

> <r_i_glide_esite>
-0.12219783899919

> <r_i_glide_emodel>
-83.0618417345064

> <r_i_glide_energy>
-55.286919593811

> <r_i_glide_einternal>
5.79108095169067

> <i_i_glide_confnum>
87

> <i_i_glide_posenum>
175

> <r_i_glide_eff_state_penalty>
0

> <i_f3d_flags>
0

> <s_user_duplicate_titles>
269985

> <s_m_subgroup_title>
dock_pv

> <s_m_subgroupid>
dock_pv1

> <b_m_subgroup_collapsed>
0

$$$$
35844
                    3D
 Schrodinger Suite 2021-1.
 48 55  0  0  1  0            999 V2000
   34.5791   56.1282   31.4022 C   0  0  0  0  0  0
   35.5781   55.8371   30.4840 C   0  0  0  0  0  0
   36.8716   55.5198   30.8928 C   0  0  0  0  0  0
   37.1361   55.5005   32.2736 C   0  0  0  0  0  0
   36.1450   55.8398   33.2272 C   0  0  0  0  0  0
   34.8464   56.1357   32.7681 C   0  0  0  0  0  0
   36.7571   55.8161   34.5058 C   0  0  0  0  0  0
   36.3117   56.0825   35.8133 C   0  0  0  0  0  0
   37.1738   56.1117   36.8841 C   0  0  0  0  0  0
   38.5364   55.7734   36.7198 C   0  0  0  0  0  0
   39.6467   55.7031   37.5895 C   0  0  0  0  0  0
   39.8269   55.9987   38.9550 C   0  0  0  0  0  0
   41.0632   55.7613   39.5459 C   0  0  0  0  0  0
   42.1204   55.2453   38.8081 C   0  0  0  0  0  0
   41.9906   54.9443   37.4545 C   0  0  0  0  0  0
   40.7424   55.1753   36.8497 C   0  0  0  0  0  0
   40.3207   54.9686   35.5391 N   0  0  0  0  0  0
   38.9896   55.3828   35.4283 C   0  0  0  0  0  0
   38.1097   55.4410   34.3218 C   0  0  0  0  0  0
   38.2937   55.1605   32.9665 N   0  0  0  0  0  0
   39.4779   54.6508   32.2968 C   0  0  1  0  0  0
   40.4388   55.7917   31.9327 C   0  0  0  0  0  0
   41.0151   56.4023   33.0808 O   0  0  0  0  0  0
   41.9407   55.5780   33.7790 C   0  0  0  0  0  0
   41.2090   54.4334   34.5059 C   0  0  2  0  0  0
   40.3865   53.3262   33.2410 S   0  0  0  0  0  0
   39.4223   52.4370   33.8989 O   0  0  0  0  0  0
   41.4058   52.7496   32.3606 O   0  0  0  0  0  0
   36.3673   56.5167   38.0793 C   0  0  0  0  0  0
   36.7154   56.7364   39.2355 O   0  0  0  0  0  0
   35.1011   56.5967   37.6450 N   0  0  0  0  0  0
   34.9566   56.3619   36.3373 C   0  0  0  0  0  0
   33.8989   56.3735   35.7333 O   0  0  0  0  0  0
   33.5821   56.3520   31.0493 H   0  0  0  0  0  0
   35.3402   55.8307   29.4307 H   0  0  0  0  0  0
   37.6219   55.2619   30.1604 H   0  0  0  0  0  0
   34.0416   56.3754   33.4368 H   0  0  0  0  0  0
   39.0256   56.3818   39.5663 H   0  0  0  0  0  0
   41.1999   55.9739   40.5957 H   0  0  0  0  0  0
   43.0691   55.0684   39.2948 H   0  0  0  0  0  0
   42.8340   54.5416   36.9087 H   0  0  0  0  0  0
   39.1681   54.1425   31.3848 H   0  0  0  0  0  0
   41.2131   55.4384   31.2439 H   0  0  0  0  0  0
   39.9000   56.5623   31.3797 H   0  0  0  0  0  0
   42.6987   55.1851   33.0977 H   0  0  0  0  0  0
   42.4770   56.1999   34.4955 H   0  0  0  0  0  0
   41.9385   53.7769   34.9765 H   0  0  0  0  0  0
   34.3168   56.8198   38.2448 H   0  0  0  0  0  0
  1  6  1  0  0  0
  1  2  2  0  0  0
  1 34  1  0  0  0
  2  3  1  0  0  0
  2 35  1  0  0  0
  3  4  2  0  0  0
  3 36  1  0  0  0
  4 20  1  0  0  0
  4  5  1  0  0  0
  5  6  2  0  0  0
  5  7  1  0  0  0
  6 37  1  0  0  0
  7 19  2  0  0  0
  7  8  1  0  0  0
  8 32  1  0  0  0
  8  9  2  0  0  0
  9 10  1  0  0  0
  9 29  1  0  0  0
 10 18  2  0  0  0
 10 11  1  0  0  0
 11 16  2  0  0  0
 11 12  1  0  0  0
 12 13  2  0  0  0
 12 38  1  0  0  0
 13 14  1  0  0  0
 13 39  1  0  0  0
 14 15  2  0  0  0
 14 40  1  0  0  0
 15 16  1  0  0  0
 15 41  1  0  0  0
 16 17  1  0  0  0
 17 25  1  0  0  0
 17 18  1  0  0  0
 18 19  1  0  0  0
 19 20  1  0  0  0
 20 21  1  0  0  0
 21 26  1  0  0  0
 21 22  1  0  0  0
 21 42  1  0  0  0
 22 23  1  0  0  0
 22 43  1  0  0  0
 22 44  1  0  0  0
 23 24  1  0  0  0
 24 25  1  0  0  0
 24 45  1  0  0  0
 24 46  1  0  0  0
 25 26  1  0  0  0
 25 47  1  0  0  0
 26 27  2  0  0  0
 26 28  2  0  0  0
 29 30  2  0  0  0
 29 31  1  0  0  0
 31 32  1  0  0  0
 31 48  1  0  0  0
 32 33  2  0  0  0
M  END
> <s_m_entry_id>
4342

> <s_m_entry_name>
ligand_docking-pose.112

> <s_m_Source_Path>
/home/csk/Desktop/cluster/DUD-E-result/kpcb

> <s_m_Source_File>
ligand_docking-pose.sdf

> <i_m_Source_File_Index>
112

> <i_lp_mmshare_version>
53161

> <r_lp_tautomer_probability>
1

> <s_lp_Force_Field>
OPLS_2005

> <r_lp_Energy>
112.865471

> <b_lp_Chiralities_Consistent>
1

> <s_lp_Variant>
35844-1

> <s_i_glide_gridfile>
glide-grid_2i0e

> <i_i_glide_lignum>
5

> <i_i_glide_rotatable_bonds>
0

> <r_i_docking_score>
-8.71688527979123

> <r_i_glide_ligand_efficiency>
-0.264148038781552

> <r_i_glide_ligand_efficiency_sa>
-0.84726390160541

> <r_i_glide_ligand_efficiency_ln>
-1.93859015260909

> <r_i_glide_gscore>
-8.71688527979123

> <r_i_glide_lipo>
-2.50550078088515

> <r_i_glide_hbond>
-0.608

> <r_i_glide_metal>
0

> <r_i_glide_rewards>
-2.19256866378297

> <r_i_glide_evdw>
-49.6245269775391

> <r_i_glide_ecoul>
-5.38203382492065

> <r_i_glide_erotb>
0

> <r_i_glide_esite>
-0.122284412508052

> <r_i_glide_emodel>
-81.8791987569495

> <r_i_glide_energy>
-55.0065608024597

> <r_i_glide_einternal>
0

> <i_i_glide_confnum>
1

> <i_i_glide_posenum>
59

> <r_i_glide_eff_state_penalty>
0

> <i_f3d_flags>
0

> <s_user_duplicate_titles>
35844

> <s_m_subgroup_title>
dock_pv

> <s_m_subgroupid>
dock_pv1

> <b_m_subgroup_collapsed>
0

$$$$
270007
                    3D
 Schrodinger Suite 2021-1.
 54 58  0  0  1  0            999 V2000
   32.8442   57.9161   31.2370 C   0  0  0  0  0  0
   32.7393   56.6747   30.6367 C   0  0  0  0  0  0
   33.7214   55.7095   30.8025 C   0  0  0  0  0  0
   34.8103   56.0068   31.6299 C   0  0  0  0  0  0
   34.9348   57.2669   32.2678 C   0  0  0  0  0  0
   33.9401   58.2258   32.0370 C   0  0  0  0  0  0
   36.0965   57.3421   33.0781 C   0  0  0  0  0  0
   36.8746   56.2018   33.0278 C   0  0  0  0  0  0
   36.1503   54.9660   32.0370 S   0  0  0  0  0  0
   38.1076   55.8807   33.7404 C   0  0  0  0  0  0
   38.2938   55.7395   35.1122 C   0  0  0  0  0  0
   39.6426   55.2695   35.2959 C   0  0  0  0  0  0
   40.3829   54.8243   36.4069 C   0  0  0  0  0  0
   41.7228   54.4836   36.2479 C   0  0  0  0  0  0
   42.3440   54.5973   35.0110 C   0  0  0  0  0  0
   41.6531   55.0287   33.8803 C   0  0  0  0  0  0
   40.2872   55.3227   34.0251 C   0  0  0  0  0  0
   39.3245   55.6926   33.0953 N   0  0  0  0  0  0
   39.5625   55.8634   31.6567 C   0  0  0  0  0  0
   39.5445   54.5326   30.8714 C   0  0  0  0  0  0
   40.8335   53.6988   30.9709 C   0  0  0  0  0  0
   40.8757   52.7720   29.8464 N   0  0  0  0  0  0
   42.0089   52.6394   29.0100 C   0  0  0  0  0  0
   41.9010   52.3720   27.7901 N   0  0  0  0  0  0
   43.2621   52.7719   29.6370 N   0  0  0  0  0  0
   37.3415   56.0337   36.1909 C   0  0  0  0  0  0
   37.6402   56.6251   37.3548 C   0  0  0  0  0  0
   36.4416   56.7108   38.1141 C   0  0  0  0  0  0
   36.3010   57.1720   39.2370 O   0  0  0  0  0  0
   35.4807   56.1869   37.3512 N   0  0  0  0  0  0
   35.9317   55.7309   36.1803 C   0  0  0  0  0  0
   35.2433   55.1722   35.3312 O   0  0  0  0  0  0
   38.8893   57.1343   37.8203 C   0  0  0  0  0  0
   39.8892   57.5615   38.2163 N   0  0  0  0  0  0
   32.0648   58.6485   31.0799 H   0  0  0  0  0  0
   31.9010   56.4674   29.9922 H   0  0  0  0  0  0
   33.6369   54.7720   30.2848 H   0  0  0  0  0  0
   33.9934   59.1863   32.5218 H   0  0  0  0  0  0
   36.3430   58.2126   33.6622 H   0  0  0  0  0  0
   39.9235   54.7375   37.3797 H   0  0  0  0  0  0
   42.2937   54.1317   37.0964 H   0  0  0  0  0  0
   43.3885   54.3311   34.9244 H   0  0  0  0  0  0
   42.1662   55.1048   32.9358 H   0  0  0  0  0  0
   40.5174   56.3720   31.5265 H   0  0  0  0  0  0
   38.8156   56.5463   31.2498 H   0  0  0  0  0  0
   39.3508   54.7720   29.8252 H   0  0  0  0  0  0
   38.7010   53.9162   31.1773 H   0  0  0  0  0  0
   40.8673   53.1425   31.9091 H   0  0  0  0  0  0
   41.6951   54.3676   30.9501 H   0  0  0  0  0  0
   39.9670   52.5727   29.4427 H   0  0  0  0  0  0
   40.9250   52.3394   27.5198 H   0  0  0  0  0  0
   44.0696   52.5181   29.0922 H   0  0  0  0  0  0
   43.3540   52.4280   30.5884 H   0  0  0  0  0  0
   34.5150   56.1266   37.6374 H   0  0  0  0  0  0
  1  6  1  0  0  0
  1  2  2  0  0  0
  1 35  1  0  0  0
  2  3  1  0  0  0
  2 36  1  0  0  0
  3  4  2  0  0  0
  3 37  1  0  0  0
  4  9  1  0  0  0
  4  5  1  0  0  0
  5  6  2  0  0  0
  5  7  1  0  0  0
  6 38  1  0  0  0
  7  8  2  0  0  0
  7 39  1  0  0  0
  8  9  1  0  0  0
  8 10  1  0  0  0
 10 18  1  0  0  0
 10 11  2  0  0  0
 11 12  1  0  0  0
 11 26  1  0  0  0
 12 17  2  0  0  0
 12 13  1  0  0  0
 13 14  2  0  0  0
 13 40  1  0  0  0
 14 15  1  0  0  0
 14 41  1  0  0  0
 15 16  2  0  0  0
 15 42  1  0  0  0
 16 17  1  0  0  0
 16 43  1  0  0  0
 17 18  1  0  0  0
 18 19  1  0  0  0
 19 20  1  0  0  0
 19 44  1  0  0  0
 19 45  1  0  0  0
 20 21  1  0  0  0
 20 46  1  0  0  0
 20 47  1  0  0  0
 21 22  1  0  0  0
 21 48  1  0  0  0
 21 49  1  0  0  0
 22 23  1  0  0  0
 22 50  1  0  0  0
 23 24  2  3  0  0
 23 25  1  0  0  0
 24 51  1  0  0  0
 25 52  1  0  0  0
 25 53  1  0  0  0
 26 31  1  0  0  0
 26 27  2  0  0  0
 27 28  1  0  0  0
 27 33  1  0  0  0
 28 29  2  0  0  0
 28 30  1  0  0  0
 30 31  1  0  0  0
 30 54  1  0  0  0
 31 32  2  0  0  0
 33 34  3  0  0  0
M  END
> <s_m_entry_id>
4344

> <s_m_entry_name>
ligand_docking-pose.114

> <s_m_Source_Path>
/home/csk/Desktop/cluster/DUD-E-result/kpcb

> <s_m_Source_File>
ligand_docking-pose.sdf

> <i_m_Source_File_Index>
114

> <i_lp_mmshare_version>
53161

> <r_lp_tautomer_probability>
1

> <s_lp_Force_Field>
OPLS_2005

> <r_lp_Energy>
20.513769

> <b_lp_Chiralities_Consistent>
1

> <s_lp_Variant>
270007-2

> <s_i_glide_gridfile>
glide-grid_2i0e

> <i_i_glide_lignum>
66

> <i_i_glide_rotatable_bonds>
7

> <r_i_docking_score>
-8.64270441502197

> <r_i_glide_ligand_efficiency>
-0.254197188677117

> <r_i_glide_ligand_efficiency_sa>
-0.82350021132196

> <r_i_glide_ligand_efficiency_ln>
-1.90941582492589

> <r_i_glide_gscore>
-8.64270441502197

> <r_i_glide_lipo>
-2.31033897807912

> <r_i_glide_hbond>
-0.66197208536006

> <r_i_glide_metal>
0

> <r_i_glide_rewards>
-2.5116353048289

> <r_i_glide_evdw>
-39.6153526306152

> <r_i_glide_ecoul>
-11.1173610687256

> <r_i_glide_erotb>
0.643829891330611

> <r_i_glide_esite>
-0.154216146244904

> <r_i_glide_emodel>
-72.0149170468139

> <r_i_glide_energy>
-50.7327136993408

> <r_i_glide_einternal>
11.2503347396851

> <i_i_glide_confnum>
79

> <i_i_glide_posenum>
50

> <r_i_glide_eff_state_penalty>
0

> <i_f3d_flags>
0

> <s_user_duplicate_titles>
270007

> <s_m_subgroup_title>
dock_pv

> <s_m_subgroupid>
dock_pv1

> <b_m_subgroup_collapsed>
0

$$$$
35126
                    3D
 Schrodinger Suite 2021-1.
 42 48  0  0  1  0            999 V2000
   33.7579   55.5786   32.3866 C   0  0  0  0  0  0
   34.4856   55.5007   31.2111 C   0  0  0  0  0  0
   35.8747   55.5716   31.2115 C   0  0  0  0  0  0
   36.5190   55.7444   32.4481 C   0  0  0  0  0  0
   35.7896   55.8793   33.6661 C   0  0  0  0  0  0
   34.3862   55.7784   33.6119 C   0  0  0  0  0  0
   36.7268   56.1143   34.7115 C   0  0  0  0  0  0
   36.6464   56.3554   36.1096 C   0  0  0  0  0  0
   37.7938   56.5986   36.8467 C   0  0  0  0  0  0
   39.0748   56.5733   36.2551 C   0  0  0  0  0  0
   40.3993   56.7353   36.7296 C   0  0  0  0  0  0
   40.9511   56.9654   38.0042 C   0  0  0  0  0  0
   42.3279   57.1052   38.1375 C   0  0  0  0  0  0
   43.1645   57.0149   37.0328 C   0  0  0  0  0  0
   42.6655   56.7719   35.7567 C   0  0  0  0  0  0
   41.2769   56.6225   35.6134 C   0  0  0  0  0  0
   40.5085   56.3525   34.4875 N   0  0  0  0  0  0
   39.1681   56.3311   34.8642 C   0  0  0  0  0  0
   38.0091   56.1012   34.1005 C   0  0  0  0  0  0
   37.8726   55.8109   32.7443 N   0  0  0  0  0  0
   38.9121   55.6979   31.7241 C   0  0  0  0  0  0
   40.4347   54.8258   32.1512 S   0  0  0  0  0  0
   41.0599   56.1990   33.1475 C   0  0  0  0  0  0
   37.3530   56.8719   38.2465 C   0  0  0  0  0  0
   38.0403   57.1731   39.2158 O   0  0  0  0  0  0
   35.9882   56.7539   38.2852 N   0  0  0  0  0  0
   35.5983   56.4467   37.1194 C   0  0  0  0  0  0
   34.2829   56.2316   36.8361 N   0  0  0  0  0  0
   32.6832   55.5068   32.3448 H   0  0  0  0  0  0
   33.9639   55.3606   30.2741 H   0  0  0  0  0  0
   36.4169   55.4821   30.2817 H   0  0  0  0  0  0
   33.7646   55.8642   34.4806 H   0  0  0  0  0  0
   40.3415   57.0321   38.8878 H   0  0  0  0  0  0
   42.7564   57.2849   39.1116 H   0  0  0  0  0  0
   44.2309   57.1279   37.1692 H   0  0  0  0  0  0
   43.3476   56.7043   34.9222 H   0  0  0  0  0  0
   38.5115   55.1404   30.8780 H   0  0  0  0  0  0
   39.1220   56.6981   31.3450 H   0  0  0  0  0  0
   40.9453   57.1485   32.6258 H   0  0  0  0  0  0
   42.1325   56.0313   33.2213 H   0  0  0  0  0  0
   33.5960   56.3879   37.5634 H   0  0  0  0  0  0
   33.9878   55.8615   35.9470 H   0  0  0  0  0  0
  1  6  1  0  0  0
  1  2  2  0  0  0
  1 29  1  0  0  0
  2  3  1  0  0  0
  2 30  1  0  0  0
  3  4  2  0  0  0
  3 31  1  0  0  0
  4 20  1  0  0  0
  4  5  1  0  0  0
  5  6  2  0  0  0
  5  7  1  0  0  0
  6 32  1  0  0  0
  7 19  2  0  0  0
  7  8  1  0  0  0
  8 27  1  0  0  0
  8  9  2  0  0  0
  9 10  1  0  0  0
  9 24  1  0  0  0
 10 18  2  0  0  0
 10 11  1  0  0  0
 11 16  2  0  0  0
 11 12  1  0  0  0
 12 13  2  0  0  0
 12 33  1  0  0  0
 13 14  1  0  0  0
 13 34  1  0  0  0
 14 15  2  0  0  0
 14 35  1  0  0  0
 15 16  1  0  0  0
 15 36  1  0  0  0
 16 17  1  0  0  0
 17 23  1  0  0  0
 17 18  1  0  0  0
 18 19  1  0  0  0
 19 20  1  0  0  0
 20 21  1  0  0  0
 21 22  1  0  0  0
 21 37  1  0  0  0
 21 38  1  0  0  0
 22 23  1  0  0  0
 23 39  1  0  0  0
 23 40  1  0  0  0
 24 25  2  0  0  0
 24 26  1  0  0  0
 26 27  2  0  0  0
 27 28  1  0  0  0
 28 41  1  0  0  0
 28 42  1  0  0  0
M  END
> <s_m_entry_id>
4345

> <s_m_entry_name>
ligand_docking-pose.115

> <s_m_Source_Path>
/home/csk/Desktop/cluster/DUD-E-result/kpcb

> <s_m_Source_File>
ligand_docking-pose.sdf

> <i_m_Source_File_Index>
115

> <i_lp_mmshare_version>
53161

> <r_lp_tautomer_probability>
1

> <s_lp_Force_Field>
OPLS_2005

> <r_lp_Energy>
97.76038

> <b_lp_Chiralities_Consistent>
1

> <s_lp_Variant>
35126-1

> <s_i_glide_gridfile>
glide-grid_2i0e

> <i_i_glide_lignum>
20

> <i_i_glide_rotatable_bonds>
0

> <r_i_docking_score>
-8.63461996837826

> <r_i_glide_ligand_efficiency>
-0.308379284584938

> <r_i_glide_ligand_efficiency_sa>
-0.936421133685413

> <r_i_glide_ligand_efficiency_ln>
-1.99312381216026

> <r_i_glide_gscore>
-8.63461996837826

> <r_i_glide_lipo>
-2.65414066181497

> <r_i_glide_hbond>
-0.32

> <r_i_glide_metal>
0

> <r_i_glide_rewards>
-2.68589723049059

> <r_i_glide_evdw>
-46.9722213745117

> <r_i_glide_ecoul>
-4.17314004898071

> <r_i_glide_erotb>
0

> <r_i_glide_esite>
0

> <r_i_glide_emodel>
-77.7241995690371

> <r_i_glide_energy>
-51.1453614234924

> <r_i_glide_einternal>
0

> <i_i_glide_confnum>
1

> <i_i_glide_posenum>
180

> <r_i_glide_eff_state_penalty>
0

> <i_f3d_flags>
0

> <s_user_duplicate_titles>
35126

> <s_m_subgroup_title>
dock_pv

> <s_m_subgroupid>
dock_pv1

> <b_m_subgroup_collapsed>
0

$$$$
35307
                    3D
 Schrodinger Suite 2021-1.
 42 48  0  0  1  0            999 V2000
   33.7752   55.5720   32.3594 C   0  0  0  0  0  0
   34.5200   55.4977   31.1910 C   0  0  0  0  0  0
   35.9102   55.5824   31.2062 C   0  0  0  0  0  0
   36.5351   55.7706   32.4479 C   0  0  0  0  0  0
   35.7905   55.8877   33.6630 C   0  0  0  0  0  0
   34.3870   55.7725   33.5930 C   0  0  0  0  0  0
   36.7149   56.1201   34.7172 C   0  0  0  0  0  0
   36.6437   56.3340   36.1219 C   0  0  0  0  0  0
   37.7918   56.5958   36.8563 C   0  0  0  0  0  0
   39.0674   56.5992   36.2528 C   0  0  0  0  0  0
   40.4003   56.7613   36.6976 C   0  0  0  0  0  0
   40.9804   56.9723   37.9618 C   0  0  0  0  0  0
   42.3632   57.0872   38.0636 C   0  0  0  0  0  0
   43.1748   56.9890   36.9392 C   0  0  0  0  0  0
   42.6477   56.7725   35.6678 C   0  0  0  0  0  0
   41.2540   56.6546   35.5562 C   0  0  0  0  0  0
   40.4602   56.4350   34.4384 N   0  0  0  0  0  0
   39.1419   56.3791   34.8630 C   0  0  0  0  0  0
   37.9900   56.1425   34.1084 C   0  0  0  0  0  0
   37.8843   55.8769   32.7518 N   0  0  0  0  0  0
   38.9730   55.7773   31.8045 C   0  0  0  0  0  0
   40.2309   55.3921   32.2560 O   0  0  0  0  0  0
   40.9089   56.2876   33.0742 C   0  0  0  0  0  0
   37.3534   56.8461   38.2606 C   0  0  0  0  0  0
   38.0432   57.1713   39.2266 O   0  0  0  0  0  0
   35.9918   56.6662   38.3090 N   0  0  0  0  0  0
   35.6042   56.3724   37.1368 C   0  0  0  0  0  0
   34.3009   56.1111   36.8394 N   0  0  0  0  0  0
   32.7012   55.4989   32.3023 H   0  0  0  0  0  0
   34.0104   55.3577   30.2494 H   0  0  0  0  0  0
   36.4694   55.5010   30.2854 H   0  0  0  0  0  0
   33.7544   55.8576   34.4567 H   0  0  0  0  0  0
   40.3858   57.0431   38.8577 H   0  0  0  0  0  0
   42.8141   57.2545   39.0307 H   0  0  0  0  0  0
   44.2462   57.0852   37.0536 H   0  0  0  0  0  0
   43.3025   56.7027   34.8134 H   0  0  0  0  0  0
   38.6791   55.0311   31.0632 H   0  0  0  0  0  0
   39.0291   56.7319   31.2768 H   0  0  0  0  0  0
   40.9158   57.2866   32.6295 H   0  0  0  0  0  0
   41.9442   55.9461   33.1064 H   0  0  0  0  0  0
   33.6049   56.2141   37.5660 H   0  0  0  0  0  0
   34.0285   55.7729   35.9305 H   0  0  0  0  0  0
  1  6  1  0  0  0
  1  2  2  0  0  0
  1 29  1  0  0  0
  2  3  1  0  0  0
  2 30  1  0  0  0
  3  4  2  0  0  0
  3 31  1  0  0  0
  4 20  1  0  0  0
  4  5  1  0  0  0
  5  6  2  0  0  0
  5  7  1  0  0  0
  6 32  1  0  0  0
  7 19  2  0  0  0
  7  8  1  0  0  0
  8 27  1  0  0  0
  8  9  2  0  0  0
  9 10  1  0  0  0
  9 24  1  0  0  0
 10 18  2  0  0  0
 10 11  1  0  0  0
 11 16  2  0  0  0
 11 12  1  0  0  0
 12 13  2  0  0  0
 12 33  1  0  0  0
 13 14  1  0  0  0
 13 34  1  0  0  0
 14 15  2  0  0  0
 14 35  1  0  0  0
 15 16  1  0  0  0
 15 36  1  0  0  0
 16 17  1  0  0  0
 17 23  1  0  0  0
 17 18  1  0  0  0
 18 19  1  0  0  0
 19 20  1  0  0  0
 20 21  1  0  0  0
 21 22  1  0  0  0
 21 37  1  0  0  0
 21 38  1  0  0  0
 22 23  1  0  0  0
 23 39  1  0  0  0
 23 40  1  0  0  0
 24 25  2  0  0  0
 24 26  1  0  0  0
 26 27  2  0  0  0
 27 28  1  0  0  0
 28 41  1  0  0  0
 28 42  1  0  0  0
M  END
> <s_m_entry_id>
4346

> <s_m_entry_name>
ligand_docking-pose.116

> <s_m_Source_Path>
/home/csk/Desktop/cluster/DUD-E-result/kpcb

> <s_m_Source_File>
ligand_docking-pose.sdf

> <i_m_Source_File_Index>
116

> <i_lp_mmshare_version>
53161

> <r_lp_tautomer_probability>
1

> <s_lp_Force_Field>
OPLS_2005

> <r_lp_Energy>
81.343312

> <b_lp_Chiralities_Consistent>
1

> <s_lp_Variant>
35307-1

> <s_i_glide_gridfile>
glide-grid_2i0e

> <i_i_glide_lignum>
17

> <i_i_glide_rotatable_bonds>
0

> <r_i_docking_score>
-8.63365641911217

> <r_i_glide_ligand_efficiency>
-0.308344872111149

> <r_i_glide_ligand_efficiency_sa>
-0.936316637147127

> <r_i_glide_ligand_efficiency_ln>
-1.99290139669861

> <r_i_glide_gscore>
-8.63365641911217

> <r_i_glide_lipo>
-2.40144814093035

> <r_i_glide_hbond>
-0.316498680996496

> <r_i_glide_metal>
0

> <r_i_glide_rewards>
-3.14479132325954

> <r_i_glide_evdw>
-45.6623344421387

> <r_i_glide_ecoul>
-3.25201034545898

> <r_i_glide_erotb>
0

> <r_i_glide_esite>
0

> <r_i_glide_emodel>
-73.9933981480093

> <r_i_glide_energy>
-48.9143447875977

> <r_i_glide_einternal>
0

> <i_i_glide_confnum>
1

> <i_i_glide_posenum>
173

> <r_i_glide_eff_state_penalty>
0

> <i_f3d_flags>
0

> <s_user_duplicate_titles>
35307

> <s_m_subgroup_title>
dock_pv

> <s_m_subgroupid>
dock_pv1

> <b_m_subgroup_collapsed>
0

$$$$
35137
                    3D
 Schrodinger Suite 2021-1.
 43 49  0  0  1  0            999 V2000
   41.1433   56.0551   39.5375 C   0  0  0  0  0  0
   42.1927   55.5227   38.7980 C   0  0  0  0  0  0
   42.0537   55.1972   37.4486 C   0  0  0  0  0  0
   40.8083   55.4449   36.8493 C   0  0  0  0  0  0
   39.7096   55.9738   37.5990 C   0  0  0  0  0  0
   39.8962   56.2806   38.9593 C   0  0  0  0  0  0
   38.5859   56.0049   36.7436 C   0  0  0  0  0  0
   37.2013   56.2466   36.8853 C   0  0  0  0  0  0
   36.3447   56.1505   35.7998 C   0  0  0  0  0  0
   36.8420   55.9153   34.5000 C   0  0  0  0  0  0
   36.2923   55.7950   33.2013 C   0  0  0  0  0  0
   34.9770   55.8022   32.7032 C   0  0  0  0  0  0
   34.7708   55.6933   31.3294 C   0  0  0  0  0  0
   35.8416   55.5730   30.4514 C   0  0  0  0  0  0
   37.1628   55.5726   30.8985 C   0  0  0  0  0  0
   37.3800   55.6801   32.2803 C   0  0  0  0  0  0
   38.5619   55.7691   33.0072 N   0  0  0  0  0  0
   38.2318   55.7429   34.3485 C   0  0  0  0  0  0
   39.0685   55.6838   35.4607 C   0  0  0  0  0  0
   40.3577   55.1940   35.5573 N   0  0  0  0  0  0
   41.0097   54.3227   34.5787 C   0  0  0  0  0  0
   41.3302   55.0469   32.8784 S   0  0  0  0  0  0
   42.5010   55.9244   32.9855 O   0  0  0  0  0  0
   41.3282   53.9428   31.9155 O   0  0  0  0  0  0
   39.8636   56.1379   32.4609 C   0  0  0  0  0  0
   34.9644   56.3687   36.3101 C   0  0  0  0  0  0
   33.9014   56.3667   35.6959 O   0  0  0  0  0  0
   35.1004   56.5901   37.6279 N   0  0  0  0  0  0
   36.3646   56.5699   38.0754 C   0  0  0  0  0  0
   36.7033   56.7727   39.2367 O   0  0  0  0  0  0
   41.2932   56.2844   40.5831 H   0  0  0  0  0  0
   43.1401   55.3407   39.2847 H   0  0  0  0  0  0
   42.8836   54.7705   36.9041 H   0  0  0  0  0  0
   39.0963   56.6714   39.5684 H   0  0  0  0  0  0
   34.1271   55.8938   33.3568 H   0  0  0  0  0  0
   33.7625   55.7012   30.9388 H   0  0  0  0  0  0
   35.6433   55.4756   29.3909 H   0  0  0  0  0  0
   37.9771   55.4683   30.1969 H   0  0  0  0  0  0
   41.9638   53.9591   34.9555 H   0  0  0  0  0  0
   40.3743   53.4489   34.4316 H   0  0  0  0  0  0
   39.8198   56.1918   31.3742 H   0  0  0  0  0  0
   40.1044   57.1325   32.8301 H   0  0  0  0  0  0
   34.2975   56.7745   38.2201 H   0  0  0  0  0  0
  1  6  1  0  0  0
  1  2  2  0  0  0
  1 31  1  0  0  0
  2  3  1  0  0  0
  2 32  1  0  0  0
  3  4  2  0  0  0
  3 33  1  0  0  0
  4 20  1  0  0  0
  4  5  1  0  0  0
  5  6  2  0  0  0
  5  7  1  0  0  0
  6 34  1  0  0  0
  7 19  2  0  0  0
  7  8  1  0  0  0
  8 29  1  0  0  0
  8  9  2  0  0  0
  9 10  1  0  0  0
  9 26  1  0  0  0
 10 18  2  0  0  0
 10 11  1  0  0  0
 11 16  2  0  0  0
 11 12  1  0  0  0
 12 13  2  0  0  0
 12 35  1  0  0  0
 13 14  1  0  0  0
 13 36  1  0  0  0
 14 15  2  0  0  0
 14 37  1  0  0  0
 15 16  1  0  0  0
 15 38  1  0  0  0
 16 17  1  0  0  0
 17 25  1  0  0  0
 17 18  1  0  0  0
 18 19  1  0  0  0
 19 20  1  0  0  0
 20 21  1  0  0  0
 21 22  1  0  0  0
 21 39  1  0  0  0
 21 40  1  0  0  0
 22 23  2  0  0  0
 22 24  2  0  0  0
 22 25  1  0  0  0
 25 41  1  0  0  0
 25 42  1  0  0  0
 26 27  2  0  0  0
 26 28  1  0  0  0
 28 29  1  0  0  0
 28 43  1  0  0  0
 29 30  2  0  0  0
M  END
> <s_m_entry_id>
4348

> <s_m_entry_name>
ligand_docking-pose.118

> <s_m_Source_Path>
/home/csk/Desktop/cluster/DUD-E-result/kpcb

> <s_m_Source_File>
ligand_docking-pose.sdf

> <i_m_Source_File_Index>
118

> <i_lp_mmshare_version>
53161

> <r_lp_tautomer_probability>
1

> <s_lp_Force_Field>
OPLS_2005

> <r_lp_Energy>
108.535096

> <b_lp_Chiralities_Consistent>
1

> <s_lp_Variant>
35137-1

> <s_i_glide_gridfile>
glide-grid_2i0e

> <i_i_glide_lignum>
24

> <i_i_glide_rotatable_bonds>
0

> <r_i_docking_score>
-8.59427768657863

> <r_i_glide_ligand_efficiency>
-0.286475922885954

> <r_i_glide_ligand_efficiency_sa>
-0.89014729875518

> <r_i_glide_ligand_efficiency_ln>
-1.95271353254621

> <r_i_glide_gscore>
-8.59427768657863

> <r_i_glide_lipo>
-2.347370568702

> <r_i_glide_hbond>
-0.608

> <r_i_glide_metal>
0

> <r_i_glide_rewards>
-2.52204413341444

> <r_i_glide_evdw>
-46.5118408203125

> <r_i_glide_ecoul>
-5.05066061019897

> <r_i_glide_erotb>
0

> <r_i_glide_esite>
-0.0336718519167127

> <r_i_glide_emodel>
-78.5852638845146

> <r_i_glide_energy>
-51.5625014305115

> <r_i_glide_einternal>
0

> <i_i_glide_confnum>
1

> <i_i_glide_posenum>
6

> <r_i_glide_eff_state_penalty>
0

> <i_f3d_flags>
0

> <s_user_duplicate_titles>
35137

> <s_m_subgroup_title>
dock_pv

> <s_m_subgroupid>
dock_pv1

> <b_m_subgroup_collapsed>
0

$$$$
322418
                    3D
 Schrodinger Suite 2021-1.
 61 67  0  0  1  0            999 V2000
   44.2341   53.5806   34.5783 C   0  0  0  0  0  0
   43.8971   55.0496   34.9569 C   0  0  0  0  0  0
   43.5483   56.0914   33.8199 C   0  0  2  0  0  0
   42.2019   56.7003   34.2651 C   0  0  0  0  0  0
   41.6082   55.5613   35.0727 C   0  0  1  0  0  0
   42.6940   54.9702   35.7163 O   0  0  0  0  0  0
   40.5806   55.9510   36.0273 N   0  0  0  0  0  0
   40.7864   56.3114   37.3609 C   0  0  0  0  0  0
   41.9725   56.4531   38.1036 C   0  0  0  0  0  0
   41.8683   56.7717   39.4539 C   0  0  0  0  0  0
   40.6365   56.9533   40.0644 C   0  0  0  0  0  0
   39.4563   56.8340   39.3403 C   0  0  0  0  0  0
   39.5121   56.5128   37.9698 C   0  0  0  0  0  0
   38.5247   56.3287   36.9760 C   0  0  0  0  0  0
   39.2147   56.0497   35.7725 C   0  0  0  0  0  0
   38.4973   55.9089   34.5743 C   0  0  0  0  0  0
   37.0928   56.0059   34.5577 C   0  0  0  0  0  0
   36.6770   55.8760   33.2239 C   0  0  0  0  0  0
   35.4114   55.9098   32.6114 C   0  0  0  0  0  0
   35.3338   55.7548   31.2314 C   0  0  0  0  0  0
   36.4824   55.5721   30.4681 C   0  0  0  0  0  0
   37.7579   55.5357   31.0415 C   0  0  0  0  0  0
   37.8420   55.6866   32.4290 C   0  0  0  0  0  0
   38.9352   55.6887   33.2820 N   0  0  0  0  0  0
   36.4106   56.2017   35.7617 C   0  0  0  0  0  0
   37.1110   56.3672   36.9494 C   0  0  0  0  0  0
   36.1159   56.5703   38.0439 C   0  0  0  0  0  0
   36.3011   56.7720   39.2361 O   0  0  0  0  0  0
   34.9185   56.4978   37.4517 N   0  0  0  0  0  0
   34.9368   56.2819   36.0204 C   0  0  0  0  0  0
   43.4337   55.4069   32.4132 C   0  0  0  0  0  0
   44.2785   55.5715   31.5243 O   0  0  0  0  0  0
   42.3403   54.6134   32.2853 O   0  0  0  0  0  0
   42.1645   53.7841   31.1452 C   0  0  0  0  0  0
   44.4758   57.1720   33.6789 O   0  0  0  0  0  0
   44.9545   55.5648   35.9599 C   0  0  0  0  0  0
   41.1504   54.8045   34.4366 H   0  0  0  0  0  0
   39.8951   55.5607   32.9963 H   0  0  0  0  0  0
   45.1100   53.5175   33.9300 H   0  0  0  0  0  0
   44.4443   52.9796   35.4647 H   0  0  0  0  0  0
   43.4106   53.0782   34.0699 H   0  0  0  0  0  0
   42.3388   57.5556   34.9295 H   0  0  0  0  0  0
   41.5371   57.0012   33.4530 H   0  0  0  0  0  0
   42.9467   56.3064   37.6703 H   0  0  0  0  0  0
   42.7685   56.8693   40.0428 H   0  0  0  0  0  0
   40.5916   57.1876   41.1179 H   0  0  0  0  0  0
   38.5261   56.9835   39.8607 H   0  0  0  0  0  0
   34.5122   56.0517   33.1913 H   0  0  0  0  0  0
   34.3703   55.7715   30.7420 H   0  0  0  0  0  0
   36.3727   55.4275   29.4031 H   0  0  0  0  0  0
   38.6362   55.3760   30.4315 H   0  0  0  0  0  0
   34.0602   56.6682   37.9666 H   0  0  0  0  0  0
   34.4535   57.1123   35.5000 H   0  0  0  0  0  0
   34.4070   55.3610   35.7672 H   0  0  0  0  0  0
   41.3229   53.1088   31.3025 H   0  0  0  0  0  0
   43.0491   53.1714   30.9652 H   0  0  0  0  0  0
   41.9634   54.3716   30.2507 H   0  0  0  0  0  0
   44.4135   57.7449   34.4502 H   0  0  0  0  0  0
   45.9449   55.5874   35.5041 H   0  0  0  0  0  0
   44.7291   56.5721   36.3080 H   0  0  0  0  0  0
   45.0150   54.9219   36.8401 H   0  0  0  0  0  0
  1  2  1  0  0  0
  1 39  1  0  0  0
  1 40  1  0  0  0
  1 41  1  0  0  0
  2  6  1  0  0  0
  2  3  1  0  0  0
  2 36  1  0  0  0
  3  4  1  0  0  0
  3 31  1  0  0  0
  3 35  1  0  0  0
  4  5  1  0  0  0
  4 42  1  0  0  0
  4 43  1  0  0  0
  5 37  1  0  0  0
  5  6  1  0  0  0
  5  7  1  0  0  0
  7 15  1  0  0  0
  7  8  1  0  0  0
  8 13  2  0  0  0
  8  9  1  0  0  0
  9 10  2  0  0  0
  9 44  1  0  0  0
 10 11  1  0  0  0
 10 45  1  0  0  0
 11 12  2  0  0  0
 11 46  1  0  0  0
 12 13  1  0  0  0
 12 47  1  0  0  0
 13 14  1  0  0  0
 14 26  2  0  0  0
 14 15  1  0  0  0
 15 16  2  0  0  0
 16 24  1  0  0  0
 16 17  1  0  0  0
 17 18  1  0  0  0
 17 25  2  0  0  0
 18 23  2  0  0  0
 18 19  1  0  0  0
 19 20  2  0  0  0
 19 48  1  0  0  0
 20 21  1  0  0  0
 20 49  1  0  0  0
 21 22  2  0  0  0
 21 50  1  0  0  0
 22 23  1  0  0  0
 22 51  1  0  0  0
 23 24  1  0  0  0
 24 38  1  0  0  0
 25 30  1  0  0  0
 25 26  1  0  0  0
 26 27  1  0  0  0
 27 28  2  0  0  0
 27 29  1  0  0  0
 29 30  1  0  0  0
 29 52  1  0  0  0
 30 53  1  0  0  0
 30 54  1  0  0  0
 31 32  2  0  0  0
 31 33  1  0  0  0
 33 34  1  0  0  0
 34 55  1  0  0  0
 34 56  1  0  0  0
 34 57  1  0  0  0
 35 58  1  0  0  0
 36 59  1  0  0  0
 36 60  1  0  0  0
 36 61  1  0  0  0
M  END
> <s_m_entry_id>
4349

> <s_m_entry_name>
ligand_docking-pose.119

> <s_m_Source_Path>
/home/csk/Desktop/cluster/DUD-E-result/kpcb

> <s_m_Source_File>
ligand_docking-pose.sdf

> <i_m_Source_File_Index>
119

> <i_lp_mmshare_version>
53161

> <r_lp_tautomer_probability>
1

> <s_lp_Force_Field>
OPLS_2005

> <r_lp_Energy>
106.207098

> <b_lp_Chiralities_Consistent>
1

> <s_lp_Variant>
322418-1

> <s_i_glide_gridfile>
glide-grid_2i0e

> <i_i_glide_lignum>
328

> <i_i_glide_rotatable_bonds>
4

> <r_i_docking_score>
-8.58791830914274

> <r_i_glide_ligand_efficiency>
-0.238553286365076

> <r_i_glide_ligand_efficiency_sa>
-0.787685595621313

> <r_i_glide_ligand_efficiency_ln>
-1.8736517563153

> <r_i_glide_gscore>
-8.58791830914274

> <r_i_glide_lipo>
-2.59078103116757

> <r_i_glide_hbond>
-0.592878372701101

> <r_i_glide_metal>
0

> <r_i_glide_rewards>
-1.53339787156738

> <r_i_glide_evdw>
-43.398509979248

> <r_i_glide_ecoul>
-11.9583396911621

> <r_i_glide_erotb>
0.121571511203086

> <r_i_glide_esite>
-0.0287560922730649

> <r_i_glide_emodel>
-83.7951219344667

> <r_i_glide_energy>
-55.3568496704102

> <r_i_glide_einternal>
0.646527171134949

> <i_i_glide_confnum>
1

> <i_i_glide_posenum>
302

> <r_i_glide_eff_state_penalty>
0

> <i_f3d_flags>
0

> <s_user_duplicate_titles>
322418

> <s_m_subgroup_title>
dock_pv

> <s_m_subgroupid>
dock_pv1

> <b_m_subgroup_collapsed>
0

$$$$
233
                    3D
 Schrodinger Suite 2021-1.
 57 61  0  0  1  0            999 V2000
   40.8732   53.1001   34.9780 C   0  0  0  0  0  0
   40.1995   54.1423   35.7399 N   0  0  0  0  0  0
   38.8693   54.4664   35.6374 C   0  0  0  0  0  0
   38.5316   55.4850   36.5145 C   0  0  0  0  0  0
   39.7548   55.8232   37.2042 C   0  0  0  0  0  0
   40.7789   54.9519   36.7011 C   0  0  0  0  0  0
   42.0942   54.9894   37.1832 C   0  0  0  0  0  0
   42.3782   55.9119   38.1879 C   0  0  0  0  0  0
   41.4077   56.7717   38.6906 C   0  0  0  0  0  0
   40.1019   56.7496   38.2042 C   0  0  0  0  0  0
   37.1578   55.9810   36.6860 C   0  0  0  0  0  0
   36.2206   56.1931   35.7436 C   0  0  0  0  0  0
   35.0028   56.5362   36.4127 C   0  0  0  0  0  0
   33.9010   56.7720   35.9415 O   0  0  0  0  0  0
   35.3044   56.5865   37.7077 N   0  0  0  0  0  0
   36.5870   56.3291   37.9646 C   0  0  0  0  0  0
   37.1000   56.3719   39.0796 O   0  0  0  0  0  0
   36.3151   56.1022   34.2799 C   0  0  0  0  0  0
   37.4812   56.3720   33.5943 C   0  0  0  0  0  0
   37.2868   56.2761   32.2437 N   0  0  0  0  0  0
   35.9736   55.9275   31.9965 C   0  0  0  0  0  0
   35.3333   55.7656   33.2652 C   0  0  0  0  0  0
   33.9892   55.3432   33.2674 C   0  0  0  0  0  0
   33.3276   55.1379   32.0574 C   0  0  0  0  0  0
   33.9682   55.3477   30.8473 C   0  0  0  0  0  0
   35.3039   55.7287   30.7815 C   0  0  0  0  0  0
   38.3173   56.4356   31.2377 C   0  0  0  0  0  0
   38.7341   55.0646   30.6843 C   0  0  0  0  0  0
   39.9330   54.3961   31.3598 C   0  0  0  0  0  0
   40.4242   53.2187   30.4985 C   0  0  0  0  0  0
   41.7003   52.5731   31.0250 C   0  0  0  0  0  0
   42.3010   51.7645   30.0370 O   0  0  0  0  0  0
   41.6681   53.5435   34.3765 H   0  0  0  0  0  0
   41.3112   52.3740   35.6650 H   0  0  0  0  0  0
   40.1709   52.5842   34.3213 H   0  0  0  0  0  0
   38.2430   53.9156   34.9498 H   0  0  0  0  0  0
   42.8593   54.3212   36.8125 H   0  0  0  0  0  0
   43.3797   55.9535   38.5914 H   0  0  0  0  0  0
   41.6745   57.4613   39.4784 H   0  0  0  0  0  0
   39.3646   57.4228   38.6138 H   0  0  0  0  0  0
   34.6169   56.8248   38.4089 H   0  0  0  0  0  0
   38.4566   56.6488   33.9688 H   0  0  0  0  0  0
   33.4665   55.1758   34.1945 H   0  0  0  0  0  0
   32.3010   54.8081   32.0370 H   0  0  0  0  0  0
   33.4229   55.1720   29.9331 H   0  0  0  0  0  0
   35.7964   55.8471   29.8275 H   0  0  0  0  0  0
   39.1666   56.9887   31.6414 H   0  0  0  0  0  0
   37.9012   57.0603   30.4462 H   0  0  0  0  0  0
   38.9647   55.1720   29.6370 H   0  0  0  0  0  0
   37.9009   54.3734   30.6904 H   0  0  0  0  0  0
   39.6644   54.0589   32.3615 H   0  0  0  0  0  0
   40.7395   55.1223   31.4750 H   0  0  0  0  0  0
   40.6063   53.5709   29.4818 H   0  0  0  0  0  0
   39.6426   52.4606   30.4198 H   0  0  0  0  0  0
   41.5011   52.0106   31.9390 H   0  0  0  0  0  0
   42.4236   53.3394   31.3072 H   0  0  0  0  0  0
   43.0432   51.3509   30.5097 H   0  0  0  0  0  0
  1  2  1  0  0  0
  1 33  1  0  0  0
  1 34  1  0  0  0
  1 35  1  0  0  0
  2  6  1  0  0  0
  2  3  1  0  0  0
  3  4  2  0  0  0
  3 36  1  0  0  0
  4  5  1  0  0  0
  4 11  1  0  0  0
  5 10  2  0  0  0
  5  6  1  0  0  0
  6  7  2  0  0  0
  7  8  1  0  0  0
  7 37  1  0  0  0
  8  9  2  0  0  0
  8 38  1  0  0  0
  9 10  1  0  0  0
  9 39  1  0  0  0
 10 40  1  0  0  0
 11 16  1  0  0  0
 11 12  2  0  0  0
 12 13  1  0  0  0
 12 18  1  0  0  0
 13 14  2  0  0  0
 13 15  1  0  0  0
 15 16  1  0  0  0
 15 41  1  0  0  0
 16 17  2  0  0  0
 18 22  1  0  0  0
 18 19  2  0  0  0
 19 20  1  0  0  0
 19 42  1  0  0  0
 20 21  1  0  0  0
 20 27  1  0  0  0
 21 26  1  0  0  0
 21 22  2  0  0  0
 22 23  1  0  0  0
 23 24  2  0  0  0
 23 43  1  0  0  0
 24 25  1  0  0  0
 24 44  1  0  0  0
 25 26  2  0  0  0
 25 45  1  0  0  0
 26 46  1  0  0  0
 27 28  1  0  0  0
 27 47  1  0  0  0
 27 48  1  0  0  0
 28 29  1  0  0  0
 28 49  1  0  0  0
 28 50  1  0  0  0
 29 30  1  0  0  0
 29 51  1  0  0  0
 29 52  1  0  0  0
 30 31  1  0  0  0
 30 53  1  0  0  0
 30 54  1  0  0  0
 31 32  1  0  0  0
 31 55  1  0  0  0
 31 56  1  0  0  0
 32 57  1  0  0  0
M  END
> <s_m_entry_id>
4352

> <s_m_entry_name>
ligand_docking-pose.122

> <s_m_Source_Path>
/home/csk/Desktop/cluster/DUD-E-result/kpcb

> <s_m_Source_File>
ligand_docking-pose.sdf

> <i_m_Source_File_Index>
122

> <i_lp_mmshare_version>
53161

> <r_lp_tautomer_probability>
1

> <s_lp_Force_Field>
OPLS_2005

> <r_lp_Energy>
23.773362

> <b_lp_Chiralities_Consistent>
1

> <s_lp_Variant>
233-1

> <s_i_glide_gridfile>
glide-grid_2i0e

> <i_i_glide_lignum>
465

> <i_i_glide_rotatable_bonds>
8

> <r_i_docking_score>
-8.49454704034252

> <r_i_glide_ligand_efficiency>
-0.265454595010704

> <r_i_glide_ligand_efficiency_sa>
-0.842765805765966

> <r_i_glide_ligand_efficiency_ln>
-1.9021606349397

> <r_i_glide_gscore>
-8.49454704034252

> <r_i_glide_lipo>
-2.52262474657266

> <r_i_glide_hbond>
-0.607637890096763

> <r_i_glide_metal>
0

> <r_i_glide_rewards>
-2.45670112494185

> <r_i_glide_evdw>
-44.8510894775391

> <r_i_glide_ecoul>
-7.98265218734741

> <r_i_glide_erotb>
0.532369023247811

> <r_i_glide_esite>
0

> <r_i_glide_emodel>
-74.4605823357097

> <r_i_glide_energy>
-52.8337416648865

> <r_i_glide_einternal>
11.0900278091431

> <i_i_glide_confnum>
15

> <i_i_glide_posenum>
201

> <r_i_glide_eff_state_penalty>
0

> <i_f3d_flags>
0

> <s_user_duplicate_titles>
233

> <s_m_subgroup_title>
dock_pv

> <s_m_subgroupid>
dock_pv1

> <b_m_subgroup_collapsed>
0

$$$$
52975
                    3D
 Schrodinger Suite 2021-1.
 66 73  0  0  1  0            999 V2000
   43.2236   54.9902   44.4654 C   0  0  0  0  0  0
   42.3357   55.9251   43.6359 C   0  0  0  0  0  0
   41.6607   55.1809   42.1213 S   0  0  0  0  0  0
   41.2246   56.6883   41.2026 C   0  0  0  0  0  0
   41.0810   56.4121   39.7147 C   0  0  0  0  0  0
   42.2200   56.2080   38.9380 C   0  0  0  0  0  0
   42.1520   55.9450   37.5712 C   0  0  0  0  0  0
   40.8821   55.8866   36.9705 C   0  0  0  0  0  0
   39.7116   56.1411   37.7491 C   0  0  0  0  0  0
   39.8182   56.3844   39.1279 C   0  0  0  0  0  0
   38.6104   56.0994   36.8901 C   0  0  0  0  0  0
   37.2294   56.2735   37.0658 C   0  0  0  0  0  0
   36.3577   56.1903   35.9842 C   0  0  0  0  0  0
   36.8477   55.9710   34.6809 C   0  0  0  0  0  0
   36.2963   55.8848   33.3782 C   0  0  0  0  0  0
   34.9884   55.9902   32.8689 C   0  0  0  0  0  0
   34.7819   55.8800   31.4962 C   0  0  0  0  0  0
   35.8455   55.6761   30.6253 C   0  0  0  0  0  0
   37.1587   55.5696   31.0825 C   0  0  0  0  0  0
   37.3742   55.6547   32.4650 C   0  0  0  0  0  0
   38.5481   55.5597   33.2024 N   0  0  0  0  0  0
   38.2348   55.7817   34.5259 C   0  0  0  0  0  0
   39.1095   55.8225   35.6114 C   0  0  0  0  0  0
   40.4831   55.5911   35.6550 N   0  0  0  0  0  0
   41.3317   55.1651   34.5107 C   0  0  2  0  0  0
   41.8911   56.3543   33.6566 C   0  0  2  0  0  0
   40.7341   56.6116   32.6654 C   0  0  0  0  0  0
   39.8914   55.3433   32.7207 C   0  0  1  0  0  0
   40.5552   54.4640   33.5769 O   0  0  0  0  0  0
   43.1954   56.0025   32.8615 C   0  0  0  0  0  0
   44.2380   56.6529   32.9870 O   0  0  0  0  0  0
   43.0487   54.9272   32.0491 O   0  0  0  0  0  0
   44.1538   54.3945   31.3380 C   0  0  0  0  0  0
   42.1493   57.5340   34.4243 O   0  0  0  0  0  0
   42.3521   54.1056   34.9966 C   0  0  0  0  0  0
   34.9625   56.3719   36.4907 C   0  0  0  0  0  0
   33.9011   56.3695   35.8790 O   0  0  0  0  0  0
   35.1011   56.5607   37.8105 N   0  0  0  0  0  0
   36.4582   56.5432   38.3161 C   0  0  0  0  0  0
   39.7992   54.8753   31.7393 H   0  0  0  0  0  0
   43.6120   55.5030   45.3463 H   0  0  0  0  0  0
   42.6797   54.1135   44.8158 H   0  0  0  0  0  0
   44.0755   54.6408   43.8836 H   0  0  0  0  0  0
   42.9127   56.8098   43.3670 H   0  0  0  0  0  0
   41.5016   56.2818   44.2396 H   0  0  0  0  0  0
   41.9963   57.4454   41.3411 H   0  0  0  0  0  0
   40.3045   57.1013   41.6186 H   0  0  0  0  0  0
   43.1926   56.2448   39.4083 H   0  0  0  0  0  0
   43.0675   55.8023   37.0221 H   0  0  0  0  0  0
   38.9383   56.5572   39.7306 H   0  0  0  0  0  0
   34.1430   56.1576   33.5168 H   0  0  0  0  0  0
   33.7790   55.9588   31.1009 H   0  0  0  0  0  0
   35.6473   55.5891   29.5658 H   0  0  0  0  0  0
   37.9671   55.3953   30.3871 H   0  0  0  0  0  0
   40.1332   57.4763   32.9537 H   0  0  0  0  0  0
   41.0508   56.7714   31.6370 H   0  0  0  0  0  0
   43.8291   53.5473   30.7331 H   0  0  0  0  0  0
   44.9253   54.0400   32.0250 H   0  0  0  0  0  0
   44.5957   55.1407   30.6751 H   0  0  0  0  0  0
   43.0541   57.5013   34.7526 H   0  0  0  0  0  0
   43.2663   54.5648   35.3623 H   0  0  0  0  0  0
   41.9233   53.4725   35.7739 H   0  0  0  0  0  0
   42.6419   53.4424   34.1781 H   0  0  0  0  0  0
   34.2850   56.7608   38.3860 H   0  0  0  0  0  0
   36.7139   57.4983   38.7780 H   0  0  0  0  0  0
   36.5915   55.7598   39.0616 H   0  0  0  0  0  0
  1  2  1  0  0  0
  1 41  1  0  0  0
  1 42  1  0  0  0
  1 43  1  0  0  0
  2  3  1  0  0  0
  2 44  1  0  0  0
  2 45  1  0  0  0
  3  4  1  0  0  0
  4  5  1  0  0  0
  4 46  1  0  0  0
  4 47  1  0  0  0
  5 10  1  0  0  0
  5  6  2  0  0  0
  6  7  1  0  0  0
  6 48  1  0  0  0
  7  8  2  0  0  0
  7 49  1  0  0  0
  8 24  1  0  0  0
  8  9  1  0  0  0
  9 10  2  0  0  0
  9 11  1  0  0  0
 10 50  1  0  0  0
 11 23  2  0  0  0
 11 12  1  0  0  0
 12 39  1  0  0  0
 12 13  2  0  0  0
 13 14  1  0  0  0
 13 36  1  0  0  0
 14 22  2  0  0  0
 14 15  1  0  0  0
 15 20  2  0  0  0
 15 16  1  0  0  0
 16 17  2  0  0  0
 16 51  1  0  0  0
 17 18  1  0  0  0
 17 52  1  0  0  0
 18 19  2  0  0  0
 18 53  1  0  0  0
 19 20  1  0  0  0
 19 54  1  0  0  0
 20 21  1  0  0  0
 21 28  1  0  0  0
 21 22  1  0  0  0
 22 23  1  0  0  0
 23 24  1  0  0  0
 24 25  1  0  0  0
 25 29  1  0  0  0
 25 26  1  0  0  0
 25 35  1  0  0  0
 26 27  1  0  0  0
 26 30  1  0  0  0
 26 34  1  0  0  0
 27 28  1  0  0  0
 27 55  1  0  0  0
 27 56  1  0  0  0
 28 40  1  0  0  0
 28 29  1  0  0  0
 30 31  2  0  0  0
 30 32  1  0  0  0
 32 33  1  0  0  0
 33 57  1  0  0  0
 33 58  1  0  0  0
 33 59  1  0  0  0
 34 60  1  0  0  0
 35 61  1  0  0  0
 35 62  1  0  0  0
 35 63  1  0  0  0
 36 37  2  0  0  0
 36 38  1  0  0  0
 38 39  1  0  0  0
 38 64  1  0  0  0
 39 65  1  0  0  0
 39 66  1  0  0  0
M  END
> <s_m_entry_id>
4355

> <s_m_entry_name>
ligand_docking-pose.125

> <s_m_Source_Path>
/home/csk/Desktop/cluster/DUD-E-result/kpcb

> <s_m_Source_File>
ligand_docking-pose.sdf

> <i_m_Source_File_Index>
125

> <i_lp_mmshare_version>
53161

> <r_lp_tautomer_probability>
1

> <s_lp_Force_Field>
OPLS_2005

> <r_lp_Energy>
122.380169

> <b_lp_Chiralities_Consistent>
1

> <s_lp_Variant>
52975-1

> <s_i_glide_gridfile>
glide-grid_2i0e

> <i_i_glide_lignum>
395

> <i_i_glide_rotatable_bonds>
6

> <r_i_docking_score>
-8.44167064537538

> <r_i_glide_ligand_efficiency>
-0.216453093471164

> <r_i_glide_ligand_efficiency_sa>
-0.734038206558827

> <r_i_glide_ligand_efficiency_ln>
-1.81013381743999

> <r_i_glide_gscore>
-8.44167064537538

> <r_i_glide_lipo>
-3.30542552988822

> <r_i_glide_hbond>
-0.32

> <r_i_glide_metal>
0

> <r_i_glide_rewards>
-1.48640974487848

> <r_i_glide_evdw>
-53.0094947814941

> <r_i_glide_ecoul>
-5.84180498123169

> <r_i_glide_erotb>
0.211503228451195

> <r_i_glide_esite>
-0.0145931128004108

> <r_i_glide_emodel>
-86.6378364085192

> <r_i_glide_energy>
-58.8512997627258

> <r_i_glide_einternal>
2.64447140693665

> <i_i_glide_confnum>
4

> <i_i_glide_posenum>
47

> <r_i_glide_eff_state_penalty>
0

> <i_f3d_flags>
0

> <s_user_duplicate_titles>
52975

> <s_m_subgroup_title>
dock_pv

> <s_m_subgroupid>
dock_pv1

> <b_m_subgroup_collapsed>
0

$$$$
92693
                    3D
 Schrodinger Suite 2021-1.
 53 58  0  0  1  0            999 V2000
   40.8167   53.4619   34.9775 C   0  0  0  0  0  0
   40.1289   54.4409   35.8085 N   0  0  0  0  0  0
   40.6031   54.8244   37.0546 C   0  0  0  0  0  0
   41.8203   54.5411   37.6932 C   0  0  0  0  0  0
   42.0039   55.0412   38.9808 C   0  0  0  0  0  0
   41.0214   55.7886   39.6204 C   0  0  0  0  0  0
   39.8078   56.0616   38.9959 C   0  0  0  0  0  0
   39.5769   55.5739   37.6953 C   0  0  0  0  0  0
   38.4659   55.6171   36.8176 C   0  0  0  0  0  0
   38.9152   55.0944   35.5805 C   0  0  0  0  0  0
   38.1181   55.2505   34.4275 C   0  0  0  0  0  0
   36.7694   55.6493   34.5600 C   0  0  0  0  0  0
   36.1914   55.6244   33.2813 C   0  0  0  0  0  0
   34.8782   55.8233   32.8209 C   0  0  0  0  0  0
   34.6391   55.8132   31.4492 C   0  0  0  0  0  0
   35.6803   55.6384   30.5446 C   0  0  0  0  0  0
   36.9994   55.4725   30.9662 C   0  0  0  0  0  0
   37.2414   55.4196   32.3488 C   0  0  0  0  0  0
   38.4253   55.2272   33.0637 N   0  0  0  0  0  0
   39.7489   55.3110   32.4270 C   0  0  0  0  0  0
   40.2817   56.7718   32.3610 C   0  0  0  0  0  0
   40.8511   57.4556   33.6370 C   0  0  0  0  0  0
   41.9243   56.6860   34.1935 N   0  5  0  0  0  0
   43.1528   57.1720   33.6370 N   0  0  2  0  0  0
   43.9009   56.2074   32.8895 N   0  5  0  0  0  0
   36.2744   55.9926   35.8242 C   0  0  0  0  0  0
   37.1234   56.0494   36.9197 C   0  0  0  0  0  0
   36.3418   56.5721   38.0858 C   0  0  0  0  0  0
   36.7009   56.7810   39.2368 O   0  0  0  0  0  0
   35.1010   56.7692   37.6203 N   0  0  0  0  0  0
   34.9023   56.4482   36.2202 C   0  0  0  0  0  0
   41.1667   52.6401   35.6038 H   0  0  0  0  0  0
   40.1334   53.0368   34.2413 H   0  0  0  0  0  0
   41.6851   53.9202   34.5027 H   0  0  0  0  0  0
   42.5976   53.9631   37.2121 H   0  0  0  0  0  0
   42.9335   54.8416   39.4919 H   0  0  0  0  0  0
   41.1992   56.1556   40.6208 H   0  0  0  0  0  0
   39.0679   56.6373   39.5271 H   0  0  0  0  0  0
   34.0633   55.9866   33.5116 H   0  0  0  0  0  0
   33.6339   55.9563   31.0770 H   0  0  0  0  0  0
   35.4644   55.6411   29.4854 H   0  0  0  0  0  0
   37.7880   55.3321   30.2422 H   0  0  0  0  0  0
   40.4617   54.6499   32.8893 H   0  0  0  0  0  0
   39.6649   54.9143   31.4144 H   0  0  0  0  0  0
   41.0912   56.7705   31.6371 H   0  0  0  0  0  0
   39.5054   57.3986   31.9254 H   0  0  0  0  0  0
   41.1189   58.4904   33.3977 H   0  0  0  0  0  0
   40.0438   57.5609   34.3629 H   0  0  0  0  0  0
   43.7279   57.5366   34.3859 H   0  0  0  0  0  0
   43.7248   55.2550   33.2484 H   0  0  0  0  0  0
   34.3398   57.0921   38.2069 H   0  0  0  0  0  0
   34.1411   55.6744   36.1058 H   0  0  0  0  0  0
   34.5735   57.3335   35.6727 H   0  0  0  0  0  0
  1  2  1  0  0  0
  1 32  1  0  0  0
  1 33  1  0  0  0
  1 34  1  0  0  0
  2 10  1  0  0  0
  2  3  1  0  0  0
  3  8  2  0  0  0
  3  4  1  0  0  0
  4  5  2  0  0  0
  4 35  1  0  0  0
  5  6  1  0  0  0
  5 36  1  0  0  0
  6  7  2  0  0  0
  6 37  1  0  0  0
  7  8  1  0  0  0
  7 38  1  0  0  0
  8  9  1  0  0  0
  9 27  2  0  0  0
  9 10  1  0  0  0
 10 11  2  0  0  0
 11 19  1  0  0  0
 11 12  1  0  0  0
 12 13  1  0  0  0
 12 26  2  0  0  0
 13 18  2  0  0  0
 13 14  1  0  0  0
 14 15  2  0  0  0
 14 39  1  0  0  0
 15 16  1  0  0  0
 15 40  1  0  0  0
 16 17  2  0  0  0
 16 41  1  0  0  0
 17 18  1  0  0  0
 17 42  1  0  0  0
 18 19  1  0  0  0
 19 20  1  0  0  0
 20 21  1  0  0  0
 20 43  1  0  0  0
 20 44  1  0  0  0
 21 22  1  0  0  0
 21 45  1  0  0  0
 21 46  1  0  0  0
 22 23  1  0  0  0
 22 47  1  0  0  0
 22 48  1  0  0  0
 23 24  1  0  0  0
 24 25  1  0  0  0
 24 49  1  0  0  0
 25 50  1  0  0  0
 26 31  1  0  0  0
 26 27  1  0  0  0
 27 28  1  0  0  0
 28 29  2  0  0  0
 28 30  1  0  0  0
 30 31  1  0  0  0
 30 51  1  0  0  0
 31 52  1  0  0  0
 31 53  1  0  0  0
M  CHG  2  23  -1  25  -1
M  END
> <s_m_entry_id>
4362

> <s_m_entry_name>
ligand_docking-pose.132

> <s_m_Source_Path>
/home/csk/Desktop/cluster/DUD-E-result/kpcb

> <s_m_Source_File>
ligand_docking-pose.sdf

> <i_m_Source_File_Index>
132

> <i_lp_mmshare_version>
53161

> <r_lp_tautomer_probability>
1

> <s_lp_Force_Field>
OPLS_2005

> <r_lp_Energy>
94.715565

> <b_lp_Chiralities_Consistent>
1

> <s_lp_Variant>
92693-1

> <s_i_glide_gridfile>
glide-grid_2i0e

> <i_i_glide_lignum>
412

> <i_i_glide_rotatable_bonds>
5

> <r_i_docking_score>
-8.20432415049468

> <r_i_glide_ligand_efficiency>
-0.264655617757893

> <r_i_glide_ligand_efficiency_sa>
-0.831384036219683

> <r_i_glide_ligand_efficiency_ln>
-1.85032652827588

> <r_i_glide_gscore>
-8.20432415049468

> <r_i_glide_lipo>
-2.95786973444597

> <r_i_glide_hbond>
-0.625516406740081

> <r_i_glide_metal>
0

> <r_i_glide_rewards>
-2.09632442242513

> <r_i_glide_evdw>
-43.0180320739746

> <r_i_glide_ecoul>
-4.66022348403931

> <r_i_glide_erotb>
0.327393768445912

> <r_i_glide_esite>
-0.002072229024783

> <r_i_glide_emodel>
-68.7572790005473

> <r_i_glide_energy>
-47.6782555580139

> <r_i_glide_einternal>
2.40316963195801

> <i_i_glide_confnum>
44

> <i_i_glide_posenum>
12

> <r_i_glide_eff_state_penalty>
0

> <i_f3d_flags>
0

> <s_user_duplicate_titles>
92693

> <s_m_subgroup_title>
dock_pv

> <s_m_subgroupid>
dock_pv1

> <b_m_subgroup_collapsed>
0

$$$$
259059
                    3D
 Schrodinger Suite 2021-1.
 62 67  0  0  1  0            999 V2000
   44.7043   56.2468   32.3411 C   0  0  0  0  0  0
   43.3992   56.6811   32.8370 N   0  0  0  0  0  0
   43.4955   56.8842   34.2825 C   0  0  0  0  0  0
   42.3903   55.6746   32.4875 C   0  0  0  0  0  0
   40.9406   56.1689   32.6736 C   0  0  0  0  0  0
   39.9222   55.0128   32.7075 C   0  0  0  0  0  0
   38.6597   55.4186   33.3243 N   0  0  0  0  0  0
   37.4481   55.6317   32.6593 C   0  0  0  0  0  0
   37.0992   55.5647   31.3018 C   0  0  0  0  0  0
   35.7566   55.7845   30.9665 C   0  0  0  0  0  0
   34.7839   56.0806   31.9322 C   0  0  0  0  0  0
   35.1425   56.1740   33.2671 C   0  0  0  0  0  0
   36.4718   55.9548   33.6415 C   0  0  0  0  0  0
   37.1022   55.9984   34.8849 C   0  0  0  0  0  0
   38.4536   55.6851   34.6756 C   0  0  0  0  0  0
   39.3363   55.6706   35.7620 C   0  0  0  0  0  0
   38.9136   56.0340   37.0622 C   0  0  0  0  0  0
   40.0637   55.9550   37.8917 C   0  0  0  0  0  0
   40.3051   56.2158   39.2510 C   0  0  0  0  0  0
   41.5789   55.9720   39.7886 C   0  0  0  0  0  0
   42.5871   55.4619   38.9728 C   0  0  0  0  0  0
   42.4056   55.2129   37.6146 C   0  0  0  0  0  0
   41.1376   55.4707   37.0866 C   0  0  0  0  0  0
   40.6693   55.3260   35.7954 N   0  0  0  0  0  0
   41.9234   56.1938   41.1085 O   0  0  0  0  0  0
   41.0500   56.9500   41.9406 C   0  0  0  0  0  0
   37.5463   56.3449   37.2446 C   0  0  0  0  0  0
   36.6540   56.2773   36.1796 C   0  0  0  0  0  0
   35.2661   56.5501   36.6600 C   0  0  0  0  0  0
   35.5010   56.8004   38.0676 N   0  0  0  0  0  0
   36.7811   56.7713   38.4585 C   0  0  0  0  0  0
   37.1684   57.0482   39.5844 O   0  0  0  0  0  0
   33.4498   56.3056   31.6830 O   0  0  0  0  0  0
   32.9506   56.1524   30.3668 C   0  0  0  0  0  0
   41.2176   55.0154   35.0039 H   0  0  0  0  0  0
   44.6898   56.1240   31.2573 H   0  0  0  0  0  0
   45.4726   56.9884   32.5683 H   0  0  0  0  0  0
   45.0107   55.2964   32.7839 H   0  0  0  0  0  0
   42.5848   57.3213   34.6922 H   0  0  0  0  0  0
   43.6912   55.9466   34.8076 H   0  0  0  0  0  0
   44.3069   57.5721   34.5217 H   0  0  0  0  0  0
   42.5639   54.7453   33.0336 H   0  0  0  0  0  0
   42.5067   55.4058   31.4384 H   0  0  0  0  0  0
   40.6820   56.7681   31.8018 H   0  0  0  0  0  0
   40.8413   56.8615   33.5076 H   0  0  0  0  0  0
   40.2981   54.1724   33.2934 H   0  0  0  0  0  0
   39.7391   54.6137   31.7093 H   0  0  0  0  0  0
   37.8207   55.3237   30.5341 H   0  0  0  0  0  0
   35.4859   55.7107   29.9218 H   0  0  0  0  0  0
   34.3914   56.4098   34.0047 H   0  0  0  0  0  0
   39.5126   56.5847   39.8749 H   0  0  0  0  0  0
   43.5555   55.2635   39.4068 H   0  0  0  0  0  0
   43.2140   54.8258   37.0098 H   0  0  0  0  0  0
   41.4736   57.0224   42.9409 H   0  0  0  0  0  0
   40.9346   57.9675   41.5590 H   0  0  0  0  0  0
   40.0647   56.4915   42.0369 H   0  0  0  0  0  0
   34.5988   55.6972   36.5259 H   0  0  0  0  0  0
   34.8088   57.4169   36.1807 H   0  0  0  0  0  0
   34.7361   57.0372   38.6848 H   0  0  0  0  0  0
   31.9041   56.4641   30.3457 H   0  0  0  0  0  0
   33.4917   56.7714   29.6482 H   0  0  0  0  0  0
   33.0005   55.1121   30.0408 H   0  0  0  0  0  0
  1  2  1  0  0  0
  1 36  1  0  0  0
  1 37  1  0  0  0
  1 38  1  0  0  0
  2  3  1  0  0  0
  2  4  1  0  0  0
  3 39  1  0  0  0
  3 40  1  0  0  0
  3 41  1  0  0  0
  4  5  1  0  0  0
  4 42  1  0  0  0
  4 43  1  0  0  0
  5  6  1  0  0  0
  5 44  1  0  0  0
  5 45  1  0  0  0
  6  7  1  0  0  0
  6 46  1  0  0  0
  6 47  1  0  0  0
  7 15  1  0  0  0
  7  8  1  0  0  0
  8 13  2  0  0  0
  8  9  1  0  0  0
  9 10  2  0  0  0
  9 48  1  0  0  0
 10 11  1  0  0  0
 10 49  1  0  0  0
 11 12  2  0  0  0
 11 33  1  0  0  0
 12 13  1  0  0  0
 12 50  1  0  0  0
 13 14  1  0  0  0
 14 28  2  0  0  0
 14 15  1  0  0  0
 15 16  2  0  0  0
 16 24  1  0  0  0
 16 17  1  0  0  0
 17 18  1  0  0  0
 17 27  2  0  0  0
 18 23  2  0  0  0
 18 19  1  0  0  0
 19 20  2  0  0  0
 19 51  1  0  0  0
 20 21  1  0  0  0
 20 25  1  0  0  0
 21 22  2  0  0  0
 21 52  1  0  0  0
 22 23  1  0  0  0
 22 53  1  0  0  0
 23 24  1  0  0  0
 24 35  1  0  0  0
 25 26  1  0  0  0
 26 54  1  0  0  0
 26 55  1  0  0  0
 26 56  1  0  0  0
 27 31  1  0  0  0
 27 28  1  0  0  0
 28 29  1  0  0  0
 29 30  1  0  0  0
 29 57  1  0  0  0
 29 58  1  0  0  0
 30 31  1  0  0  0
 30 59  1  0  0  0
 31 32  2  0  0  0
 33 34  1  0  0  0
 34 60  1  0  0  0
 34 61  1  0  0  0
 34 62  1  0  0  0
M  END
> <s_m_entry_id>
4364

> <s_m_entry_name>
ligand_docking-pose.134

> <s_m_Source_Path>
/home/csk/Desktop/cluster/DUD-E-result/kpcb

> <s_m_Source_File>
ligand_docking-pose.sdf

> <i_m_Source_File_Index>
134

> <i_lp_mmshare_version>
53161

> <r_lp_tautomer_probability>
1

> <s_lp_Force_Field>
OPLS_2005

> <r_lp_Energy>
88.109258

> <b_lp_Chiralities_Consistent>
1

> <s_lp_Variant>
259059-1

> <s_i_glide_gridfile>
glide-grid_2i0e

> <i_i_glide_lignum>
514

> <i_i_glide_rotatable_bonds>
6

> <r_i_docking_score>
-8.10927040280661

> <r_i_glide_ligand_efficiency>
-0.238507953023724

> <r_i_glide_ligand_efficiency_sa>
-0.77267317840595

> <r_i_glide_ligand_efficiency_ln>
-1.79156528931029

> <r_i_glide_gscore>
-8.10927040280661

> <r_i_glide_lipo>
-2.77630336924058

> <r_i_glide_hbond>
-0.608

> <r_i_glide_metal>
0

> <r_i_glide_rewards>
-1.68597847937663

> <r_i_glide_evdw>
-45.647087097168

> <r_i_glide_ecoul>
-6.3819785118103

> <r_i_glide_erotb>
0.20249612014361

> <r_i_glide_esite>
-0.00183354270307005

> <r_i_glide_emodel>
-72.4986019019442

> <r_i_glide_energy>
-52.0290656089783

> <r_i_glide_einternal>
7.58326530456543

> <i_i_glide_confnum>
45

> <i_i_glide_posenum>
44

> <r_i_glide_eff_state_penalty>
0

> <i_f3d_flags>
0

> <s_user_duplicate_titles>
259059

> <s_m_subgroup_title>
dock_pv

> <s_m_subgroupid>
dock_pv1

> <b_m_subgroup_collapsed>
0

$$$$
160677
                    3D
 Schrodinger Suite 2021-1.
 56 61  0  0  1  0            999 V2000
   36.6068   55.1833   31.0968 C   0  0  0  0  0  0
   37.0944   55.0793   32.4634 N   0  0  0  0  0  0
   36.4711   55.6533   33.5426 C   0  0  0  0  0  0
   37.1459   55.3682   34.7145 C   0  0  0  0  0  0
   38.2029   54.4593   34.3451 C   0  0  0  0  0  0
   38.1509   54.3032   32.9201 C   0  0  0  0  0  0
   39.0622   53.4872   32.2317 C   0  0  0  0  0  0
   40.0099   52.8045   32.9924 C   0  0  0  0  0  0
   40.0695   52.9283   34.3760 C   0  0  0  0  0  0
   39.1795   53.7490   35.0641 C   0  0  0  0  0  0
   36.8124   55.9164   36.0365 C   0  0  0  0  0  0
   37.6111   56.3237   37.0463 C   0  0  0  0  0  0
   36.7451   56.7230   38.1288 C   0  0  0  0  0  0
   37.0147   57.1815   39.2333 O   0  0  0  0  0  0
   35.4997   56.5132   37.6949 N   0  0  0  0  0  0
   35.4402   56.0580   36.4452 C   0  0  0  0  0  0
   34.4079   55.8188   35.8187 O   0  0  0  0  0  0
   39.0929   56.4671   37.0537 C   0  0  0  0  0  0
   39.8632   56.8998   35.9087 C   0  0  0  0  0  0
   39.5442   57.4014   34.6338 C   0  0  0  0  0  0
   40.5552   57.6266   33.7045 C   0  0  0  0  0  0
   41.8841   57.4002   34.0323 C   0  0  0  0  0  0
   42.2606   56.9624   35.2987 C   0  0  0  0  0  0
   41.2371   56.7175   36.2255 C   0  0  0  0  0  0
   41.3031   56.2841   37.5319 N   0  0  0  0  0  0
   40.0211   56.2104   38.0809 C   0  0  0  0  0  0
   39.8511   55.7964   39.5521 C   0  0  0  0  0  0
   41.1789   55.9237   40.3367 C   0  0  2  0  0  0
   42.2927   55.2432   39.5252 C   0  0  0  0  0  0
   42.5699   56.0288   38.2368 C   0  0  0  0  0  0
   41.0158   55.3154   41.7485 C   0  0  0  0  0  0
   42.1750   55.5734   42.5866 N   0  0  0  0  0  0
   41.3927   56.9851   40.4779 H   0  0  0  0  0  0
   36.0882   56.1366   30.9605 H   0  0  0  0  0  0
   37.4404   55.1411   30.3948 H   0  0  0  0  0  0
   35.9009   54.3721   30.9073 H   0  0  0  0  0  0
   35.6015   56.2760   33.3827 H   0  0  0  0  0  0
   39.0404   53.3709   31.1574 H   0  0  0  0  0  0
   40.7218   52.1589   32.4940 H   0  0  0  0  0  0
   40.8231   52.3738   34.9191 H   0  0  0  0  0  0
   39.2373   53.8254   36.1407 H   0  0  0  0  0  0
   34.6723   56.7095   38.2417 H   0  0  0  0  0  0
   38.5163   57.5739   34.3578 H   0  0  0  0  0  0
   40.3061   57.9741   32.7116 H   0  0  0  0  0  0
   42.6491   57.5724   33.2898 H   0  0  0  0  0  0
   43.3046   56.8175   35.5368 H   0  0  0  0  0  0
   39.1080   56.4138   40.0403 H   0  0  0  0  0  0
   39.4998   54.7724   39.6150 H   0  0  0  0  0  0
   43.2138   55.2072   40.1057 H   0  0  0  0  0  0
   42.0556   54.1939   39.3334 H   0  0  0  0  0  0
   43.2479   55.4748   37.5868 H   0  0  0  0  0  0
   43.0422   56.9870   38.4507 H   0  0  0  0  0  0
   40.1550   55.7612   42.2432 H   0  0  0  0  0  0
   40.8296   54.2412   41.6902 H   0  0  0  0  0  0
   42.0464   55.1768   43.5080 H   0  0  0  0  0  0
   42.9968   55.1387   42.1919 H   0  0  0  0  0  0
  1  2  1  0  0  0
  1 34  1  0  0  0
  1 35  1  0  0  0
  1 36  1  0  0  0
  2  6  1  0  0  0
  2  3  1  0  0  0
  3  4  2  0  0  0
  3 37  1  0  0  0
  4  5  1  0  0  0
  4 11  1  0  0  0
  5 10  2  0  0  0
  5  6  1  0  0  0
  6  7  2  0  0  0
  7  8  1  0  0  0
  7 38  1  0  0  0
  8  9  2  0  0  0
  8 39  1  0  0  0
  9 10  1  0  0  0
  9 40  1  0  0  0
 10 41  1  0  0  0
 11 16  1  0  0  0
 11 12  2  0  0  0
 12 13  1  0  0  0
 12 18  1  0  0  0
 13 14  2  0  0  0
 13 15  1  0  0  0
 15 16  1  0  0  0
 15 42  1  0  0  0
 16 17  2  0  0  0
 18 26  2  0  0  0
 18 19  1  0  0  0
 19 24  2  0  0  0
 19 20  1  0  0  0
 20 21  2  0  0  0
 20 43  1  0  0  0
 21 22  1  0  0  0
 21 44  1  0  0  0
 22 23  2  0  0  0
 22 45  1  0  0  0
 23 24  1  0  0  0
 23 46  1  0  0  0
 24 25  1  0  0  0
 25 30  1  0  0  0
 25 26  1  0  0  0
 26 27  1  0  0  0
 27 28  1  0  0  0
 27 47  1  0  0  0
 27 48  1  0  0  0
 28 33  1  0  0  0
 28 29  1  0  0  0
 28 31  1  0  0  0
 29 30  1  0  0  0
 29 49  1  0  0  0
 29 50  1  0  0  0
 30 51  1  0  0  0
 30 52  1  0  0  0
 31 32  1  0  0  0
 31 53  1  0  0  0
 31 54  1  0  0  0
 32 55  1  0  0  0
 32 56  1  0  0  0
M  END
> <s_m_entry_id>
4367

> <s_m_entry_name>
ligand_docking-pose.137

> <s_m_Source_Path>
/home/csk/Desktop/cluster/DUD-E-result/kpcb

> <s_m_Source_File>
ligand_docking-pose.sdf

> <i_m_Source_File_Index>
137

> <i_lp_mmshare_version>
53161

> <r_lp_tautomer_probability>
1

> <s_lp_Force_Field>
OPLS_2005

> <r_lp_Energy>
32.620128

> <b_lp_Chiralities_Consistent>
1

> <s_lp_Variant>
160677-1

> <s_i_glide_gridfile>
glide-grid_2i0e

> <i_i_glide_lignum>
450

> <i_i_glide_rotatable_bonds>
3

> <r_i_docking_score>
-7.90797227151573

> <r_i_glide_ligand_efficiency>
-0.247124133484867

> <r_i_glide_ligand_efficiency_sa>
-0.784570218014843

> <r_i_glide_ligand_efficiency_ln>
-1.77081055477507

> <r_i_glide_gscore>
-7.90797227151573

> <r_i_glide_lipo>
-2.26778147086333

> <r_i_glide_hbond>
-0.47556839252548

> <r_i_glide_metal>
0

> <r_i_glide_rewards>
-2.39359711933611

> <r_i_glide_evdw>
-48.7253646850586

> <r_i_glide_ecoul>
-3.25876021385193

> <r_i_glide_erotb>
0.154056977539903

> <r_i_glide_esite>
0

> <r_i_glide_emodel>
-73.310896684008

> <r_i_glide_energy>
-51.9841248989105

> <r_i_glide_einternal>
4.90843534469604

> <i_i_glide_confnum>
9

> <i_i_glide_posenum>
288

> <r_i_glide_eff_state_penalty>
0

> <i_f3d_flags>
0

> <s_user_duplicate_titles>
160677

> <s_m_subgroup_title>
dock_pv

> <s_m_subgroupid>
dock_pv1

> <b_m_subgroup_collapsed>
0

$$$$
269966
                    3D
 Schrodinger Suite 2021-1.
 52 56  0  0  1  0            999 V2000
   42.1198   55.3272   38.0884 C   0  0  0  0  0  0
   42.3018   53.9718   37.8516 C   0  0  0  0  0  0
   41.5031   53.2664   36.9515 C   0  0  0  0  0  0
   40.4762   53.9621   36.3064 C   0  0  0  0  0  0
   40.2897   55.3538   36.5241 C   0  0  0  0  0  0
   41.1244   56.0334   37.4251 C   0  0  0  0  0  0
   39.2549   55.8644   35.7207 C   0  0  0  0  0  0
   38.6253   54.9222   34.9266 C   0  0  0  0  0  0
   39.2795   53.3165   35.1866 S   0  0  0  0  0  0
   37.5935   55.2123   33.9161 C   0  0  0  0  0  0
   36.2955   55.7039   34.1122 C   0  0  0  0  0  0
   35.7077   55.8289   32.7896 C   0  0  0  0  0  0
   34.4411   56.1810   32.2752 C   0  0  0  0  0  0
   34.2264   56.2439   30.9028 C   0  0  0  0  0  0
   35.2463   55.9501   30.0141 C   0  0  0  0  0  0
   36.5085   55.5699   30.4560 C   0  0  0  0  0  0
   36.7237   55.4970   31.8424 C   0  0  0  0  0  0
   37.8425   55.0899   32.5511 N   0  0  0  0  0  0
   39.0997   54.6595   31.9014 C   0  0  0  0  0  0
   40.1106   55.8218   31.7427 C   0  0  0  0  0  0
   40.5919   56.3586   33.0841 C   0  0  0  0  0  0
   41.9012   57.5717   33.2376 S   0  0  0  0  0  0
   43.4190   56.5911   33.2387 C   0  0  0  0  0  0
   44.4609   57.1702   33.6362 N   0  0  0  0  0  0
   43.3098   55.3101   32.7617 N   0  0  0  0  0  0
   35.6910   55.9529   35.4436 C   0  0  0  0  0  0
   36.2928   56.3686   36.5692 C   0  0  0  0  0  0
   35.3601   56.3524   37.6335 C   0  0  0  0  0  0
   35.5564   56.6309   38.8130 O   0  0  0  0  0  0
   34.2154   55.9735   37.0737 N   0  0  0  0  0  0
   34.3012   55.8035   35.7537 C   0  0  0  0  0  0
   33.3538   55.5720   35.0177 O   0  0  0  0  0  0
   42.7731   55.8366   38.7818 H   0  0  0  0  0  0
   43.1007   53.4663   38.3718 H   0  0  0  0  0  0
   41.6658   52.2143   36.7679 H   0  0  0  0  0  0
   41.0049   57.0921   37.5954 H   0  0  0  0  0  0
   39.0370   56.9203   35.6873 H   0  0  0  0  0  0
   33.6024   56.3758   32.9098 H   0  0  0  0  0  0
   33.2473   56.4999   30.5201 H   0  0  0  0  0  0
   35.0379   55.9686   28.9529 H   0  0  0  0  0  0
   37.2598   55.2545   29.7468 H   0  0  0  0  0  0
   38.8702   54.2209   30.9289 H   0  0  0  0  0  0
   39.5377   53.8421   32.4699 H   0  0  0  0  0  0
   39.6268   56.6449   31.2262 H   0  0  0  0  0  0
   40.9563   55.5013   31.1359 H   0  0  0  0  0  0
   40.8685   55.5294   33.7298 H   0  0  0  0  0  0
   39.7443   56.8878   33.5091 H   0  0  0  0  0  0
   44.2784   58.1113   33.9626 H   0  0  0  0  0  0
   44.1232   54.7109   32.7744 H   0  0  0  0  0  0
   42.4047   54.8791   32.6625 H   0  0  0  0  0  0
   37.3018   56.6496   36.7563 H   0  0  0  0  0  0
   33.3489   55.9060   37.5850 H   0  0  0  0  0  0
  1  6  1  0  0  0
  1  2  2  0  0  0
  1 33  1  0  0  0
  2  3  1  0  0  0
  2 34  1  0  0  0
  3  4  2  0  0  0
  3 35  1  0  0  0
  4  9  1  0  0  0
  4  5  1  0  0  0
  5  6  2  0  0  0
  5  7  1  0  0  0
  6 36  1  0  0  0
  7  8  2  0  0  0
  7 37  1  0  0  0
  8  9  1  0  0  0
  8 10  1  0  0  0
 10 18  1  0  0  0
 10 11  2  0  0  0
 11 12  1  0  0  0
 11 26  1  0  0  0
 12 17  2  0  0  0
 12 13  1  0  0  0
 13 14  2  0  0  0
 13 38  1  0  0  0
 14 15  1  0  0  0
 14 39  1  0  0  0
 15 16  2  0  0  0
 15 40  1  0  0  0
 16 17  1  0  0  0
 16 41  1  0  0  0
 17 18  1  0  0  0
 18 19  1  0  0  0
 19 20  1  0  0  0
 19 42  1  0  0  0
 19 43  1  0  0  0
 20 21  1  0  0  0
 20 44  1  0  0  0
 20 45  1  0  0  0
 21 22  1  0  0  0
 21 46  1  0  0  0
 21 47  1  0  0  0
 22 23  1  0  0  0
 23 24  2  3  0  0
 23 25  1  0  0  0
 24 48  1  0  0  0
 25 49  1  0  0  0
 25 50  1  0  0  0
 26 31  1  0  0  0
 26 27  2  0  0  0
 27 28  1  0  0  0
 27 51  1  0  0  0
 28 29  2  0  0  0
 28 30  1  0  0  0
 30 31  1  0  0  0
 30 52  1  0  0  0
 31 32  2  0  0  0
M  END
> <s_m_entry_id>
4368

> <s_m_entry_name>
ligand_docking-pose.138

> <s_m_Source_Path>
/home/csk/Desktop/cluster/DUD-E-result/kpcb

> <s_m_Source_File>
ligand_docking-pose.sdf

> <i_m_Source_File_Index>
138

> <i_lp_mmshare_version>
53161

> <r_lp_tautomer_probability>
1

> <s_lp_Force_Field>
OPLS_2005

> <r_lp_Energy>
19.33296

> <b_lp_Chiralities_Consistent>
1

> <s_lp_Variant>
269966-2

> <s_i_glide_gridfile>
glide-grid_2i0e

> <i_i_glide_lignum>
70

> <i_i_glide_rotatable_bonds>
7

> <r_i_docking_score>
-7.87377935750896

> <r_i_glide_ligand_efficiency>
-0.246055604922155

> <r_i_glide_ligand_efficiency_sa>
-0.781177851289749

> <r_i_glide_ligand_efficiency_ln>
-1.76315382926532

> <r_i_glide_gscore>
-7.87377935750896

> <r_i_glide_lipo>
-2.69114230659063

> <r_i_glide_hbond>
-0.628976368729835

> <r_i_glide_metal>
0

> <r_i_glide_rewards>
-1.43144212234725

> <r_i_glide_evdw>
-45.3221206665039

> <r_i_glide_ecoul>
-8.63660621643066

> <r_i_glide_erotb>
0.464976677422177

> <r_i_glide_esite>
-0.0255982714736289

> <r_i_glide_emodel>
-78.3891084929829

> <r_i_glide_energy>
-53.9587268829346

> <r_i_glide_einternal>
6.91386699676514

> <i_i_glide_confnum>
98

> <i_i_glide_posenum>
385

> <r_i_glide_eff_state_penalty>
0

> <i_f3d_flags>
0

> <s_user_duplicate_titles>
269966

> <s_m_subgroup_title>
dock_pv

> <s_m_subgroupid>
dock_pv1

> <b_m_subgroup_collapsed>
0

$$$$
676878
                    3D
 Schrodinger Suite 2021-1.
 62 67  0  0  1  0            999 V2000
   41.8990   56.6339   39.8856 C   0  0  0  0  0  0
   41.0029   56.7453   38.7462 N   0  0  0  0  0  0
   39.6365   56.6226   38.8022 C   0  0  0  0  0  0
   39.0883   56.6641   37.5302 C   0  0  0  0  0  0
   40.1836   56.9771   36.6472 C   0  0  0  0  0  0
   41.3825   56.9033   37.4245 C   0  0  0  0  0  0
   42.6515   56.9927   36.8386 C   0  0  0  0  0  0
   42.7019   57.1719   35.4569 C   0  0  0  0  0  0
   41.5537   57.3457   34.6930 C   0  0  0  0  0  0
   40.2935   57.2788   35.2775 C   0  0  0  0  0  0
   37.6853   56.3776   37.1985 C   0  0  0  0  0  0
   37.1558   55.8320   36.0862 C   0  0  0  0  0  0
   35.7313   55.7201   36.2960 C   0  0  0  0  0  0
   34.8693   55.2002   35.5912 O   0  0  0  0  0  0
   35.5009   56.2888   37.4827 N   0  0  0  0  0  0
   36.6133   56.6704   38.1131 C   0  0  0  0  0  0
   36.6610   57.1694   39.2368 O   0  0  0  0  0  0
   37.8399   55.2958   34.8853 C   0  0  0  0  0  0
   39.0289   54.4812   34.8264 C   0  0  0  0  0  0
   39.8647   53.8908   35.7883 C   0  0  0  0  0  0
   41.0294   53.2452   35.3825 C   0  0  0  0  0  0
   41.3639   53.1589   34.0360 C   0  0  0  0  0  0
   40.5400   53.6715   33.0382 C   0  0  0  0  0  0
   39.3789   54.3388   33.4500 C   0  0  0  0  0  0
   38.3999   54.9719   32.7119 N   0  0  0  0  0  0
   37.4979   55.5849   33.5679 C   0  0  0  0  0  0
   36.3723   56.4476   33.0263 C   0  0  0  0  0  0
   36.2381   56.4635   31.4734 C   0  0  1  0  0  0
   36.8786   55.2133   30.8613 C   0  0  0  0  0  0
   38.3587   55.0770   31.2511 C   0  0  0  0  0  0
   34.7411   56.4833   31.0556 C   0  0  0  0  0  0
   33.9976   57.7272   31.2788 N   0  0  0  0  0  0
   32.5661   57.4779   31.1346 C   0  0  0  0  0  0
   34.3010   58.4903   32.4916 C   0  0  0  0  0  0
   41.3328   56.6423   40.8181 H   0  0  0  0  0  0
   42.4618   55.7026   39.8098 H   0  0  0  0  0  0
   42.5923   57.4758   39.8836 H   0  0  0  0  0  0
   39.1602   56.4273   39.7544 H   0  0  0  0  0  0
   43.5587   56.9107   37.4189 H   0  0  0  0  0  0
   43.6655   57.2296   34.9711 H   0  0  0  0  0  0
   41.6439   57.5226   33.6307 H   0  0  0  0  0  0
   39.4128   57.3983   34.6665 H   0  0  0  0  0  0
   34.5790   56.3734   37.8843 H   0  0  0  0  0  0
   39.6319   53.9746   36.8370 H   0  0  0  0  0  0
   41.6892   52.8074   36.1188 H   0  0  0  0  0  0
   42.2714   52.6389   33.7556 H   0  0  0  0  0  0
   40.8070   53.5641   31.9968 H   0  0  0  0  0  0
   35.4434   56.0820   33.4500 H   0  0  0  0  0  0
   36.5502   57.4527   33.4033 H   0  0  0  0  0  0
   36.7393   57.3487   31.0782 H   0  0  0  0  0  0
   36.3006   54.3720   31.2368 H   0  0  0  0  0  0
   36.7554   55.1831   29.7778 H   0  0  0  0  0  0
   38.9291   55.9531   30.9391 H   0  0  0  0  0  0
   38.8098   54.1964   30.7902 H   0  0  0  0  0  0
   34.6607   56.2526   29.9911 H   0  0  0  0  0  0
   34.2337   55.6667   31.5749 H   0  0  0  0  0  0
   31.9908   58.3987   31.2360 H   0  0  0  0  0  0
   32.3423   57.0639   30.1497 H   0  0  0  0  0  0
   32.2127   56.7666   31.8817 H   0  0  0  0  0  0
   33.6023   59.3165   32.6253 H   0  0  0  0  0  0
   34.3011   57.8861   33.3959 H   0  0  0  0  0  0
   35.2932   58.9347   32.4370 H   0  0  0  0  0  0
  1  2  1  0  0  0
  1 35  1  0  0  0
  1 36  1  0  0  0
  1 37  1  0  0  0
  2  6  1  0  0  0
  2  3  1  0  0  0
  3  4  2  0  0  0
  3 38  1  0  0  0
  4  5  1  0  0  0
  4 11  1  0  0  0
  5 10  2  0  0  0
  5  6  1  0  0  0
  6  7  2  0  0  0
  7  8  1  0  0  0
  7 39  1  0  0  0
  8  9  2  0  0  0
  8 40  1  0  0  0
  9 10  1  0  0  0
  9 41  1  0  0  0
 10 42  1  0  0  0
 11 16  1  0  0  0
 11 12  2  0  0  0
 12 13  1  0  0  0
 12 18  1  0  0  0
 13 14  2  0  0  0
 13 15  1  0  0  0
 15 16  1  0  0  0
 15 43  1  0  0  0
 16 17  2  0  0  0
 18 26  2  0  0  0
 18 19  1  0  0  0
 19 24  2  0  0  0
 19 20  1  0  0  0
 20 21  2  0  0  0
 20 44  1  0  0  0
 21 22  1  0  0  0
 21 45  1  0  0  0
 22 23  2  0  0  0
 22 46  1  0  0  0
 23 24  1  0  0  0
 23 47  1  0  0  0
 24 25  1  0  0  0
 25 30  1  0  0  0
 25 26  1  0  0  0
 26 27  1  0  0  0
 27 28  1  0  0  0
 27 48  1  0  0  0
 27 49  1  0  0  0
 28 29  1  0  0  0
 28 31  1  0  0  0
 28 50  1  0  0  0
 29 30  1  0  0  0
 29 51  1  0  0  0
 29 52  1  0  0  0
 30 53  1  0  0  0
 30 54  1  0  0  0
 31 32  1  0  0  0
 31 55  1  0  0  0
 31 56  1  0  0  0
 32 33  1  0  0  0
 32 34  1  0  0  0
 33 57  1  0  0  0
 33 58  1  0  0  0
 33 59  1  0  0  0
 34 60  1  0  0  0
 34 61  1  0  0  0
 34 62  1  0  0  0
M  END
> <s_m_entry_id>
4369

> <s_m_entry_name>
ligand_docking-pose.139

> <s_m_Source_Path>
/home/csk/Desktop/cluster/DUD-E-result/kpcb

> <s_m_Source_File>
ligand_docking-pose.sdf

> <i_m_Source_File_Index>
139

> <i_lp_mmshare_version>
53161

> <r_lp_tautomer_probability>
1

> <s_lp_Force_Field>
OPLS_2005

> <r_lp_Energy>
36.586593

> <b_lp_Chiralities_Consistent>
1

> <s_lp_Variant>
676878-1

> <s_i_glide_gridfile>
glide-grid_2i0e

> <i_i_glide_lignum>
431

> <i_i_glide_rotatable_bonds>
4

> <r_i_docking_score>
-7.83300929868117

> <r_i_glide_ligand_efficiency>
-0.230382626431799

> <r_i_glide_ligand_efficiency_sa>
-0.746350274520458

> <r_i_glide_ligand_efficiency_ln>
-1.73053146254748

> <r_i_glide_gscore>
-7.83300929868117

> <r_i_glide_lipo>
-2.39002374088745

> <r_i_glide_hbond>
-0.382022511838188

> <r_i_glide_metal>
0

> <r_i_glide_rewards>
-2.18269142350859

> <r_i_glide_evdw>
-46.6623115539551

> <r_i_glide_ecoul>
-5.0060772895813

> <r_i_glide_erotb>
0.205755548688007

> <r_i_glide_esite>
0

> <r_i_glide_emodel>
-71.020312541803

> <r_i_glide_energy>
-51.6683888435364

> <r_i_glide_einternal>
5.49003744125366

> <i_i_glide_confnum>
7

> <i_i_glide_posenum>
211

> <r_i_glide_eff_state_penalty>
0

> <i_f3d_flags>
0

> <s_user_duplicate_titles>
676878

> <s_m_subgroup_title>
dock_pv

> <s_m_subgroupid>
dock_pv1

> <b_m_subgroup_collapsed>
0

$$$$
92804
                    3D
 Schrodinger Suite 2021-1.
 49 54  0  0  1  0            999 V2000
   41.8308   54.2258   33.3997 C   0  0  0  0  0  0
   42.0474   55.6037   32.7337 C   0  0  0  0  0  0
   41.0804   56.7647   33.1148 C   0  0  0  0  0  0
   40.3262   56.5586   34.3518 N   0  0  0  0  0  0
   40.9486   56.6562   35.5948 C   0  0  0  0  0  0
   42.2985   56.8540   35.9323 C   0  0  0  0  0  0
   42.6271   56.9022   37.2866 C   0  0  0  0  0  0
   41.6610   56.7717   38.2782 C   0  0  0  0  0  0
   40.3191   56.5996   37.9505 C   0  0  0  0  0  0
   39.9534   56.5387   36.5939 C   0  0  0  0  0  0
   38.7178   56.3990   35.9460 C   0  0  0  0  0  0
   38.9541   56.3120   34.5473 C   0  0  0  0  0  0
   37.8545   56.0652   33.6762 C   0  0  0  0  0  0
   36.5229   56.0750   34.1987 C   0  0  0  0  0  0
   35.6417   55.9121   33.1025 C   0  0  0  0  0  0
   34.2404   55.8719   32.9774 C   0  0  0  0  0  0
   33.6624   55.7109   31.7222 C   0  0  0  0  0  0
   34.4515   55.5724   30.5907 C   0  0  0  0  0  0
   35.8421   55.5735   30.6671 C   0  0  0  0  0  0
   36.4280   55.7446   31.9340 C   0  0  0  0  0  0
   37.7633   55.7471   32.3118 N   0  0  0  0  0  0
   38.8097   55.4534   31.3471 C   0  0  0  0  0  0
   36.3291   56.2383   35.5897 C   0  0  0  0  0  0
   37.4125   56.3401   36.4449 C   0  0  0  0  0  0
   36.9370   56.4366   37.8639 C   0  0  0  0  0  0
   35.4995   56.4436   37.6830 N   0  0  0  0  0  0
   35.0777   56.3382   36.4162 C   0  0  0  0  0  0
   33.9023   56.3426   36.0733 O   0  0  0  0  0  0
   42.5093   53.4830   32.9777 H   0  0  0  0  0  0
   42.0297   54.2632   34.4709 H   0  0  0  0  0  0
   40.8183   53.8451   33.2720 H   0  0  0  0  0  0
   42.0233   55.4767   31.6501 H   0  0  0  0  0  0
   43.0711   55.9149   32.9500 H   0  0  0  0  0  0
   40.4172   57.0794   32.3207 H   0  0  0  0  0  0
   41.6790   57.6651   33.2633 H   0  0  0  0  0  0
   43.0695   56.9581   35.1831 H   0  0  0  0  0  0
   43.6597   57.0423   37.5714 H   0  0  0  0  0  0
   41.9561   56.8115   39.3165 H   0  0  0  0  0  0
   39.5834   56.5069   38.7350 H   0  0  0  0  0  0
   33.5878   55.9716   33.8245 H   0  0  0  0  0  0
   32.5863   55.6961   31.6240 H   0  0  0  0  0  0
   33.9720   55.4484   29.6306 H   0  0  0  0  0  0
   36.4313   55.4358   29.7724 H   0  0  0  0  0  0
   38.4491   54.7454   30.6000 H   0  0  0  0  0  0
   39.1004   56.3684   30.8370 H   0  0  0  0  0  0
   39.6454   54.9726   31.8358 H   0  0  0  0  0  0
   37.2627   57.3526   38.3590 H   0  0  0  0  0  0
   37.2461   55.5875   38.4763 H   0  0  0  0  0  0
   34.8397   56.5537   38.4395 H   0  0  0  0  0  0
  1  2  1  0  0  0
  1 29  1  0  0  0
  1 30  1  0  0  0
  1 31  1  0  0  0
  2  3  1  0  0  0
  2 32  1  0  0  0
  2 33  1  0  0  0
  3  4  1  0  0  0
  3 34  1  0  0  0
  3 35  1  0  0  0
  4 12  1  0  0  0
  4  5  1  0  0  0
  5 10  2  0  0  0
  5  6  1  0  0  0
  6  7  2  0  0  0
  6 36  1  0  0  0
  7  8  1  0  0  0
  7 37  1  0  0  0
  8  9  2  0  0  0
  8 38  1  0  0  0
  9 10  1  0  0  0
  9 39  1  0  0  0
 10 11  1  0  0  0
 11 24  2  0  0  0
 11 12  1  0  0  0
 12 13  2  0  0  0
 13 21  1  0  0  0
 13 14  1  0  0  0
 14 15  1  0  0  0
 14 23  2  0  0  0
 15 20  2  0  0  0
 15 16  1  0  0  0
 16 17  2  0  0  0
 16 40  1  0  0  0
 17 18  1  0  0  0
 17 41  1  0  0  0
 18 19  2  0  0  0
 18 42  1  0  0  0
 19 20  1  0  0  0
 19 43  1  0  0  0
 20 21  1  0  0  0
 21 22  1  0  0  0
 22 44  1  0  0  0
 22 45  1  0  0  0
 22 46  1  0  0  0
 23 27  1  0  0  0
 23 24  1  0  0  0
 24 25  1  0  0  0
 25 26  1  0  0  0
 25 47  1  0  0  0
 25 48  1  0  0  0
 26 27  1  0  0  0
 26 49  1  0  0  0
 27 28  2  0  0  0
M  END
> <s_m_entry_id>
4372

> <s_m_entry_name>
ligand_docking-pose.142

> <s_m_Source_Path>
/home/csk/Desktop/cluster/DUD-E-result/kpcb

> <s_m_Source_File>
ligand_docking-pose.sdf

> <i_m_Source_File_Index>
142

> <i_lp_mmshare_version>
53161

> <r_lp_tautomer_probability>
1

> <s_lp_Force_Field>
OPLS_2005

> <r_lp_Energy>
95.215529

> <b_lp_Chiralities_Consistent>
1

> <s_lp_Variant>
92804-1

> <s_i_glide_gridfile>
glide-grid_2i0e

> <i_i_glide_lignum>
368

> <i_i_glide_rotatable_bonds>
2

> <r_i_docking_score>
-7.69741985523172

> <r_i_glide_ligand_efficiency>
-0.274907851972561

> <r_i_glide_ligand_efficiency_sa>
-0.834782150654685

> <r_i_glide_ligand_efficiency_ln>
-1.77679050865501

> <r_i_glide_gscore>
-7.69741985523172

> <r_i_glide_lipo>
-2.87186674364529

> <r_i_glide_hbond>
-0.10466960466991

> <r_i_glide_metal>
0

> <r_i_glide_rewards>
-2.45558700736389

> <r_i_glide_evdw>
-43.3378143310547

> <r_i_glide_ecoul>
-1.60698509216309

> <r_i_glide_erotb>
0.142641980824572

> <r_i_glide_esite>
0

> <r_i_glide_emodel>
-66.0954107573496

> <r_i_glide_energy>
-44.9447994232178

> <r_i_glide_einternal>
0.463946491479874

> <i_i_glide_confnum>
3

> <i_i_glide_posenum>
64

> <r_i_glide_eff_state_penalty>
0

> <i_f3d_flags>
0

> <s_user_duplicate_titles>
92804

> <s_m_subgroup_title>
dock_pv

> <s_m_subgroupid>
dock_pv1

> <b_m_subgroup_collapsed>
0

$$$$
270469
                    3D
 Schrodinger Suite 2021-1.
 53 57  0  0  1  0            999 V2000
   32.7354   55.9060   30.8366 C   0  0  0  0  0  0
   32.8584   57.2559   31.1056 C   0  0  0  0  0  0
   33.9583   57.7400   31.8002 C   0  0  0  0  0  0
   34.9307   56.8357   32.2319 C   0  0  0  0  0  0
   34.8583   55.4619   31.9052 C   0  0  0  0  0  0
   33.7050   55.0050   31.2384 C   0  0  0  0  0  0
   36.0230   54.7722   32.3374 C   0  0  0  0  0  0
   36.8682   55.5103   33.1441 C   0  0  0  0  0  0
   36.3012   57.1718   33.2593 S   0  0  0  0  0  0
   38.0377   55.0252   33.9453 C   0  0  0  0  0  0
   38.2336   55.2033   35.3179 C   0  0  0  0  0  0
   39.5153   54.6210   35.6427 C   0  0  0  0  0  0
   40.2870   54.5272   36.8220 C   0  0  0  0  0  0
   41.4719   53.8048   36.8350 C   0  0  0  0  0  0
   41.8931   53.1353   35.7030 C   0  0  0  0  0  0
   41.1656   53.1752   34.5187 C   0  0  0  0  0  0
   39.9883   53.9549   34.4720 C   0  0  0  0  0  0
   39.0877   54.2518   33.4391 N   0  0  0  0  0  0
   39.1583   53.7877   32.0361 C   0  0  0  0  0  0
   40.5652   53.3628   31.5367 C   0  0  0  0  0  0
   40.8063   53.5374   30.0352 C   0  0  0  0  0  0
   41.4982   52.1284   29.1046 S   0  0  0  0  0  0
   43.2186   52.6347   28.9109 C   0  0  0  0  0  0
   43.7625   52.4380   27.7954 N   0  0  0  0  0  0
   43.7910   53.1722   30.0329 N   0  0  0  0  0  0
   37.3139   55.8280   36.2892 C   0  0  0  0  0  0
   37.6258   56.5960   37.3418 C   0  0  0  0  0  0
   36.4439   56.7435   38.1217 C   0  0  0  0  0  0
   36.3315   57.2259   39.2352 O   0  0  0  0  0  0
   35.4529   56.2217   37.4061 N   0  0  0  0  0  0
   35.8908   55.5721   36.3316 C   0  0  0  0  0  0
   35.1847   54.8797   35.6057 O   0  0  0  0  0  0
   38.8855   57.1321   37.7395 C   0  0  0  0  0  0
   39.8988   57.5693   38.0868 N   0  0  0  0  0  0
   31.9014   55.5387   30.2698 H   0  0  0  0  0  0
   32.0806   57.9330   30.7830 H   0  0  0  0  0  0
   34.0187   58.7743   32.0707 H   0  0  0  0  0  0
   33.5160   53.9721   31.0202 H   0  0  0  0  0  0
   36.1807   53.7260   32.1352 H   0  0  0  0  0  0
   39.9490   54.9501   37.7512 H   0  0  0  0  0  0
   42.0531   53.7245   37.7436 H   0  0  0  0  0  0
   42.7991   52.5445   35.7487 H   0  0  0  0  0  0
   41.5466   52.5886   33.7014 H   0  0  0  0  0  0
   38.7846   54.6024   31.4130 H   0  0  0  0  0  0
   38.4681   52.9513   31.9309 H   0  0  0  0  0  0
   40.7367   52.3168   31.7939 H   0  0  0  0  0  0
   41.3342   53.9578   32.0305 H   0  0  0  0  0  0
   41.4818   54.3720   29.9263 H   0  0  0  0  0  0
   39.9010   53.8560   29.5312 H   0  0  0  0  0  0
   44.7230   52.7460   27.7828 H   0  0  0  0  0  0
   44.7430   53.4936   29.9586 H   0  0  0  0  0  0
   43.5864   52.6841   30.9035 H   0  0  0  0  0  0
   34.4899   56.2166   37.7081 H   0  0  0  0  0  0
  1  6  1  0  0  0
  1  2  2  0  0  0
  1 35  1  0  0  0
  2  3  1  0  0  0
  2 36  1  0  0  0
  3  4  2  0  0  0
  3 37  1  0  0  0
  4  9  1  0  0  0
  4  5  1  0  0  0
  5  6  2  0  0  0
  5  7  1  0  0  0
  6 38  1  0  0  0
  7  8  2  0  0  0
  7 39  1  0  0  0
  8  9  1  0  0  0
  8 10  1  0  0  0
 10 18  1  0  0  0
 10 11  2  0  0  0
 11 12  1  0  0  0
 11 26  1  0  0  0
 12 17  2  0  0  0
 12 13  1  0  0  0
 13 14  2  0  0  0
 13 40  1  0  0  0
 14 15  1  0  0  0
 14 41  1  0  0  0
 15 16  2  0  0  0
 15 42  1  0  0  0
 16 17  1  0  0  0
 16 43  1  0  0  0
 17 18  1  0  0  0
 18 19  1  0  0  0
 19 20  1  0  0  0
 19 44  1  0  0  0
 19 45  1  0  0  0
 20 21  1  0  0  0
 20 46  1  0  0  0
 20 47  1  0  0  0
 21 22  1  0  0  0
 21 48  1  0  0  0
 21 49  1  0  0  0
 22 23  1  0  0  0
 23 24  2  3  0  0
 23 25  1  0  0  0
 24 50  1  0  0  0
 25 51  1  0  0  0
 25 52  1  0  0  0
 26 31  1  0  0  0
 26 27  2  0  0  0
 27 28  1  0  0  0
 27 33  1  0  0  0
 28 29  2  0  0  0
 28 30  1  0  0  0
 30 31  1  0  0  0
 30 53  1  0  0  0
 31 32  2  0  0  0
 33 34  3  0  0  0
M  END
> <s_m_entry_id>
4373

> <s_m_entry_name>
ligand_docking-pose.143

> <s_m_Source_Path>
/home/csk/Desktop/cluster/DUD-E-result/kpcb

> <s_m_Source_File>
ligand_docking-pose.sdf

> <i_m_Source_File_Index>
143

> <i_lp_mmshare_version>
53161

> <r_lp_tautomer_probability>
1

> <s_lp_Force_Field>
OPLS_2005

> <r_lp_Energy>
19.717234

> <b_lp_Chiralities_Consistent>
1

> <s_lp_Variant>
270469-1

> <s_i_glide_gridfile>
glide-grid_2i0e

> <i_i_glide_lignum>
71

> <i_i_glide_rotatable_bonds>
7

> <r_i_docking_score>
-7.6817051682484

> <r_i_glide_ligand_efficiency>
-0.225932504948482

> <r_i_glide_ligand_efficiency_sa>
-0.731933608462933

> <r_i_glide_ligand_efficiency_ln>
-1.69710413619777

> <r_i_glide_gscore>
-7.6817051682484

> <r_i_glide_lipo>
-2.24541154470249

> <r_i_glide_hbond>
-0.437664550732316

> <r_i_glide_metal>
0

> <r_i_glide_rewards>
-2.20877958815062

> <r_i_glide_evdw>
-39.845775604248

> <r_i_glide_ecoul>
-8.36984920501709

> <r_i_glide_erotb>
0.603132521147311

> <r_i_glide_esite>
-0.145215844845314

> <r_i_glide_emodel>
-58.5621959133737

> <r_i_glide_energy>
-48.2156248092651

> <r_i_glide_einternal>
11.0588712692261

> <i_i_glide_confnum>
59

> <i_i_glide_posenum>
77

> <r_i_glide_eff_state_penalty>
0

> <i_f3d_flags>
0

> <s_user_duplicate_titles>
270469

> <s_m_subgroup_title>
dock_pv

> <s_m_subgroupid>
dock_pv1

> <b_m_subgroup_collapsed>
0

$$$$
269796
                    3D
 Schrodinger Suite 2021-1.
 49 53  0  0  1  0            999 V2000
   44.1026   54.9220   36.9105 C   0  0  0  0  0  0
   44.6862   55.9964   36.2491 C   0  0  0  0  0  0
   43.9741   56.7356   35.3094 C   0  0  0  0  0  0
   42.6461   56.3709   35.0479 C   0  0  0  0  0  0
   42.0294   55.2725   35.7168 C   0  0  0  0  0  0
   42.7834   54.5518   36.6568 C   0  0  0  0  0  0
   40.6848   55.0868   35.2997 C   0  0  0  0  0  0
   40.2799   56.0000   34.3447 C   0  0  0  0  0  0
   41.5412   57.1427   33.9236 S   0  0  0  0  0  0
   38.9573   56.1052   33.7407 C   0  0  0  0  0  0
   37.7468   56.4498   34.3513 C   0  0  0  0  0  0
   36.7604   56.4618   33.2963 C   0  0  0  0  0  0
   35.4054   56.8373   33.2176 C   0  0  0  0  0  0
   34.7060   56.6564   32.0265 C   0  0  0  0  0  0
   35.3291   56.1181   30.9082 C   0  0  0  0  0  0
   36.6785   55.7725   30.9195 C   0  0  0  0  0  0
   37.3931   55.9748   32.1114 C   0  0  0  0  0  0
   38.7384   55.8046   32.4023 N   0  0  0  0  0  0
   39.7641   55.4217   31.4170 C   0  0  0  0  0  0
   40.5003   54.0984   31.7296 C   0  0  0  0  0  0
   39.6462   52.8237   31.7134 C   0  0  0  0  0  0
   38.7304   52.7491   32.8370 N   0  0  0  0  0  0
   37.5095   56.7057   35.7901 C   0  0  0  0  0  0
   36.4326   56.3637   36.5126 C   0  0  0  0  0  0
   36.6458   56.7720   37.8651 C   0  0  0  0  0  0
   35.9056   56.6392   38.8369 O   0  0  0  0  0  0
   37.8458   57.3537   37.8697 N   0  0  0  0  0  0
   38.4131   57.4106   36.6620 C   0  0  0  0  0  0
   39.4764   57.9717   36.4132 O   0  0  0  0  0  0
   35.2616   55.6816   36.0865 C   0  0  0  0  0  0
   34.3011   55.1703   35.7055 N   0  0  0  0  0  0
   44.6853   54.3663   37.6318 H   0  0  0  0  0  0
   45.7111   56.2567   36.4688 H   0  0  0  0  0  0
   44.4338   57.5718   34.8030 H   0  0  0  0  0  0
   42.3586   53.7055   37.1758 H   0  0  0  0  0  0
   40.0451   54.3129   35.6950 H   0  0  0  0  0  0
   34.8989   57.2603   34.0711 H   0  0  0  0  0  0
   33.6611   56.9273   31.9705 H   0  0  0  0  0  0
   34.7545   55.9730   30.0036 H   0  0  0  0  0  0
   37.1421   55.3586   30.0372 H   0  0  0  0  0  0
   39.2980   55.3300   30.4375 H   0  0  0  0  0  0
   40.4732   56.2432   31.3327 H   0  0  0  0  0  0
   41.2722   53.9754   30.9690 H   0  0  0  0  0  0
   41.0573   54.1573   32.6625 H   0  0  0  0  0  0
   39.1011   52.7376   30.7732 H   0  0  0  0  0  0
   40.3206   51.9719   31.7704 H   0  0  0  0  0  0
   38.1975   51.8944   32.7524 H   0  0  0  0  0  0
   39.2722   52.6616   33.6855 H   0  0  0  0  0  0
   38.2695   57.7430   38.6967 H   0  0  0  0  0  0
  1  6  1  0  0  0
  1  2  2  0  0  0
  1 32  1  0  0  0
  2  3  1  0  0  0
  2 33  1  0  0  0
  3  4  2  0  0  0
  3 34  1  0  0  0
  4  9  1  0  0  0
  4  5  1  0  0  0
  5  6  2  0  0  0
  5  7  1  0  0  0
  6 35  1  0  0  0
  7  8  2  0  0  0
  7 36  1  0  0  0
  8  9  1  0  0  0
  8 10  1  0  0  0
 10 18  1  0  0  0
 10 11  2  0  0  0
 11 12  1  0  0  0
 11 23  1  0  0  0
 12 17  2  0  0  0
 12 13  1  0  0  0
 13 14  2  0  0  0
 13 37  1  0  0  0
 14 15  1  0  0  0
 14 38  1  0  0  0
 15 16  2  0  0  0
 15 39  1  0  0  0
 16 17  1  0  0  0
 16 40  1  0  0  0
 17 18  1  0  0  0
 18 19  1  0  0  0
 19 20  1  0  0  0
 19 41  1  0  0  0
 19 42  1  0  0  0
 20 21  1  0  0  0
 20 43  1  0  0  0
 20 44  1  0  0  0
 21 22  1  0  0  0
 21 45  1  0  0  0
 21 46  1  0  0  0
 22 47  1  0  0  0
 22 48  1  0  0  0
 23 28  1  0  0  0
 23 24  2  0  0  0
 24 25  1  0  0  0
 24 30  1  0  0  0
 25 26  2  0  0  0
 25 27  1  0  0  0
 27 28  1  0  0  0
 27 49  1  0  0  0
 28 29  2  0  0  0
 30 31  3  0  0  0
M  END
> <s_m_entry_id>
4375

> <s_m_entry_name>
ligand_docking-pose.145

> <s_m_Source_Path>
/home/csk/Desktop/cluster/DUD-E-result/kpcb

> <s_m_Source_File>
ligand_docking-pose.sdf

> <i_m_Source_File_Index>
145

> <i_lp_mmshare_version>
53161

> <r_lp_tautomer_probability>
1

> <s_lp_Force_Field>
OPLS_2005

> <r_lp_Energy>
24.156161

> <b_lp_Chiralities_Consistent>
1

> <s_lp_Variant>
269796-1

> <s_i_glide_gridfile>
glide-grid_2i0e

> <i_i_glide_lignum>
63

> <i_i_glide_rotatable_bonds>
5

> <r_i_docking_score>
-7.54435885406064

> <r_i_glide_ligand_efficiency>
-0.243366414647117

> <r_i_glide_ligand_efficiency_sa>
-0.764506545539214

> <r_i_glide_ligand_efficiency_ln>
-1.70148412842266

> <r_i_glide_gscore>
-7.54435885406064

> <r_i_glide_lipo>
-2.21812671109682

> <r_i_glide_hbond>
-0.32

> <r_i_glide_metal>
0

> <r_i_glide_rewards>
-2.32949379201113

> <r_i_glide_evdw>
-46.5733032226562

> <r_i_glide_ecoul>
-5.23008871078491

> <r_i_glide_erotb>
0.436440116797856

> <r_i_glide_esite>
0

> <r_i_glide_emodel>
-74.3264993275667

> <r_i_glide_energy>
-51.8033919334412

> <r_i_glide_einternal>
3.07170391082764

> <i_i_glide_confnum>
24

> <i_i_glide_posenum>
311

> <r_i_glide_eff_state_penalty>
0

> <i_f3d_flags>
0

> <s_user_duplicate_titles>
269796

> <s_m_subgroup_title>
dock_pv

> <s_m_subgroupid>
dock_pv1

> <b_m_subgroup_collapsed>
0

$$$$
270373
                    3D
 Schrodinger Suite 2021-1.
 55 59  0  0  1  0            999 V2000
   43.2753   55.6294   37.4890 C   0  0  0  0  0  0
   42.4232   54.5626   37.7550 C   0  0  0  0  0  0
   41.2081   54.4445   37.0858 C   0  0  0  0  0  0
   40.8290   55.4035   36.1145 C   0  0  0  0  0  0
   39.6111   55.2977   35.3980 C   0  0  0  0  0  0
   39.2877   56.2241   34.4067 C   0  0  0  0  0  0
   40.1514   57.2877   34.1419 C   0  0  0  0  0  0
   41.3470   57.4300   34.8375 C   0  0  0  0  0  0
   41.7109   56.4909   35.8313 C   0  0  0  0  0  0
   42.9325   56.5920   36.5420 C   0  0  0  0  0  0
   38.0036   56.0966   33.6535 C   0  0  0  0  0  0
   36.7003   56.1671   34.1485 C   0  0  0  0  0  0
   35.8265   56.0726   33.0045 C   0  0  0  0  0  0
   34.4376   56.1581   32.8225 C   0  0  0  0  0  0
   33.8902   55.9859   31.5537 C   0  0  0  0  0  0
   34.7042   55.7186   30.4603 C   0  0  0  0  0  0
   36.0889   55.6252   30.5849 C   0  0  0  0  0  0
   36.6393   55.8304   31.8601 C   0  0  0  0  0  0
   37.9558   55.8523   32.2862 N   0  0  0  0  0  0
   39.1022   55.5781   31.4163 C   0  0  0  0  0  0
   39.3313   54.0600   31.2803 C   0  0  0  0  0  0
   40.7789   53.6422   30.9616 C   0  0  0  0  0  0
   42.1085   54.2877   32.0371 S   0  0  0  0  0  0
   41.9046   53.2863   33.5188 C   0  0  0  0  0  0
   40.7945   52.7720   33.8031 N   0  0  0  0  0  0
   43.0708   53.1720   34.2233 N   0  0  0  0  0  0
   36.3084   56.3079   35.5638 C   0  0  0  0  0  0
   36.9707   56.9562   36.5309 C   0  0  0  0  0  0
   36.2516   56.7719   37.7529 C   0  0  0  0  0  0
   36.5398   57.1719   38.8770 O   0  0  0  0  0  0
   35.1677   56.0642   37.4285 N   0  0  0  0  0  0
   35.1476   55.6916   36.1479 C   0  0  0  0  0  0
   34.3016   54.9683   35.6339 O   0  0  0  0  0  0
   44.2172   55.7013   38.0132 H   0  0  0  0  0  0
   42.7155   53.8121   38.4759 H   0  0  0  0  0  0
   40.5585   53.6057   37.2864 H   0  0  0  0  0  0
   38.9469   54.4706   35.6054 H   0  0  0  0  0  0
   39.9009   58.0115   33.3813 H   0  0  0  0  0  0
   42.0105   58.2527   34.6141 H   0  0  0  0  0  0
   43.6042   57.4125   36.3317 H   0  0  0  0  0  0
   33.8014   56.3670   33.6644 H   0  0  0  0  0  0
   32.8202   56.0545   31.4149 H   0  0  0  0  0  0
   34.2504   55.5731   29.4890 H   0  0  0  0  0  0
   36.7009   55.4017   29.7234 H   0  0  0  0  0  0
   39.9774   56.0891   31.8098 H   0  0  0  0  0  0
   38.9101   56.0081   30.4373 H   0  0  0  0  0  0
   38.7011   53.6906   30.4751 H   0  0  0  0  0  0
   38.9914   53.5340   32.1721 H   0  0  0  0  0  0
   41.0157   53.9722   29.9511 H   0  0  0  0  0  0
   40.8492   52.5531   30.9321 H   0  0  0  0  0  0
   40.8639   52.1832   34.6207 H   0  0  0  0  0  0
   43.0642   52.5976   35.0523 H   0  0  0  0  0  0
   43.9119   53.1062   33.6673 H   0  0  0  0  0  0
   37.8958   57.5045   36.4352 H   0  0  0  0  0  0
   34.4533   55.8043   38.0900 H   0  0  0  0  0  0
  1 10  1  0  0  0
  1  2  2  0  0  0
  1 34  1  0  0  0
  2  3  1  0  0  0
  2 35  1  0  0  0
  3  4  2  0  0  0
  3 36  1  0  0  0
  4  9  1  0  0  0
  4  5  1  0  0  0
  5  6  2  0  0  0
  5 37  1  0  0  0
  6  7  1  0  0  0
  6 11  1  0  0  0
  7  8  2  0  0  0
  7 38  1  0  0  0
  8  9  1  0  0  0
  8 39  1  0  0  0
  9 10  2  0  0  0
 10 40  1  0  0  0
 11 19  1  0  0  0
 11 12  2  0  0  0
 12 13  1  0  0  0
 12 27  1  0  0  0
 13 18  2  0  0  0
 13 14  1  0  0  0
 14 15  2  0  0  0
 14 41  1  0  0  0
 15 16  1  0  0  0
 15 42  1  0  0  0
 16 17  2  0  0  0
 16 43  1  0  0  0
 17 18  1  0  0  0
 17 44  1  0  0  0
 18 19  1  0  0  0
 19 20  1  0  0  0
 20 21  1  0  0  0
 20 45  1  0  0  0
 20 46  1  0  0  0
 21 22  1  0  0  0
 21 47  1  0  0  0
 21 48  1  0  0  0
 22 23  1  0  0  0
 22 49  1  0  0  0
 22 50  1  0  0  0
 23 24  1  0  0  0
 24 25  2  3  0  0
 24 26  1  0  0  0
 25 51  1  0  0  0
 26 52  1  0  0  0
 26 53  1  0  0  0
 27 32  1  0  0  0
 27 28  2  0  0  0
 28 29  1  0  0  0
 28 54  1  0  0  0
 29 30  2  0  0  0
 29 31  1  0  0  0
 31 32  1  0  0  0
 31 55  1  0  0  0
 32 33  2  0  0  0
M  END
> <s_m_entry_id>
4376

> <s_m_entry_name>
ligand_docking-pose.146

> <s_m_Source_Path>
/home/csk/Desktop/cluster/DUD-E-result/kpcb

> <s_m_Source_File>
ligand_docking-pose.sdf

> <i_m_Source_File_Index>
146

> <i_lp_mmshare_version>
53161

> <r_lp_tautomer_probability>
1

> <s_lp_Force_Field>
OPLS_2005

> <r_lp_Energy>
22.587792

> <b_lp_Chiralities_Consistent>
1

> <s_lp_Variant>
270373-1

> <s_i_glide_gridfile>
glide-grid_2i0e

> <i_i_glide_lignum>
74

> <i_i_glide_rotatable_bonds>
7

> <r_i_docking_score>
-7.54318090548122

> <r_i_glide_ligand_efficiency>
-0.228581239560037

> <r_i_glide_ligand_efficiency_sa>
-0.733182172227293

> <r_i_glide_ligand_efficiency_ln>
-1.67756437687855

> <r_i_glide_gscore>
-7.54318090548122

> <r_i_glide_lipo>
-2.54087909518747

> <r_i_glide_hbond>
-0.313910227767402

> <r_i_glide_metal>
0

> <r_i_glide_rewards>
-1.70478843222797

> <r_i_glide_evdw>
-50.5922966003418

> <r_i_glide_ecoul>
-6.65000200271606

> <r_i_glide_erotb>
0.680379703595524

> <r_i_glide_esite>
-0.136867723469411

> <r_i_glide_emodel>
-82.4998941679533

> <r_i_glide_energy>
-57.2422986030579

> <r_i_glide_einternal>
5.05072975158691

> <i_i_glide_confnum>
116

> <i_i_glide_posenum>
87

> <r_i_glide_eff_state_penalty>
0

> <i_f3d_flags>
0

> <s_user_duplicate_titles>
270373

> <s_m_subgroup_title>
dock_pv

> <s_m_subgroupid>
dock_pv1

> <b_m_subgroup_collapsed>
0

$$$$
35328
                    3D
 Schrodinger Suite 2021-1.
 52 58  0  0  1  0            999 V2000
   41.1006   52.9577   36.4151 C   0  0  0  0  0  0
   40.1261   52.3992   35.3730 C   0  0  0  0  0  0
   39.3151   53.4505   34.8802 O   0  0  0  0  0  0
   38.7010   53.3651   33.6814 C   0  0  0  0  0  0
   38.7005   52.3729   32.9582 O   0  0  0  0  0  0
   37.9744   54.6487   33.2355 C   0  0  1  0  0  0
   37.5993   55.5675   34.3194 N   0  0  0  0  0  0
   36.3054   55.8190   34.7566 C   0  0  0  0  0  0
   35.0636   55.5720   34.1536 C   0  0  0  0  0  0
   33.9216   55.7788   34.9250 C   0  0  0  0  0  0
   33.9999   56.2401   36.2324 C   0  0  0  0  0  0
   35.2207   56.5350   36.8240 C   0  0  0  0  0  0
   36.3983   56.3319   36.0888 C   0  0  0  0  0  0
   37.7675   56.4750   36.3914 C   0  0  0  0  0  0
   38.4577   56.1942   35.2037 C   0  0  0  0  0  0
   39.8370   56.3481   35.1191 C   0  0  0  0  0  0
   40.6004   56.5658   36.2829 C   0  0  0  0  0  0
   41.9504   56.4913   35.8747 C   0  0  0  0  0  0
   43.1716   56.5439   36.5714 C   0  0  0  0  0  0
   44.3629   56.4502   35.8574 C   0  0  0  0  0  0
   44.3611   56.3299   34.4726 C   0  0  0  0  0  0
   43.1770   56.2857   33.7381 C   0  0  0  0  0  0
   41.9685   56.3466   34.4494 C   0  0  0  0  0  0
   40.6515   56.3361   34.0004 N   0  0  0  0  0  0
   40.2396   56.5560   32.6100 C   0  0  0  0  0  0
   38.8720   55.5012   31.8405 S   0  0  0  0  0  0
   39.5255   54.4930   31.0040 O   0  0  0  0  0  0
   37.8987   56.4122   31.2359 O   0  0  0  0  0  0
   39.9082   56.7645   37.5012 C   0  0  0  0  0  0
   38.5276   56.7766   37.5369 C   0  0  0  0  0  0
   38.1195   57.0596   38.9337 C   0  0  0  0  0  0
   36.9877   57.1718   39.3931 O   0  0  0  0  0  0
   39.2635   57.1511   39.6314 N   0  0  0  0  0  0
   40.3802   56.9903   38.8978 C   0  0  0  0  0  0
   41.5242   57.0339   39.3337 O   0  0  0  0  0  0
   41.7113   52.1603   36.8357 H   0  0  0  0  0  0
   41.7850   53.6746   35.9614 H   0  0  0  0  0  0
   40.5840   53.4560   37.2352 H   0  0  0  0  0  0
   40.7006   51.9727   34.5523 H   0  0  0  0  0  0
   39.5028   51.6109   35.7949 H   0  0  0  0  0  0
   37.0560   54.3002   32.7713 H   0  0  0  0  0  0
   34.9822   55.1882   33.1473 H   0  0  0  0  0  0
   32.9503   55.5703   34.5048 H   0  0  0  0  0  0
   33.1005   56.3684   36.8137 H   0  0  0  0  0  0
   35.2316   56.8994   37.8374 H   0  0  0  0  0  0
   43.2079   56.6472   37.6428 H   0  0  0  0  0  0
   45.3050   56.4786   36.3841 H   0  0  0  0  0  0
   45.3040   56.2584   33.9526 H   0  0  0  0  0  0
   43.2095   56.1807   32.6645 H   0  0  0  0  0  0
   39.9029   57.5851   32.5341 H   0  0  0  0  0  0
   41.0958   56.4458   31.9484 H   0  0  0  0  0  0
   39.2769   57.2832   40.6299 H   0  0  0  0  0  0
  1  2  1  0  0  0
  1 36  1  0  0  0
  1 37  1  0  0  0
  1 38  1  0  0  0
  2  3  1  0  0  0
  2 39  1  0  0  0
  2 40  1  0  0  0
  3  4  1  0  0  0
  4  5  2  0  0  0
  4  6  1  0  0  0
  6 26  1  0  0  0
  6  7  1  0  0  0
  6 41  1  0  0  0
  7 15  1  0  0  0
  7  8  1  0  0  0
  8 13  2  0  0  0
  8  9  1  0  0  0
  9 10  2  0  0  0
  9 42  1  0  0  0
 10 11  1  0  0  0
 10 43  1  0  0  0
 11 12  2  0  0  0
 11 44  1  0  0  0
 12 13  1  0  0  0
 12 45  1  0  0  0
 13 14  1  0  0  0
 14 30  2  0  0  0
 14 15  1  0  0  0
 15 16  2  0  0  0
 16 24  1  0  0  0
 16 17  1  0  0  0
 17 18  1  0  0  0
 17 29  2  0  0  0
 18 23  2  0  0  0
 18 19  1  0  0  0
 19 20  2  0  0  0
 19 46  1  0  0  0
 20 21  1  0  0  0
 20 47  1  0  0  0
 21 22  2  0  0  0
 21 48  1  0  0  0
 22 23  1  0  0  0
 22 49  1  0  0  0
 23 24  1  0  0  0
 24 25  1  0  0  0
 25 26  1  0  0  0
 25 50  1  0  0  0
 25 51  1  0  0  0
 26 27  2  0  0  0
 26 28  2  0  0  0
 29 34  1  0  0  0
 29 30  1  0  0  0
 30 31  1  0  0  0
 31 32  2  0  0  0
 31 33  1  0  0  0
 33 34  1  0  0  0
 33 52  1  0  0  0
 34 35  2  0  0  0
M  END
> <s_m_entry_id>
4386

> <s_m_entry_name>
ligand_docking-pose.156

> <s_m_Source_Path>
/home/csk/Desktop/cluster/DUD-E-result/kpcb

> <s_m_Source_File>
ligand_docking-pose.sdf

> <i_m_Source_File_Index>
156

> <i_lp_mmshare_version>
53161

> <r_lp_tautomer_probability>
1

> <s_lp_Force_Field>
OPLS_2005

> <r_lp_Energy>
115.71045

> <b_lp_Chiralities_Consistent>
1

> <s_lp_Variant>
35328-2

> <s_i_glide_gridfile>
glide-grid_2i0e

> <i_i_glide_lignum>
392

> <i_i_glide_rotatable_bonds>
3

> <r_i_docking_score>
-7.2005368888094

> <r_i_glide_ligand_efficiency>
-0.205729625394554

> <r_i_glide_ligand_efficiency_sa>
-0.672955245838315

> <r_i_glide_ligand_efficiency_ln>
-1.58067765439972

> <r_i_glide_gscore>
-7.2005368888094

> <r_i_glide_lipo>
-2.33632270286552

> <r_i_glide_hbond>
-0.327307016864746

> <r_i_glide_metal>
0

> <r_i_glide_rewards>
-1.5862543882466

> <r_i_glide_evdw>
-50.9690818786621

> <r_i_glide_ecoul>
-3.17744088172913

> <r_i_glide_erotb>
0.0855476487535136

> <r_i_glide_esite>
-0.0111302033935665

> <r_i_glide_emodel>
-73.5239653366787

> <r_i_glide_energy>
-54.1465227603912

> <r_i_glide_einternal>
5.3173623085022

> <i_i_glide_confnum>
1

> <i_i_glide_posenum>
42

> <r_i_glide_eff_state_penalty>
0

> <i_f3d_flags>
0

> <s_user_duplicate_titles>
35328

> <s_m_subgroup_title>
dock_pv

> <s_m_subgroupid>
dock_pv1

> <b_m_subgroup_collapsed>
0

$$$$
117328
                    3D
 Schrodinger Suite 2021-1.
 27 29  0  0  1  0            999 V2000
   34.2827   57.1670   31.6465 C   0  0  0  0  0  0
   35.0991   57.4731   32.7415 C   0  0  0  0  0  0
   35.0647   56.5012   33.7356 C   0  0  0  0  0  0
   34.0495   55.1722   33.2649 S   0  0  0  0  0  0
   33.6486   55.9341   31.7606 C   0  0  0  0  0  0
   32.7388   55.2831   30.8360 C   0  0  0  0  0  0
   32.3039   54.1381   30.9729 O   0  0  0  0  0  0
   35.7561   56.4917   34.9983 C   0  0  0  0  0  0
   35.2507   56.2982   36.2786 C   0  0  0  0  0  0
   36.2356   56.3527   37.2740 C   0  0  0  0  0  0
   37.5247   56.5623   36.7806 C   0  0  0  0  0  0
   37.4704   56.7208   35.0427 S   0  0  0  0  0  0
   38.7848   56.6530   37.5381 C   0  0  0  0  0  0
   38.9552   56.6498   38.9247 C   0  0  0  0  0  0
   40.2886   56.7483   39.3684 C   0  0  0  0  0  0
   41.1477   56.8182   38.2721 C   0  0  0  0  0  0
   40.3347   56.7717   36.7503 S   0  0  0  0  0  0
   40.7090   56.7717   40.7609 C   0  0  0  0  0  0
   41.8832   56.8906   41.1062 O   0  0  0  0  0  0
   34.1658   57.8331   30.8095 H   0  0  0  0  0  0
   35.6775   58.3829   32.8180 H   0  0  0  0  0  0
   32.4326   55.9160   30.0071 H   0  0  0  0  0  0
   34.2025   56.1300   36.4850 H   0  0  0  0  0  0
   36.0147   56.2222   38.3223 H   0  0  0  0  0  0
   38.1214   56.5721   39.6082 H   0  0  0  0  0  0
   42.2257   56.8994   38.2944 H   0  0  0  0  0  0
   39.9052   56.6853   41.4922 H   0  0  0  0  0  0
  1  5  2  0  0  0
  1  2  1  0  0  0
  1 20  1  0  0  0
  2  3  2  0  0  0
  2 21  1  0  0  0
  3  4  1  0  0  0
  3  8  1  0  0  0
  4  5  1  0  0  0
  5  6  1  0  0  0
  6  7  2  0  0  0
  6 22  1  0  0  0
  8 12  1  0  0  0
  8  9  2  0  0  0
  9 10  1  0  0  0
  9 23  1  0  0  0
 10 11  2  0  0  0
 10 24  1  0  0  0
 11 12  1  0  0  0
 11 13  1  0  0  0
 13 17  1  0  0  0
 13 14  2  0  0  0
 14 15  1  0  0  0
 14 25  1  0  0  0
 15 16  2  0  0  0
 15 18  1  0  0  0
 16 17  1  0  0  0
 16 26  1  0  0  0
 18 19  2  0  0  0
 18 27  1  0  0  0
M  END
> <s_m_entry_id>
4390

> <s_m_entry_name>
ligand_docking-pose.160

> <s_m_Source_Path>
/home/csk/Desktop/cluster/DUD-E-result/kpcb

> <s_m_Source_File>
ligand_docking-pose.sdf

> <i_m_Source_File_Index>
160

> <i_lp_mmshare_version>
53161

> <r_lp_tautomer_probability>
1

> <s_lp_Force_Field>
OPLS_2005

> <r_lp_Energy>
4.596766

> <b_lp_Chiralities_Consistent>
1

> <s_lp_Variant>
117328-1

> <s_i_glide_gridfile>
glide-grid_2i0e

> <i_i_glide_lignum>
224

> <i_i_glide_rotatable_bonds>
4

> <r_i_docking_score>
-7.07447487857885

> <r_i_glide_ligand_efficiency>
-0.372340783083097

> <r_i_glide_ligand_efficiency_sa>
-0.993554758490203

> <r_i_glide_ligand_efficiency_ln>
-1.79353132750804

> <r_i_glide_gscore>
-7.07447487857885

> <r_i_glide_lipo>
-3.06361953683015

> <r_i_glide_hbond>
-0.00783991707173681

> <r_i_glide_metal>
0

> <r_i_glide_rewards>
-1.99485986160145

> <r_i_glide_evdw>
-36.1289253234863

> <r_i_glide_ecoul>
-3.99825692176819

> <r_i_glide_erotb>
0.398029241364034

> <r_i_glide_esite>
0

> <r_i_glide_emodel>
-56.3093648872286

> <r_i_glide_energy>
-40.1271822452545

> <r_i_glide_einternal>
2.67852830886841

> <i_i_glide_confnum>
2

> <i_i_glide_posenum>
186

> <r_i_glide_eff_state_penalty>
0

> <i_f3d_flags>
0

> <s_user_duplicate_titles>
117328

> <s_m_subgroup_title>
dock_pv

> <s_m_subgroupid>
dock_pv1

> <b_m_subgroup_collapsed>
0

$$$$
312022
                    3D
 Schrodinger Suite 2021-1.
 58 63  0  0  1  0            999 V2000
   33.8674   57.6567   31.6365 C   0  0  0  0  0  0
   33.9729   56.5137   30.6140 C   0  0  0  0  0  0
   32.8363   55.5069   30.8362 C   0  0  0  0  0  0
   35.1688   55.7632   30.7375 O   0  0  0  0  0  0
   36.4303   56.2820   30.8366 C   0  0  0  0  0  0
   36.7318   57.4059   30.4370 O   0  0  0  0  0  0
   37.2797   55.3728   31.4926 N   0  0  0  0  0  0
   38.7320   55.6125   31.6842 C   0  0  0  0  0  0
   39.4459   54.8836   32.8877 C   0  0  0  0  0  0
   38.9317   55.2216   34.2303 N   0  0  0  0  0  0
   39.6301   55.2825   35.4084 C   0  0  0  0  0  0
   38.8973   55.9236   36.4011 C   0  0  0  0  0  0
   37.5501   55.9954   35.8637 C   0  0  0  0  0  0
   37.6088   55.4232   34.5575 C   0  0  0  0  0  0
   36.4881   55.1720   33.7722 C   0  0  0  0  0  0
   35.2603   55.5724   34.3049 C   0  0  0  0  0  0
   35.1630   56.2324   35.5236 C   0  0  0  0  0  0
   36.2942   56.4655   36.3010 C   0  0  0  0  0  0
   36.6475   54.4645   32.4371 C   0  0  0  0  0  0
   39.4533   56.3473   37.7084 C   0  0  0  0  0  0
   40.7375   56.5699   38.0693 C   0  0  0  0  0  0
   40.7700   56.8808   39.4730 C   0  0  0  0  0  0
   41.7293   57.1346   40.2003 O   0  0  0  0  0  0
   39.5006   56.8442   39.8608 N   0  0  0  0  0  0
   38.6466   56.5151   38.8918 C   0  0  0  0  0  0
   37.4380   56.3776   39.0624 O   0  0  0  0  0  0
   41.9968   56.4618   37.3167 C   0  0  0  0  0  0
   43.1933   55.8682   37.7421 C   0  0  0  0  0  0
   44.1251   55.7972   36.8214 N   0  0  0  0  0  0
   43.5500   56.3526   35.7307 C   0  0  0  0  0  0
   42.2645   56.8575   36.0206 N   0  0  0  0  0  0
   41.5191   57.5173   35.0722 C   0  0  0  0  0  0
   41.9820   57.5718   33.7621 C   0  0  0  0  0  0
   43.2323   57.0433   33.4473 C   0  0  0  0  0  0
   44.0405   56.4583   34.4200 C   0  0  0  0  0  0
   32.9338   58.2073   31.5169 H   0  0  0  0  0  0
   33.9013   57.2664   32.6470 H   0  0  0  0  0  0
   34.6782   58.3719   31.5412 H   0  0  0  0  0  0
   33.9047   56.9001   29.5996 H   0  0  0  0  0  0
   31.8757   56.0152   30.8353 H   0  0  0  0  0  0
   32.8136   54.7640   30.0381 H   0  0  0  0  0  0
   32.9327   54.9817   31.7869 H   0  0  0  0  0  0
   39.2303   55.3241   30.7571 H   0  0  0  0  0  0
   38.8997   56.6862   31.7834 H   0  0  0  0  0  0
   39.4011   53.8002   32.7703 H   0  0  0  0  0  0
   40.5073   55.1342   32.8690 H   0  0  0  0  0  0
   40.6639   54.9727   35.4017 H   0  0  0  0  0  0
   34.3559   55.3752   33.7492 H   0  0  0  0  0  0
   34.1940   56.5524   35.8812 H   0  0  0  0  0  0
   36.1708   56.9819   37.2357 H   0  0  0  0  0  0
   35.6912   54.0644   32.1006 H   0  0  0  0  0  0
   37.2598   53.5727   32.5680 H   0  0  0  0  0  0
   39.2042   56.9851   40.8145 H   0  0  0  0  0  0
   43.3644   55.4422   38.7214 H   0  0  0  0  0  0
   40.5535   57.8928   35.3771 H   0  0  0  0  0  0
   41.3768   58.0280   32.9918 H   0  0  0  0  0  0
   43.5988   57.0983   32.4369 H   0  0  0  0  0  0
   45.0137   56.0634   34.1675 H   0  0  0  0  0  0
  1  2  1  0  0  0
  1 36  1  0  0  0
  1 37  1  0  0  0
  1 38  1  0  0  0
  2  3  1  0  0  0
  2  4  1  0  0  0
  2 39  1  0  0  0
  3 40  1  0  0  0
  3 41  1  0  0  0
  3 42  1  0  0  0
  4  5  1  0  0  0
  5  6  2  0  0  0
  5  7  1  0  0  0
  7 19  1  0  0  0
  7  8  1  0  0  0
  8  9  1  0  0  0
  8 43  1  0  0  0
  8 44  1  0  0  0
  9 10  1  0  0  0
  9 45  1  0  0  0
  9 46  1  0  0  0
 10 14  1  0  0  0
 10 11  1  0  0  0
 11 12  2  0  0  0
 11 47  1  0  0  0
 12 13  1  0  0  0
 12 20  1  0  0  0
 13 18  2  0  0  0
 13 14  1  0  0  0
 14 15  2  0  0  0
 15 16  1  0  0  0
 15 19  1  0  0  0
 16 17  2  0  0  0
 16 48  1  0  0  0
 17 18  1  0  0  0
 17 49  1  0  0  0
 18 50  1  0  0  0
 19 51  1  0  0  0
 19 52  1  0  0  0
 20 25  1  0  0  0
 20 21  2  0  0  0
 21 22  1  0  0  0
 21 27  1  0  0  0
 22 23  2  0  0  0
 22 24  1  0  0  0
 24 25  1  0  0  0
 24 53  1  0  0  0
 25 26  2  0  0  0
 27 31  1  0  0  0
 27 28  2  0  0  0
 28 29  1  0  0  0
 28 54  1  0  0  0
 29 30  2  0  0  0
 30 35  1  0  0  0
 30 31  1  0  0  0
 31 32  1  0  0  0
 32 33  2  0  0  0
 32 55  1  0  0  0
 33 34  1  0  0  0
 33 56  1  0  0  0
 34 35  2  0  0  0
 34 57  1  0  0  0
 35 58  1  0  0  0
M  END
> <s_m_entry_id>
4392

> <s_m_entry_name>
ligand_docking-pose.162

> <s_m_Source_Path>
/home/csk/Desktop/cluster/DUD-E-result/kpcb

> <s_m_Source_File>
ligand_docking-pose.sdf

> <i_m_Source_File_Index>
162

> <i_lp_mmshare_version>
53161

> <r_lp_tautomer_probability>
1

> <s_lp_Force_Field>
OPLS_2005

> <r_lp_Energy>
56.627209

> <b_lp_Chiralities_Consistent>
1

> <s_lp_Variant>
312022-1

> <s_i_glide_gridfile>
glide-grid_2i0e

> <i_i_glide_lignum>
372

> <i_i_glide_rotatable_bonds>
5

> <r_i_docking_score>
-7.01860720979038

> <r_i_glide_ligand_efficiency>
-0.200531634565439

> <r_i_glide_ligand_efficiency_sa>
-0.655952273176679

> <r_i_glide_ligand_efficiency_ln>
-1.54074005214337

> <r_i_glide_gscore>
-7.01860720979038

> <r_i_glide_lipo>
-2.50322379563382

> <r_i_glide_hbond>
-0.157867217450615

> <r_i_glide_metal>
0

> <r_i_glide_rewards>
-1.98767980395439

> <r_i_glide_evdw>
-46.3521690368652

> <r_i_glide_ecoul>
-2.79172444343567

> <r_i_glide_erotb>
0.366530725607054

> <r_i_glide_esite>
0

> <r_i_glide_emodel>
-62.3243740224771

> <r_i_glide_energy>
-49.1438934803009

> <r_i_glide_einternal>
8.80354404449463

> <i_i_glide_confnum>
40

> <i_i_glide_posenum>
57

> <r_i_glide_eff_state_penalty>
0

> <i_f3d_flags>
0

> <s_user_duplicate_titles>
312022

> <s_m_subgroup_title>
dock_pv

> <s_m_subgroupid>
dock_pv1

> <b_m_subgroup_collapsed>
0

$$$$
146440
                    3D
 Schrodinger Suite 2021-1.
 25 27  0  0  1  0            999 V2000
   39.8305   57.0051   39.6373 C   0  0  0  0  0  0
   38.5318   56.9910   39.1203 C   0  0  0  0  0  0
   38.4753   56.7428   37.7494 C   0  0  0  0  0  0
   40.0895   56.5445   37.1071 S   0  0  0  0  0  0
   40.7933   56.7721   38.6704 C   0  0  0  0  0  0
   37.2747   56.6188   36.9204 C   0  0  0  0  0  0
   35.9715   56.3719   37.3464 C   0  0  0  0  0  0
   35.0451   56.2886   36.3014 C   0  0  0  0  0  0
   35.6106   56.4937   35.0473 C   0  0  0  0  0  0
   37.3169   56.7708   35.1832 S   0  0  0  0  0  0
   34.9772   56.4669   33.7469 C   0  0  0  0  0  0
   35.1043   57.3579   32.6839 C   0  0  0  0  0  0
   34.3282   57.0066   31.5728 C   0  0  0  0  0  0
   33.6143   55.8328   31.7572 C   0  0  0  0  0  0
   33.9011   55.1720   33.3283 S   0  0  0  0  0  0
   32.7222   55.1580   30.8367 C   0  0  0  0  0  0
   32.3011   54.0107   30.9934 O   0  0  0  0  0  0
   40.0531   57.1677   40.6822 H   0  0  0  0  0  0
   37.6584   57.1409   39.7372 H   0  0  0  0  0  0
   41.8651   56.7198   38.7971 H   0  0  0  0  0  0
   35.6980   56.2379   38.3824 H   0  0  0  0  0  0
   33.9940   56.0883   36.4550 H   0  0  0  0  0  0
   35.7334   58.2352   32.7174 H   0  0  0  0  0  0
   34.2983   57.5749   30.6581 H   0  0  0  0  0  0
   32.4218   55.7682   29.9880 H   0  0  0  0  0  0
  1  5  2  0  0  0
  1  2  1  0  0  0
  1 18  1  0  0  0
  2  3  2  0  0  0
  2 19  1  0  0  0
  3  4  1  0  0  0
  3  6  1  0  0  0
  4  5  1  0  0  0
  5 20  1  0  0  0
  6 10  1  0  0  0
  6  7  2  0  0  0
  7  8  1  0  0  0
  7 21  1  0  0  0
  8  9  2  0  0  0
  8 22  1  0  0  0
  9 10  1  0  0  0
  9 11  1  0  0  0
 11 15  1  0  0  0
 11 12  2  0  0  0
 12 13  1  0  0  0
 12 23  1  0  0  0
 13 14  2  0  0  0
 13 24  1  0  0  0
 14 15  1  0  0  0
 14 16  1  0  0  0
 16 17  2  0  0  0
 16 25  1  0  0  0
M  END
> <s_m_entry_id>
4393

> <s_m_entry_name>
ligand_docking-pose.163

> <s_m_Source_Path>
/home/csk/Desktop/cluster/DUD-E-result/kpcb

> <s_m_Source_File>
ligand_docking-pose.sdf

> <i_m_Source_File_Index>
163

> <i_lp_mmshare_version>
53161

> <r_lp_tautomer_probability>
1

> <s_lp_Force_Field>
OPLS_2005

> <r_lp_Energy>
4.297032

> <b_lp_Chiralities_Consistent>
1

> <s_lp_Variant>
146440-1

> <s_i_glide_gridfile>
glide-grid_2i0e

> <i_i_glide_lignum>
222

> <i_i_glide_rotatable_bonds>
3

> <r_i_docking_score>
-7.00238445590699

> <r_i_glide_ligand_efficiency>
-0.411904967994529

> <r_i_glide_ligand_efficiency_sa>
-1.05912366030476

> <r_i_glide_ligand_efficiency_ln>
-1.82676616911107

> <r_i_glide_gscore>
-7.00238445590699

> <r_i_glide_lipo>
-3.18906016333021

> <r_i_glide_hbond>
-0.0582238334996389

> <r_i_glide_metal>
0

> <r_i_glide_rewards>
-2.04679235012536

> <r_i_glide_evdw>
-34.1403274536133

> <r_i_glide_ecoul>
-3.14852094650269

> <r_i_glide_erotb>
0.470986405704293

> <r_i_glide_esite>
0

> <r_i_glide_emodel>
-52.20849887091

> <r_i_glide_energy>
-37.288848400116

> <r_i_glide_einternal>
2.0251202583313

> <i_i_glide_confnum>
4

> <i_i_glide_posenum>
217

> <r_i_glide_eff_state_penalty>
0

> <i_f3d_flags>
0

> <s_user_duplicate_titles>
146440

> <s_m_subgroup_title>
dock_pv

> <s_m_subgroupid>
dock_pv1

> <b_m_subgroup_collapsed>
0

$$$$
118075
                    3D
 Schrodinger Suite 2021-1.
 29 31  0  0  1  0            999 V2000
   41.2240   56.5714   37.7523 C   0  0  0  0  0  0
   40.3017   56.5294   36.7030 C   0  0  0  0  0  0
   38.9755   56.6723   37.1095 C   0  0  0  0  0  0
   38.9023   56.9061   38.8375 S   0  0  0  0  0  0
   40.6294   56.7608   38.9927 C   0  0  0  0  0  0
   41.2803   56.8227   40.2946 C   0  0  0  0  0  0
   40.7007   57.0308   41.3607 O   0  0  0  0  0  0
   37.7576   56.6224   36.3014 C   0  0  0  0  0  0
   36.4310   56.7271   36.7144 C   0  0  0  0  0  0
   35.5049   56.5821   35.6789 C   0  0  0  0  0  0
   36.0865   56.3633   34.4342 C   0  0  0  0  0  0
   37.8237   56.3638   34.5775 S   0  0  0  0  0  0
   35.3957   56.1290   33.1724 C   0  0  0  0  0  0
   34.1261   55.5754   33.0199 C   0  0  0  0  0  0
   33.6683   55.4859   31.6979 C   0  0  0  0  0  0
   34.6355   55.9713   30.8213 C   0  0  0  0  0  0
   36.0649   56.5349   31.6160 S   0  0  0  0  0  0
   32.3011   54.9540   31.3215 C   0  0  0  0  0  0
   32.3010   54.3713   30.0358 O   0  0  0  0  0  0
   42.2885   56.4550   37.6072 H   0  0  0  0  0  0
   40.5943   56.3749   35.6741 H   0  0  0  0  0  0
   42.3601   56.6585   40.2575 H   0  0  0  0  0  0
   36.1384   56.8898   37.7424 H   0  0  0  0  0  0
   34.4352   56.6200   35.8391 H   0  0  0  0  0  0
   33.5308   55.2520   33.8613 H   0  0  0  0  0  0
   34.5679   56.0179   29.7437 H   0  0  0  0  0  0
   31.9843   54.1802   32.0204 H   0  0  0  0  0  0
   31.5508   55.7427   31.3499 H   0  0  0  0  0  0
   32.3559   55.0687   29.3609 H   0  0  0  0  0  0
  1  5  2  0  0  0
  1  2  1  0  0  0
  1 20  1  0  0  0
  2  3  2  0  0  0
  2 21  1  0  0  0
  3  4  1  0  0  0
  3  8  1  0  0  0
  4  5  1  0  0  0
  5  6  1  0  0  0
  6  7  2  0  0  0
  6 22  1  0  0  0
  8 12  1  0  0  0
  8  9  2  0  0  0
  9 10  1  0  0  0
  9 23  1  0  0  0
 10 11  2  0  0  0
 10 24  1  0  0  0
 11 12  1  0  0  0
 11 13  1  0  0  0
 13 17  1  0  0  0
 13 14  2  0  0  0
 14 15  1  0  0  0
 14 25  1  0  0  0
 15 16  2  0  0  0
 15 18  1  0  0  0
 16 17  1  0  0  0
 16 26  1  0  0  0
 18 19  1  0  0  0
 18 27  1  0  0  0
 18 28  1  0  0  0
 19 29  1  0  0  0
M  END
> <s_m_entry_id>
4395

> <s_m_entry_name>
ligand_docking-pose.165

> <s_m_Source_Path>
/home/csk/Desktop/cluster/DUD-E-result/kpcb

> <s_m_Source_File>
ligand_docking-pose.sdf

> <i_m_Source_File_Index>
165

> <i_lp_mmshare_version>
53161

> <r_lp_tautomer_probability>
1

> <s_lp_Force_Field>
OPLS_2005

> <r_lp_Energy>
4.330485

> <b_lp_Chiralities_Consistent>
1

> <s_lp_Variant>
118075-1

> <s_i_glide_gridfile>
glide-grid_2i0e

> <i_i_glide_lignum>
223

> <i_i_glide_rotatable_bonds>
5

> <r_i_docking_score>
-6.89143476526874

> <r_i_glide_ligand_efficiency>
-0.362707092908881

> <r_i_glide_ligand_efficiency_sa>
-0.967848203771278

> <r_i_glide_ligand_efficiency_ln>
-1.74712672744276

> <r_i_glide_gscore>
-6.89143476526874

> <r_i_glide_lipo>
-2.93131028066001

> <r_i_glide_hbond>
-0.33731285183738

> <r_i_glide_metal>
0

> <r_i_glide_rewards>
-1.67925900635419

> <r_i_glide_evdw>
-37.0468711853027

> <r_i_glide_ecoul>
-4.54255533218384

> <r_i_glide_erotb>
0.59017423267555

> <r_i_glide_esite>
0

> <r_i_glide_emodel>
-58.4397663525037

> <r_i_glide_energy>
-41.5894265174866

> <r_i_glide_einternal>
1.9315197467804

> <i_i_glide_confnum>
21

> <i_i_glide_posenum>
365

> <r_i_glide_eff_state_penalty>
0

> <i_f3d_flags>
0

> <s_user_duplicate_titles>
118075

> <s_m_subgroup_title>
dock_pv

> <s_m_subgroupid>
dock_pv1

> <b_m_subgroup_collapsed>
0

$$$$
86358
                    3D
 Schrodinger Suite 2021-1.
 61 68  0  0  1  0            999 V2000
   42.0139   52.9596   35.9799 C   0  0  0  0  0  0
   41.6197   54.3352   35.4352 C   0  0  1  0  0  0
   42.8951   55.0904   34.8243 C   0  0  1  0  0  0
   42.9341   54.8879   33.2219 C   0  0  1  0  0  0
   41.5461   55.1229   32.4631 C   0  0  0  0  0  0
   40.5606   55.1592   33.5837 C   0  0  2  0  0  0
   40.8028   54.0275   34.3603 O   0  0  0  0  0  0
   39.1687   55.4388   33.6586 N   0  0  0  0  0  0
   38.1069   55.5373   32.7749 C   0  0  0  0  0  0
   38.0441   55.3850   31.3862 C   0  0  0  0  0  0
   36.7988   55.5723   30.7847 C   0  0  0  0  0  0
   35.6646   55.9112   31.5136 C   0  0  0  0  0  0
   35.7209   56.0738   32.8928 C   0  0  0  0  0  0
   36.9467   55.8837   33.5531 C   0  0  0  0  0  0
   37.3343   55.9719   34.9157 C   0  0  0  0  0  0
   38.6921   55.6350   34.9480 C   0  0  0  0  0  0
   39.4402   55.5709   36.1499 C   0  0  0  0  0  0
   40.7575   55.0988   36.4010 N   0  0  0  0  0  0
   41.0093   55.3622   37.7509 C   0  0  0  0  0  0
   42.1380   55.1117   38.5495 C   0  0  0  0  0  0
   42.0916   55.5072   39.8855 C   0  0  0  0  0  0
   40.9792   56.1380   40.4301 C   0  0  0  0  0  0
   39.8477   56.3737   39.6571 C   0  0  0  0  0  0
   39.8416   55.9724   38.3139 C   0  0  0  0  0  0
   38.8378   56.0043   37.3350 C   0  0  0  0  0  0
   37.4688   56.3442   37.3222 C   0  0  0  0  0  0
   36.7179   56.2743   36.1482 C   0  0  0  0  0  0
   35.2847   56.5561   36.4804 C   0  0  0  0  0  0
   34.3007   56.5877   35.7489 O   0  0  0  0  0  0
   35.2789   56.7715   37.8042 N   0  0  0  0  0  0
   36.5757   56.7232   38.4568 C   0  0  0  0  0  0
   44.0655   55.5467   32.5691 N   0  0  2  0  0  0
   44.4424   54.8671   31.3346 C   0  0  0  0  0  0
   42.8989   56.4915   35.1491 O   0  0  0  0  0  0
   43.8898   56.9194   36.0858 C   0  0  0  0  0  0
   43.7961   54.6306   35.2412 H   0  0  0  0  0  0
   43.1173   53.8139   33.1181 H   0  0  0  0  0  0
   42.7468   53.0354   36.7800 H   0  0  0  0  0  0
   41.1379   52.4248   36.3511 H   0  0  0  0  0  0
   42.4622   52.3681   35.1793 H   0  0  0  0  0  0
   41.5163   56.0702   31.9243 H   0  0  0  0  0  0
   41.3085   54.3127   31.7737 H   0  0  0  0  0  0
   40.8341   56.1014   34.0736 H   0  0  0  0  0  0
   38.9095   55.1213   30.7950 H   0  0  0  0  0  0
   36.7009   55.4344   29.7163 H   0  0  0  0  0  0
   34.7280   56.0477   30.9948 H   0  0  0  0  0  0
   34.8249   56.3421   33.4276 H   0  0  0  0  0  0
   43.0250   54.6224   38.1734 H   0  0  0  0  0  0
   42.9484   55.3256   40.5164 H   0  0  0  0  0  0
   40.9856   56.4342   41.4694 H   0  0  0  0  0  0
   38.9819   56.8442   40.0985 H   0  0  0  0  0  0
   34.4151   56.9613   38.3002 H   0  0  0  0  0  0
   36.5776   55.9727   39.2434 H   0  0  0  0  0  0
   36.8284   57.6867   38.8981 H   0  0  0  0  0  0
   44.8435   55.5930   33.2138 H   0  0  0  0  0  0
   45.2347   55.4174   30.8295 H   0  0  0  0  0  0
   44.8168   53.8654   31.5442 H   0  0  0  0  0  0
   43.5994   54.7716   30.6520 H   0  0  0  0  0  0
   43.6834   57.9337   36.4348 H   0  0  0  0  0  0
   43.9184   56.2837   36.9734 H   0  0  0  0  0  0
   44.8857   56.9044   35.6271 H   0  0  0  0  0  0
  1  2  1  0  0  0
  1 38  1  0  0  0
  1 39  1  0  0  0
  1 40  1  0  0  0
  2  7  1  0  0  0
  2 18  1  0  0  0
  2  3  1  0  0  0
  3 36  1  0  0  0
  3  4  1  0  0  0
  3 34  1  0  0  0
  4 37  1  0  0  0
  4  5  1  0  0  0
  4 32  1  0  0  0
  5  6  1  0  0  0
  5 41  1  0  0  0
  5 42  1  0  0  0
  6  7  1  0  0  0
  6  8  1  0  0  0
  6 43  1  0  0  0
  8 16  1  0  0  0
  8  9  1  0  0  0
  9 14  2  0  0  0
  9 10  1  0  0  0
 10 11  2  0  0  0
 10 44  1  0  0  0
 11 12  1  0  0  0
 11 45  1  0  0  0
 12 13  2  0  0  0
 12 46  1  0  0  0
 13 14  1  0  0  0
 13 47  1  0  0  0
 14 15  1  0  0  0
 15 27  2  0  0  0
 15 16  1  0  0  0
 16 17  2  0  0  0
 17 25  1  0  0  0
 17 18  1  0  0  0
 18 19  1  0  0  0
 19 24  1  0  0  0
 19 20  2  0  0  0
 20 21  1  0  0  0
 20 48  1  0  0  0
 21 22  2  0  0  0
 21 49  1  0  0  0
 22 23  1  0  0  0
 22 50  1  0  0  0
 23 24  2  0  0  0
 23 51  1  0  0  0
 24 25  1  0  0  0
 25 26  2  0  0  0
 26 31  1  0  0  0
 26 27  1  0  0  0
 27 28  1  0  0  0
 28 29  2  0  0  0
 28 30  1  0  0  0
 30 31  1  0  0  0
 30 52  1  0  0  0
 31 53  1  0  0  0
 31 54  1  0  0  0
 32 33  1  0  0  0
 32 55  1  0  0  0
 33 56  1  0  0  0
 33 57  1  0  0  0
 33 58  1  0  0  0
 34 35  1  0  0  0
 35 59  1  0  0  0
 35 60  1  0  0  0
 35 61  1  0  0  0
M  END
> <s_m_entry_id>
4397

> <s_m_entry_name>
ligand_docking-pose.167

> <s_m_Source_Path>
/home/csk/Desktop/cluster/DUD-E-result/kpcb

> <s_m_Source_File>
ligand_docking-pose.sdf

> <i_m_Source_File_Index>
167

> <i_lp_mmshare_version>
53161

> <r_lp_tautomer_probability>
1

> <s_lp_Force_Field>
OPLS_2005

> <r_lp_Energy>
156.076751

> <b_lp_Chiralities_Consistent>
1

> <s_lp_Variant>
86358-2

> <s_i_glide_gridfile>
glide-grid_2i0e

> <i_i_glide_lignum>
262

> <i_i_glide_rotatable_bonds>
2

> <r_i_docking_score>
-6.84232687610507

> <r_i_glide_ligand_efficiency>
-0.195495053603002

> <r_i_glide_ligand_efficiency_sa>
-0.639477282891438

> <r_i_glide_ligand_efficiency_ln>
-1.50204260656823

> <r_i_glide_gscore>
-6.84232687610507

> <r_i_glide_lipo>
-2.30758401892172

> <r_i_glide_hbond>
-0.32

> <r_i_glide_metal>
0

> <r_i_glide_rewards>
-1.53307713233216

> <r_i_glide_evdw>
-42.9891357421875

> <r_i_glide_ecoul>
-3.39185452461243

> <r_i_glide_erotb>
0

> <r_i_glide_esite>
-0.0234307590499573

> <r_i_glide_emodel>
-64.8643331935101

> <r_i_glide_energy>
-46.3809902667999

> <r_i_glide_einternal>
1.87388455867767

> <i_i_glide_confnum>
1

> <i_i_glide_posenum>
53

> <r_i_glide_eff_state_penalty>
0

> <i_f3d_flags>
0

> <s_user_duplicate_titles>
86358

> <s_m_subgroup_title>
dock_pv

> <s_m_subgroupid>
dock_pv1

> <b_m_subgroup_collapsed>
0

$$$$
146596
                    3D
 Schrodinger Suite 2021-1.
 29 31  0  0  1  0            999 V2000
   34.9540   55.7289   30.3291 C   0  0  0  0  0  0
   36.1474   55.9474   31.0226 C   0  0  0  0  0  0
   35.9993   55.9059   32.4033 C   0  0  0  0  0  0
   34.3395   55.5719   32.8113 S   0  0  0  0  0  0
   33.8530   55.4851   31.1480 C   0  0  0  0  0  0
   32.4104   55.2080   30.8043 C   0  0  0  0  0  0
   32.3012   54.3701   29.6701 O   0  0  0  0  0  0
   37.0267   56.0804   33.4269 C   0  0  0  0  0  0
   38.4062   55.9713   33.2809 C   0  0  0  0  0  0
   39.1139   56.1829   34.4692 C   0  0  0  0  0  0
   38.2982   56.4654   35.5634 C   0  0  0  0  0  0
   36.6299   56.4847   35.0737 S   0  0  0  0  0  0
   38.6585   56.7013   36.9584 C   0  0  0  0  0  0
   37.8289   57.1002   38.0040 C   0  0  0  0  0  0
   38.4770   57.1721   39.2369 C   0  0  0  0  0  0
   39.8209   56.8348   39.1703 C   0  0  0  0  0  0
   40.2851   56.4528   37.5360 S   0  0  0  0  0  0
   40.7833   56.7728   40.2589 C   0  0  0  0  0  0
   41.9746   56.4953   40.1217 O   0  0  0  0  0  0
   34.8924   55.7274   29.2503 H   0  0  0  0  0  0
   37.0921   56.1324   30.5314 H   0  0  0  0  0  0
   31.9032   54.7246   31.6354 H   0  0  0  0  0  0
   31.9012   56.1487   30.6107 H   0  0  0  0  0  0
   32.3761   54.9446   28.8820 H   0  0  0  0  0  0
   38.8882   55.7324   32.3438 H   0  0  0  0  0  0
   40.1895   56.1185   34.5309 H   0  0  0  0  0  0
   36.7790   57.3132   37.8815 H   0  0  0  0  0  0
   37.9722   57.4460   40.1531 H   0  0  0  0  0  0
   40.3600   56.9944   41.2390 H   0  0  0  0  0  0
  1  5  2  0  0  0
  1  2  1  0  0  0
  1 20  1  0  0  0
  2  3  2  0  0  0
  2 21  1  0  0  0
  3  4  1  0  0  0
  3  8  1  0  0  0
  4  5  1  0  0  0
  5  6  1  0  0  0
  6  7  1  0  0  0
  6 22  1  0  0  0
  6 23  1  0  0  0
  7 24  1  0  0  0
  8 12  1  0  0  0
  8  9  2  0  0  0
  9 10  1  0  0  0
  9 25  1  0  0  0
 10 11  2  0  0  0
 10 26  1  0  0  0
 11 12  1  0  0  0
 11 13  1  0  0  0
 13 17  1  0  0  0
 13 14  2  0  0  0
 14 15  1  0  0  0
 14 27  1  0  0  0
 15 16  2  0  0  0
 15 28  1  0  0  0
 16 17  1  0  0  0
 16 18  1  0  0  0
 18 19  2  0  0  0
 18 29  1  0  0  0
M  END
> <s_m_entry_id>
4399

> <s_m_entry_name>
ligand_docking-pose.169

> <s_m_Source_Path>
/home/csk/Desktop/cluster/DUD-E-result/kpcb

> <s_m_Source_File>
ligand_docking-pose.sdf

> <i_m_Source_File_Index>
169

> <i_lp_mmshare_version>
53161

> <r_lp_tautomer_probability>
1

> <s_lp_Force_Field>
OPLS_2005

> <r_lp_Energy>
4.221508

> <b_lp_Chiralities_Consistent>
1

> <s_lp_Variant>
146596-1

> <s_i_glide_gridfile>
glide-grid_2i0e

> <i_i_glide_lignum>
226

> <i_i_glide_rotatable_bonds>
5

> <r_i_docking_score>
-6.82577106950864

> <r_i_glide_ligand_efficiency>
-0.359251108921507

> <r_i_glide_ligand_efficiency_sa>
-0.958626250410465

> <r_i_glide_ligand_efficiency_ln>
-1.73047957024071

> <r_i_glide_gscore>
-6.82577106950864

> <r_i_glide_lipo>
-2.38897239581983

> <r_i_glide_hbond>
-0.456

> <r_i_glide_metal>
0

> <r_i_glide_rewards>
-1.76521226049797

> <r_i_glide_evdw>
-32.7718849182129

> <r_i_glide_ecoul>
-7.78110933303833

> <r_i_glide_erotb>
0.59017423267555

> <r_i_glide_esite>
0

> <r_i_glide_emodel>
-56.8149648666455

> <r_i_glide_energy>
-40.5529942512512

> <r_i_glide_einternal>
2.83300089836121

> <i_i_glide_confnum>
25

> <i_i_glide_posenum>
4

> <r_i_glide_eff_state_penalty>
0

> <i_f3d_flags>
0

> <s_user_duplicate_titles>
146596

> <s_m_subgroup_title>
dock_pv

> <s_m_subgroupid>
dock_pv1

> <b_m_subgroup_collapsed>
0

$$$$
