CHEMBL220_lig1157
                    3D
 Schrodinger Suite 2021-1.
 32 36  0  0  1  0            999 V2000
    0.4011   68.9087   67.2940 C   0  0  0  0  0  0
   -0.0275   68.4008   64.5137 C   0  0  0  0  0  0
   -0.8600   68.7223   66.7573 C   0  0  0  0  0  0
   -1.0655   68.5080   65.4275 C   0  0  0  0  0  0
   -2.4011   68.5080   65.1835 O   0  0  0  0  0  0
   -3.0000   68.3964   66.4420 C   0  0  0  0  0  0
   -2.0570   68.8041   67.3898 O   0  0  0  0  0  0
    1.3040   68.6047   64.9918 C   0  0  0  0  0  0
    1.5034   68.9080   66.3939 C   0  0  0  0  0  0
    2.7915   69.3069   66.8323 C   0  0  0  0  0  0
    3.8230   69.3509   65.9746 N   0  3  0  0  0  0
    2.4154   68.6836   64.1054 C   0  0  0  0  0  0
    4.7927   69.0075   62.5642 C   0  0  0  0  0  0
    3.5806   68.6717   61.9446 C   0  0  0  0  0  0
    2.4013   68.5080   62.6888 C   0  0  0  0  0  0
    4.8380   69.2124   63.9421 C   0  0  0  0  0  0
    3.6608   69.0464   64.6539 C   0  0  0  0  0  0
    5.2062   69.7656   66.2429 C   0  0  0  0  0  0
    5.9223   69.6363   64.8882 C   0  0  0  0  0  0
    3.5430   68.5081   60.5864 O   0  0  0  0  0  0
    0.5390   69.1421   68.3415 H   0  0  0  0  0  0
   -0.2364   68.2398   63.4683 H   0  0  0  0  0  0
   -3.2570   67.3502   66.6231 H   0  0  0  0  0  0
   -3.9139   68.9877   66.5075 H   0  0  0  0  0  0
    2.9951   69.5991   67.8533 H   0  0  0  0  0  0
    5.6849   69.1360   61.9681 H   0  0  0  0  0  0
    1.4872   68.2584   62.1724 H   0  0  0  0  0  0
    5.2058   70.7959   66.6043 H   0  0  0  0  0  0
    5.6452   69.1235   67.0078 H   0  0  0  0  0  0
    6.7341   68.9080   64.9328 H   0  0  0  0  0  0
    6.3432   70.5943   64.5821 H   0  0  0  0  0  0
    4.4354   68.5080   60.1902 H   0  0  0  0  0  0
  1  9  2  0  0  0
  1  3  1  0  0  0
  1 21  1  0  0  0
  2  8  2  0  0  0
  2  4  1  0  0  0
  2 22  1  0  0  0
  3  7  1  0  0  0
  3  4  2  0  0  0
  4  5  1  0  0  0
  5  6  1  0  0  0
  6  7  1  0  0  0
  6 23  1  0  0  0
  6 24  1  0  0  0
  8 12  1  0  0  0
  8  9  1  0  0  0
  9 10  1  0  0  0
 10 11  2  0  0  0
 10 25  1  0  0  0
 11 17  1  0  0  0
 11 18  1  0  0  0
 12 17  2  0  0  0
 12 15  1  0  0  0
 13 16  2  0  0  0
 13 14  1  0  0  0
 13 26  1  0  0  0
 14 15  2  0  0  0
 14 20  1  0  0  0
 15 27  1  0  0  0
 16 17  1  0  0  0
 16 19  1  0  0  0
 18 19  1  0  0  0
 18 28  1  0  0  0
 18 29  1  0  0  0
 19 30  1  0  0  0
 19 31  1  0  0  0
 20 32  1  0  0  0
M  CHG  1  11   1
M  END
> <s_m_entry_id>
8492

> <s_m_entry_name>
dock_pv.2

> <s_m_Source_Path>
/home/csk/Desktop/cluster/DUD-E-result/aces

> <s_m_Source_File>
dock_pv.maegz

> <i_m_Source_File_Index>
2

> <chembl_id>
CHEMBL479291

> <chembl_pref_name>
UNGEREMINE

> <i_lp_mmshare_version>
53161

> <i_f3d_flags>
0

> <r_lp_tautomer_probability>
1

> <s_lp_Force_Field>
OPLS_2005

> <r_lp_Energy>
46.274822

> <b_lp_Chiralities_Consistent>
1

> <s_lp_Variant>
CHEMBL220_lig1157-1

> <s_i_glide_gridfile>
glide-grid_1e66

> <i_i_glide_lignum>
1571

> <i_i_glide_rotatable_bonds>
1

> <r_i_docking_score>
-10.404306570246

> <r_i_glide_ligand_efficiency>
-0.520215328512298

> <r_i_glide_ligand_efficiency_sa>
-1.41208165072642

> <r_i_glide_ligand_efficiency_ln>
-2.60385477753541

> <r_i_glide_gscore>
-10.404306570246

> <r_i_glide_lipo>
-3.18237898717069

> <r_i_glide_hbond>
-0.16

> <r_i_glide_metal>
0

> <r_i_glide_rewards>
-3.84663727507662

> <r_i_glide_evdw>
-33.9181175231934

> <r_i_glide_ecoul>
-10.1292295455933

> <r_i_glide_erotb>
0

> <r_i_glide_esite>
0

> <r_i_glide_emodel>
-76.2815513368273

> <r_i_glide_energy>
-44.0473470687866

> <r_i_glide_einternal>
1.51865947246552

> <i_i_glide_confnum>
1

> <i_i_glide_posenum>
70

> <r_i_glide_eff_state_penalty>
0

> <s_user_duplicate_titles>
CHEMBL220_lig1157

> <s_m_subgroup_title>
dock_pv

> <s_m_subgroupid>
dock_pv

> <b_m_subgroup_collapsed>
0

$$$$
CHEMBL220_lig679
                    3D
 Schrodinger Suite 2021-1.
 62 65  0  0  1  0            999 V2000
    0.4910   62.2859   72.1067 N   0  3  1  0  0  0
    0.6030   68.0566   66.4831 C   0  0  0  0  0  0
    0.1339   68.1067   65.1668 C   0  0  0  0  0  0
    0.9915   68.5044   64.1110 C   0  0  0  0  0  0
   -0.2665   67.5261   67.5692 C   0  0  0  0  0  0
    2.3276   68.8970   64.4214 C   0  0  0  0  0  0
    3.1951   69.2793   63.3837 C   0  0  0  0  0  0
    1.3385   61.1206   72.7102 C   0  0  0  0  0  0
    1.8891   68.5126   66.7712 C   0  0  0  0  0  0
    2.7531   68.9127   65.7657 C   0  0  0  0  0  0
   -1.4975   67.5148   67.5163 O   0  0  0  0  0  0
    0.4736   66.7370   68.6715 C   0  0  0  0  0  0
    0.5673   68.5159   62.7623 C   0  0  0  0  0  0
    1.0949   63.6657   72.5058 C   0  0  0  0  0  0
    0.4406   62.1366   70.5601 C   0  0  0  0  0  0
    2.7536   69.2985   62.0558 C   0  0  0  0  0  0
    1.4478   68.9119   61.7574 C   0  0  0  0  0  0
   -0.4125   65.8514   69.5697 C   0  0  0  0  0  0
   -0.9437   62.1443   72.6906 C   0  0  0  0  0  0
    2.7569   60.9338   72.1807 C   0  0  0  0  0  0
    0.3321   64.6808   70.2741 C   0  0  1  0  0  0
    0.3308   64.8193   71.8098 C   0  0  0  0  0  0
   -0.2773   63.3187   69.8852 C   0  0  0  0  0  0
    3.5432   69.7055   61.0048 O   0  0  0  0  0  0
    3.8308   61.5250   72.8466 C   0  0  0  0  0  0
    2.9843   60.1338   71.0568 C   0  0  0  0  0  0
    4.8797   70.1073   61.2807 C   0  0  0  0  0  0
    5.1219   61.3710   72.3549 C   0  0  0  0  0  0
    4.2732   59.9855   70.5616 C   0  0  0  0  0  0
    5.3375   60.6124   71.2084 C   0  0  0  0  0  0
   -0.8717   67.7859   64.9273 H   0  0  0  0  0  0
    4.1992   69.5741   63.6509 H   0  0  0  0  0  0
    1.3425   61.2909   73.7889 H   0  0  0  0  0  0
    0.7617   60.2127   72.5216 H   0  0  0  0  0  0
    2.2512   68.5435   67.7904 H   0  0  0  0  0  0
    3.7535   69.2378   66.0106 H   0  0  0  0  0  0
    1.1913   66.1084   68.1501 H   0  0  0  0  0  0
    1.0565   67.4220   69.2859 H   0  0  0  0  0  0
   -0.4438   68.2190   62.5170 H   0  0  0  0  0  0
    2.1376   63.6544   72.1900 H   0  0  0  0  0  0
    1.0589   63.7326   73.5951 H   0  0  0  0  0  0
    1.4675   62.0972   70.1994 H   0  0  0  0  0  0
   -0.0503   61.1880   70.3696 H   0  0  0  0  0  0
    1.1136   68.9246   60.7307 H   0  0  0  0  0  0
   -0.8612   66.5078   70.3136 H   0  0  0  0  0  0
   -1.2539   65.4600   68.9960 H   0  0  0  0  0  0
   -1.3282   61.1592   72.4246 H   0  0  0  0  0  0
   -0.8808   62.2565   73.7747 H   0  0  0  0  0  0
   -1.5965   62.9078   72.2749 H   0  0  0  0  0  0
    1.3785   64.6663   69.9580 H   0  0  0  0  0  0
    0.7430   65.7950   72.0565 H   0  0  0  0  0  0
   -0.6721   64.8793   72.2219 H   0  0  0  0  0  0
   -1.3369   63.2911   70.1150 H   0  0  0  0  0  0
   -0.2370   63.1973   68.8003 H   0  0  0  0  0  0
    3.6666   62.1076   73.7437 H   0  0  0  0  0  0
    2.1614   59.6419   70.5562 H   0  0  0  0  0  0
    5.2804   70.5080   60.3680 H   0  0  0  0  0  0
    5.4974   69.2562   61.5703 H   0  0  0  0  0  0
    4.9653   70.8878   62.0378 H   0  0  0  0  0  0
    5.9446   61.8470   72.8649 H   0  0  0  0  0  0
    4.4345   59.3889   69.6773 H   0  0  0  0  0  0
    6.3429   60.5095   70.8285 H   0  0  0  0  0  0
  1  8  1  0  0  0
  1 14  1  0  0  0
  1 15  1  0  0  0
  1 19  1  0  0  0
  2  5  1  0  0  0
  2  3  2  0  0  0
  2  9  1  0  0  0
  3  4  1  0  0  0
  3 31  1  0  0  0
  4 13  2  0  0  0
  4  6  1  0  0  0
  5 12  1  0  0  0
  5 11  2  0  0  0
  6 10  1  0  0  0
  6  7  2  0  0  0
  7 16  1  0  0  0
  7 32  1  0  0  0
  8 20  1  0  0  0
  8 33  1  0  0  0
  8 34  1  0  0  0
  9 10  2  0  0  0
  9 35  1  0  0  0
 10 36  1  0  0  0
 12 18  1  0  0  0
 12 37  1  0  0  0
 12 38  1  0  0  0
 13 17  1  0  0  0
 13 39  1  0  0  0
 14 22  1  0  0  0
 14 40  1  0  0  0
 14 41  1  0  0  0
 15 23  1  0  0  0
 15 42  1  0  0  0
 15 43  1  0  0  0
 16 24  1  0  0  0
 16 17  2  0  0  0
 17 44  1  0  0  0
 18 21  1  0  0  0
 18 45  1  0  0  0
 18 46  1  0  0  0
 19 47  1  0  0  0
 19 48  1  0  0  0
 19 49  1  0  0  0
 20 25  2  0  0  0
 20 26  1  0  0  0
 21 23  1  0  0  0
 21 22  1  0  0  0
 21 50  1  0  0  0
 22 51  1  0  0  0
 22 52  1  0  0  0
 23 53  1  0  0  0
 23 54  1  0  0  0
 24 27  1  0  0  0
 25 28  1  0  0  0
 25 55  1  0  0  0
 26 29  2  0  0  0
 26 56  1  0  0  0
 27 57  1  0  0  0
 27 58  1  0  0  0
 27 59  1  0  0  0
 28 30  2  0  0  0
 28 60  1  0  0  0
 29 30  1  0  0  0
 29 61  1  0  0  0
 30 62  1  0  0  0
M  CHG  1   1   1
M  END
> <s_m_entry_id>
8493

> <s_m_entry_name>
dock_pv.3

> <s_m_Source_Path>
/home/csk/Desktop/cluster/DUD-E-result/aces

> <s_m_Source_File>
dock_pv.maegz

> <i_m_Source_File_Index>
3

> <chembl_id>
CHEMBL87823

> <chembl_pref_name>
None

> <i_lp_mmshare_version>
53161

> <i_f3d_flags>
0

> <r_lp_tautomer_probability>
0.99990000499975

> <s_lp_Force_Field>
OPLS_2005

> <r_lp_Energy>
47.262741

> <b_lp_Chiralities_Consistent>
1

> <s_lp_Variant>
CHEMBL220_lig679-1

> <s_i_glide_gridfile>
glide-grid_1e66

> <i_i_glide_lignum>
801

> <i_i_glide_rotatable_bonds>
7

> <r_i_docking_score>
-10.0669013844662

> <r_i_glide_ligand_efficiency>
-0.335563379482206

> <r_i_glide_ligand_efficiency_sa>
-1.04267343935273

> <r_i_glide_ligand_efficiency_ln>
-2.28730968222659

> <r_i_glide_gscore>
-10.0669013844662

> <r_i_glide_lipo>
-4.75295641993214

> <r_i_glide_hbond>
-0.0570894991467933

> <r_i_glide_metal>
0

> <r_i_glide_rewards>
-3.2279694553806

> <r_i_glide_evdw>
-44.8175315856934

> <r_i_glide_ecoul>
-3.43101716041565

> <r_i_glide_erotb>
0.726643143340365

> <r_i_glide_esite>
0

> <r_i_glide_emodel>
-72.8563180700905

> <r_i_glide_energy>
-48.248548746109

> <r_i_glide_einternal>
12.9543771743774

> <i_i_glide_confnum>
5

> <i_i_glide_posenum>
58

> <r_i_glide_eff_state_penalty>
0

> <s_user_duplicate_titles>
CHEMBL220_lig679,139394

> <s_m_subgroup_title>
dock_pv

> <s_m_subgroupid>
dock_pv

> <b_m_subgroup_collapsed>
0

$$$$
CHEMBL220_lig833
                    3D
 Schrodinger Suite 2021-1.
 67 70  0  0  1  0            999 V2000
   -0.3619   67.2331   67.9877 C   0  0  0  0  0  0
    1.1429   67.7102   68.7398 S   0  0  0  0  0  0
    4.7798   69.1148   64.6511 N   0  3  2  0  0  0
    1.2541   66.1627   69.5668 C   0  0  0  0  0  0
   -0.8569   66.1134   68.6059 C   0  0  0  0  0  0
    0.0503   65.4434   69.4571 C   0  0  0  0  0  0
   -0.9756   67.9685   66.8755 C   0  0  0  0  0  0
    2.3567   65.6146   70.2214 C   0  0  0  0  0  0
    2.2854   64.3081   70.7143 C   0  0  0  0  0  0
   -0.0573   64.2007   70.0990 C   0  0  0  0  0  0
    1.0583   63.6386   70.7388 C   0  0  0  0  0  0
   -0.1374   68.9253   66.0177 C   0  0  0  0  0  0
    5.3500   70.4195   65.2780 C   0  0  0  0  0  0
    4.2561   69.4148   63.2048 C   0  0  0  0  0  0
   -2.1581   67.8082   66.5782 O   0  0  0  0  0  0
    3.6972   68.4941   65.5704 C   0  0  0  0  0  0
    1.1690   68.3382   65.4039 C   0  0  2  0  0  0
    5.9435   68.1080   64.5547 C   0  0  0  0  0  0
    3.4009   63.6292   71.1678 O   0  0  0  0  0  0
    1.0268   62.4093   71.3712 O   0  0  0  0  0  0
    3.3115   68.3390   62.5836 C   0  0  1  0  0  0
    5.7261   70.4685   66.7629 C   0  0  0  0  0  0
    2.3693   69.2669   65.6180 C   0  0  0  0  0  0
    1.0280   67.8322   63.9470 C   0  0  0  0  0  0
    1.7689   68.5655   62.7817 C   0  0  0  0  0  0
    3.5421   68.4266   61.1839 O   0  0  0  0  0  0
   -0.2314   61.8141   71.6697 C   0  0  0  0  0  0
    4.6918   64.0837   70.7680 C   0  0  0  0  0  0
    7.0422   70.3123   67.1859 C   0  0  0  0  0  0
    4.7421   70.7664   67.7078 C   0  0  0  0  0  0
    7.3511   70.5079   68.5337 C   0  0  0  0  0  0
    5.0414   70.9079   69.0480 C   0  0  0  0  0  0
    6.3653   70.8312   69.4489 C   0  0  0  0  0  0
   -1.7958   65.7088   68.3170 H   0  0  0  0  0  0
    3.2720   66.1729   70.2935 H   0  0  0  0  0  0
   -0.9824   63.6563   70.0210 H   0  0  0  0  0  0
   -0.7722   69.3496   65.2397 H   0  0  0  0  0  0
    0.0970   69.7402   66.6959 H   0  0  0  0  0  0
    6.1467   70.7803   64.6229 H   0  0  0  0  0  0
    4.4873   71.0447   65.1680 H   0  0  0  0  0  0
    5.1603   69.5938   62.6180 H   0  0  0  0  0  0
    3.7454   70.3728   63.2510 H   0  0  0  0  0  0
    3.5711   67.4587   65.2522 H   0  0  0  0  0  0
    4.1383   68.5079   66.5584 H   0  0  0  0  0  0
    1.4023   67.4374   65.9753 H   0  0  0  0  0  0
    6.3456   67.9670   65.5574 H   0  0  0  0  0  0
    5.5419   67.1791   64.1532 H   0  0  0  0  0  0
    6.7113   68.5144   63.8946 H   0  0  0  0  0  0
    3.5928   67.3272   62.8768 H   0  0  0  0  0  0
    2.3435   70.1070   64.9329 H   0  0  0  0  0  0
    2.2714   69.7058   66.6081 H   0  0  0  0  0  0
    1.3203   66.7901   63.9684 H   0  0  0  0  0  0
   -0.0347   67.7909   63.6971 H   0  0  0  0  0  0
    1.2624   68.1989   61.8847 H   0  0  0  0  0  0
    1.5348   69.6312   62.7882 H   0  0  0  0  0  0
    4.4866   68.4903   60.9870 H   0  0  0  0  0  0
   -0.0746   60.8566   72.1674 H   0  0  0  0  0  0
   -0.8115   61.6267   70.7701 H   0  0  0  0  0  0
   -0.8176   62.4469   72.3372 H   0  0  0  0  0  0
    5.4317   63.3807   71.1429 H   0  0  0  0  0  0
    4.7861   64.1149   69.6810 H   0  0  0  0  0  0
    4.9398   65.0663   71.1678 H   0  0  0  0  0  0
    7.8186   70.0586   66.4789 H   0  0  0  0  0  0
    3.7192   70.9077   67.4185 H   0  0  0  0  0  0
    8.3422   70.3240   68.9105 H   0  0  0  0  0  0
    4.2522   71.0950   69.7620 H   0  0  0  0  0  0
    6.6163   70.9079   70.4960 H   0  0  0  0  0  0
  1  2  1  0  0  0
  1  5  2  0  0  0
  1  7  1  0  0  0
  2  4  1  0  0  0
  3 16  1  0  0  0
  3 13  1  0  0  0
  3 18  1  0  0  0
  3 14  1  0  0  0
  4  8  1  0  0  0
  4  6  2  0  0  0
  5  6  1  0  0  0
  5 34  1  0  0  0
  6 10  1  0  0  0
  7 12  1  0  0  0
  7 15  2  0  0  0
  8  9  2  0  0  0
  8 35  1  0  0  0
  9 19  1  0  0  0
  9 11  1  0  0  0
 10 11  2  0  0  0
 10 36  1  0  0  0
 11 20  1  0  0  0
 12 17  1  0  0  0
 12 37  1  0  0  0
 12 38  1  0  0  0
 13 22  1  0  0  0
 13 39  1  0  0  0
 13 40  1  0  0  0
 14 21  1  0  0  0
 14 41  1  0  0  0
 14 42  1  0  0  0
 16 23  1  0  0  0
 16 43  1  0  0  0
 16 44  1  0  0  0
 17 23  1  0  0  0
 17 24  1  0  0  0
 17 45  1  0  0  0
 18 46  1  0  0  0
 18 47  1  0  0  0
 18 48  1  0  0  0
 19 28  1  0  0  0
 20 27  1  0  0  0
 21 25  1  0  0  0
 21 26  1  0  0  0
 21 49  1  0  0  0
 22 29  2  0  0  0
 22 30  1  0  0  0
 23 50  1  0  0  0
 23 51  1  0  0  0
 24 25  1  0  0  0
 24 52  1  0  0  0
 24 53  1  0  0  0
 25 54  1  0  0  0
 25 55  1  0  0  0
 26 56  1  0  0  0
 27 57  1  0  0  0
 27 58  1  0  0  0
 27 59  1  0  0  0
 28 60  1  0  0  0
 28 61  1  0  0  0
 28 62  1  0  0  0
 29 31  1  0  0  0
 29 63  1  0  0  0
 30 32  2  0  0  0
 30 64  1  0  0  0
 31 33  2  0  0  0
 31 65  1  0  0  0
 32 33  1  0  0  0
 32 66  1  0  0  0
 33 67  1  0  0  0
M  CHG  1   3   1
M  END
> <s_m_entry_id>
8494

> <s_m_entry_name>
dock_pv.4

> <s_m_Source_Path>
/home/csk/Desktop/cluster/DUD-E-result/aces

> <s_m_Source_File>
dock_pv.maegz

> <i_m_Source_File_Index>
4

> <chembl_id>
CHEMBL189283

> <chembl_pref_name>
None

> <i_lp_mmshare_version>
53161

> <i_f3d_flags>
0

> <r_lp_tautomer_probability>
0.99990000499975

> <s_lp_Force_Field>
OPLS_2005

> <r_lp_Energy>
50.071604

> <b_lp_Chiralities_Consistent>
1

> <s_lp_Variant>
CHEMBL220_lig833-5

> <s_i_glide_gridfile>
glide-grid_1e66

> <i_i_glide_lignum>
1044

> <i_i_glide_rotatable_bonds>
8

> <r_i_docking_score>
-9.85361466792283

> <r_i_glide_ligand_efficiency>
-0.298594383876449

> <r_i_glide_ligand_efficiency_sa>
-0.957751735911402

> <r_i_glide_ligand_efficiency_ln>
-2.19139288285978

> <r_i_glide_gscore>
-9.85361466792283

> <r_i_glide_lipo>
-5.2949321198694

> <r_i_glide_hbond>
-0.064747100401694

> <r_i_glide_metal>
0

> <r_i_glide_rewards>
-2.98192597725926

> <r_i_glide_evdw>
-27.0698490142822

> <r_i_glide_ecoul>
-4.12146902084351

> <r_i_glide_erotb>
0.45970333344817

> <r_i_glide_esite>
0

> <r_i_glide_emodel>
-28.1377474004503

> <r_i_glide_energy>
-31.1913180351257

> <r_i_glide_einternal>
22.1981811523438

> <i_i_glide_confnum>
61

> <i_i_glide_posenum>
348

> <r_i_glide_eff_state_penalty>
0

> <s_user_duplicate_titles>
CHEMBL220_lig833,313815

> <s_m_subgroup_title>
dock_pv

> <s_m_subgroupid>
dock_pv

> <b_m_subgroup_collapsed>
0

$$$$
CHEMBL220_lig671
                    3D
 Schrodinger Suite 2021-1.
 62 65  0  0  1  0            999 V2000
    1.5447   67.8544   66.3662 N   0  0  0  0  0  0
    1.5788   68.3420   65.1089 N   0  0  0  0  0  0
    0.2798   67.6570   66.6673 C   0  0  0  0  0  0
   -0.5313   68.1078   65.6157 C   0  0  0  0  0  0
    0.3050   68.5052   64.5890 C   0  0  0  0  0  0
    0.4314   62.3038   72.0917 N   0  3  1  0  0  0
   -0.1804   67.0364   67.9146 C   0  0  0  0  0  0
    2.8388   68.6016   64.5041 C   0  0  0  0  0  0
    1.2031   61.0319   72.5720 C   0  0  0  0  0  0
   -1.3384   66.6338   68.0399 O   0  0  0  0  0  0
    0.8165   66.9056   69.0885 C   0  0  0  0  0  0
    0.7726   63.5198   73.0116 C   0  0  0  0  0  0
    0.7794   62.6051   70.6003 C   0  0  0  0  0  0
    0.2256   66.4952   70.4710 C   0  0  0  0  0  0
   -0.0176   69.0240   63.2017 C   0  0  0  0  0  0
   -1.0834   61.9911   72.2077 C   0  0  0  0  0  0
    2.6692   60.9124   72.1699 C   0  0  0  0  0  0
    0.6978   65.1279   71.0360 C   0  0  2  0  0  0
    0.2223   63.9667   70.1538 C   0  0  0  0  0  0
    0.1649   64.8336   72.4474 C   0  0  0  0  0  0
    3.8505   69.2409   65.2350 C   0  0  0  0  0  0
    3.0852   68.2157   63.1787 C   0  0  0  0  0  0
    3.0038   60.2435   70.9889 C   0  0  0  0  0  0
    3.6691   61.4638   72.9714 C   0  0  0  0  0  0
    4.3244   68.4697   62.5931 C   0  0  0  0  0  0
    5.0883   69.4889   64.6495 C   0  0  0  0  0  0
    4.9963   61.4016   72.5564 C   0  0  0  0  0  0
    4.3297   60.1793   70.5773 C   0  0  0  0  0  0
    5.3194   69.1038   63.3322 C   0  0  0  0  0  0
    5.3187   60.7653   71.3622 C   0  0  0  0  0  0
   -1.6117   68.0842   65.5845 H   0  0  0  0  0  0
    1.0782   60.9961   73.6550 H   0  0  0  0  0  0
    0.6611   60.1817   72.1557 H   0  0  0  0  0  0
    1.6117   66.2237   68.7951 H   0  0  0  0  0  0
    1.2820   67.8874   69.1998 H   0  0  0  0  0  0
    1.8592   63.5859   73.0452 H   0  0  0  0  0  0
    0.4072   63.2920   74.0134 H   0  0  0  0  0  0
    1.8643   62.6482   70.5122 H   0  0  0  0  0  0
    0.4110   61.7777   69.9933 H   0  0  0  0  0  0
    0.4969   67.2831   71.1676 H   0  0  0  0  0  0
   -0.8579   66.5201   70.4665 H   0  0  0  0  0  0
   -1.0695   69.3070   63.1248 H   0  0  0  0  0  0
    0.5661   69.9104   62.9395 H   0  0  0  0  0  0
    0.1532   68.2729   62.4267 H   0  0  0  0  0  0
   -1.2927   61.1178   71.5902 H   0  0  0  0  0  0
   -1.3120   61.7821   73.2548 H   0  0  0  0  0  0
   -1.6567   62.8413   71.8499 H   0  0  0  0  0  0
    1.7901   65.1304   71.0743 H   0  0  0  0  0  0
   -0.8569   63.9449   70.0392 H   0  0  0  0  0  0
    0.5873   64.1642   69.1665 H   0  0  0  0  0  0
    0.3428   65.6706   73.1197 H   0  0  0  0  0  0
   -0.9114   64.7937   72.4416 H   0  0  0  0  0  0
    3.6796   69.5570   66.2544 H   0  0  0  0  0  0
    2.3321   67.7103   62.5973 H   0  0  0  0  0  0
    2.2370   59.7992   70.3722 H   0  0  0  0  0  0
    3.4241   61.9565   73.9003 H   0  0  0  0  0  0
    4.5188   68.1837   61.5675 H   0  0  0  0  0  0
    5.8640   69.9902   65.2087 H   0  0  0  0  0  0
    5.7759   61.8402   73.1657 H   0  0  0  0  0  0
    4.5796   59.6897   69.6496 H   0  0  0  0  0  0
    6.2794   69.3055   62.8781 H   0  0  0  0  0  0
    6.3481   60.7286   71.0497 H   0  0  0  0  0  0
  1  2  1  0  0  0
  1  3  2  0  0  0
  2  5  1  0  0  0
  2  8  1  0  0  0
  3  4  1  0  0  0
  3  7  1  0  0  0
  4  5  2  0  0  0
  4 31  1  0  0  0
  5 15  1  0  0  0
  6 12  1  0  0  0
  6  9  1  0  0  0
  6 16  1  0  0  0
  6 13  1  0  0  0
  7 10  2  0  0  0
  7 11  1  0  0  0
  8 21  1  0  0  0
  8 22  2  0  0  0
  9 17  1  0  0  0
  9 32  1  0  0  0
  9 33  1  0  0  0
 11 14  1  0  0  0
 11 34  1  0  0  0
 11 35  1  0  0  0
 12 20  1  0  0  0
 12 36  1  0  0  0
 12 37  1  0  0  0
 13 19  1  0  0  0
 13 38  1  0  0  0
 13 39  1  0  0  0
 14 18  1  0  0  0
 14 40  1  0  0  0
 14 41  1  0  0  0
 15 42  1  0  0  0
 15 43  1  0  0  0
 15 44  1  0  0  0
 16 45  1  0  0  0
 16 46  1  0  0  0
 16 47  1  0  0  0
 17 23  2  0  0  0
 17 24  1  0  0  0
 18 19  1  0  0  0
 18 20  1  0  0  0
 18 48  1  0  0  0
 19 49  1  0  0  0
 19 50  1  0  0  0
 20 51  1  0  0  0
 20 52  1  0  0  0
 21 26  2  0  0  0
 21 53  1  0  0  0
 22 25  1  0  0  0
 22 54  1  0  0  0
 23 28  1  0  0  0
 23 55  1  0  0  0
 24 27  2  0  0  0
 24 56  1  0  0  0
 25 29  2  0  0  0
 25 57  1  0  0  0
 26 29  1  0  0  0
 26 58  1  0  0  0
 27 30  1  0  0  0
 27 59  1  0  0  0
 28 30  2  0  0  0
 28 60  1  0  0  0
 29 61  1  0  0  0
 30 62  1  0  0  0
M  CHG  1   6   1
M  END
> <s_m_entry_id>
8495

> <s_m_entry_name>
dock_pv.5

> <s_m_Source_Path>
/home/csk/Desktop/cluster/DUD-E-result/aces

> <s_m_Source_File>
dock_pv.maegz

> <i_m_Source_File_Index>
5

> <chembl_id>
CHEMBL87014

> <chembl_pref_name>
None

> <i_lp_mmshare_version>
53161

> <i_f3d_flags>
0

> <r_lp_tautomer_probability>
0.99990000499975

> <s_lp_Force_Field>
OPLS_2005

> <r_lp_Energy>
42.960155

> <b_lp_Chiralities_Consistent>
1

> <s_lp_Variant>
CHEMBL220_lig671-1

> <s_i_glide_gridfile>
glide-grid_1e66

> <i_i_glide_lignum>
791

> <i_i_glide_rotatable_bonds>
7

> <r_i_docking_score>
-9.7797168758523

> <r_i_glide_ligand_efficiency>
-0.32599056252841

> <r_i_glide_ligand_efficiency_sa>
-1.01292847137407

> <r_i_glide_ligand_efficiency_ln>
-2.22205823274367

> <r_i_glide_gscore>
-9.7797168758523

> <r_i_glide_lipo>
-4.63643906186783

> <r_i_glide_hbond>
0

> <r_i_glide_metal>
0

> <r_i_glide_rewards>
-3.42389254035875

> <r_i_glide_evdw>
-48.6015853881836

> <r_i_glide_ecoul>
-0.913625478744507

> <r_i_glide_erotb>
0.847737817595132

> <r_i_glide_esite>
0

> <r_i_glide_emodel>
-76.735293012552

> <r_i_glide_energy>
-49.5152108669281

> <r_i_glide_einternal>
9.30311584472656

> <i_i_glide_confnum>
5

> <i_i_glide_posenum>
187

> <r_i_glide_eff_state_penalty>
0

> <s_user_duplicate_titles>
CHEMBL220_lig671,138569

> <s_m_subgroup_title>
dock_pv

> <s_m_subgroupid>
dock_pv

> <b_m_subgroup_collapsed>
0

$$$$
CHEMBL220_lig853
                    3D
 Schrodinger Suite 2021-1.
 55 58  0  0  1  0            999 V2000
    4.2908   69.7037   62.1753 C   0  0  0  0  0  0
    3.5649   69.3077   61.0303 N   0  3  0  0  0  0
   -0.0152   63.4020   69.9680 S   0  0  0  0  0  0
    1.5850   62.7118   70.2594 C   0  0  0  0  0  0
    3.8830   69.4724   66.4395 N   0  3  0  0  0  0
    4.9899   70.0300   64.2939 C   0  0  0  0  0  0
    3.8971   69.7080   63.4719 C   0  0  0  0  0  0
    5.5428   70.2136   62.1004 O   0  0  0  0  0  0
    2.5689   63.6731   70.4954 C   0  0  0  0  0  0
    0.5592   65.0906   70.2851 C   0  0  1  0  0  0
    1.9159   61.3561   70.2516 C   0  0  0  0  0  0
    5.9298   70.4516   63.3891 C   0  0  0  0  0  0
    2.0960   65.0971   70.3378 C   0  0  0  0  0  0
    3.2295   60.9378   70.5143 C   0  0  0  0  0  0
    3.8796   63.2686   70.7527 C   0  0  0  0  0  0
    4.1958   61.9095   70.8073 C   0  0  0  0  0  0
   -0.1655   66.0545   69.3161 C   0  0  0  0  0  0
    2.5719   68.6098   61.2079 O   0  5  0  0  0  0
    5.1191   69.9805   65.8125 C   0  0  0  0  0  0
    3.9430   69.7123   59.9516 O   0  0  0  0  0  0
   -1.2633   66.5080   69.5680 O   0  0  0  0  0  0
    0.4162   66.5371   68.0192 C   0  0  0  0  0  0
    3.3352   70.1079   67.5044 C   0  0  0  0  0  0
    3.2904   68.3885   65.8828 C   0  0  0  0  0  0
    1.4161   68.6782   67.2959 C   0  0  0  0  0  0
    0.1762   68.0640   67.8378 C   0  0  0  0  0  0
    3.6463   59.6170   70.5148 O   0  0  0  0  0  0
    5.4618   61.5277   71.1681 O   0  0  0  0  0  0
    2.0812   69.7084   67.9682 C   0  0  0  0  0  0
    1.9983   68.0502   66.2049 C   0  0  0  0  0  0
    2.7187   58.5912   70.1867 C   0  0  0  0  0  0
    5.5432   61.1154   72.5246 C   0  0  0  0  0  0
    2.8919   69.4414   63.7586 H   0  0  0  0  0  0
    0.1854   65.3260   71.2821 H   0  0  0  0  0  0
    1.1433   60.6332   70.0483 H   0  0  0  0  0  0
    6.8865   70.9088   63.5680 H   0  0  0  0  0  0
    2.4338   65.7107   71.1681 H   0  0  0  0  0  0
    2.5537   65.5019   69.4421 H   0  0  0  0  0  0
    4.6550   63.9973   70.9390 H   0  0  0  0  0  0
    5.3311   70.9671   66.2268 H   0  0  0  0  0  0
    5.9117   69.3070   66.1447 H   0  0  0  0  0  0
    1.4636   66.2637   67.9560 H   0  0  0  0  0  0
   -0.0722   66.0063   67.2047 H   0  0  0  0  0  0
    3.8980   70.9230   67.9368 H   0  0  0  0  0  0
    3.8473   67.8467   65.1314 H   0  0  0  0  0  0
   -0.6534   68.2530   67.1540 H   0  0  0  0  0  0
   -0.0570   68.5836   68.7680 H   0  0  0  0  0  0
    1.6392   70.1801   68.8366 H   0  0  0  0  0  0
    1.5121   67.2242   65.7031 H   0  0  0  0  0  0
    3.2176   57.6235   70.2384 H   0  0  0  0  0  0
    1.8785   58.5666   70.8823 H   0  0  0  0  0  0
    2.3435   58.7165   69.1707 H   0  0  0  0  0  0
    6.4337   60.5091   72.6713 H   0  0  0  0  0  0
    4.6958   60.5101   72.8541 H   0  0  0  0  0  0
    5.6112   61.9920   73.1680 H   0  0  0  0  0  0
  1  2  1  0  0  0
  1  7  2  0  0  0
  1  8  1  0  0  0
  2 18  1  0  0  0
  2 20  2  0  0  0
  3 10  1  0  0  0
  3  4  1  0  0  0
  4 11  1  0  0  0
  4  9  2  0  0  0
  5 19  1  0  0  0
  5 23  2  0  0  0
  5 24  1  0  0  0
  6  7  1  0  0  0
  6 19  1  0  0  0
  6 12  2  0  0  0
  7 33  1  0  0  0
  8 12  1  0  0  0
  9 13  1  0  0  0
  9 15  1  0  0  0
 10 17  1  0  0  0
 10 13  1  0  0  0
 10 34  1  0  0  0
 11 14  2  0  0  0
 11 35  1  0  0  0
 12 36  1  0  0  0
 13 37  1  0  0  0
 13 38  1  0  0  0
 14 27  1  0  0  0
 14 16  1  0  0  0
 15 16  2  0  0  0
 15 39  1  0  0  0
 16 28  1  0  0  0
 17 22  1  0  0  0
 17 21  2  0  0  0
 19 40  1  0  0  0
 19 41  1  0  0  0
 22 26  1  0  0  0
 22 42  1  0  0  0
 22 43  1  0  0  0
 23 29  1  0  0  0
 23 44  1  0  0  0
 24 30  2  0  0  0
 24 45  1  0  0  0
 25 29  2  0  0  0
 25 26  1  0  0  0
 25 30  1  0  0  0
 26 46  1  0  0  0
 26 47  1  0  0  0
 27 31  1  0  0  0
 28 32  1  0  0  0
 29 48  1  0  0  0
 30 49  1  0  0  0
 31 50  1  0  0  0
 31 51  1  0  0  0
 31 52  1  0  0  0
 32 53  1  0  0  0
 32 54  1  0  0  0
 32 55  1  0  0  0
M  CHG  3   2   1   5   1  18  -1
M  END
> <s_m_entry_id>
8496

> <s_m_entry_name>
dock_pv.6

> <s_m_Source_Path>
/home/csk/Desktop/cluster/DUD-E-result/aces

> <s_m_Source_File>
dock_pv.maegz

> <i_m_Source_File_Index>
6

> <chembl_id>
CHEMBL610242

> <chembl_pref_name>
None

> <i_lp_mmshare_version>
53161

> <i_f3d_flags>
0

> <r_lp_tautomer_probability>
0.999999960000001

> <s_lp_Force_Field>
OPLS_2005

> <r_lp_Energy>
36.901742

> <b_lp_Chiralities_Consistent>
1

> <s_lp_Variant>
CHEMBL220_lig853-1

> <s_i_glide_gridfile>
glide-grid_1e66

> <i_i_glide_lignum>
1110

> <i_i_glide_rotatable_bonds>
9

> <r_i_docking_score>
-9.58033926210203

> <r_i_glide_ligand_efficiency>
-0.299385601940688

> <r_i_glide_ligand_efficiency_sa>
-0.950490037831513

> <r_i_glide_ligand_efficiency_ln>
-2.14529911096977

> <r_i_glide_gscore>
-9.58033926210203

> <r_i_glide_lipo>
-3.92373343524874

> <r_i_glide_hbond>
0

> <r_i_glide_metal>
0

> <r_i_glide_rewards>
-3.18694380882102

> <r_i_glide_evdw>
-26.3781852722168

> <r_i_glide_ecoul>
-10.8780031204224

> <r_i_glide_erotb>
0.580947713641926

> <r_i_glide_esite>
-0.1

> <r_i_glide_emodel>
-42.6765414941995

> <r_i_glide_energy>
-37.2561883926392

> <r_i_glide_einternal>
16.5842399597168

> <i_i_glide_confnum>
5

> <i_i_glide_posenum>
90

> <r_i_glide_eff_state_penalty>
0

> <s_user_duplicate_titles>
CHEMBL220_lig853,608438

> <s_m_subgroup_title>
dock_pv

> <s_m_subgroupid>
dock_pv

> <b_m_subgroup_collapsed>
0

$$$$
CHEMBL220_lig854
                    3D
 Schrodinger Suite 2021-1.
 51 54  0  0  1  0            999 V2000
    4.0074   69.5871   65.8862 N   0  3  0  0  0  0
    2.7429   69.2841   66.1519 N   0  0  0  0  0  0
    2.1978   68.7314   65.1422 C   0  0  0  0  0  0
    4.3008   69.2155   64.5619 C   0  0  0  0  0  0
    3.1505   68.6477   64.0490 C   0  0  0  0  0  0
    0.2439   66.2762   70.2033 N   0  0  2  0  0  0
    4.8150   70.1348   66.7778 C   0  0  0  0  0  0
    0.7731   68.2077   64.9914 C   0  0  0  0  0  0
    0.6898   65.3138   71.2144 C   0  0  0  0  0  0
   -0.4415   65.6188   69.0996 C   0  0  0  0  0  0
    1.2832   67.2499   69.8281 C   0  0  0  0  0  0
   -0.0918   68.3283   66.2701 C   0  0  0  0  0  0
    3.1324   68.1680   62.7384 C   0  0  0  0  0  0
    1.6771   64.2305   70.7546 C   0  0  0  0  0  0
    0.3218   67.3925   67.4442 C   0  0  0  0  0  0
    0.8777   68.1655   68.6527 C   0  0  0  0  0  0
   -0.8788   66.6117   67.9972 C   0  0  0  0  0  0
    5.4608   69.3343   63.7977 C   0  0  0  0  0  0
    3.0446   64.5067   70.6426 C   0  0  0  0  0  0
    1.1920   62.9768   70.3671 C   0  0  0  0  0  0
    4.2949   68.2594   61.9680 C   0  0  0  0  0  0
    5.4537   68.8392   62.4936 C   0  0  0  0  0  0
    3.9208   63.5360   70.1644 C   0  0  0  0  0  0
    2.0673   62.0039   69.8908 C   0  0  0  0  0  0
    3.4278   62.2876   69.7914 C   0  0  0  0  0  0
    5.8326   70.3482   66.4955 H   0  0  0  0  0  0
    4.4230   70.3503   67.7597 H   0  0  0  0  0  0
    0.2842   68.7637   64.1905 H   0  0  0  0  0  0
    0.7875   67.1684   64.6609 H   0  0  0  0  0  0
    1.1430   65.9248   71.9680 H   0  0  0  0  0  0
   -0.1821   64.8378   71.6638 H   0  0  0  0  0  0
    0.2911   64.9043   68.7680 H   0  0  0  0  0  0
   -1.2570   65.0093   69.4570 H   0  0  0  0  0  0
    2.1911   66.7151   69.5679 H   0  0  0  0  0  0
    1.5431   67.8441   70.7010 H   0  0  0  0  0  0
   -0.1189   69.3678   66.6029 H   0  0  0  0  0  0
   -1.1247   68.1264   65.9797 H   0  0  0  0  0  0
    2.2415   67.7329   62.3094 H   0  0  0  0  0  0
    1.0688   66.6694   67.1103 H   0  0  0  0  0  0
    1.7309   68.7785   68.3804 H   0  0  0  0  0  0
    0.1539   68.9080   68.9723 H   0  0  0  0  0  0
   -1.6539   67.2841   68.3680 H   0  0  0  0  0  0
   -1.3771   66.1080   67.1740 H   0  0  0  0  0  0
    6.3431   69.8066   64.1911 H   0  0  0  0  0  0
    3.4353   65.4730   70.9253 H   0  0  0  0  0  0
    0.1357   62.7570   70.4283 H   0  0  0  0  0  0
    4.3053   67.8981   60.9493 H   0  0  0  0  0  0
    6.3424   68.9081   61.8809 H   0  0  0  0  0  0
    4.9758   63.7546   70.0812 H   0  0  0  0  0  0
    1.6894   61.0355   69.5967 H   0  0  0  0  0  0
    4.1053   61.5330   69.4211 H   0  0  0  0  0  0
  1  2  1  0  0  0
  1  4  1  0  0  0
  1  7  2  0  0  0
  2  3  2  0  0  0
  3  8  1  0  0  0
  3  5  1  0  0  0
  4  5  2  0  0  0
  4 18  1  0  0  0
  5 13  1  0  0  0
  6 10  1  0  0  0
  6  9  1  0  0  0
  6 11  1  0  0  0
  7 26  1  0  0  0
  7 27  1  0  0  0
  8 12  1  0  0  0
  8 28  1  0  0  0
  8 29  1  0  0  0
  9 14  1  0  0  0
  9 30  1  0  0  0
  9 31  1  0  0  0
 10 17  1  0  0  0
 10 32  1  0  0  0
 10 33  1  0  0  0
 11 16  1  0  0  0
 11 34  1  0  0  0
 11 35  1  0  0  0
 12 15  1  0  0  0
 12 36  1  0  0  0
 12 37  1  0  0  0
 13 21  2  0  0  0
 13 38  1  0  0  0
 14 19  1  0  0  0
 14 20  2  0  0  0
 15 16  1  0  0  0
 15 17  1  0  0  0
 15 39  1  0  0  0
 16 40  1  0  0  0
 16 41  1  0  0  0
 17 42  1  0  0  0
 17 43  1  0  0  0
 18 22  2  0  0  0
 18 44  1  0  0  0
 19 23  2  0  0  0
 19 45  1  0  0  0
 20 24  1  0  0  0
 20 46  1  0  0  0
 21 22  1  0  0  0
 21 47  1  0  0  0
 22 48  1  0  0  0
 23 25  1  0  0  0
 23 49  1  0  0  0
 24 25  2  0  0  0
 24 50  1  0  0  0
 25 51  1  0  0  0
M  CHG  1   1   1
M  END
> <s_m_entry_id>
8497

> <s_m_entry_name>
dock_pv.7

> <s_m_Source_Path>
/home/csk/Desktop/cluster/DUD-E-result/aces

> <s_m_Source_File>
dock_pv.maegz

> <i_m_Source_File_Index>
7

> <chembl_id>
CHEMBL362350

> <chembl_pref_name>
None

> <i_lp_mmshare_version>
53161

> <i_f3d_flags>
0

> <r_lp_tautomer_probability>
1

> <s_lp_Force_Field>
OPLS_2005

> <r_lp_Energy>
47.774246

> <b_lp_Chiralities_Consistent>
1

> <s_lp_Variant>
CHEMBL220_lig854-1

> <s_i_glide_gridfile>
glide-grid_1e66

> <i_i_glide_lignum>
1112

> <i_i_glide_rotatable_bonds>
5

> <r_i_docking_score>
-9.51942948413471

> <r_i_glide_ligand_efficiency>
-0.380777179365388

> <r_i_glide_ligand_efficiency_sa>
-1.11339922557643

> <r_i_glide_ligand_efficiency_ln>
-2.25639006202134

> <r_i_glide_gscore>
-9.51942948413471

> <r_i_glide_lipo>
-3.34546702246039

> <r_i_glide_hbond>
0

> <r_i_glide_metal>
0

> <r_i_glide_rewards>
-4.45889425650927

> <r_i_glide_evdw>
-37.8446311950684

> <r_i_glide_ecoul>
-4.49899816513062

> <r_i_glide_erotb>
0.85201307935797

> <r_i_glide_esite>
0

> <r_i_glide_emodel>
-66.9621779032642

> <r_i_glide_energy>
-42.343629360199

> <r_i_glide_einternal>
8.46427631378174

> <i_i_glide_confnum>
16

> <i_i_glide_posenum>
211

> <r_i_glide_eff_state_penalty>
0

> <s_user_duplicate_titles>
CHEMBL220_lig854,314159

> <s_m_subgroup_title>
dock_pv

> <s_m_subgroupid>
dock_pv

> <b_m_subgroup_collapsed>
0

$$$$
CHEMBL220_lig1033
                    3D
 Schrodinger Suite 2021-1.
 32 34  0  0  1  0            999 V2000
    3.1797   68.9080   61.6888 C   0  0  0  0  0  0
    1.8660   68.6042   62.0392 C   0  0  0  0  0  0
    1.4452   68.5517   63.3705 C   0  0  0  0  0  0
    4.1193   69.2214   62.6648 C   0  0  0  0  0  0
    3.7044   69.2607   64.0063 C   0  0  0  0  0  0
    2.3821   68.9037   64.3559 C   0  0  0  0  0  0
    2.2818   68.9912   65.7436 N   0  0  0  0  0  0
    4.3547   69.6449   65.1781 C   0  0  0  0  0  0
    3.4360   69.5912   66.2617 C   0  0  0  0  0  0
    3.7904   70.1080   67.5392 C   0  0  0  0  0  0
    5.1001   70.5080   67.6809 N   0  3  0  0  0  0
    6.0019   70.4845   66.6749 C   0  0  0  0  0  0
    5.6504   70.0977   65.3941 C   0  0  0  0  0  0
    3.5430   68.9079   60.3680 O   0  0  0  0  0  0
    2.8390   70.2734   68.7279 C   0  0  0  0  0  0
    1.0810   68.6347   66.4899 C   0  0  0  0  0  0
    5.6473   71.0477   68.9480 C   0  0  0  0  0  0
    1.1510   68.3957   61.2574 H   0  0  0  0  0  0
    0.4238   68.2928   63.6118 H   0  0  0  0  0  0
    5.1299   69.4856   62.3878 H   0  0  0  0  0  0
    7.0026   70.8150   66.9095 H   0  0  0  0  0  0
    6.3430   70.1650   64.5742 H   0  0  0  0  0  0
    4.4998   68.8563   60.1916 H   0  0  0  0  0  0
    1.8079   70.0154   68.5133 H   0  0  0  0  0  0
    3.1430   69.7080   69.6017 H   0  0  0  0  0  0
    2.8140   71.3080   69.0356 H   0  0  0  0  0  0
    0.4640   67.9445   65.9140 H   0  0  0  0  0  0
    1.3608   68.1298   67.4145 H   0  0  0  0  0  0
    0.5005   69.5305   66.7095 H   0  0  0  0  0  0
    4.9707   70.9080   69.7863 H   0  0  0  0  0  0
    6.5789   70.5222   69.1677 H   0  0  0  0  0  0
    5.8369   72.1080   68.7680 H   0  0  0  0  0  0
  1  2  2  0  0  0
  1  4  1  0  0  0
  1 14  1  0  0  0
  2  3  1  0  0  0
  2 18  1  0  0  0
  3  6  2  0  0  0
  3 19  1  0  0  0
  4  5  2  0  0  0
  4 20  1  0  0  0
  5  6  1  0  0  0
  5  8  1  0  0  0
  6  7  1  0  0  0
  7  9  1  0  0  0
  7 16  1  0  0  0
  8  9  2  0  0  0
  8 13  1  0  0  0
  9 10  1  0  0  0
 10 11  2  0  0  0
 10 15  1  0  0  0
 11 12  1  0  0  0
 11 17  1  0  0  0
 12 13  2  0  0  0
 12 21  1  0  0  0
 13 22  1  0  0  0
 14 23  1  0  0  0
 15 24  1  0  0  0
 15 25  1  0  0  0
 15 26  1  0  0  0
 16 27  1  0  0  0
 16 28  1  0  0  0
 16 29  1  0  0  0
 17 30  1  0  0  0
 17 31  1  0  0  0
 17 32  1  0  0  0
M  CHG  1  11   1
M  END
> <s_m_entry_id>
8498

> <s_m_entry_name>
dock_pv.8

> <s_m_Source_Path>
/home/csk/Desktop/cluster/DUD-E-result/aces

> <s_m_Source_File>
dock_pv.maegz

> <i_m_Source_File_Index>
8

> <chembl_id>
CHEMBL441868

> <chembl_pref_name>
None

> <i_lp_mmshare_version>
53161

> <i_f3d_flags>
0

> <r_lp_tautomer_probability>
1

> <s_lp_Force_Field>
OPLS_2005

> <r_lp_Energy>
28.044795

> <b_lp_Chiralities_Consistent>
1

> <s_lp_Variant>
CHEMBL220_lig1033-1

> <s_i_glide_gridfile>
glide-grid_1e66

> <i_i_glide_lignum>
1432

> <i_i_glide_rotatable_bonds>
1

> <r_i_docking_score>
-9.50185548013635

> <r_i_glide_ligand_efficiency>
-0.558932675302138

> <r_i_glide_ligand_efficiency_sa>
-1.43717329706447

> <r_i_glide_ligand_efficiency_ln>
-2.47882249884941

> <r_i_glide_gscore>
-9.50185548013635

> <r_i_glide_lipo>
-3.3825323725009

> <r_i_glide_hbond>
-0.178544768907692

> <r_i_glide_metal>
0

> <r_i_glide_rewards>
-3.40547565203647

> <r_i_glide_evdw>
-28.6248989105225

> <r_i_glide_ecoul>
-7.36038494110107

> <r_i_glide_erotb>
0

> <r_i_glide_esite>
0

> <r_i_glide_emodel>
-60.5249899041779

> <r_i_glide_energy>
-35.9852838516235

> <r_i_glide_einternal>
0.134324416518211

> <i_i_glide_confnum>
1

> <i_i_glide_posenum>
102

> <r_i_glide_eff_state_penalty>
0

> <s_user_duplicate_titles>
CHEMBL220_lig1033

> <s_m_subgroup_title>
dock_pv

> <s_m_subgroupid>
dock_pv

> <b_m_subgroup_collapsed>
0

$$$$
CHEMBL220_lig859
                    3D
 Schrodinger Suite 2021-1.
 61 63  0  0  1  0            999 V2000
    1.9431   65.8510   70.1936 S   0  0  0  0  0  0
    2.3788   64.1734   70.4541 C   0  0  0  0  0  0
    3.4942   68.5321   63.9575 N   0  3  1  0  0  0
    1.3016   63.3021   70.3176 C   0  0  0  0  0  0
    0.1938   65.5066   69.9575 C   0  0  2  0  0  0
    3.6538   63.6957   70.7461 C   0  0  0  0  0  0
    0.0031   63.9752   69.9042 C   0  0  0  0  0  0
    3.8647   62.3295   70.9274 C   0  0  0  0  0  0
    1.5149   61.9307   70.4903 C   0  0  0  0  0  0
    2.7946   61.4303   70.8015 C   0  0  0  0  0  0
   -0.3515   66.3396   68.7674 C   0  0  0  0  0  0
    4.3433   66.0218   63.6167 C   0  0  0  0  0  0
    4.1535   67.2422   64.5326 C   0  0  0  0  0  0
    4.3431   66.0810   62.3860 O   0  0  0  0  0  0
   -1.5628   66.5079   68.6485 O   0  0  0  0  0  0
    0.6179   66.9438   67.7214 C   0  0  0  0  0  0
    2.1093   68.2852   63.3012 C   0  0  0  0  0  0
    3.3066   69.5359   65.1318 C   0  0  0  0  0  0
    5.1432   61.8864   71.1679 O   0  0  0  0  0  0
    3.0844   60.0904   70.9846 O   0  0  0  0  0  0
   -0.0440   67.8130   66.6253 C   0  0  0  0  0  0
    4.5202   64.9060   64.3510 O   0  0  0  0  0  0
    4.4234   69.2145   62.9205 C   0  0  0  0  0  0
    0.9162   68.4549   65.5854 C   0  0  2  0  0  0
    1.1269   67.6275   64.2986 C   0  0  0  0  0  0
    2.2230   69.0847   66.1520 C   0  0  0  0  0  0
    2.0324   59.1393   70.9483 C   0  0  0  0  0  0
    5.4017   61.4570   72.4990 C   0  0  0  0  0  0
    4.7445   63.6469   63.7304 C   0  0  0  0  0  0
   -0.2852   65.9010   70.8542 H   0  0  0  0  0  0
    4.4895   64.3754   70.8341 H   0  0  0  0  0  0
   -0.2759   63.6469   68.9058 H   0  0  0  0  0  0
   -0.8043   63.6852   70.5752 H   0  0  0  0  0  0
    0.6802   61.2588   70.3688 H   0  0  0  0  0  0
    5.1163   67.5657   64.9264 H   0  0  0  0  0  0
    3.5301   66.9473   65.3723 H   0  0  0  0  0  0
    1.3179   67.5758   68.2657 H   0  0  0  0  0  0
    1.1882   66.1372   67.2663 H   0  0  0  0  0  0
    1.7378   69.2633   62.9914 H   0  0  0  0  0  0
    2.2670   67.7079   62.3930 H   0  0  0  0  0  0
    3.0428   70.4893   64.6763 H   0  0  0  0  0  0
    4.2761   69.6795   65.6114 H   0  0  0  0  0  0
   -0.8097   67.2343   66.1030 H   0  0  0  0  0  0
   -0.5941   68.6184   67.1203 H   0  0  0  0  0  0
    4.5528   68.5546   62.0623 H   0  0  0  0  0  0
    3.9602   70.1482   62.6026 H   0  0  0  0  0  0
    5.3830   69.4103   63.4005 H   0  0  0  0  0  0
    0.3509   69.3052   65.2083 H   0  0  0  0  0  0
    1.4759   66.6298   64.5659 H   0  0  0  0  0  0
    0.1676   67.4565   63.8065 H   0  0  0  0  0  0
    1.9799   69.8924   66.8452 H   0  0  0  0  0  0
    2.7183   68.3412   66.7680 H   0  0  0  0  0  0
    2.4330   58.1404   71.1227 H   0  0  0  0  0  0
    1.5619   59.1440   69.9690 H   0  0  0  0  0  0
    1.2783   59.3377   71.7127 H   0  0  0  0  0  0
    6.3426   60.9079   72.5194 H   0  0  0  0  0  0
    5.4995   62.3126   73.1679 H   0  0  0  0  0  0
    4.6319   60.7923   72.8980 H   0  0  0  0  0  0
    4.7932   62.8715   64.4926 H   0  0  0  0  0  0
    3.9430   63.3933   63.0381 H   0  0  0  0  0  0
    5.6879   63.6371   63.1833 H   0  0  0  0  0  0
  1  2  1  0  0  0
  1  5  1  0  0  0
  2  4  2  0  0  0
  2  6  1  0  0  0
  3 18  1  0  0  0
  3 13  1  0  0  0
  3 23  1  0  0  0
  3 17  1  0  0  0
  4  9  1  0  0  0
  4  7  1  0  0  0
  5  7  1  0  0  0
  5 11  1  0  0  0
  5 30  1  0  0  0
  6  8  2  0  0  0
  6 31  1  0  0  0
  7 32  1  0  0  0
  7 33  1  0  0  0
  8 10  1  0  0  0
  8 19  1  0  0  0
  9 10  2  0  0  0
  9 34  1  0  0  0
 10 20  1  0  0  0
 11 15  2  0  0  0
 11 16  1  0  0  0
 12 13  1  0  0  0
 12 14  2  0  0  0
 12 22  1  0  0  0
 13 35  1  0  0  0
 13 36  1  0  0  0
 16 21  1  0  0  0
 16 37  1  0  0  0
 16 38  1  0  0  0
 17 25  1  0  0  0
 17 39  1  0  0  0
 17 40  1  0  0  0
 18 26  1  0  0  0
 18 41  1  0  0  0
 18 42  1  0  0  0
 19 28  1  0  0  0
 20 27  1  0  0  0
 21 24  1  0  0  0
 21 43  1  0  0  0
 21 44  1  0  0  0
 22 29  1  0  0  0
 23 45  1  0  0  0
 23 46  1  0  0  0
 23 47  1  0  0  0
 24 25  1  0  0  0
 24 26  1  0  0  0
 24 48  1  0  0  0
 25 49  1  0  0  0
 25 50  1  0  0  0
 26 51  1  0  0  0
 26 52  1  0  0  0
 27 53  1  0  0  0
 27 54  1  0  0  0
 27 55  1  0  0  0
 28 56  1  0  0  0
 28 57  1  0  0  0
 28 58  1  0  0  0
 29 59  1  0  0  0
 29 60  1  0  0  0
 29 61  1  0  0  0
M  CHG  1   3   1
M  END
> <s_m_entry_id>
8499

> <s_m_entry_name>
dock_pv.9

> <s_m_Source_Path>
/home/csk/Desktop/cluster/DUD-E-result/aces

> <s_m_Source_File>
dock_pv.maegz

> <i_m_Source_File_Index>
9

> <chembl_id>
CHEMBL188714

> <chembl_pref_name>
None

> <i_lp_mmshare_version>
53161

> <i_f3d_flags>
0

> <r_lp_tautomer_probability>
0.999999960000001

> <s_lp_Force_Field>
OPLS_2005

> <r_lp_Energy>
48.267763

> <b_lp_Chiralities_Consistent>
1

> <s_lp_Variant>
CHEMBL220_lig859-1

> <s_i_glide_gridfile>
glide-grid_1e66

> <i_i_glide_lignum>
1134

> <i_i_glide_rotatable_bonds>
9

> <r_i_docking_score>
-9.49029004779763

> <r_i_glide_ligand_efficiency>
-0.327251380958539

> <r_i_glide_ligand_efficiency_sa>
-1.00541992281933

> <r_i_glide_ligand_efficiency_ln>
-2.17303576795415

> <r_i_glide_gscore>
-9.49029004779763

> <r_i_glide_lipo>
-3.9845999109566

> <r_i_glide_hbond>
-0.259668892670094

> <r_i_glide_metal>
0

> <r_i_glide_rewards>
-2.89688805472112

> <r_i_glide_evdw>
-38.7713966369629

> <r_i_glide_ecoul>
-7.17525005340576

> <r_i_glide_erotb>
0.665724150409189

> <r_i_glide_esite>
0

> <r_i_glide_emodel>
-58.474804697418

> <r_i_glide_energy>
-45.9466466903687

> <r_i_glide_einternal>
17.4141101837158

> <i_i_glide_confnum>
9

> <i_i_glide_posenum>
101

> <r_i_glide_eff_state_penalty>
0

> <s_user_duplicate_titles>
CHEMBL220_lig859,313850

> <s_m_subgroup_title>
dock_pv

> <s_m_subgroupid>
dock_pv

> <b_m_subgroup_collapsed>
0

$$$$
CHEMBL220_lig694
                    3D
 Schrodinger Suite 2021-1.
 59 61  0  0  1  0            999 V2000
    0.0716   68.5006   63.9905 C   0  0  0  0  0  0
   -1.4714   68.2398   65.8946 C   0  0  0  0  0  0
    0.3191   68.9919   62.6040 N   0  3  0  0  0  0
   -2.8540   68.4326   66.4175 N   0  3  0  0  0  0
    1.0750   67.9185   64.7746 C   0  0  0  0  0  0
   -1.1921   68.6396   64.5750 C   0  0  0  0  0  0
   -0.4332   67.6426   66.6455 C   0  0  0  0  0  0
    2.3639   67.7700   64.2899 N   0  0  0  0  0  0
    0.8214   67.4844   66.0643 C   0  0  0  0  0  0
    2.2952   60.8196   71.6188 C   0  0  0  0  0  0
    2.0086   61.9365   70.8959 O   0  0  0  0  0  0
    4.7432   66.5086   61.9682 N   0  0  0  0  0  0
    3.5434   68.4016   64.7083 C   0  0  0  0  0  0
    4.7433   67.2680   62.8368 C   0  0  0  0  0  0
    4.7115   68.2085   63.9538 C   0  0  0  0  0  0
    0.6912   62.2283   71.0752 C   0  0  0  0  0  0
    1.1411   60.3839   72.2534 C   0  0  0  0  0  0
   -0.4567   69.8095   62.1293 O   0  5  0  0  0  0
   -3.6978   68.9074   65.6645 O   0  5  0  0  0  0
    0.1252   61.2782   71.9112 C   0  0  0  0  0  0
    1.2869   68.5828   61.9686 O   0  0  0  0  0  0
   -3.1232   68.1080   67.5680 O   0  0  0  0  0  0
    3.7308   60.3108   71.5571 C   0  0  0  0  0  0
   -0.6308   67.2413   67.9739 N   0  0  0  0  0  0
    3.9949   59.3078   70.5137 N   0  0  0  0  0  0
    0.7430   64.9860   71.1674 S   0  0  0  0  0  0
    0.1621   63.4585   70.3715 C   0  0  0  0  0  0
    5.8639   68.9174   64.2809 C   0  0  0  0  0  0
    3.5655   69.2746   65.8064 C   0  0  0  0  0  0
    0.2225   66.3024   68.7004 C   0  0  0  0  0  0
    0.0356   66.3691   70.2129 C   0  0  0  0  0  0
    3.3081   58.0412   70.7627 C   0  0  0  0  0  0
    3.7259   59.8016   69.1681 C   0  0  0  0  0  0
    5.8814   69.7798   65.3766 C   0  0  0  0  0  0
    4.7366   69.9474   66.1482 C   0  0  0  0  0  0
   -1.9810   69.0778   63.9790 H   0  0  0  0  0  0
    2.3697   67.6273   63.2882 H   0  0  0  0  0  0
    1.6389   67.0420   66.6066 H   0  0  0  0  0  0
    1.0494   59.5171   72.8915 H   0  0  0  0  0  0
   -0.9059   61.2408   72.2329 H   0  0  0  0  0  0
    4.4091   61.1514   71.4029 H   0  0  0  0  0  0
    4.0129   59.8869   72.5223 H   0  0  0  0  0  0
   -1.5786   67.3507   68.3156 H   0  0  0  0  0  0
   -0.9242   63.4491   70.3208 H   0  0  0  0  0  0
    0.5179   63.4548   69.3426 H   0  0  0  0  0  0
    6.7434   68.8145   63.6693 H   0  0  0  0  0  0
    2.6769   69.4542   66.3925 H   0  0  0  0  0  0
   -0.0570   65.3084   68.3672 H   0  0  0  0  0  0
    1.2809   66.4220   68.4831 H   0  0  0  0  0  0
    0.5244   67.2759   70.5719 H   0  0  0  0  0  0
   -1.0091   66.5080   70.4632 H   0  0  0  0  0  0
    3.6154   57.2854   70.0391 H   0  0  0  0  0  0
    3.5481   57.6569   71.7556 H   0  0  0  0  0  0
    2.2243   58.1481   70.6923 H   0  0  0  0  0  0
    4.0257   59.0662   68.4200 H   0  0  0  0  0  0
    2.6649   60.0109   69.0211 H   0  0  0  0  0  0
    4.2839   60.7188   68.9747 H   0  0  0  0  0  0
    6.7787   70.3295   65.6171 H   0  0  0  0  0  0
    4.7443   70.6249   66.9897 H   0  0  0  0  0  0
  1  3  1  0  0  0
  1  5  2  0  0  0
  1  6  1  0  0  0
  2  6  2  0  0  0
  2  4  1  0  0  0
  2  7  1  0  0  0
  3 18  1  0  0  0
  3 21  2  0  0  0
  4 19  1  0  0  0
  4 22  2  0  0  0
  5  8  1  0  0  0
  5  9  1  0  0  0
  6 36  1  0  0  0
  7 24  1  0  0  0
  7  9  2  0  0  0
  8 13  1  0  0  0
  8 37  1  0  0  0
  9 38  1  0  0  0
 10 11  1  0  0  0
 10 23  1  0  0  0
 10 17  2  0  0  0
 11 16  1  0  0  0
 12 14  3  0  0  0
 13 15  1  0  0  0
 13 29  2  0  0  0
 14 15  1  0  0  0
 15 28  2  0  0  0
 16 27  1  0  0  0
 16 20  2  0  0  0
 17 20  1  0  0  0
 17 39  1  0  0  0
 20 40  1  0  0  0
 23 25  1  0  0  0
 23 41  1  0  0  0
 23 42  1  0  0  0
 24 30  1  0  0  0
 24 43  1  0  0  0
 25 32  1  0  0  0
 25 33  1  0  0  0
 26 31  1  0  0  0
 26 27  1  0  0  0
 27 44  1  0  0  0
 27 45  1  0  0  0
 28 34  1  0  0  0
 28 46  1  0  0  0
 29 35  1  0  0  0
 29 47  1  0  0  0
 30 31  1  0  0  0
 30 48  1  0  0  0
 30 49  1  0  0  0
 31 50  1  0  0  0
 31 51  1  0  0  0
 32 52  1  0  0  0
 32 53  1  0  0  0
 32 54  1  0  0  0
 33 55  1  0  0  0
 33 56  1  0  0  0
 33 57  1  0  0  0
 34 35  2  0  0  0
 34 58  1  0  0  0
 35 59  1  0  0  0
M  CHG  4   3   1   4   1  18  -1  19  -1
M  END
> <s_m_entry_id>
8500

> <s_m_entry_name>
dock_pv.10

> <s_m_Source_Path>
/home/csk/Desktop/cluster/DUD-E-result/aces

> <s_m_Source_File>
dock_pv.maegz

> <i_m_Source_File_Index>
10

> <chembl_id>
CHEMBL106082

> <chembl_pref_name>
None

> <i_lp_mmshare_version>
53161

> <i_f3d_flags>
0

> <r_lp_tautomer_probability>
1

> <s_lp_Force_Field>
OPLS_2005

> <r_lp_Energy>
32.944923

> <b_lp_Chiralities_Consistent>
1

> <s_lp_Variant>
CHEMBL220_lig694-1

> <s_i_glide_gridfile>
glide-grid_1e66

> <i_i_glide_lignum>
821

> <i_i_glide_rotatable_bonds>
12

> <r_i_docking_score>
-9.36727149092532

> <r_i_glide_ligand_efficiency>
-0.267636328312152

> <r_i_glide_ligand_efficiency_sa>
-0.875456175886936

> <r_i_glide_ligand_efficiency_ln>
-2.05632398764774

> <r_i_glide_gscore>
-9.36727149092532

> <r_i_glide_lipo>
-3.71242770115544

> <r_i_glide_hbond>
-0.21115131311041

> <r_i_glide_metal>
0

> <r_i_glide_rewards>
-1.82359186363636

> <r_i_glide_evdw>
-59.8845825195312

> <r_i_glide_ecoul>
-8.884934425354

> <r_i_glide_erotb>
0.744414816242948

> <r_i_glide_esite>
-0.0375461394863992

> <r_i_glide_emodel>
-96.5608385370717

> <r_i_glide_energy>
-68.7695169448853

> <r_i_glide_einternal>
15.6952877044678

> <i_i_glide_confnum>
318

> <i_i_glide_posenum>
327

> <r_i_glide_eff_state_penalty>
0

> <s_user_duplicate_titles>
CHEMBL220_lig694,174159

> <s_m_subgroup_title>
dock_pv

> <s_m_subgroupid>
dock_pv

> <b_m_subgroup_collapsed>
0

$$$$
CHEMBL220_lig672
                    3D
 Schrodinger Suite 2021-1.
 58 60  0  0  1  0            999 V2000
    3.5026   69.1872   62.8762 C   0  0  0  0  0  0
    1.0807   68.9479   63.2045 C   0  0  0  0  0  0
    4.6196   69.5652   61.9708 N   0  3  0  0  0  0
   -0.2768   69.2480   62.6803 N   0  3  0  0  0  0
    2.1860   69.2743   62.4069 C   0  0  0  0  0  0
    3.7025   68.7952   64.2119 C   0  0  0  0  0  0
    1.3086   68.4392   64.5011 C   0  0  0  0  0  0
    2.6224   68.3605   64.9718 C   0  0  0  0  0  0
    1.1223   63.6542   71.8667 C   0  0  0  0  0  0
    0.4371   64.7156   71.3676 O   0  0  0  0  0  0
    4.9633   68.8773   64.8181 N   0  0  0  0  0  0
    1.2325   65.3313   70.4544 C   0  0  0  0  0  0
    2.3641   63.5812   71.2534 C   0  0  0  0  0  0
    5.7696   69.3080   62.3120 O   0  5  0  0  0  0
   -1.2562   68.6944   63.1680 O   0  5  0  0  0  0
    2.4399   64.6558   70.3677 C   0  0  0  0  0  0
    4.3428   70.1080   60.9021 O   0  0  0  0  0  0
   -0.3644   70.0689   61.7678 O   0  0  0  0  0  0
    0.3995   62.8037   72.8896 C   0  0  0  0  0  0
    0.2382   68.1083   65.3527 N   0  0  0  0  0  0
    5.3353   69.4681   66.0367 C   0  0  0  0  0  0
   -0.5068   61.8479   72.2500 N   0  0  0  0  0  0
    6.2498   70.7514   68.3349 C   0  0  0  0  0  0
   -0.7935   66.1081   68.7681 S   0  0  0  0  0  0
    6.7257   71.3080   69.4650 F   0  0  0  0  0  0
    6.6865   69.4513   66.3663 C   0  0  0  0  0  0
    4.4314   70.1080   66.8942 C   0  0  0  0  0  0
    4.8891   70.7592   68.0422 C   0  0  0  0  0  0
    7.1430   70.1080   67.4977 C   0  0  0  0  0  0
    0.6596   66.5440   69.7649 C   0  0  0  0  0  0
    0.4298   67.4998   66.6629 C   0  0  0  0  0  0
   -0.8515   67.3982   67.4957 C   0  0  0  0  0  0
    0.2296   60.7332   71.6581 C   0  0  0  0  0  0
   -1.4851   61.3361   73.2062 C   0  0  0  0  0  0
    2.0122   69.6353   61.4016 H   0  0  0  0  0  0
    2.8327   68.0083   65.9681 H   0  0  0  0  0  0
    5.7172   68.8911   64.1406 H   0  0  0  0  0  0
    3.1252   62.8365   71.4343 H   0  0  0  0  0  0
    3.2729   64.9089   69.7284 H   0  0  0  0  0  0
   -0.1705   63.4636   73.5459 H   0  0  0  0  0  0
    1.1073   62.2816   73.5360 H   0  0  0  0  0  0
   -0.6764   68.0271   64.9207 H   0  0  0  0  0  0
    7.3866   68.9082   65.7485 H   0  0  0  0  0  0
    3.3790   70.1546   66.6672 H   0  0  0  0  0  0
    4.1942   71.2585   68.7014 H   0  0  0  0  0  0
    8.1794   70.0593   67.7691 H   0  0  0  0  0  0
    0.3643   67.3076   70.4837 H   0  0  0  0  0  0
    1.4254   67.0001   69.1415 H   0  0  0  0  0  0
    1.1659   68.0691   67.2300 H   0  0  0  0  0  0
    0.8597   66.5084   66.5118 H   0  0  0  0  0  0
   -1.7017   67.1626   66.8530 H   0  0  0  0  0  0
   -1.0756   68.3571   67.9661 H   0  0  0  0  0  0
    0.9268   61.0820   70.8957 H   0  0  0  0  0  0
   -0.4567   60.0454   71.1686 H   0  0  0  0  0  0
    0.7933   60.1740   72.4065 H   0  0  0  0  0  0
   -2.0833   62.1476   73.6216 H   0  0  0  0  0  0
   -2.1764   60.6462   72.7203 H   0  0  0  0  0  0
   -1.0054   60.8091   74.0328 H   0  0  0  0  0  0
  1  3  1  0  0  0
  1  5  1  0  0  0
  1  6  2  0  0  0
  2  5  2  0  0  0
  2  4  1  0  0  0
  2  7  1  0  0  0
  3 14  1  0  0  0
  3 17  2  0  0  0
  4 15  1  0  0  0
  4 18  2  0  0  0
  5 35  1  0  0  0
  6  8  1  0  0  0
  6 11  1  0  0  0
  7  8  2  0  0  0
  7 20  1  0  0  0
  8 36  1  0  0  0
  9 10  1  0  0  0
  9 19  1  0  0  0
  9 13  2  0  0  0
 10 12  1  0  0  0
 11 21  1  0  0  0
 11 37  1  0  0  0
 12 30  1  0  0  0
 12 16  2  0  0  0
 13 16  1  0  0  0
 13 38  1  0  0  0
 16 39  1  0  0  0
 19 22  1  0  0  0
 19 40  1  0  0  0
 19 41  1  0  0  0
 20 31  1  0  0  0
 20 42  1  0  0  0
 21 26  1  0  0  0
 21 27  2  0  0  0
 22 33  1  0  0  0
 22 34  1  0  0  0
 23 28  2  0  0  0
 23 25  1  0  0  0
 23 29  1  0  0  0
 24 32  1  0  0  0
 24 30  1  0  0  0
 26 29  2  0  0  0
 26 43  1  0  0  0
 27 28  1  0  0  0
 27 44  1  0  0  0
 28 45  1  0  0  0
 29 46  1  0  0  0
 30 47  1  0  0  0
 30 48  1  0  0  0
 31 32  1  0  0  0
 31 49  1  0  0  0
 31 50  1  0  0  0
 32 51  1  0  0  0
 32 52  1  0  0  0
 33 53  1  0  0  0
 33 54  1  0  0  0
 33 55  1  0  0  0
 34 56  1  0  0  0
 34 57  1  0  0  0
 34 58  1  0  0  0
M  CHG  4   3   1   4   1  14  -1  15  -1
M  END
> <s_m_entry_id>
8501

> <s_m_entry_name>
dock_pv.11

> <s_m_Source_Path>
/home/csk/Desktop/cluster/DUD-E-result/aces

> <s_m_Source_File>
dock_pv.maegz

> <i_m_Source_File_Index>
11

> <chembl_id>
CHEMBL107254

> <chembl_pref_name>
None

> <i_lp_mmshare_version>
53161

> <i_f3d_flags>
0

> <r_lp_tautomer_probability>
1

> <s_lp_Force_Field>
OPLS_2005

> <r_lp_Energy>
29.710118

> <b_lp_Chiralities_Consistent>
1

> <s_lp_Variant>
CHEMBL220_lig672-1

> <s_i_glide_gridfile>
glide-grid_1e66

> <i_i_glide_lignum>
793

> <i_i_glide_rotatable_bonds>
12

> <r_i_docking_score>
-9.23445772179067

> <r_i_glide_ligand_efficiency>
-0.271601697699725

> <r_i_glide_ligand_efficiency_sa>
-0.879884064080767

> <r_i_glide_ligand_efficiency_ln>
-2.04015072850914

> <r_i_glide_gscore>
-9.23445772179067

> <r_i_glide_lipo>
-5.55625323039071

> <r_i_glide_hbond>
0

> <r_i_glide_metal>
0

> <r_i_glide_rewards>
-1.6106474113156

> <r_i_glide_evdw>
-50.6106948852539

> <r_i_glide_ecoul>
-1.43047857284546

> <r_i_glide_erotb>
0.764078903286192

> <r_i_glide_esite>
-0.086529453181031

> <r_i_glide_emodel>
-70.9413444202192

> <r_i_glide_energy>
-52.0411734580994

> <r_i_glide_einternal>
9.92554950714111

> <i_i_glide_confnum>
31

> <i_i_glide_posenum>
250

> <r_i_glide_eff_state_penalty>
0

> <s_user_duplicate_titles>
CHEMBL220_lig672,174473

> <s_m_subgroup_title>
dock_pv

> <s_m_subgroupid>
dock_pv

> <b_m_subgroup_collapsed>
0

$$$$
CHEMBL220_lig37
                    3D
 Schrodinger Suite 2021-1.
 45 46  0  0  1  0            999 V2000
    1.4287   68.1768   63.7765 C   0  0  0  0  0  0
    0.1384   68.6918   63.6210 C   0  0  0  0  0  0
   -0.1906   69.3031   62.4089 C   0  0  0  0  0  0
    0.7430   69.4032   61.3792 C   0  0  0  0  0  0
    2.0330   68.9080   61.5547 C   0  0  0  0  0  0
    2.3920   68.3137   62.7667 C   0  0  0  0  0  0
    3.7760   67.7987   62.9808 C   0  0  0  0  0  0
    4.3429   67.1053   62.1337 O   0  0  0  0  0  0
    4.5189   68.2395   64.1585 C   0  0  0  0  0  0
    4.0824   69.2023   65.0017 C   0  0  0  0  0  0
    4.8104   69.7080   66.1610 C   0  0  0  0  0  0
    4.1042   70.1080   67.2973 C   0  0  0  0  0  0
    4.7840   70.6869   68.3681 C   0  0  0  0  0  0
    6.1714   70.8017   68.3173 C   0  0  0  0  0  0
    6.8736   70.3547   67.2069 C   0  0  0  0  0  0
    6.1970   69.8153   66.1255 C   0  0  0  0  0  0
   -0.9577   68.5310   64.6825 C   0  0  0  0  0  0
   -0.5204   68.4913   66.0889 N   0  0  0  0  0  0
   -1.5399   69.0991   66.9643 C   0  0  0  0  0  0
   -2.8766   68.3263   67.0403 C   0  0  0  0  0  0
    0.6836   67.1879   67.8266 C   0  0  0  0  0  0
   -0.1498   67.1363   66.5341 C   0  0  0  0  0  0
    6.8579   71.3080   69.3619 F   0  0  0  0  0  0
    1.7137   67.7089   64.7037 H   0  0  0  0  0  0
   -1.1827   69.7077   62.2700 H   0  0  0  0  0  0
    0.4654   69.8701   60.4456 H   0  0  0  0  0  0
    2.7521   69.0010   60.7523 H   0  0  0  0  0  0
    5.4702   67.7558   64.3205 H   0  0  0  0  0  0
    3.1419   69.7082   64.8364 H   0  0  0  0  0  0
    3.0275   70.0190   67.3375 H   0  0  0  0  0  0
    4.2424   71.0182   69.2415 H   0  0  0  0  0  0
    7.9430   70.4328   67.1825 H   0  0  0  0  0  0
    6.7430   69.5003   65.2506 H   0  0  0  0  0  0
   -1.6836   69.3080   64.5263 H   0  0  0  0  0  0
   -1.5982   67.7080   64.4477 H   0  0  0  0  0  0
   -1.1344   69.2454   67.9659 H   0  0  0  0  0  0
   -1.7375   70.1095   66.6051 H   0  0  0  0  0  0
   -3.6271   68.9074   67.5678 H   0  0  0  0  0  0
   -3.2888   68.1084   66.0554 H   0  0  0  0  0  0
   -2.7799   67.3854   67.5809 H   0  0  0  0  0  0
    1.0612   66.1999   68.0869 H   0  0  0  0  0  0
    1.5427   67.8499   67.7141 H   0  0  0  0  0  0
    0.1011   67.5416   68.6770 H   0  0  0  0  0  0
   -1.0282   66.5077   66.6754 H   0  0  0  0  0  0
    0.4209   66.6094   65.7734 H   0  0  0  0  0  0
  1  2  2  0  0  0
  1  6  1  0  0  0
  1 24  1  0  0  0
  2  3  1  0  0  0
  2 17  1  0  0  0
  3  4  2  0  0  0
  3 25  1  0  0  0
  4  5  1  0  0  0
  4 26  1  0  0  0
  5  6  2  0  0  0
  5 27  1  0  0  0
  6  7  1  0  0  0
  7  8  2  0  0  0
  7  9  1  0  0  0
  9 10  2  0  0  0
  9 28  1  0  0  0
 10 11  1  0  0  0
 10 29  1  0  0  0
 11 12  2  0  0  0
 11 16  1  0  0  0
 12 13  1  0  0  0
 12 30  1  0  0  0
 13 14  2  0  0  0
 13 31  1  0  0  0
 14 15  1  0  0  0
 14 23  1  0  0  0
 15 16  2  0  0  0
 15 32  1  0  0  0
 16 33  1  0  0  0
 17 18  1  0  0  0
 17 34  1  0  0  0
 17 35  1  0  0  0
 18 19  1  0  0  0
 18 22  1  0  0  0
 19 20  1  0  0  0
 19 36  1  0  0  0
 19 37  1  0  0  0
 20 38  1  0  0  0
 20 39  1  0  0  0
 20 40  1  0  0  0
 21 22  1  0  0  0
 21 41  1  0  0  0
 21 42  1  0  0  0
 21 43  1  0  0  0
 22 44  1  0  0  0
 22 45  1  0  0  0
M  END
> <s_m_entry_id>
8502

> <s_m_entry_name>
dock_pv.12

> <s_m_Source_Path>
/home/csk/Desktop/cluster/DUD-E-result/aces

> <s_m_Source_File>
dock_pv.maegz

> <i_m_Source_File_Index>
12

> <chembl_id>
CHEMBL2381397

> <chembl_pref_name>
None

> <i_lp_mmshare_version>
53161

> <i_f3d_flags>
0

> <r_lp_tautomer_probability>
1

> <s_lp_Force_Field>
OPLS_2005

> <r_lp_Energy>
21.964006

> <b_lp_Chiralities_Consistent>
1

> <s_lp_Variant>
CHEMBL220_lig37-1

> <s_i_glide_gridfile>
glide-grid_1e66

> <i_i_glide_lignum>
40

> <i_i_glide_rotatable_bonds>
7

> <r_i_docking_score>
-9.1734865127611

> <r_i_glide_ligand_efficiency>
-0.398847239685265

> <r_i_glide_ligand_efficiency_sa>
-1.13426849376037

> <r_i_glide_ligand_efficiency_ln>
-2.21823221936245

> <r_i_glide_gscore>
-9.1734865127611

> <r_i_glide_lipo>
-4.82838158436972

> <r_i_glide_hbond>
0

> <r_i_glide_metal>
0

> <r_i_glide_rewards>
-2.65470255164975

> <r_i_glide_evdw>
-39.0512962341309

> <r_i_glide_ecoul>
-3.3522322177887

> <r_i_glide_erotb>
0.764997267633212

> <r_i_glide_esite>
0

> <r_i_glide_emodel>
-60.5499308499435

> <r_i_glide_energy>
-42.4035284519196

> <r_i_glide_einternal>
8.75574684143066

> <i_i_glide_confnum>
7

> <i_i_glide_posenum>
43

> <r_i_glide_eff_state_penalty>
0

> <s_user_duplicate_titles>
CHEMBL220_lig37

> <s_m_subgroup_title>
dock_pv

> <s_m_subgroupid>
dock_pv

> <b_m_subgroup_collapsed>
0

$$$$
CHEMBL220_lig1036
                    3D
 Schrodinger Suite 2021-1.
 26 28  0  0  1  0            999 V2000
    0.6033   68.1829   64.8573 C   0  0  0  0  0  0
   -0.2858   68.2824   65.9266 C   0  0  0  0  0  0
    0.1009   68.8157   67.1580 C   0  0  0  0  0  0
    1.9265   68.5926   64.9808 C   0  0  0  0  0  0
    2.3430   69.1522   66.1971 C   0  0  0  0  0  0
    1.4247   69.2537   67.2775 C   0  0  0  0  0  0
    2.0958   69.8328   68.3396 N   0  0  0  0  0  0
    3.5630   69.6923   66.6206 C   0  0  0  0  0  0
    3.4017   70.1080   67.9680 C   0  0  0  0  0  0
    4.4793   70.6497   68.6746 C   0  0  0  0  0  0
    5.6723   70.7480   68.0323 N   0  3  0  0  0  0
    5.8548   70.3855   66.7411 C   0  0  0  0  0  0
    4.8098   69.8478   65.9925 C   0  0  0  0  0  0
    0.1726   67.7080   63.6518 O   0  0  0  0  0  0
    6.8496   71.2338   68.7688 C   0  0  0  0  0  0
   -1.3095   67.9606   65.7990 H   0  0  0  0  0  0
   -0.6055   68.9037   67.9680 H   0  0  0  0  0  0
    2.6001   68.5184   64.1402 H   0  0  0  0  0  0
    1.6813   70.0141   69.2498 H   0  0  0  0  0  0
    4.4358   70.9080   69.7212 H   0  0  0  0  0  0
    6.8502   70.5080   66.3354 H   0  0  0  0  0  0
    4.9625   69.5474   64.9662 H   0  0  0  0  0  0
   -0.5613   67.0785   63.7568 H   0  0  0  0  0  0
    6.6241   71.3076   69.8326 H   0  0  0  0  0  0
    7.6512   70.5081   68.6233 H   0  0  0  0  0  0
    7.1143   72.2116   68.3680 H   0  0  0  0  0  0
  1  2  2  0  0  0
  1  4  1  0  0  0
  1 14  1  0  0  0
  2  3  1  0  0  0
  2 16  1  0  0  0
  3  6  2  0  0  0
  3 17  1  0  0  0
  4  5  2  0  0  0
  4 18  1  0  0  0
  5  8  1  0  0  0
  5  6  1  0  0  0
  6  7  1  0  0  0
  7  9  1  0  0  0
  7 19  1  0  0  0
  8  9  2  0  0  0
  8 13  1  0  0  0
  9 10  1  0  0  0
 10 11  2  0  0  0
 10 20  1  0  0  0
 11 12  1  0  0  0
 11 15  1  0  0  0
 12 13  2  0  0  0
 12 21  1  0  0  0
 13 22  1  0  0  0
 14 23  1  0  0  0
 15 24  1  0  0  0
 15 25  1  0  0  0
 15 26  1  0  0  0
M  CHG  1  11   1
M  END
> <s_m_entry_id>
8503

> <s_m_entry_name>
dock_pv.13

> <s_m_Source_Path>
/home/csk/Desktop/cluster/DUD-E-result/aces

> <s_m_Source_File>
dock_pv.maegz

> <i_m_Source_File_Index>
13

> <chembl_id>
CHEMBL220905

> <chembl_pref_name>
None

> <i_lp_mmshare_version>
53161

> <i_f3d_flags>
0

> <r_lp_tautomer_probability>
1

> <s_lp_Force_Field>
OPLS_2005

> <r_lp_Energy>
16.092825

> <b_lp_Chiralities_Consistent>
1

> <s_lp_Variant>
CHEMBL220_lig1036-1

> <s_i_glide_gridfile>
glide-grid_1e66

> <i_i_glide_lignum>
1435

> <i_i_glide_rotatable_bonds>
1

> <r_i_docking_score>
-9.15873508676217

> <r_i_glide_ligand_efficiency>
-0.610582339117478

> <r_i_glide_ligand_efficiency_sa>
-1.50582553574518

> <r_i_glide_ligand_efficiency_ln>
-2.46995984143897

> <r_i_glide_gscore>
-9.15873508676217

> <r_i_glide_lipo>
-2.86766423945891

> <r_i_glide_hbond>
-0.416792064195111

> <r_i_glide_metal>
0

> <r_i_glide_rewards>
-3.06917781760827

> <r_i_glide_evdw>
-22.8394374847412

> <r_i_glide_ecoul>
-11.0875272750854

> <r_i_glide_erotb>
0

> <r_i_glide_esite>
0

> <r_i_glide_emodel>
-60.7020129547519

> <r_i_glide_energy>
-33.9269647598267

> <r_i_glide_einternal>
1.91076815128326

> <i_i_glide_confnum>
1

> <i_i_glide_posenum>
103

> <r_i_glide_eff_state_penalty>
0

> <s_user_duplicate_titles>
CHEMBL220_lig1036

> <s_m_subgroup_title>
dock_pv

> <s_m_subgroupid>
dock_pv

> <b_m_subgroup_collapsed>
0

$$$$
CHEMBL220_lig77
                    3D
 Schrodinger Suite 2021-1.
 57 60  0  0  1  0            999 V2000
    0.0310   61.8449   71.2459 C   0  0  0  0  0  0
    0.2437   63.0220   70.5317 C   0  0  0  0  0  0
    0.3422   64.2440   71.2127 C   0  0  0  0  0  0
    0.2273   64.2338   72.6076 C   0  0  0  0  0  0
    0.0183   63.0300   73.2882 C   0  0  0  0  0  0
   -0.0828   61.8694   72.5937 N   0  3  0  0  0  0
    0.5142   65.5111   70.4765 C   0  0  0  0  0  0
    0.0208   65.7156   69.2356 C   0  0  0  0  0  0
    0.2426   66.9077   68.4536 C   0  0  0  0  0  0
    1.0347   67.7919   68.7707 O   0  0  0  0  0  0
   -0.4577   66.9128   67.3064 N   0  0  0  0  0  0
   -0.3575   67.9140   66.2416 C   0  0  0  0  0  0
    1.0873   68.0825   65.7202 C   0  0  0  0  0  0
    1.0611   68.5234   61.9998 N   0  0  0  0  0  0
    0.4023   68.2354   63.1731 C   0  0  0  0  0  0
    1.2605   68.4046   64.2473 C   0  0  0  0  0  0
    2.4847   68.9001   63.6909 C   0  0  0  0  0  0
    3.6947   69.3015   64.2680 C   0  0  0  0  0  0
    4.7519   69.7084   63.4480 C   0  0  0  0  0  0
    4.6121   69.6511   62.0632 C   0  0  0  0  0  0
    3.4249   69.2562   61.4396 C   0  0  0  0  0  0
    2.3568   68.9092   62.2727 C   0  0  0  0  0  0
    5.9426   70.1997   63.9392 O   0  0  0  0  0  0
    6.1090   70.3526   65.3488 C   0  0  0  0  0  0
   -0.2644   60.5883   73.3150 C   0  0  0  0  0  0
    1.0598   59.8703   73.5426 C   0  0  0  0  0  0
    1.6738   59.9067   74.7998 C   0  0  0  0  0  0
    2.8980   59.2679   75.0017 C   0  0  0  0  0  0
    3.5202   58.6029   73.9451 C   0  0  0  0  0  0
    2.9231   58.5739   72.6863 C   0  0  0  0  0  0
    1.6879   59.1914   72.4898 C   0  0  0  0  0  0
    3.5415   57.9573   71.6529 F   0  0  0  0  0  0
   -0.0574   60.8796   70.7688 H   0  0  0  0  0  0
    0.3353   62.9805   69.4556 H   0  0  0  0  0  0
    0.2937   65.1603   73.1626 H   0  0  0  0  0  0
   -0.0642   62.9623   74.3657 H   0  0  0  0  0  0
    1.0931   66.2864   70.9650 H   0  0  0  0  0  0
   -0.5711   64.9450   68.7681 H   0  0  0  0  0  0
   -1.0796   66.1417   67.1208 H   0  0  0  0  0  0
   -1.0069   67.5490   65.4482 H   0  0  0  0  0  0
   -0.7765   68.8703   66.5620 H   0  0  0  0  0  0
    1.5677   68.8537   66.3277 H   0  0  0  0  0  0
    1.6612   67.1728   65.9135 H   0  0  0  0  0  0
    0.6307   68.4151   61.0917 H   0  0  0  0  0  0
   -0.6129   67.8693   63.1402 H   0  0  0  0  0  0
    3.7871   69.2992   65.3416 H   0  0  0  0  0  0
    5.4512   69.9427   61.4475 H   0  0  0  0  0  0
    3.3462   69.2350   60.3632 H   0  0  0  0  0  0
    7.0236   70.9074   65.5649 H   0  0  0  0  0  0
    5.2900   70.9094   65.8034 H   0  0  0  0  0  0
    6.1906   69.3820   65.8396 H   0  0  0  0  0  0
   -0.9513   59.9768   72.7230 H   0  0  0  0  0  0
   -0.7768   60.8034   74.2553 H   0  0  0  0  0  0
    1.2062   60.4239   75.6272 H   0  0  0  0  0  0
    3.3666   59.2911   75.9748 H   0  0  0  0  0  0
    4.4672   58.1079   74.0983 H   0  0  0  0  0  0
    1.2357   59.1439   71.5111 H   0  0  0  0  0  0
  1  2  1  0  0  0
  1  6  2  0  0  0
  1 33  1  0  0  0
  2  3  2  0  0  0
  2 34  1  0  0  0
  3  4  1  0  0  0
  3  7  1  0  0  0
  4  5  2  0  0  0
  4 35  1  0  0  0
  5  6  1  0  0  0
  5 36  1  0  0  0
  6 25  1  0  0  0
  7  8  2  0  0  0
  7 37  1  0  0  0
  8  9  1  0  0  0
  8 38  1  0  0  0
  9 10  2  0  0  0
  9 11  1  0  0  0
 11 12  1  0  0  0
 11 39  1  0  0  0
 12 13  1  0  0  0
 12 40  1  0  0  0
 12 41  1  0  0  0
 13 16  1  0  0  0
 13 42  1  0  0  0
 13 43  1  0  0  0
 14 15  1  0  0  0
 14 22  1  0  0  0
 14 44  1  0  0  0
 15 16  2  0  0  0
 15 45  1  0  0  0
 16 17  1  0  0  0
 17 18  1  0  0  0
 17 22  2  0  0  0
 18 19  2  0  0  0
 18 46  1  0  0  0
 19 20  1  0  0  0
 19 23  1  0  0  0
 20 21  2  0  0  0
 20 47  1  0  0  0
 21 22  1  0  0  0
 21 48  1  0  0  0
 23 24  1  0  0  0
 24 49  1  0  0  0
 24 50  1  0  0  0
 24 51  1  0  0  0
 25 26  1  0  0  0
 25 52  1  0  0  0
 25 53  1  0  0  0
 26 27  2  0  0  0
 26 31  1  0  0  0
 27 28  1  0  0  0
 27 54  1  0  0  0
 28 29  2  0  0  0
 28 55  1  0  0  0
 29 30  1  0  0  0
 29 56  1  0  0  0
 30 31  2  0  0  0
 30 32  1  0  0  0
 31 57  1  0  0  0
M  CHG  1   6   1
M  END
> <s_m_entry_id>
8504

> <s_m_entry_name>
dock_pv.14

> <s_m_Source_Path>
/home/csk/Desktop/cluster/DUD-E-result/aces

> <s_m_Source_File>
dock_pv.maegz

> <i_m_Source_File_Index>
14

> <chembl_id>
CHEMBL3628067

> <chembl_pref_name>
None

> <i_lp_mmshare_version>
53161

> <i_f3d_flags>
0

> <r_lp_tautomer_probability>
1

> <s_lp_Force_Field>
OPLS_2005

> <r_lp_Energy>
21.876792

> <b_lp_Chiralities_Consistent>
1

> <s_lp_Variant>
CHEMBL220_lig77-1

> <s_i_glide_gridfile>
glide-grid_1e66

> <i_i_glide_lignum>
84

> <i_i_glide_rotatable_bonds>
9

> <r_i_docking_score>
-9.09330218316696

> <r_i_glide_ligand_efficiency>
-0.284165693223968

> <r_i_glide_ligand_efficiency_sa>
-0.90216983967177

> <r_i_glide_ligand_efficiency_ln>
-2.03623823286685

> <r_i_glide_gscore>
-9.09330218316696

> <r_i_glide_lipo>
-3.948938555978

> <r_i_glide_hbond>
0

> <r_i_glide_metal>
0

> <r_i_glide_rewards>
-2.8370597854594

> <r_i_glide_evdw>
-47.9882774353027

> <r_i_glide_ecoul>
-5.10752964019775

> <r_i_glide_erotb>
0.858239476065241

> <r_i_glide_esite>
0

> <r_i_glide_emodel>
-81.1067332106206

> <r_i_glide_energy>
-53.0958070755005

> <r_i_glide_einternal>
9.17009353637695

> <i_i_glide_confnum>
36

> <i_i_glide_posenum>
185

> <r_i_glide_eff_state_penalty>
0

> <s_user_duplicate_titles>
CHEMBL220_lig77

> <s_m_subgroup_title>
dock_pv

> <s_m_subgroupid>
dock_pv

> <b_m_subgroup_collapsed>
0

$$$$
CHEMBL220_lig711
                    3D
 Schrodinger Suite 2021-1.
 58 60  0  0  1  0            999 V2000
    3.6875   69.1765   63.0632 C   0  0  0  0  0  0
    1.2873   68.7649   63.2638 C   0  0  0  0  0  0
    4.8101   69.5732   62.1873 N   0  3  0  0  0  0
   -0.0395   68.9441   62.6286 N   0  3  0  0  0  0
    2.4064   69.1589   62.5252 C   0  0  0  0  0  0
    3.8427   68.8542   64.4200 C   0  0  0  0  0  0
    1.4845   68.2492   64.5619 C   0  0  0  0  0  0
    2.7650   68.3145   65.1191 C   0  0  0  0  0  0
    1.9102   62.7829   70.5361 C   0  0  0  0  0  0
    1.6165   63.8800   69.7940 O   0  0  0  0  0  0
    5.0482   69.1206   65.0836 N   0  0  0  0  0  0
    0.4725   64.4318   70.2731 C   0  0  0  0  0  0
    0.9598   62.6458   71.5352 C   0  0  0  0  0  0
    5.9430   69.3080   62.5491 O   0  5  0  0  0  0
   -0.0570   69.5651   61.5681 O   0  5  0  0  0  0
    0.0474   63.6905   71.3682 C   0  0  0  0  0  0
    4.5562   70.1080   61.1129 O   0  0  0  0  0  0
   -1.0514   68.5085   63.1681 O   0  0  0  0  0  0
    3.1765   62.0376   70.1427 C   0  0  0  0  0  0
    0.4193   67.7089   65.3026 N   0  0  0  0  0  0
    4.3993   62.5268   70.7939 N   0  0  0  0  0  0
    5.2879   69.7080   66.3346 C   0  0  0  0  0  0
    1.1430   66.9562   69.3008 S   0  0  0  0  0  0
   -0.0608   65.6273   69.5048 C   0  0  0  0  0  0
    0.5957   66.9538   66.5383 C   0  0  0  0  0  0
    0.5058   67.7997   67.8192 C   0  0  0  0  0  0
    4.5940   63.9700   70.6393 C   0  0  0  0  0  0
    4.4870   62.1078   72.1902 C   0  0  0  0  0  0
    4.2615   70.1080   67.1979 C   0  0  0  0  0  0
    6.6159   69.9206   66.6992 C   0  0  0  0  0  0
    6.9182   70.5080   67.9213 C   0  0  0  0  0  0
    4.5635   70.7263   68.4076 C   0  0  0  0  0  0
    5.8941   70.9080   68.7679 C   0  0  0  0  0  0
    2.2790   69.4796   61.4999 H   0  0  0  0  0  0
    2.9317   67.9934   66.1337 H   0  0  0  0  0  0
    5.8564   69.1196   64.4730 H   0  0  0  0  0  0
    0.9303   61.8767   72.2931 H   0  0  0  0  0  0
   -0.8328   63.8671   71.9682 H   0  0  0  0  0  0
    3.3195   62.1234   69.0648 H   0  0  0  0  0  0
    3.0655   60.9699   70.3372 H   0  0  0  0  0  0
   -0.5079   67.7425   64.8917 H   0  0  0  0  0  0
   -0.4196   65.3079   68.5315 H   0  0  0  0  0  0
   -0.9111   66.1080   69.9683 H   0  0  0  0  0  0
    1.5381   66.4072   66.5095 H   0  0  0  0  0  0
   -0.1694   66.1775   66.5437 H   0  0  0  0  0  0
   -0.5265   68.1054   67.9897 H   0  0  0  0  0  0
    1.0793   68.7206   67.7074 H   0  0  0  0  0  0
    4.5912   64.2530   69.5856 H   0  0  0  0  0  0
    5.5431   64.2884   71.0610 H   0  0  0  0  0  0
    3.8156   64.5423   71.1470 H   0  0  0  0  0  0
    4.4573   61.0202   72.2679 H   0  0  0  0  0  0
    5.4252   62.4385   72.6384 H   0  0  0  0  0  0
    3.6628   62.5079   72.7809 H   0  0  0  0  0  0
    3.2211   70.0066   66.9394 H   0  0  0  0  0  0
    7.4182   69.6062   66.0490 H   0  0  0  0  0  0
    7.9429   70.6072   68.2312 H   0  0  0  0  0  0
    3.7700   71.0346   69.0730 H   0  0  0  0  0  0
    6.1447   71.3080   69.7350 H   0  0  0  0  0  0
  1  3  1  0  0  0
  1  5  1  0  0  0
  1  6  2  0  0  0
  2  5  2  0  0  0
  2  4  1  0  0  0
  2  7  1  0  0  0
  3 14  1  0  0  0
  3 17  2  0  0  0
  4 15  1  0  0  0
  4 18  2  0  0  0
  5 34  1  0  0  0
  6  8  1  0  0  0
  6 11  1  0  0  0
  7  8  2  0  0  0
  7 20  1  0  0  0
  8 35  1  0  0  0
  9 10  1  0  0  0
  9 19  1  0  0  0
  9 13  2  0  0  0
 10 12  1  0  0  0
 11 22  1  0  0  0
 11 36  1  0  0  0
 12 24  1  0  0  0
 12 16  2  0  0  0
 13 16  1  0  0  0
 13 37  1  0  0  0
 16 38  1  0  0  0
 19 21  1  0  0  0
 19 39  1  0  0  0
 19 40  1  0  0  0
 20 25  1  0  0  0
 20 41  1  0  0  0
 21 27  1  0  0  0
 21 28  1  0  0  0
 22 29  2  0  0  0
 22 30  1  0  0  0
 23 26  1  0  0  0
 23 24  1  0  0  0
 24 42  1  0  0  0
 24 43  1  0  0  0
 25 26  1  0  0  0
 25 44  1  0  0  0
 25 45  1  0  0  0
 26 46  1  0  0  0
 26 47  1  0  0  0
 27 48  1  0  0  0
 27 49  1  0  0  0
 27 50  1  0  0  0
 28 51  1  0  0  0
 28 52  1  0  0  0
 28 53  1  0  0  0
 29 32  1  0  0  0
 29 54  1  0  0  0
 30 31  2  0  0  0
 30 55  1  0  0  0
 31 33  1  0  0  0
 31 56  1  0  0  0
 32 33  2  0  0  0
 32 57  1  0  0  0
 33 58  1  0  0  0
M  CHG  4   3   1   4   1  14  -1  15  -1
M  END
> <s_m_entry_id>
8505

> <s_m_entry_name>
dock_pv.15

> <s_m_Source_Path>
/home/csk/Desktop/cluster/DUD-E-result/aces

> <s_m_Source_File>
dock_pv.maegz

> <i_m_Source_File_Index>
15

> <chembl_id>
CHEMBL108163

> <chembl_pref_name>
None

> <i_lp_mmshare_version>
53161

> <i_f3d_flags>
0

> <r_lp_tautomer_probability>
1

> <s_lp_Force_Field>
OPLS_2005

> <r_lp_Energy>
35.333955

> <b_lp_Chiralities_Consistent>
1

> <s_lp_Variant>
CHEMBL220_lig711-1

> <s_i_glide_gridfile>
glide-grid_1e66

> <i_i_glide_lignum>
844

> <i_i_glide_rotatable_bonds>
12

> <r_i_docking_score>
-9.07927643017684

> <r_i_glide_ligand_efficiency>
-0.275129588793237

> <r_i_glide_ligand_efficiency_sa>
-0.882487600223403

> <r_i_glide_ligand_efficiency_ln>
-2.01918406809389

> <r_i_glide_gscore>
-9.07927643017684

> <r_i_glide_lipo>
-5.19331587896801

> <r_i_glide_hbond>
-0.0100689565615115

> <r_i_glide_metal>
0

> <r_i_glide_rewards>
-1.7088740259844

> <r_i_glide_evdw>
-55.8431205749512

> <r_i_glide_ecoul>
-0.850399374961853

> <r_i_glide_erotb>
0.818200161275646

> <r_i_glide_esite>
-0.0655017949467213

> <r_i_glide_emodel>
-74.8746511662463

> <r_i_glide_energy>
-56.693519949913

> <r_i_glide_einternal>
15.0326528549194

> <i_i_glide_confnum>
191

> <i_i_glide_posenum>
200

> <r_i_glide_eff_state_penalty>
0

> <s_user_duplicate_titles>
CHEMBL220_lig711,174549

> <s_m_subgroup_title>
dock_pv

> <s_m_subgroupid>
dock_pv

> <b_m_subgroup_collapsed>
0

$$$$
CHEMBL220_lig256
                    3D
 Schrodinger Suite 2021-1.
 48 50  0  0  1  0            999 V2000
   -0.0018   67.7498   66.9002 C   0  0  0  0  0  0
    1.5480   68.5091   67.1242 S   0  0  0  0  0  0
    1.7636   68.6421   65.3955 C   0  0  0  0  0  0
   -0.4742   67.9694   65.6253 C   0  0  0  0  0  0
    0.5372   68.3972   64.7328 C   0  0  0  0  0  0
    1.0416   62.2060   71.3793 N   0  3  0  0  0  0
    2.9247   68.9957   64.6973 C   0  0  0  0  0  0
   -0.6329   67.0182   67.9929 C   0  0  0  0  0  0
    2.8515   69.1380   63.3029 C   0  0  0  0  0  0
    0.4776   68.5839   63.3539 C   0  0  0  0  0  0
    1.6257   68.9723   62.6433 C   0  0  0  0  0  0
   -1.7422   66.5080   67.8685 O   0  0  0  0  0  0
    0.0739   66.9071   69.3603 C   0  0  0  0  0  0
   -0.0561   62.7052   70.7587 C   0  0  0  0  0  0
    2.2115   62.8895   71.4088 C   0  0  0  0  0  0
    1.7064   59.7420   71.3530 C   0  0  0  0  0  0
    2.3410   59.7806   70.1665 C   0  0  0  0  0  0
    0.9702   60.8848   72.0511 C   0  0  0  0  0  0
    1.2015   64.6669   70.1136 C   0  0  0  0  0  0
    1.3363   66.0043   69.3959 C   0  0  0  0  0  0
    3.9421   69.4644   62.5157 O   0  0  0  0  0  0
    1.6057   69.2185   61.2828 O   0  0  0  0  0  0
    0.0087   63.9352   70.0995 C   0  0  0  0  0  0
    2.3142   64.1264   70.7685 C   0  0  0  0  0  0
    0.3583   69.1506   60.6087 C   0  0  0  0  0  0
    5.2182   69.6607   63.1137 C   0  0  0  0  0  0
   -1.4683   67.7062   65.2961 H   0  0  0  0  0  0
    3.8419   69.1730   65.2378 H   0  0  0  0  0  0
   -0.4703   68.4222   62.8683 H   0  0  0  0  0  0
   -0.6482   66.6088   70.1206 H   0  0  0  0  0  0
    0.3743   67.9223   69.6222 H   0  0  0  0  0  0
   -0.9522   62.1016   70.7800 H   0  0  0  0  0  0
    3.0341   62.4196   71.9314 H   0  0  0  0  0  0
    1.6970   58.8028   71.8887 H   0  0  0  0  0  0
    2.3889   60.6788   69.5690 H   0  0  0  0  0  0
    2.8206   58.8968   69.7707 H   0  0  0  0  0  0
   -0.0794   60.6147   72.1879 H   0  0  0  0  0  0
    1.3698   61.0261   73.0576 H   0  0  0  0  0  0
    2.1211   66.5737   69.8984 H   0  0  0  0  0  0
    1.7032   65.7806   68.3943 H   0  0  0  0  0  0
   -0.8567   64.3087   69.5695 H   0  0  0  0  0  0
    3.2522   64.6650   70.7870 H   0  0  0  0  0  0
    0.4727   69.2949   59.5368 H   0  0  0  0  0  0
   -0.0570   68.1582   60.7680 H   0  0  0  0  0  0
   -0.3312   69.9117   60.9773 H   0  0  0  0  0  0
    5.9428   69.8710   62.3289 H   0  0  0  0  0  0
    5.2140   70.5087   63.7999 H   0  0  0  0  0  0
    5.5601   68.7701   63.6430 H   0  0  0  0  0  0
  1  2  1  0  0  0
  1  4  2  0  0  0
  1  8  1  0  0  0
  2  3  1  0  0  0
  3  7  2  0  0  0
  3  5  1  0  0  0
  4  5  1  0  0  0
  4 27  1  0  0  0
  5 10  2  0  0  0
  6 14  2  0  0  0
  6 18  1  0  0  0
  6 15  1  0  0  0
  7  9  1  0  0  0
  7 28  1  0  0  0
  8 12  2  0  0  0
  8 13  1  0  0  0
  9 21  1  0  0  0
  9 11  2  0  0  0
 10 11  1  0  0  0
 10 29  1  0  0  0
 11 22  1  0  0  0
 13 20  1  0  0  0
 13 30  1  0  0  0
 13 31  1  0  0  0
 14 23  1  0  0  0
 14 32  1  0  0  0
 15 24  2  0  0  0
 15 33  1  0  0  0
 16 18  1  0  0  0
 16 17  2  0  0  0
 16 34  1  0  0  0
 17 35  1  0  0  0
 17 36  1  0  0  0
 18 37  1  0  0  0
 18 38  1  0  0  0
 19 20  1  0  0  0
 19 23  2  0  0  0
 19 24  1  0  0  0
 20 39  1  0  0  0
 20 40  1  0  0  0
 21 26  1  0  0  0
 22 25  1  0  0  0
 23 41  1  0  0  0
 24 42  1  0  0  0
 25 43  1  0  0  0
 25 44  1  0  0  0
 25 45  1  0  0  0
 26 46  1  0  0  0
 26 47  1  0  0  0
 26 48  1  0  0  0
M  CHG  1   6   1
M  END
> <s_m_entry_id>
8506

> <s_m_entry_name>
dock_pv.16

> <s_m_Source_Path>
/home/csk/Desktop/cluster/DUD-E-result/aces

> <s_m_Source_File>
dock_pv.maegz

> <i_m_Source_File_Index>
16

> <chembl_id>
CHEMBL87980

> <chembl_pref_name>
None

> <i_lp_mmshare_version>
53161

> <i_f3d_flags>
0

> <r_lp_tautomer_probability>
0.99990000499975

> <s_lp_Force_Field>
OPLS_2005

> <r_lp_Energy>
30.04444

> <b_lp_Chiralities_Consistent>
1

> <s_lp_Variant>
CHEMBL220_lig256-1

> <s_i_glide_gridfile>
glide-grid_1e66

> <i_i_glide_lignum>
302

> <i_i_glide_rotatable_bonds>
8

> <r_i_docking_score>
-9.06789410523372

> <r_i_glide_ligand_efficiency>
-0.348765157893605

> <r_i_glide_ligand_efficiency_sa>
-1.03321540793517

> <r_i_glide_ligand_efficiency_ln>
-2.12956517642672

> <r_i_glide_gscore>
-9.06789410523372

> <r_i_glide_lipo>
-4.23612660934465

> <r_i_glide_hbond>
0

> <r_i_glide_metal>
0

> <r_i_glide_rewards>
-3.11047229145314

> <r_i_glide_evdw>
-37.9313201904297

> <r_i_glide_ecoul>
-4.50882434844971

> <r_i_glide_erotb>
0.851594457353006

> <r_i_glide_esite>
0

> <r_i_glide_emodel>
-62.7248034288225

> <r_i_glide_energy>
-42.4401445388794

> <r_i_glide_einternal>
6.7674388885498

> <i_i_glide_confnum>
32

> <i_i_glide_posenum>
93

> <r_i_glide_eff_state_penalty>
0

> <s_user_duplicate_titles>
CHEMBL220_lig256,138629

> <s_m_subgroup_title>
dock_pv

> <s_m_subgroupid>
dock_pv

> <b_m_subgroup_collapsed>
0

$$$$
CHEMBL220_lig680
                    3D
 Schrodinger Suite 2021-1.
 60 62  0  0  1  0            999 V2000
    0.4154   68.8447   63.6374 C   0  0  0  0  0  0
   -1.0913   68.3802   65.5440 C   0  0  0  0  0  0
   -2.4799   68.4693   66.0926 N   0  3  0  0  0  0
    0.5621   69.4276   62.2713 N   0  3  0  0  0  0
   -0.8574   68.8175   64.2274 C   0  0  0  0  0  0
    1.5044   68.3829   64.4046 C   0  0  0  0  0  0
    0.0027   67.8732   66.2769 C   0  0  0  0  0  0
    1.2676   67.8529   65.6784 C   0  0  0  0  0  0
    4.0309   61.7599   71.6357 C   0  0  0  0  0  0
    3.8596   62.8016   70.7822 O   0  0  0  0  0  0
    2.8192   68.5236   63.9211 N   0  0  0  0  0  0
    2.7470   63.4702   71.1692 C   0  0  0  0  0  0
    3.0268   61.7670   72.5905 C   0  0  0  0  0  0
    1.5894   69.2316   61.6267 O   0  5  0  0  0  0
   -3.3647   68.9078   65.3644 O   0  5  0  0  0  0
    2.2036   62.8497   72.2868 C   0  0  0  0  0  0
   -0.3579   70.1071   61.8264 O   0  0  0  0  0  0
   -2.7202   68.1081   67.2407 O   0  0  0  0  0  0
    6.6361   70.1081   66.4858 N   0  0  0  0  0  0
    5.1600   60.8128   71.2986 C   0  0  0  0  0  0
   -0.1593   67.4274   67.6048 N   0  0  0  0  0  0
    4.6187   69.0929   65.5891 C   0  0  0  0  0  0
    4.0345   68.0824   64.5995 C   0  0  0  0  0  0
    4.7429   59.7080   70.4267 N   0  0  0  0  0  0
    0.5936   64.9891   70.3679 S   0  0  0  0  0  0
    5.9935   69.3399   65.5689 C   0  0  0  0  0  0
    2.3770   64.6784   70.3471 C   0  0  0  0  0  0
    5.8974   70.6751   67.4708 C   0  0  0  0  0  0
    0.9561   67.1100   68.4900 C   0  0  0  0  0  0
    3.8763   69.7079   66.6117 C   0  0  0  0  0  0
    0.5475   66.7408   69.9266 C   0  0  0  0  0  0
    3.8910   58.7429   71.1227 C   0  0  0  0  0  0
    4.1250   60.1201   69.1688 C   0  0  0  0  0  0
    4.5184   70.5055   67.5672 C   0  0  0  0  0  0
   -1.6951   69.1866   63.6511 H   0  0  0  0  0  0
    2.0987   67.4736   66.2465 H   0  0  0  0  0  0
    2.9170   68.8811   62.9769 H   0  0  0  0  0  0
    2.8938   61.0554   73.3926 H   0  0  0  0  0  0
    1.3128   63.1546   72.8170 H   0  0  0  0  0  0
    5.5992   60.4067   72.2112 H   0  0  0  0  0  0
    5.9667   61.3594   70.8119 H   0  0  0  0  0  0
   -1.0832   67.5305   68.0094 H   0  0  0  0  0  0
    3.8628   67.1383   65.1157 H   0  0  0  0  0  0
    4.7721   67.8690   63.8247 H   0  0  0  0  0  0
    6.6296   68.8920   64.8195 H   0  0  0  0  0  0
    2.8707   65.5542   70.7682 H   0  0  0  0  0  0
    2.7257   64.5994   69.3172 H   0  0  0  0  0  0
    6.4322   71.2777   68.1894 H   0  0  0  0  0  0
    1.5999   67.9899   68.5271 H   0  0  0  0  0  0
    1.5427   66.3090   68.0445 H   0  0  0  0  0  0
    2.8113   69.5837   66.6931 H   0  0  0  0  0  0
   -0.4564   67.0680   70.1576 H   0  0  0  0  0  0
    1.1858   67.2779   70.6300 H   0  0  0  0  0  0
    4.3405   58.4267   72.0646 H   0  0  0  0  0  0
    3.7393   57.8502   70.5146 H   0  0  0  0  0  0
    2.9095   59.1630   71.3476 H   0  0  0  0  0  0
    4.7430   60.8413   68.6367 H   0  0  0  0  0  0
    3.9860   59.2605   68.5124 H   0  0  0  0  0  0
    3.1466   60.5756   69.3306 H   0  0  0  0  0  0
    3.9547   70.9760   68.3605 H   0  0  0  0  0  0
  1  4  1  0  0  0
  1  5  1  0  0  0
  1  6  2  0  0  0
  2  5  2  0  0  0
  2  3  1  0  0  0
  2  7  1  0  0  0
  3 15  1  0  0  0
  3 18  2  0  0  0
  4 14  1  0  0  0
  4 17  2  0  0  0
  5 35  1  0  0  0
  6  8  1  0  0  0
  6 11  1  0  0  0
  7  8  2  0  0  0
  7 21  1  0  0  0
  8 36  1  0  0  0
  9 10  1  0  0  0
  9 20  1  0  0  0
  9 13  2  0  0  0
 10 12  1  0  0  0
 11 23  1  0  0  0
 11 37  1  0  0  0
 12 27  1  0  0  0
 12 16  2  0  0  0
 13 16  1  0  0  0
 13 38  1  0  0  0
 16 39  1  0  0  0
 19 26  1  0  0  0
 19 28  2  0  0  0
 20 24  1  0  0  0
 20 40  1  0  0  0
 20 41  1  0  0  0
 21 29  1  0  0  0
 21 42  1  0  0  0
 22 23  1  0  0  0
 22 26  2  0  0  0
 22 30  1  0  0  0
 23 43  1  0  0  0
 23 44  1  0  0  0
 24 32  1  0  0  0
 24 33  1  0  0  0
 25 31  1  0  0  0
 25 27  1  0  0  0
 26 45  1  0  0  0
 27 46  1  0  0  0
 27 47  1  0  0  0
 28 34  1  0  0  0
 28 48  1  0  0  0
 29 31  1  0  0  0
 29 49  1  0  0  0
 29 50  1  0  0  0
 30 34  2  0  0  0
 30 51  1  0  0  0
 31 52  1  0  0  0
 31 53  1  0  0  0
 32 54  1  0  0  0
 32 55  1  0  0  0
 32 56  1  0  0  0
 33 57  1  0  0  0
 33 58  1  0  0  0
 33 59  1  0  0  0
 34 60  1  0  0  0
M  CHG  4   3   1   4   1  14  -1  15  -1
M  END
> <s_m_entry_id>
8507

> <s_m_entry_name>
dock_pv.17

> <s_m_Source_Path>
/home/csk/Desktop/cluster/DUD-E-result/aces

> <s_m_Source_File>
dock_pv.maegz

> <i_m_Source_File_Index>
17

> <chembl_id>
CHEMBL107673

> <chembl_pref_name>
None

> <i_lp_mmshare_version>
53161

> <i_f3d_flags>
0

> <r_lp_tautomer_probability>
1

> <s_lp_Force_Field>
OPLS_2005

> <r_lp_Energy>
33.996325

> <b_lp_Chiralities_Consistent>
1

> <s_lp_Variant>
CHEMBL220_lig680-1

> <s_i_glide_gridfile>
glide-grid_1e66

> <i_i_glide_lignum>
803

> <i_i_glide_rotatable_bonds>
13

> <r_i_docking_score>
-9.04348229392975

> <r_i_glide_ligand_efficiency>
-0.265984773350875

> <r_i_glide_ligand_efficiency_sa>
-0.861687409694738

> <r_i_glide_ligand_efficiency_ln>
-1.99795889981535

> <r_i_glide_gscore>
-9.04348229392975

> <r_i_glide_lipo>
-4.17781544345477

> <r_i_glide_hbond>
-0.32

> <r_i_glide_metal>
0

> <r_i_glide_rewards>
-1.89173836363636

> <r_i_glide_evdw>
-58.462963104248

> <r_i_glide_ecoul>
-3.92855358123779

> <r_i_glide_erotb>
0.858502705559452

> <r_i_glide_esite>
0

> <r_i_glide_emodel>
-88.1681261763891

> <r_i_glide_energy>
-62.3915166854858

> <r_i_glide_einternal>
8.77947425842285

> <i_i_glide_confnum>
260

> <i_i_glide_posenum>
276

> <r_i_glide_eff_state_penalty>
0

> <s_user_duplicate_titles>
CHEMBL220_lig680,174536

> <s_m_subgroup_title>
dock_pv

> <s_m_subgroupid>
dock_pv

> <b_m_subgroup_collapsed>
0

$$$$
CHEMBL220_lig1077
                    3D
 Schrodinger Suite 2021-1.
 50 53  0  0  1  0            999 V2000
    2.0283   59.4589   72.4731 C   0  0  0  0  0  0
    2.5450   59.5098   71.1673 C   0  0  0  0  0  0
    2.3784   60.6860   70.4183 C   0  0  0  0  0  0
    1.3647   60.5571   73.0247 C   0  0  0  0  0  0
    1.2088   61.7193   72.2719 C   0  0  0  0  0  0
    1.7112   61.7821   70.9691 C   0  0  0  0  0  0
    1.4980   63.0337   70.2443 C   0  0  0  0  0  0
    0.8633   64.0872   70.7969 C   0  0  0  0  0  0
    0.3430   63.9945   72.1819 C   0  0  0  0  0  0
    0.5475   62.7918   72.8565 O   0  0  0  0  0  0
   -0.2606   64.8620   72.8116 O   0  0  0  0  0  0
    0.6493   65.3122   70.0088 C   0  0  0  0  0  0
   -0.4568   65.4086   69.1688 C   0  0  0  0  0  0
   -0.6152   66.5082   68.3312 C   0  0  0  0  0  0
    0.3154   67.5488   68.3663 C   0  0  0  0  0  0
    1.3622   67.5021   69.2844 C   0  0  0  0  0  0
    1.5433   66.3777   70.0830 C   0  0  0  0  0  0
    0.1365   68.7488   67.4377 C   0  0  0  0  0  0
    1.1631   68.9081   66.3969 N   0  0  2  0  0  0
    1.4000   67.7136   65.5768 C   0  0  0  0  0  0
    2.1344   68.0317   64.2774 C   0  0  0  0  0  0
    2.3748   69.5696   66.8857 C   0  0  0  0  0  0
    3.5285   67.9355   64.2160 C   0  0  0  0  0  0
    4.2008   68.2847   63.0468 C   0  0  0  0  0  0
    3.4796   68.7455   61.9469 C   0  0  0  0  0  0
    2.0923   68.8683   62.0085 C   0  0  0  0  0  0
    1.4199   68.5157   63.1767 C   0  0  0  0  0  0
    3.2546   58.3435   70.5923 N   0  3  0  0  0  0
    3.9426   58.5146   69.5883 O   0  0  0  0  0  0
    3.1414   57.2560   71.1471 O   0  5  0  0  0  0
    2.1437   58.5665   73.0722 H   0  0  0  0  0  0
    2.7587   60.7455   69.4084 H   0  0  0  0  0  0
    0.9770   60.5049   74.0322 H   0  0  0  0  0  0
    1.8466   63.1189   69.2239 H   0  0  0  0  0  0
   -1.1769   64.6053   69.1680 H   0  0  0  0  0  0
   -1.4599   66.5461   67.6587 H   0  0  0  0  0  0
    2.0425   68.3337   69.3771 H   0  0  0  0  0  0
    2.3823   66.3381   70.7643 H   0  0  0  0  0  0
    0.0225   69.6610   68.0292 H   0  0  0  0  0  0
   -0.8139   68.6310   66.9116 H   0  0  0  0  0  0
    0.4375   67.2677   65.3174 H   0  0  0  0  0  0
    1.9544   66.9740   66.1565 H   0  0  0  0  0  0
    2.9791   69.9346   66.0547 H   0  0  0  0  0  0
    2.1257   70.4381   67.4965 H   0  0  0  0  0  0
    3.0000   68.9081   67.4816 H   0  0  0  0  0  0
    4.0904   67.6020   65.0765 H   0  0  0  0  0  0
    5.2776   68.2146   62.9929 H   0  0  0  0  0  0
    4.0070   69.0191   61.0433 H   0  0  0  0  0  0
    1.5412   69.2388   61.1561 H   0  0  0  0  0  0
    0.3457   68.6237   63.2322 H   0  0  0  0  0  0
  1  4  1  0  0  0
  1  2  2  0  0  0
  1 31  1  0  0  0
  2  3  1  0  0  0
  2 28  1  0  0  0
  3  6  2  0  0  0
  3 32  1  0  0  0
  4  5  2  0  0  0
  4 33  1  0  0  0
  5 10  1  0  0  0
  5  6  1  0  0  0
  6  7  1  0  0  0
  7  8  2  0  0  0
  7 34  1  0  0  0
  8 12  1  0  0  0
  8  9  1  0  0  0
  9 10  1  0  0  0
  9 11  2  0  0  0
 12 17  1  0  0  0
 12 13  2  0  0  0
 13 14  1  0  0  0
 13 35  1  0  0  0
 14 15  2  0  0  0
 14 36  1  0  0  0
 15 16  1  0  0  0
 15 18  1  0  0  0
 16 17  2  0  0  0
 16 37  1  0  0  0
 17 38  1  0  0  0
 18 19  1  0  0  0
 18 39  1  0  0  0
 18 40  1  0  0  0
 19 20  1  0  0  0
 19 22  1  0  0  0
 20 21  1  0  0  0
 20 41  1  0  0  0
 20 42  1  0  0  0
 21 23  2  0  0  0
 21 27  1  0  0  0
 22 43  1  0  0  0
 22 44  1  0  0  0
 22 45  1  0  0  0
 23 24  1  0  0  0
 23 46  1  0  0  0
 24 25  2  0  0  0
 24 47  1  0  0  0
 25 26  1  0  0  0
 25 48  1  0  0  0
 26 27  2  0  0  0
 26 49  1  0  0  0
 27 50  1  0  0  0
 28 29  2  0  0  0
 28 30  1  0  0  0
M  CHG  2  28   1  30  -1
M  END
> <s_m_entry_id>
8508

> <s_m_entry_name>
dock_pv.18

> <s_m_Source_Path>
/home/csk/Desktop/cluster/DUD-E-result/aces

> <s_m_Source_File>
dock_pv.maegz

> <i_m_Source_File_Index>
18

> <chembl_id>
CHEMBL244619

> <chembl_pref_name>
None

> <i_lp_mmshare_version>
53161

> <i_f3d_flags>
0

> <r_lp_tautomer_probability>
1

> <s_lp_Force_Field>
OPLS_2005

> <r_lp_Energy>
31.688562

> <b_lp_Chiralities_Consistent>
1

> <s_lp_Variant>
CHEMBL220_lig1077-1

> <s_i_glide_gridfile>
glide-grid_1e66

> <i_i_glide_lignum>
1482

> <i_i_glide_rotatable_bonds>
6

> <r_i_docking_score>
-9.01838210092442

> <r_i_glide_ligand_efficiency>
-0.300612736697481

> <r_i_glide_ligand_efficiency_sa>
-0.934073666111171

> <r_i_glide_ligand_efficiency_ln>
-2.04907467647328

> <r_i_glide_gscore>
-9.01838210092442

> <r_i_glide_lipo>
-4.18350964579457

> <r_i_glide_hbond>
-0.208977965969588

> <r_i_glide_metal>
0

> <r_i_glide_rewards>
-1.89513509028331

> <r_i_glide_evdw>
-41.4779510498047

> <r_i_glide_ecoul>
-7.24304533004761

> <r_i_glide_erotb>
0.489060705149502

> <r_i_glide_esite>
-0.0594657520290788

> <r_i_glide_emodel>
-68.2727129779476

> <r_i_glide_energy>
-48.7209963798523

> <r_i_glide_einternal>
6.46388816833496

> <i_i_glide_confnum>
11

> <i_i_glide_posenum>
327

> <r_i_glide_eff_state_penalty>
0

> <s_user_duplicate_titles>
CHEMBL220_lig1077,387539

> <s_m_subgroup_title>
dock_pv

> <s_m_subgroupid>
dock_pv

> <b_m_subgroup_collapsed>
0

$$$$
CHEMBL220_lig776
                    3D
 Schrodinger Suite 2021-1.
 73 74  0  0  1  0            999 V2000
    3.5559   61.5874   71.1321 C   0  0  0  0  0  0
    5.2112   70.0752   65.7888 C   0  0  0  0  0  0
    2.5853   62.4238   70.6763 O   0  0  0  0  0  0
    5.5470   70.0752   64.4733 O   0  0  0  0  0  0
    3.1454   63.6505   70.4943 C   0  0  0  0  0  0
    4.6786   69.2575   63.8265 C   0  0  0  0  0  0
    4.7491   62.2783   71.2097 C   0  0  0  0  0  0
    4.0779   69.3022   65.9676 C   0  0  0  0  0  0
    4.4985   63.5772   70.7676 C   0  0  0  0  0  0
    3.8018   68.7105   64.7460 C   0  0  0  0  0  0
    3.1573   60.1566   71.4329 C   0  0  0  0  0  0
    6.0826   70.9068   66.6985 C   0  0  0  0  0  0
    3.6988   59.2130   70.4456 N   0  0  0  0  0  0
    5.8468   70.6497   68.1205 N   0  0  0  0  0  0
    0.7430   64.9080   71.0881 S   0  0  0  0  0  0
    3.5427   68.1324   61.5682 S   0  0  0  0  0  0
    2.2367   64.7785   70.0680 C   0  0  0  0  0  0
    4.8550   69.1222   62.3357 C   0  0  0  0  0  0
    3.4709   57.8440   70.9007 C   0  0  0  0  0  0
    3.0450   59.3982   69.1542 C   0  0  0  0  0  0
    6.9952   71.0579   68.9240 C   0  0  0  0  0  0
    4.6359   71.3083   68.6026 C   0  0  0  0  0  0
    0.0816   66.5041   70.5202 C   0  0  0  0  0  0
    2.1518   69.3075   61.4415 C   0  0  0  0  0  0
    1.2427   69.5031   62.6738 C   0  0  0  0  0  0
   -0.5469   66.5012   69.1109 C   0  0  0  0  0  0
   -0.4122   68.3885   64.3363 C   0  0  0  0  0  0
    0.3765   68.0492   65.6188 C   0  0  0  0  0  0
   -0.5213   67.5792   66.7776 C   0  0  0  0  0  0
    0.2681   67.2891   68.0656 C   0  0  0  0  0  0
    0.4043   68.2642   63.0357 C   0  0  0  0  0  0
    5.6871   61.8612   71.5416 H   0  0  0  0  0  0
    3.5440   69.1445   66.8891 H   0  0  0  0  0  0
    5.2051   64.3917   70.6971 H   0  0  0  0  0  0
    3.0095   68.0101   64.5320 H   0  0  0  0  0  0
    2.0717   60.0577   71.4991 H   0  0  0  0  0  0
    3.5409   59.8942   72.4202 H   0  0  0  0  0  0
    7.1215   70.6748   66.4578 H   0  0  0  0  0  0
    5.9430   71.9633   66.4819 H   0  0  0  0  0  0
    2.7661   65.7274   70.1609 H   0  0  0  0  0  0
    1.9570   64.6890   69.0236 H   0  0  0  0  0  0
    5.7974   68.6138   62.1259 H   0  0  0  0  0  0
    4.9240   70.0925   61.8403 H   0  0  0  0  0  0
    3.9421   57.6728   71.8703 H   0  0  0  0  0  0
    3.8997   57.1315   70.1967 H   0  0  0  0  0  0
    2.4067   57.6199   70.9990 H   0  0  0  0  0  0
    3.2643   60.3912   68.7682 H   0  0  0  0  0  0
    3.4042   58.6776   68.4197 H   0  0  0  0  0  0
    1.9618   59.3085   69.2344 H   0  0  0  0  0  0
    6.8074   70.8986   69.9865 H   0  0  0  0  0  0
    7.8678   70.4597   68.6602 H   0  0  0  0  0  0
    7.2419   72.1091   68.7721 H   0  0  0  0  0  0
    4.4625   71.0808   69.6556 H   0  0  0  0  0  0
    4.6946   72.3909   68.4774 H   0  0  0  0  0  0
    3.7536   70.9679   68.0644 H   0  0  0  0  0  0
   -0.6739   66.7982   71.2491 H   0  0  0  0  0  0
    0.8571   67.2660   70.6068 H   0  0  0  0  0  0
    1.5439   69.0000   60.5900 H   0  0  0  0  0  0
    2.5799   70.2687   61.1682 H   0  0  0  0  0  0
    0.5588   70.3313   62.4771 H   0  0  0  0  0  0
    1.8395   69.8201   63.5266 H   0  0  0  0  0  0
   -0.6789   65.4758   68.7674 H   0  0  0  0  0  0
   -1.5570   66.9059   69.1660 H   0  0  0  0  0  0
   -1.2579   67.7100   64.2590 H   0  0  0  0  0  0
   -0.8568   69.3762   64.4212 H   0  0  0  0  0  0
    0.9709   68.9101   65.9252 H   0  0  0  0  0  0
    1.0828   67.2448   65.4118 H   0  0  0  0  0  0
   -1.0510   66.6758   66.4656 H   0  0  0  0  0  0
   -1.2910   68.3260   66.9830 H   0  0  0  0  0  0
    0.6125   68.2366   68.4868 H   0  0  0  0  0  0
    1.1647   66.7166   67.8275 H   0  0  0  0  0  0
    1.0454   67.3910   63.1203 H   0  0  0  0  0  0
   -0.2790   68.0550   62.2099 H   0  0  0  0  0  0
  1  3  1  0  0  0
  1  7  2  0  0  0
  1 11  1  0  0  0
  2  4  1  0  0  0
  2 12  1  0  0  0
  2  8  2  0  0  0
  3  5  1  0  0  0
  4  6  1  0  0  0
  5 17  1  0  0  0
  5  9  2  0  0  0
  6 18  1  0  0  0
  6 10  2  0  0  0
  7  9  1  0  0  0
  7 32  1  0  0  0
  8 10  1  0  0  0
  8 33  1  0  0  0
  9 34  1  0  0  0
 10 35  1  0  0  0
 11 13  1  0  0  0
 11 36  1  0  0  0
 11 37  1  0  0  0
 12 14  1  0  0  0
 12 38  1  0  0  0
 12 39  1  0  0  0
 13 19  1  0  0  0
 13 20  1  0  0  0
 14 21  1  0  0  0
 14 22  1  0  0  0
 15 17  1  0  0  0
 15 23  1  0  0  0
 16 24  1  0  0  0
 16 18  1  0  0  0
 17 40  1  0  0  0
 17 41  1  0  0  0
 18 42  1  0  0  0
 18 43  1  0  0  0
 19 44  1  0  0  0
 19 45  1  0  0  0
 19 46  1  0  0  0
 20 47  1  0  0  0
 20 48  1  0  0  0
 20 49  1  0  0  0
 21 50  1  0  0  0
 21 51  1  0  0  0
 21 52  1  0  0  0
 22 53  1  0  0  0
 22 54  1  0  0  0
 22 55  1  0  0  0
 23 26  1  0  0  0
 23 56  1  0  0  0
 23 57  1  0  0  0
 24 25  1  0  0  0
 24 58  1  0  0  0
 24 59  1  0  0  0
 25 31  1  0  0  0
 25 60  1  0  0  0
 25 61  1  0  0  0
 26 30  1  0  0  0
 26 62  1  0  0  0
 26 63  1  0  0  0
 27 28  1  0  0  0
 27 31  1  0  0  0
 27 64  1  0  0  0
 27 65  1  0  0  0
 28 29  1  0  0  0
 28 66  1  0  0  0
 28 67  1  0  0  0
 29 30  1  0  0  0
 29 68  1  0  0  0
 29 69  1  0  0  0
 30 70  1  0  0  0
 30 71  1  0  0  0
 31 72  1  0  0  0
 31 73  1  0  0  0
M  END
> <s_m_entry_id>
8509

> <s_m_entry_name>
dock_pv.19

> <s_m_Source_Path>
/home/csk/Desktop/cluster/DUD-E-result/aces

> <s_m_Source_File>
dock_pv.maegz

> <i_m_Source_File_Index>
19

> <chembl_id>
CHEMBL418712

> <chembl_pref_name>
None

> <i_lp_mmshare_version>
53161

> <i_f3d_flags>
0

> <r_lp_tautomer_probability>
1

> <s_lp_Force_Field>
OPLS_2005

> <r_lp_Energy>
7.124068

> <b_lp_Chiralities_Consistent>
1

> <s_lp_Variant>
CHEMBL220_lig776-1

> <s_i_glide_gridfile>
glide-grid_1e66

> <i_i_glide_lignum>
954

> <i_i_glide_rotatable_bonds>
18

> <r_i_docking_score>
-8.90700471569443

> <r_i_glide_ligand_efficiency>
-0.287322732764337

> <r_i_glide_ligand_efficiency_sa>
-0.902590072664948

> <r_i_glide_ligand_efficiency_ln>
-2.00880253030154

> <r_i_glide_gscore>
-8.90700471569443

> <r_i_glide_lipo>
-6.06623628421031

> <r_i_glide_hbond>
0

> <r_i_glide_metal>
0

> <r_i_glide_rewards>
-1.12673740909091

> <r_i_glide_evdw>
-56.6489067077637

> <r_i_glide_ecoul>
-2.42322635650635

> <r_i_glide_erotb>
1.48189826647093

> <r_i_glide_esite>
0

> <r_i_glide_emodel>
-82.2532183095077

> <r_i_glide_energy>
-59.07213306427

> <r_i_glide_einternal>
12.8162727355957

> <i_i_glide_confnum>
57

> <i_i_glide_posenum>
222

> <r_i_glide_eff_state_penalty>
0

> <s_user_duplicate_titles>
CHEMBL220_lig776,11493

> <s_m_subgroup_title>
dock_pv

> <s_m_subgroupid>
dock_pv

> <b_m_subgroup_collapsed>
0

$$$$
CHEMBL220_lig1034
                    3D
 Schrodinger Suite 2021-1.
 29 31  0  0  1  0            999 V2000
   -2.1701   68.5034   65.8508 C   0  0  0  0  0  0
   -1.6539   68.4717   67.1407 C   0  0  0  0  0  0
   -0.2784   68.4778   67.3857 C   0  0  0  0  0  0
   -1.3219   68.5080   64.7431 C   0  0  0  0  0  0
    0.0680   68.4987   64.9479 C   0  0  0  0  0  0
    0.5688   68.5076   66.2739 C   0  0  0  0  0  0
    1.9443   68.5850   66.1903 N   0  0  0  0  0  0
    1.1753   68.5203   64.0768 C   0  0  0  0  0  0
    2.3473   68.6508   64.8682 C   0  0  0  0  0  0
    3.6182   68.8449   64.2963 C   0  0  0  0  0  0
    3.6625   68.9007   62.9267 N   0  3  0  0  0  0
    2.5685   68.7316   62.1402 C   0  0  0  0  0  0
    1.2990   68.5362   62.6820 C   0  0  0  0  0  0
   -3.5290   68.5081   65.6706 O   0  0  0  0  0  0
    4.8995   69.0592   65.1019 C   0  0  0  0  0  0
    4.9520   69.1692   62.2379 C   0  0  0  0  0  0
   -2.3465   68.4601   67.9680 H   0  0  0  0  0  0
    0.1125   68.4852   68.3908 H   0  0  0  0  0  0
   -1.7362   68.5204   63.7465 H   0  0  0  0  0  0
    2.5597   68.6466   66.9887 H   0  0  0  0  0  0
    2.7191   68.7853   61.0711 H   0  0  0  0  0  0
    0.4303   68.4479   62.0445 H   0  0  0  0  0  0
   -4.0105   68.0436   66.3638 H   0  0  0  0  0  0
    4.7258   68.9076   66.1668 H   0  0  0  0  0  0
    5.6872   68.3690   64.8005 H   0  0  0  0  0  0
    5.2634   70.0806   64.9826 H   0  0  0  0  0  0
    5.6138   68.3190   62.4060 H   0  0  0  0  0  0
    4.7948   69.3082   61.1680 H   0  0  0  0  0  0
    5.3737   70.0883   62.6472 H   0  0  0  0  0  0
  1  2  2  0  0  0
  1  4  1  0  0  0
  1 14  1  0  0  0
  2  3  1  0  0  0
  2 17  1  0  0  0
  3  6  2  0  0  0
  3 18  1  0  0  0
  4  5  2  0  0  0
  4 19  1  0  0  0
  5  8  1  0  0  0
  5  6  1  0  0  0
  6  7  1  0  0  0
  7  9  1  0  0  0
  7 20  1  0  0  0
  8  9  2  0  0  0
  8 13  1  0  0  0
  9 10  1  0  0  0
 10 11  2  0  0  0
 10 15  1  0  0  0
 11 12  1  0  0  0
 11 16  1  0  0  0
 12 13  2  0  0  0
 12 21  1  0  0  0
 13 22  1  0  0  0
 14 23  1  0  0  0
 15 24  1  0  0  0
 15 25  1  0  0  0
 15 26  1  0  0  0
 16 27  1  0  0  0
 16 28  1  0  0  0
 16 29  1  0  0  0
M  CHG  1  11   1
M  END
> <s_m_entry_id>
8510

> <s_m_entry_name>
dock_pv.20

> <s_m_Source_Path>
/home/csk/Desktop/cluster/DUD-E-result/aces

> <s_m_Source_File>
dock_pv.maegz

> <i_m_Source_File_Index>
20

> <chembl_id>
CHEMBL375862

> <chembl_pref_name>
None

> <i_lp_mmshare_version>
53161

> <i_f3d_flags>
0

> <r_lp_tautomer_probability>
1

> <s_lp_Force_Field>
OPLS_2005

> <r_lp_Energy>
18.331274

> <b_lp_Chiralities_Consistent>
1

> <s_lp_Variant>
CHEMBL220_lig1034-1

> <s_i_glide_gridfile>
glide-grid_1e66

> <i_i_glide_lignum>
1433

> <i_i_glide_rotatable_bonds>
1

> <r_i_docking_score>
-8.81958727041232

> <r_i_glide_ligand_efficiency>
-0.55122420440077

> <r_i_glide_ligand_efficiency_sa>
-1.38899795538846

> <r_i_glide_ligand_efficiency_ln>
-2.33780778127761

> <r_i_glide_gscore>
-8.81958727041232

> <r_i_glide_lipo>
-2.9585146747696

> <r_i_glide_hbond>
-0.175469102406906

> <r_i_glide_metal>
0

> <r_i_glide_rewards>
-3.40205656864474

> <r_i_glide_evdw>
-29.9159717559814

> <r_i_glide_ecoul>
-5.25165557861328

> <r_i_glide_erotb>
0

> <r_i_glide_esite>
0

> <r_i_glide_emodel>
-56.5753237166673

> <r_i_glide_energy>
-35.1676273345947

> <r_i_glide_einternal>
1.95469260215759

> <i_i_glide_confnum>
1

> <i_i_glide_posenum>
392

> <r_i_glide_eff_state_penalty>
0

> <s_user_duplicate_titles>
CHEMBL220_lig1034

> <s_m_subgroup_title>
dock_pv

> <s_m_subgroupid>
dock_pv

> <b_m_subgroup_collapsed>
0

$$$$
CHEMBL220_lig1035
                    3D
 Schrodinger Suite 2021-1.
 29 31  0  0  1  0            999 V2000
    5.0999   68.6362   64.2049 C   0  0  0  0  0  0
    4.9474   68.6618   62.8199 C   0  0  0  0  0  0
    3.6838   68.6339   62.2210 C   0  0  0  0  0  0
    3.9936   68.5939   65.0444 C   0  0  0  0  0  0
    2.7119   68.5540   64.4831 C   0  0  0  0  0  0
    2.5640   68.5780   63.0703 C   0  0  0  0  0  0
    1.1979   68.5481   62.8056 N   0  0  0  0  0  0
    1.4339   68.5080   65.0566 C   0  0  0  0  0  0
    0.4913   68.5080   63.9986 C   0  0  0  0  0  0
   -0.8837   68.5080   64.2740 C   0  0  0  0  0  0
   -1.2787   68.5083   65.5719 N   0  3  0  0  0  0
   -0.4059   68.4901   66.6050 C   0  0  0  0  0  0
    0.9724   68.4916   66.3848 C   0  0  0  0  0  0
    6.3428   68.6291   64.7750 O   0  0  0  0  0  0
    0.5753   68.5897   61.4937 C   0  0  0  0  0  0
   -2.7220   68.5260   65.8915 C   0  0  0  0  0  0
    5.8248   68.6992   62.1875 H   0  0  0  0  0  0
    3.5934   68.6550   61.1459 H   0  0  0  0  0  0
    4.1276   68.5973   66.1131 H   0  0  0  0  0  0
   -1.6557   68.5199   63.5189 H   0  0  0  0  0  0
   -0.8375   68.4939   67.5961 H   0  0  0  0  0  0
    1.6608   68.5051   67.2167 H   0  0  0  0  0  0
    6.9954   69.2190   64.3679 H   0  0  0  0  0  0
    1.3269   68.5973   60.7062 H   0  0  0  0  0  0
   -0.0572   67.7092   61.3761 H   0  0  0  0  0  0
   -0.0329   69.4916   61.4107 H   0  0  0  0  0  0
   -3.2998   68.7572   64.9947 H   0  0  0  0  0  0
   -2.9856   67.5409   66.2812 H   0  0  0  0  0  0
   -2.8900   69.3020   66.6416 H   0  0  0  0  0  0
  1  2  2  0  0  0
  1  4  1  0  0  0
  1 14  1  0  0  0
  2  3  1  0  0  0
  2 17  1  0  0  0
  3  6  2  0  0  0
  3 18  1  0  0  0
  4  5  2  0  0  0
  4 19  1  0  0  0
  5  8  1  0  0  0
  5  6  1  0  0  0
  6  7  1  0  0  0
  7 15  1  0  0  0
  7  9  1  0  0  0
  8  9  2  0  0  0
  8 13  1  0  0  0
  9 10  1  0  0  0
 10 11  2  0  0  0
 10 20  1  0  0  0
 11 12  1  0  0  0
 11 16  1  0  0  0
 12 13  2  0  0  0
 12 21  1  0  0  0
 13 22  1  0  0  0
 14 23  1  0  0  0
 15 24  1  0  0  0
 15 25  1  0  0  0
 15 26  1  0  0  0
 16 27  1  0  0  0
 16 28  1  0  0  0
 16 29  1  0  0  0
M  CHG  1  11   1
M  END
> <s_m_entry_id>
8511

> <s_m_entry_name>
dock_pv.21

> <s_m_Source_Path>
/home/csk/Desktop/cluster/DUD-E-result/aces

> <s_m_Source_File>
dock_pv.maegz

> <i_m_Source_File_Index>
21

> <chembl_id>
CHEMBL373651

> <chembl_pref_name>
None

> <i_lp_mmshare_version>
53161

> <i_f3d_flags>
0

> <r_lp_tautomer_probability>
1

> <s_lp_Force_Field>
OPLS_2005

> <r_lp_Energy>
15.906066

> <b_lp_Chiralities_Consistent>
1

> <s_lp_Variant>
CHEMBL220_lig1035-1

> <s_i_glide_gridfile>
glide-grid_1e66

> <i_i_glide_lignum>
1434

> <i_i_glide_rotatable_bonds>
1

> <r_i_docking_score>
-8.81028781169016

> <r_i_glide_ligand_efficiency>
-0.550642988230635

> <r_i_glide_ligand_efficiency_sa>
-1.38753338241523

> <r_i_glide_ligand_efficiency_ln>
-2.3353427739824

> <r_i_glide_gscore>
-8.81028781169016

> <r_i_glide_lipo>
-2.68403922606806

> <r_i_glide_hbond>
-0.32

> <r_i_glide_metal>
0

> <r_i_glide_rewards>
-3.02606469814041

> <r_i_glide_evdw>
-29.5416584014893

> <r_i_glide_ecoul>
-8.68733978271484

> <r_i_glide_erotb>
0

> <r_i_glide_esite>
0

> <r_i_glide_emodel>
-63.716619183505

> <r_i_glide_energy>
-38.2289981842041

> <r_i_glide_einternal>
2.39885306358337

> <i_i_glide_confnum>
1

> <i_i_glide_posenum>
234

> <r_i_glide_eff_state_penalty>
0

> <s_user_duplicate_titles>
CHEMBL220_lig1035

> <s_m_subgroup_title>
dock_pv

> <s_m_subgroupid>
dock_pv

> <b_m_subgroup_collapsed>
0

$$$$
CHEMBL220_lig1038
                    3D
 Schrodinger Suite 2021-1.
 32 34  0  0  1  0            999 V2000
   -0.9253   68.3136   66.0801 C   0  0  0  0  0  0
   -1.6481   68.5080   64.8972 C   0  0  0  0  0  0
   -1.0341   68.6037   63.6505 C   0  0  0  0  0  0
    0.4653   68.2829   66.0389 C   0  0  0  0  0  0
    1.1178   68.4276   64.8048 C   0  0  0  0  0  0
    0.3604   68.5617   63.6140 C   0  0  0  0  0  0
    1.2482   68.6706   62.5538 N   0  0  0  0  0  0
    2.4650   68.5220   64.4544 C   0  0  0  0  0  0
    2.5441   68.6482   63.0435 C   0  0  0  0  0  0
    3.7883   68.7522   62.4096 C   0  0  0  0  0  0
    4.8918   68.7594   63.1947 N   0  3  0  0  0  0
    4.8542   68.6556   64.5421 C   0  0  0  0  0  0
    3.6409   68.5410   65.2135 C   0  0  0  0  0  0
   -1.5095   68.1477   67.3174 O   0  0  0  0  0  0
   -2.9190   67.9752   67.3781 C   0  0  0  0  0  0
    0.8750   68.9080   61.1680 C   0  0  0  0  0  0
    6.2048   68.9080   62.5668 C   0  0  0  0  0  0
   -2.7237   68.5829   64.9206 H   0  0  0  0  0  0
   -1.6305   68.7549   62.7680 H   0  0  0  0  0  0
    1.0241   68.1683   66.9559 H   0  0  0  0  0  0
    3.9299   68.8556   61.3423 H   0  0  0  0  0  0
    5.8031   68.6960   65.0611 H   0  0  0  0  0  0
    3.6014   68.5080   66.2911 H   0  0  0  0  0  0
   -3.2113   67.6398   68.3680 H   0  0  0  0  0  0
   -3.4431   68.9080   67.1676 H   0  0  0  0  0  0
   -3.2567   67.2120   66.6766 H   0  0  0  0  0  0
   -0.0570   68.3900   60.9448 H   0  0  0  0  0  0
    0.7430   69.9786   61.0097 H   0  0  0  0  0  0
    1.6505   68.5354   60.5000 H   0  0  0  0  0  0
    6.0819   69.3080   61.5677 H   0  0  0  0  0  0
    6.7430   69.6334   63.1680 H   0  0  0  0  0  0
    6.6950   67.9373   62.5358 H   0  0  0  0  0  0
  1  2  2  0  0  0
  1  4  1  0  0  0
  1 14  1  0  0  0
  2  3  1  0  0  0
  2 18  1  0  0  0
  3  6  2  0  0  0
  3 19  1  0  0  0
  4  5  2  0  0  0
  4 20  1  0  0  0
  5  6  1  0  0  0
  5  8  1  0  0  0
  6  7  1  0  0  0
  7  9  1  0  0  0
  7 16  1  0  0  0
  8  9  2  0  0  0
  8 13  1  0  0  0
  9 10  1  0  0  0
 10 11  2  0  0  0
 10 21  1  0  0  0
 11 12  1  0  0  0
 11 17  1  0  0  0
 12 13  2  0  0  0
 12 22  1  0  0  0
 13 23  1  0  0  0
 14 15  1  0  0  0
 15 24  1  0  0  0
 15 25  1  0  0  0
 15 26  1  0  0  0
 16 27  1  0  0  0
 16 28  1  0  0  0
 16 29  1  0  0  0
 17 30  1  0  0  0
 17 31  1  0  0  0
 17 32  1  0  0  0
M  CHG  1  11   1
M  END
> <s_m_entry_id>
8512

> <s_m_entry_name>
dock_pv.22

> <s_m_Source_Path>
/home/csk/Desktop/cluster/DUD-E-result/aces

> <s_m_Source_File>
dock_pv.maegz

> <i_m_Source_File_Index>
22

> <chembl_id>
CHEMBL385778

> <chembl_pref_name>
None

> <i_lp_mmshare_version>
53161

> <i_f3d_flags>
0

> <r_lp_tautomer_probability>
1

> <s_lp_Force_Field>
OPLS_2005

> <r_lp_Energy>
19.761066

> <b_lp_Chiralities_Consistent>
1

> <s_lp_Variant>
CHEMBL220_lig1038-1

> <s_i_glide_gridfile>
glide-grid_1e66

> <i_i_glide_lignum>
1437

> <i_i_glide_rotatable_bonds>
1

> <r_i_docking_score>
-8.80185541443881

> <r_i_glide_ligand_efficiency>
-0.517756200849342

> <r_i_glide_ligand_efficiency_sa>
-1.33129698643578

> <r_i_glide_ligand_efficiency_ln>
-2.29620806994397

> <r_i_glide_gscore>
-8.80185541443881

> <r_i_glide_lipo>
-2.83936362319171

> <r_i_glide_hbond>
0

> <r_i_glide_metal>
0

> <r_i_glide_rewards>
-3.85107781171677

> <r_i_glide_evdw>
-29.1739597320557

> <r_i_glide_ecoul>
-4.35143995285034

> <r_i_glide_erotb>
0

> <r_i_glide_esite>
0

> <r_i_glide_emodel>
-56.3579661702127

> <r_i_glide_energy>
-33.525399684906

> <r_i_glide_einternal>
4.76184606552124

> <i_i_glide_confnum>
1

> <i_i_glide_posenum>
97

> <r_i_glide_eff_state_penalty>
0

> <s_user_duplicate_titles>
CHEMBL220_lig1038

> <s_m_subgroup_title>
dock_pv

> <s_m_subgroupid>
dock_pv

> <b_m_subgroup_collapsed>
0

$$$$
CHEMBL220_lig914
                    3D
 Schrodinger Suite 2021-1.
 33 35  0  0  1  0            999 V2000
    0.7251   68.5091   64.1546 C   0  0  0  0  0  0
    2.7769   68.7445   62.1627 C   0  0  0  0  0  0
    2.0632   68.7627   64.5965 C   0  0  0  0  0  0
    0.4621   68.4345   62.6503 C   0  0  2  0  0  0
    1.6218   68.1083   61.8849 O   0  0  0  0  0  0
    3.1026   68.9471   63.6191 C   0  0  0  0  0  0
    4.3431   69.3406   64.0603 N   0  3  0  0  0  0
   -0.3095   68.4879   65.1035 C   0  0  0  0  0  0
    2.3407   68.9223   65.9800 C   0  0  0  0  0  0
   -0.0002   68.4963   66.4811 C   0  0  0  0  0  0
    1.3023   68.7330   66.9138 C   0  0  0  0  0  0
    3.4681   69.0477   61.1922 O   0  0  0  0  0  0
    4.6126   69.5132   65.3796 C   0  0  0  0  0  0
    3.6412   69.3087   66.3565 C   0  0  0  0  0  0
   -0.2343   70.2044   62.0554 Br  0  0  0  0  0  0
   -1.5908   68.5079   64.5768 O   0  0  0  0  0  0
    5.4548   69.6450   63.1209 C   0  0  0  0  0  0
   -0.9490   68.3030   67.4511 O   0  0  0  0  0  0
   -2.7025   68.9080   65.3716 C   0  0  0  0  0  0
   -1.2493   66.9327   67.6930 C   0  0  0  0  0  0
   -0.3262   67.7082   62.4486 H   0  0  0  0  0  0
    1.5066   68.8162   67.9728 H   0  0  0  0  0  0
    5.6102   69.8399   65.6438 H   0  0  0  0  0  0
    3.8612   69.4894   67.3988 H   0  0  0  0  0  0
    5.1347   70.4708   62.4833 H   0  0  0  0  0  0
    6.3429   69.9552   63.6655 H   0  0  0  0  0  0
    5.6729   68.7473   62.5397 H   0  0  0  0  0  0
   -3.5094   69.2334   64.7149 H   0  0  0  0  0  0
   -3.0880   68.0820   65.9683 H   0  0  0  0  0  0
   -2.4621   69.7434   66.0294 H   0  0  0  0  0  0
   -2.0681   66.8626   68.4086 H   0  0  0  0  0  0
   -1.5607   66.4161   66.7830 H   0  0  0  0  0  0
   -0.3908   66.4055   68.1132 H   0  0  0  0  0  0
  1  3  2  0  0  0
  1  4  1  0  0  0
  1  8  1  0  0  0
  2  5  1  0  0  0
  2 12  2  0  0  0
  2  6  1  0  0  0
  3  6  1  0  0  0
  3  9  1  0  0  0
  4  5  1  0  0  0
  4 15  1  0  0  0
  4 21  1  0  0  0
  6  7  2  0  0  0
  7 17  1  0  0  0
  7 13  1  0  0  0
  8 10  2  0  0  0
  8 16  1  0  0  0
  9 14  1  0  0  0
  9 11  2  0  0  0
 10 11  1  0  0  0
 10 18  1  0  0  0
 11 22  1  0  0  0
 13 14  2  0  0  0
 13 23  1  0  0  0
 14 24  1  0  0  0
 16 19  1  0  0  0
 17 25  1  0  0  0
 17 26  1  0  0  0
 17 27  1  0  0  0
 18 20  1  0  0  0
 19 28  1  0  0  0
 19 29  1  0  0  0
 19 30  1  0  0  0
 20 31  1  0  0  0
 20 32  1  0  0  0
 20 33  1  0  0  0
M  CHG  1   7   1
M  END
> <s_m_entry_id>
8513

> <s_m_entry_name>
dock_pv.23

> <s_m_Source_Path>
/home/csk/Desktop/cluster/DUD-E-result/aces

> <s_m_Source_File>
dock_pv.maegz

> <i_m_Source_File_Index>
23

> <chembl_id>
CHEMBL370561

> <chembl_pref_name>
None

> <i_lp_mmshare_version>
53161

> <i_f3d_flags>
0

> <r_lp_tautomer_probability>
1

> <s_lp_Force_Field>
OPLS_2005

> <r_lp_Energy>
50.311277

> <b_lp_Chiralities_Consistent>
1

> <s_lp_Variant>
CHEMBL220_lig914-1

> <s_i_glide_gridfile>
glide-grid_1e66

> <i_i_glide_lignum>
1248

> <i_i_glide_rotatable_bonds>
2

> <r_i_docking_score>
-8.79445661099581

> <r_i_glide_ligand_efficiency>
-0.439722830549791

> <r_i_glide_ligand_efficiency_sa>
-1.19359139647144

> <r_i_glide_ligand_efficiency_ln>
-2.20096242914033

> <r_i_glide_gscore>
-8.79445661099581

> <r_i_glide_lipo>
-2.93371058698475

> <r_i_glide_hbond>
0

> <r_i_glide_metal>
0

> <r_i_glide_rewards>
-3.33814308440535

> <r_i_glide_evdw>
-36.0705490112305

> <r_i_glide_ecoul>
-4.79383659362793

> <r_i_glide_erotb>
0

> <r_i_glide_esite>
0

> <r_i_glide_emodel>
-61.707090147009

> <r_i_glide_energy>
-40.8643856048584

> <r_i_glide_einternal>
7.1437406539917

> <i_i_glide_confnum>
1

> <i_i_glide_posenum>
20

> <r_i_glide_eff_state_penalty>
0

> <s_user_duplicate_titles>
CHEMBL220_lig914

> <s_m_subgroup_title>
dock_pv

> <s_m_subgroupid>
dock_pv

> <b_m_subgroup_collapsed>
0

$$$$
CHEMBL220_lig845
                    3D
 Schrodinger Suite 2021-1.
 49 51  0  0  1  0            999 V2000
    1.8345   68.5088   66.7660 S   0  0  0  0  0  0
    1.5758   68.5638   65.0336 C   0  0  0  0  0  0
    0.4099   62.4252   71.5830 N   0  3  0  0  0  0
    0.2341   68.4551   64.6750 C   0  0  0  0  0  0
    0.0678   68.4020   67.1538 C   0  0  1  0  0  0
    2.5544   68.7742   64.0625 C   0  0  0  0  0  0
   -0.7188   68.2770   65.8290 C   0  0  0  0  0  0
    2.1952   68.9078   62.7102 C   0  0  0  0  0  0
   -0.1225   68.5097   63.3320 C   0  0  0  0  0  0
    0.8428   68.7750   62.3596 C   0  0  0  0  0  0
   -0.1744   67.2648   68.1698 C   0  0  0  0  0  0
   -1.1351   66.5092   68.0399 O   0  0  0  0  0  0
    0.6712   67.1765   69.4569 C   0  0  0  0  0  0
   -0.4168   62.9796   70.6669 C   0  0  0  0  0  0
    1.6290   62.9574   71.8429 C   0  0  0  0  0  0
    1.2089   64.7242   70.2316 C   0  0  0  0  0  0
    1.6666   65.9894   69.4991 C   0  0  0  0  0  0
    3.0973   69.1827   61.6970 O   0  0  0  0  0  0
    0.4503   68.9085   61.0555 O   0  0  0  0  0  0
   -0.0415   61.2078   72.2984 C   0  0  0  0  0  0
    2.0520   64.1073   71.1680 C   0  0  0  0  0  0
   -0.0286   64.1240   69.9693 C   0  0  0  0  0  0
   -0.0545   70.1951   60.7337 C   0  0  0  0  0  0
    4.4631   69.4269   62.0259 C   0  0  0  0  0  0
   -1.1184   61.5268   73.3517 C   0  0  0  0  0  0
   -0.1931   69.3351   67.6535 H   0  0  0  0  0  0
    3.5805   68.8822   64.3731 H   0  0  0  0  0  0
   -1.4977   69.0418   65.8030 H   0  0  0  0  0  0
   -1.2091   67.3083   65.7242 H   0  0  0  0  0  0
   -1.1554   68.4035   63.0397 H   0  0  0  0  0  0
    1.2342   68.1074   69.5229 H   0  0  0  0  0  0
    0.0153   67.1653   70.3271 H   0  0  0  0  0  0
   -1.3770   62.5080   70.5245 H   0  0  0  0  0  0
    2.2353   62.4549   72.5867 H   0  0  0  0  0  0
    1.9422   65.7056   68.4838 H   0  0  0  0  0  0
    2.5844   66.3412   69.9684 H   0  0  0  0  0  0
   -0.4125   60.5165   71.5381 H   0  0  0  0  0  0
    0.8312   60.7266   72.7464 H   0  0  0  0  0  0
    3.0232   64.5267   71.3831 H   0  0  0  0  0  0
   -0.6992   64.5323   69.2331 H   0  0  0  0  0  0
   -0.4503   70.1786   59.7200 H   0  0  0  0  0  0
    0.7315   70.9526   60.7696 H   0  0  0  0  0  0
   -0.8625   70.4977   61.4006 H   0  0  0  0  0  0
    5.0150   69.7087   61.1300 H   0  0  0  0  0  0
    4.5663   70.2497   62.7350 H   0  0  0  0  0  0
    4.9371   68.5349   62.4386 H   0  0  0  0  0  0
   -1.4176   60.6220   73.8806 H   0  0  0  0  0  0
   -0.7578   62.2347   74.1004 H   0  0  0  0  0  0
   -2.0208   61.9419   72.8981 H   0  0  0  0  0  0
  1  2  1  0  0  0
  1  5  1  0  0  0
  2  4  2  0  0  0
  2  6  1  0  0  0
  3 14  2  0  0  0
  3 20  1  0  0  0
  3 15  1  0  0  0
  4  9  1  0  0  0
  4  7  1  0  0  0
  5  7  1  0  0  0
  5 11  1  0  0  0
  5 26  1  0  0  0
  6  8  2  0  0  0
  6 27  1  0  0  0
  7 28  1  0  0  0
  7 29  1  0  0  0
  8 10  1  0  0  0
  8 18  1  0  0  0
  9 10  2  0  0  0
  9 30  1  0  0  0
 10 19  1  0  0  0
 11 12  2  0  0  0
 11 13  1  0  0  0
 13 17  1  0  0  0
 13 31  1  0  0  0
 13 32  1  0  0  0
 14 22  1  0  0  0
 14 33  1  0  0  0
 15 21  2  0  0  0
 15 34  1  0  0  0
 16 17  1  0  0  0
 16 21  1  0  0  0
 16 22  2  0  0  0
 17 35  1  0  0  0
 17 36  1  0  0  0
 18 24  1  0  0  0
 19 23  1  0  0  0
 20 25  1  0  0  0
 20 37  1  0  0  0
 20 38  1  0  0  0
 21 39  1  0  0  0
 22 40  1  0  0  0
 23 41  1  0  0  0
 23 42  1  0  0  0
 23 43  1  0  0  0
 24 44  1  0  0  0
 24 45  1  0  0  0
 24 46  1  0  0  0
 25 47  1  0  0  0
 25 48  1  0  0  0
 25 49  1  0  0  0
M  CHG  1   3   1
M  END
> <s_m_entry_id>
8514

> <s_m_entry_name>
dock_pv.24

> <s_m_Source_Path>
/home/csk/Desktop/cluster/DUD-E-result/aces

> <s_m_Source_File>
dock_pv.maegz

> <i_m_Source_File_Index>
24

> <chembl_id>
CHEMBL188753

> <chembl_pref_name>
None

> <i_lp_mmshare_version>
53161

> <i_f3d_flags>
0

> <r_lp_tautomer_probability>
0.999999960000001

> <s_lp_Force_Field>
OPLS_2005

> <r_lp_Energy>
34.234675

> <b_lp_Chiralities_Consistent>
1

> <s_lp_Variant>
CHEMBL220_lig845-2

> <s_i_glide_gridfile>
glide-grid_1e66

> <i_i_glide_lignum>
1095

> <i_i_glide_rotatable_bonds>
7

> <r_i_docking_score>
-8.7897734621529

> <r_i_glide_ligand_efficiency>
-0.351590938486116

> <r_i_glide_ligand_efficiency_sa>
-1.02805813962525

> <r_i_glide_ligand_efficiency_ln>
-2.08343971878516

> <r_i_glide_gscore>
-8.7897734621529

> <r_i_glide_lipo>
-3.50795099117462

> <r_i_glide_hbond>
0

> <r_i_glide_metal>
0

> <r_i_glide_rewards>
-3.31835679433417

> <r_i_glide_evdw>
-38.6069259643555

> <r_i_glide_ecoul>
-4.19599866867065

> <r_i_glide_erotb>
0.596280421874262

> <r_i_glide_esite>
0

> <r_i_glide_emodel>
-59.5665357168145

> <r_i_glide_energy>
-42.8029246330261

> <r_i_glide_einternal>
11.1949214935303

> <i_i_glide_confnum>
20

> <i_i_glide_posenum>
139

> <r_i_glide_eff_state_penalty>
0

> <s_user_duplicate_titles>
CHEMBL220_lig845,314360

> <s_m_subgroup_title>
dock_pv

> <s_m_subgroupid>
dock_pv

> <b_m_subgroup_collapsed>
0

$$$$
CHEMBL220_lig231
                    3D
 Schrodinger Suite 2021-1.
 47 49  0  0  1  0            999 V2000
   -0.0260   67.7006   67.1997 C   0  0  0  0  0  0
   -1.1136   68.1083   65.8937 S   0  0  0  0  0  0
    0.2571   68.5068   64.8729 C   0  0  0  0  0  0
    1.2278   68.2053   66.9691 C   0  0  0  0  0  0
    1.4643   68.5112   65.6098 C   0  0  0  0  0  0
    1.0507   62.1675   71.5089 N   0  3  0  0  0  0
    0.2347   68.7830   63.5071 C   0  0  0  0  0  0
   -0.5051   66.9729   68.3664 C   0  0  0  0  0  0
    1.4393   69.1075   62.8590 C   0  0  0  0  0  0
    2.6587   68.8407   64.9516 C   0  0  0  0  0  0
    2.6450   69.1276   63.5755 C   0  0  0  0  0  0
   -1.6374   66.5068   68.4282 O   0  0  0  0  0  0
    0.3740   66.9273   69.6266 C   0  0  0  0  0  0
    0.0153   62.7107   70.8246 C   0  0  0  0  0  0
    2.2528   62.7875   71.5846 C   0  0  0  0  0  0
    1.3879   64.6097   70.2434 C   0  0  0  0  0  0
    1.5854   65.9672   69.5816 C   0  0  0  0  0  0
    1.4951   69.4487   61.5198 O   0  0  0  0  0  0
    3.7862   69.4487   62.8623 O   0  0  0  0  0  0
    0.8570   60.8711   72.1991 C   0  0  0  0  0  0
    0.1725   63.9254   70.1578 C   0  0  0  0  0  0
    2.4427   64.0185   70.9505 C   0  0  0  0  0  0
    5.0314   69.5951   63.5364 C   0  0  0  0  0  0
    0.2878   69.3997   60.7681 C   0  0  0  0  0  0
    0.3715   61.0720   73.6446 C   0  0  0  0  0  0
    1.9656   68.2680   67.7341 H   0  0  0  0  0  0
   -0.7143   68.7602   62.9928 H   0  0  0  0  0  0
    3.5769   68.8668   65.5165 H   0  0  0  0  0  0
    0.7449   67.9442   69.7518 H   0  0  0  0  0  0
   -0.2473   66.7366   70.5019 H   0  0  0  0  0  0
   -0.9093   62.1556   70.8290 H   0  0  0  0  0  0
    3.0222   62.2916   72.1604 H   0  0  0  0  0  0
    1.9278   65.7991   68.5607 H   0  0  0  0  0  0
    2.3991   66.4702   70.1058 H   0  0  0  0  0  0
    0.1505   60.2846   71.6066 H   0  0  0  0  0  0
    1.8041   60.3301   72.1540 H   0  0  0  0  0  0
   -0.6403   64.3303   69.5749 H   0  0  0  0  0  0
    3.3996   64.5156   71.0242 H   0  0  0  0  0  0
    5.7993   69.8814   62.8173 H   0  0  0  0  0  0
    5.3498   68.6593   63.9990 H   0  0  0  0  0  0
    4.9883   70.3767   64.2979 H   0  0  0  0  0  0
    0.3399   69.6758   59.7213 H   0  0  0  0  0  0
   -0.0571   68.3730   60.7708 H   0  0  0  0  0  0
   -0.4617   70.0632   61.2014 H   0  0  0  0  0  0
    0.2195   60.1103   74.1377 H   0  0  0  0  0  0
    1.0973   61.6291   74.2413 H   0  0  0  0  0  0
   -0.5804   61.6055   73.6821 H   0  0  0  0  0  0
  1  2  1  0  0  0
  1  4  2  0  0  0
  1  8  1  0  0  0
  2  3  1  0  0  0
  3  7  2  0  0  0
  3  5  1  0  0  0
  4  5  1  0  0  0
  4 26  1  0  0  0
  5 10  2  0  0  0
  6 14  2  0  0  0
  6 20  1  0  0  0
  6 15  1  0  0  0
  7  9  1  0  0  0
  7 27  1  0  0  0
  8 12  2  0  0  0
  8 13  1  0  0  0
  9 18  1  0  0  0
  9 11  2  0  0  0
 10 11  1  0  0  0
 10 28  1  0  0  0
 11 19  1  0  0  0
 13 17  1  0  0  0
 13 29  1  0  0  0
 13 30  1  0  0  0
 14 21  1  0  0  0
 14 31  1  0  0  0
 15 22  2  0  0  0
 15 32  1  0  0  0
 16 17  1  0  0  0
 16 21  2  0  0  0
 16 22  1  0  0  0
 17 33  1  0  0  0
 17 34  1  0  0  0
 18 24  1  0  0  0
 19 23  1  0  0  0
 20 25  1  0  0  0
 20 35  1  0  0  0
 20 36  1  0  0  0
 21 37  1  0  0  0
 22 38  1  0  0  0
 23 39  1  0  0  0
 23 40  1  0  0  0
 23 41  1  0  0  0
 24 42  1  0  0  0
 24 43  1  0  0  0
 24 44  1  0  0  0
 25 45  1  0  0  0
 25 46  1  0  0  0
 25 47  1  0  0  0
M  CHG  1   6   1
M  END
> <s_m_entry_id>
8515

> <s_m_entry_name>
dock_pv.25

> <s_m_Source_Path>
/home/csk/Desktop/cluster/DUD-E-result/aces

> <s_m_Source_File>
dock_pv.maegz

> <i_m_Source_File_Index>
25

> <chembl_id>
CHEMBL87128

> <chembl_pref_name>
None

> <i_lp_mmshare_version>
53161

> <i_f3d_flags>
0

> <r_lp_tautomer_probability>
0.99990000499975

> <s_lp_Force_Field>
OPLS_2005

> <r_lp_Energy>
28.947421

> <b_lp_Chiralities_Consistent>
1

> <s_lp_Variant>
CHEMBL220_lig231-1

> <s_i_glide_gridfile>
glide-grid_1e66

> <i_i_glide_lignum>
262

> <i_i_glide_rotatable_bonds>
7

> <r_i_docking_score>
-8.77067172306144

> <r_i_glide_ligand_efficiency>
-0.350826868922458

> <r_i_glide_ligand_efficiency_sa>
-1.02582398667028

> <r_i_glide_ligand_efficiency_ln>
-2.07891203418755

> <r_i_glide_gscore>
-8.77067172306144

> <r_i_glide_lipo>
-3.92045684975114

> <r_i_glide_hbond>
0

> <r_i_glide_metal>
0

> <r_i_glide_rewards>
-3.15224264982032

> <r_i_glide_evdw>
-35.437801361084

> <r_i_glide_ecoul>
-3.52255320549011

> <r_i_glide_erotb>
0.602300825387731

> <r_i_glide_esite>
0

> <r_i_glide_emodel>
-55.3874108531403

> <r_i_glide_energy>
-38.9603545665741

> <r_i_glide_einternal>
6.61606216430664

> <i_i_glide_confnum>
24

> <i_i_glide_posenum>
253

> <r_i_glide_eff_state_penalty>
0

> <s_user_duplicate_titles>
CHEMBL220_lig231,138659

> <s_m_subgroup_title>
dock_pv

> <s_m_subgroupid>
dock_pv

> <b_m_subgroup_collapsed>
0

$$$$
CHEMBL220_lig331
                    3D
 Schrodinger Suite 2021-1.
 38 39  0  0  1  0            999 V2000
    4.2700   68.8269   64.1176 N   0  3  0  0  0  0
    2.9426   68.6329   63.3746 C   0  0  0  0  0  0
    3.9891   69.5925   65.4535 C   0  0  0  0  0  0
    1.8174   68.0647   64.0309 C   0  0  0  0  0  0
    4.9944   69.9452   66.5438 C   0  0  0  0  0  0
    5.3014   69.6870   63.3226 C   0  0  0  0  0  0
    4.9390   67.4512   64.3416 C   0  0  0  0  0  0
    1.9634   67.4360   65.2564 O   0  0  0  0  0  0
    2.8257   69.0706   62.0427 C   0  0  0  0  0  0
    0.5781   68.1075   63.3801 C   0  0  0  0  0  0
    6.3700   69.7182   66.4975 C   0  0  0  0  0  0
    4.4354   70.5080   67.6953 C   0  0  0  0  0  0
    0.8250   66.9692   65.9796 C   0  0  0  0  0  0
    1.5995   69.0080   61.3980 C   0  0  0  0  0  0
    0.4805   68.5558   62.0743 C   0  0  0  0  0  0
    7.1608   70.1082   67.5680 C   0  0  0  0  0  0
    5.2336   70.9080   68.7531 C   0  0  0  0  0  0
    6.6091   70.7478   68.6726 C   0  0  0  0  0  0
    3.2197   69.0616   65.9914 H   0  0  0  0  0  0
    3.5337   70.5080   65.1011 H   0  0  0  0  0  0
    6.2076   69.8592   63.8875 H   0  0  0  0  0  0
    5.5650   69.1622   62.4027 H   0  0  0  0  0  0
    4.8321   70.6469   63.1040 H   0  0  0  0  0  0
    5.7974   67.5660   64.9945 H   0  0  0  0  0  0
    4.2079   66.7765   64.7756 H   0  0  0  0  0  0
    5.2319   67.0747   63.3610 H   0  0  0  0  0  0
    3.6496   69.4699   61.4719 H   0  0  0  0  0  0
   -0.3158   67.7103   63.8376 H   0  0  0  0  0  0
    6.8692   69.2258   65.6845 H   0  0  0  0  0  0
    3.3661   70.6416   67.7765 H   0  0  0  0  0  0
    1.1430   66.6221   66.9627 H   0  0  0  0  0  0
    0.0909   67.7608   66.1387 H   0  0  0  0  0  0
    0.3445   66.1274   65.4821 H   0  0  0  0  0  0
    1.5058   69.3080   60.3680 H   0  0  0  0  0  0
   -0.4570   68.4963   61.5680 H   0  0  0  0  0  0
    8.2115   69.8792   67.5550 H   0  0  0  0  0  0
    4.7685   71.3080   69.6349 H   0  0  0  0  0  0
    7.2371   71.0448   69.5001 H   0  0  0  0  0  0
  1  2  1  0  0  0
  1  3  1  0  0  0
  1  6  1  0  0  0
  1  7  1  0  0  0
  2  4  2  0  0  0
  2  9  1  0  0  0
  3  5  1  0  0  0
  3 19  1  0  0  0
  3 20  1  0  0  0
  4  8  1  0  0  0
  4 10  1  0  0  0
  5 11  1  0  0  0
  5 12  2  0  0  0
  6 21  1  0  0  0
  6 22  1  0  0  0
  6 23  1  0  0  0
  7 24  1  0  0  0
  7 25  1  0  0  0
  7 26  1  0  0  0
  8 13  1  0  0  0
  9 14  2  0  0  0
  9 27  1  0  0  0
 10 15  2  0  0  0
 10 28  1  0  0  0
 11 16  2  0  0  0
 11 29  1  0  0  0
 12 17  1  0  0  0
 12 30  1  0  0  0
 13 31  1  0  0  0
 13 32  1  0  0  0
 13 33  1  0  0  0
 14 15  1  0  0  0
 14 34  1  0  0  0
 15 35  1  0  0  0
 16 18  1  0  0  0
 16 36  1  0  0  0
 17 18  2  0  0  0
 17 37  1  0  0  0
 18 38  1  0  0  0
M  CHG  1   1   1
M  END
> <s_m_entry_id>
8516

> <s_m_entry_name>
dock_pv.26

> <s_m_Source_Path>
/home/csk/Desktop/cluster/DUD-E-result/aces

> <s_m_Source_File>
dock_pv.maegz

> <i_m_Source_File_Index>
26

> <chembl_id>
CHEMBL61905

> <chembl_pref_name>
None

> <i_lp_mmshare_version>
53161

> <i_f3d_flags>
0

> <r_lp_tautomer_probability>
1

> <s_lp_Force_Field>
OPLS_2005

> <r_lp_Energy>
29.372302

> <b_lp_Chiralities_Consistent>
1

> <s_lp_Variant>
CHEMBL220_lig331-1

> <s_i_glide_gridfile>
glide-grid_1e66

> <i_i_glide_lignum>
385

> <i_i_glide_rotatable_bonds>
4

> <r_i_docking_score>
-8.68754524667383

> <r_i_glide_ligand_efficiency>
-0.48264140259299

> <r_i_glide_ligand_efficiency_sa>
-1.26487830111583

> <r_i_glide_ligand_efficiency_ln>
-2.23308870907799

> <r_i_glide_gscore>
-8.68754524667383

> <r_i_glide_lipo>
-3.97100202710705

> <r_i_glide_hbond>
0

> <r_i_glide_metal>
0

> <r_i_glide_rewards>
-3.64582905715413

> <r_i_glide_evdw>
-26.1419582366943

> <r_i_glide_ecoul>
-4.33054113388062

> <r_i_glide_erotb>
0.885964919504165

> <r_i_glide_esite>
0

> <r_i_glide_emodel>
-44.282708402077

> <r_i_glide_energy>
-30.472499370575

> <r_i_glide_einternal>
11.5193567276001

> <i_i_glide_confnum>
37

> <i_i_glide_posenum>
155

> <r_i_glide_eff_state_penalty>
0

> <s_user_duplicate_titles>
CHEMBL220_lig331

> <s_m_subgroup_title>
dock_pv

> <s_m_subgroupid>
dock_pv

> <b_m_subgroup_collapsed>
0

$$$$
CHEMBL220_lig848
                    3D
 Schrodinger Suite 2021-1.
 56 59  0  0  1  0            999 V2000
   -0.6412   68.3072   65.7898 S   0  0  0  0  0  0
    0.6856   68.5080   64.6469 C   0  0  0  0  0  0
    1.5347   62.2991   71.3960 N   0  3  0  0  0  0
    1.9469   68.4083   65.2221 C   0  0  0  0  0  0
    0.4998   68.2533   67.1988 C   0  0  2  0  0  0
    0.5637   68.7935   63.2986 C   0  0  0  0  0  0
    1.9046   67.9947   66.6572 C   0  0  0  0  0  0
    1.7070   68.9912   62.5068 C   0  0  0  0  0  0
    3.0918   68.5555   64.4399 C   0  0  0  0  0  0
    2.9830   68.8748   63.0775 C   0  0  0  0  0  0
    0.0453   67.2035   68.2264 C   0  0  0  0  0  0
    2.0618   60.9430   71.6718 C   0  0  0  0  0  0
   -0.9603   66.5082   68.0739 O   0  0  0  0  0  0
    0.8898   67.1075   69.5061 C   0  0  0  0  0  0
    0.7894   62.9385   72.3308 C   0  0  0  0  0  0
    1.8591   62.8923   70.2234 C   0  0  0  0  0  0
    0.6847   64.8963   70.9024 C   0  0  0  0  0  0
    0.2164   66.3335   70.6625 C   0  0  0  0  0  0
    1.6402   69.3080   61.1679 O   0  0  0  0  0  0
    4.0691   69.0722   62.2428 O   0  0  0  0  0  0
    0.3430   64.2431   72.0936 C   0  0  0  0  0  0
    1.4582   64.2017   69.9680 C   0  0  0  0  0  0
    3.5140   60.9981   72.1990 C   0  0  0  0  0  0
    5.5498   60.5409   71.8881 C   0  0  0  0  0  0
    4.3118   59.6881   72.2208 C   0  0  0  0  0  0
    4.6066   61.5961   71.2977 C   0  0  0  0  0  0
    5.3894   69.0250   62.7733 C   0  0  0  0  0  0
    0.3717   69.2464   60.5326 C   0  0  0  0  0  0
    0.4511   69.2352   67.6713 H   0  0  0  0  0  0
   -0.4319   68.8890   62.8942 H   0  0  0  0  0  0
    2.1227   66.9270   66.6669 H   0  0  0  0  0  0
    2.6573   68.5210   67.2435 H   0  0  0  0  0  0
    4.0603   68.4401   64.9016 H   0  0  0  0  0  0
    1.3872   60.4567   72.3797 H   0  0  0  0  0  0
    1.9777   60.3766   70.7416 H   0  0  0  0  0  0
    1.8765   66.7149   69.2741 H   0  0  0  0  0  0
    1.0595   68.1206   69.8420 H   0  0  0  0  0  0
    0.5817   62.3988   73.2449 H   0  0  0  0  0  0
    2.4518   62.3149   69.5293 H   0  0  0  0  0  0
    0.3432   66.9079   71.5681 H   0  0  0  0  0  0
   -0.8570   66.3504   70.5267 H   0  0  0  0  0  0
   -0.2408   64.7531   72.8458 H   0  0  0  0  0  0
    1.7546   64.6642   69.0442 H   0  0  0  0  0  0
    3.4941   61.4773   73.1828 H   0  0  0  0  0  0
    6.0928   60.8901   72.7679 H   0  0  0  0  0  0
    6.2575   60.1089   71.1807 H   0  0  0  0  0  0
    4.3427   59.1568   73.1736 H   0  0  0  0  0  0
    4.0703   58.9991   71.4083 H   0  0  0  0  0  0
    4.4612   61.4295   70.2290 H   0  0  0  0  0  0
    4.8807   62.6338   71.4947 H   0  0  0  0  0  0
    6.1020   69.1987   61.9680 H   0  0  0  0  0  0
    5.6171   68.0493   63.2037 H   0  0  0  0  0  0
    5.5472   69.7983   63.5269 H   0  0  0  0  0  0
    0.4490   69.3063   59.4494 H   0  0  0  0  0  0
   -0.0570   68.2753   60.7681 H   0  0  0  0  0  0
   -0.2870   70.0481   60.8719 H   0  0  0  0  0  0
  1  2  1  0  0  0
  1  5  1  0  0  0
  2  4  2  0  0  0
  2  6  1  0  0  0
  3 16  2  0  0  0
  3 12  1  0  0  0
  3 15  1  0  0  0
  4  9  1  0  0  0
  4  7  1  0  0  0
  5  7  1  0  0  0
  5 11  1  0  0  0
  5 29  1  0  0  0
  6  8  2  0  0  0
  6 30  1  0  0  0
  7 31  1  0  0  0
  7 32  1  0  0  0
  8 10  1  0  0  0
  8 19  1  0  0  0
  9 10  2  0  0  0
  9 33  1  0  0  0
 10 20  1  0  0  0
 11 13  2  0  0  0
 11 14  1  0  0  0
 12 23  1  0  0  0
 12 34  1  0  0  0
 12 35  1  0  0  0
 14 18  1  0  0  0
 14 36  1  0  0  0
 14 37  1  0  0  0
 15 21  2  0  0  0
 15 38  1  0  0  0
 16 22  1  0  0  0
 16 39  1  0  0  0
 17 18  1  0  0  0
 17 21  1  0  0  0
 17 22  2  0  0  0
 18 40  1  0  0  0
 18 41  1  0  0  0
 19 28  1  0  0  0
 20 27  1  0  0  0
 21 42  1  0  0  0
 22 43  1  0  0  0
 23 25  1  0  0  0
 23 26  1  0  0  0
 23 44  1  0  0  0
 24 26  1  0  0  0
 24 25  1  0  0  0
 24 45  1  0  0  0
 24 46  1  0  0  0
 25 47  1  0  0  0
 25 48  1  0  0  0
 26 49  1  0  0  0
 26 50  1  0  0  0
 27 51  1  0  0  0
 27 52  1  0  0  0
 27 53  1  0  0  0
 28 54  1  0  0  0
 28 55  1  0  0  0
 28 56  1  0  0  0
M  CHG  1   3   1
M  END
> <s_m_entry_id>
8517

> <s_m_entry_name>
dock_pv.27

> <s_m_Source_Path>
/home/csk/Desktop/cluster/DUD-E-result/aces

> <s_m_Source_File>
dock_pv.maegz

> <i_m_Source_File_Index>
27

> <chembl_id>
CHEMBL365904

> <chembl_pref_name>
None

> <i_lp_mmshare_version>
53161

> <i_f3d_flags>
0

> <r_lp_tautomer_probability>
0.999999960000001

> <s_lp_Force_Field>
OPLS_2005

> <r_lp_Energy>
43.219124

> <b_lp_Chiralities_Consistent>
1

> <s_lp_Variant>
CHEMBL220_lig848-1

> <s_i_glide_gridfile>
glide-grid_1e66

> <i_i_glide_lignum>
1100

> <i_i_glide_rotatable_bonds>
8

> <r_i_docking_score>
-8.64110417400256

> <r_i_glide_ligand_efficiency>
-0.308610863357234

> <r_i_glide_ligand_efficiency_sa>
-0.937124343230708

> <r_i_glide_ligand_efficiency_ln>
-1.99462055720289

> <r_i_glide_gscore>
-8.64110417400256

> <r_i_glide_lipo>
-4.61565595164947

> <r_i_glide_hbond>
0

> <r_i_glide_metal>
0

> <r_i_glide_rewards>
-2.66499821593653

> <r_i_glide_evdw>
-41.2755432128906

> <r_i_glide_ecoul>
-0.243520438671112

> <r_i_glide_erotb>
0.739855220028633

> <r_i_glide_esite>
0

> <r_i_glide_emodel>
-66.8178485021013

> <r_i_glide_energy>
-41.5190636515617

> <r_i_glide_einternal>
3.32200264930725

> <i_i_glide_confnum>
13

> <i_i_glide_posenum>
181

> <r_i_glide_eff_state_penalty>
0

> <s_user_duplicate_titles>
CHEMBL220_lig848,313444

> <s_m_subgroup_title>
dock_pv

> <s_m_subgroupid>
dock_pv

> <b_m_subgroup_collapsed>
0

$$$$
CHEMBL220_lig863
                    3D
 Schrodinger Suite 2021-1.
 46 49  0  0  1  0            999 V2000
    0.4258   66.2678   69.6437 N   0  3  0  0  0  0
    3.3490   68.8326   62.6541 C   0  0  0  0  0  0
    1.2788   68.4921   63.8334 C   0  0  0  0  0  0
    1.9617   68.9087   62.6693 C   0  0  0  0  0  0
   -0.2183   68.5782   63.8578 C   0  0  0  0  0  0
    4.0570   68.3971   63.7358 C   0  0  0  0  0  0
    4.2143   69.1870   61.6710 O   0  0  0  0  0  0
    5.3859   68.4489   63.4606 O   0  0  0  0  0  0
    5.4504   68.6607   62.0782 C   0  0  0  0  0  0
    0.7758   65.3376   70.7453 C   0  0  0  0  0  0
    2.0283   68.0054   64.9258 C   0  0  0  0  0  0
   -0.8566   68.8852   62.8519 O   0  0  0  0  0  0
    3.4264   67.9984   64.9030 C   0  0  0  0  0  0
   -0.6870   66.0553   68.9063 C   0  0  0  0  0  0
   -1.0232   68.3730   65.1604 C   0  0  0  0  0  0
    1.2310   67.3198   69.3952 C   0  0  0  0  0  0
   -0.2233   68.0334   67.5943 C   0  0  0  0  0  0
   -0.5666   69.0341   66.4915 C   0  0  0  0  0  0
    0.9279   68.2197   68.3677 C   0  0  0  0  0  0
   -1.0400   66.9296   67.8737 C   0  0  0  0  0  0
    1.7879   64.2703   70.3489 C   0  0  0  0  0  0
    3.1555   64.5572   70.3674 C   0  0  0  0  0  0
    1.3451   63.0001   69.9689 C   0  0  0  0  0  0
    4.0778   63.5833   69.9951 C   0  0  0  0  0  0
    2.2669   62.0243   69.5988 C   0  0  0  0  0  0
    3.6282   62.3211   69.6123 C   0  0  0  0  0  0
    1.4315   69.2820   61.8040 H   0  0  0  0  0  0
    5.6185   67.7097   61.5686 H   0  0  0  0  0  0
    6.2806   69.3081   61.8031 H   0  0  0  0  0  0
    1.1429   65.9503   71.5680 H   0  0  0  0  0  0
   -0.1401   64.8767   71.1100 H   0  0  0  0  0  0
    1.5493   67.6273   65.8101 H   0  0  0  0  0  0
    3.9869   67.6956   65.7694 H   0  0  0  0  0  0
   -1.2568   65.1775   69.1676 H   0  0  0  0  0  0
   -2.0569   68.6626   64.9632 H   0  0  0  0  0  0
   -1.0508   67.3080   65.3048 H   0  0  0  0  0  0
    2.0915   67.4358   70.0385 H   0  0  0  0  0  0
    0.2794   69.7044   66.3652 H   0  0  0  0  0  0
   -1.3735   69.6644   66.8710 H   0  0  0  0  0  0
    1.5711   69.0731   68.2035 H   0  0  0  0  0  0
   -1.9428   66.7549   67.3049 H   0  0  0  0  0  0
    3.5106   65.5316   70.6706 H   0  0  0  0  0  0
    0.2896   62.7673   69.9510 H   0  0  0  0  0  0
    5.1347   63.8085   70.0052 H   0  0  0  0  0  0
    1.9268   61.0417   69.3057 H   0  0  0  0  0  0
    4.3412   61.5624   69.3272 H   0  0  0  0  0  0
  1 10  1  0  0  0
  1 14  2  0  0  0
  1 16  1  0  0  0
  2  4  2  0  0  0
  2  7  1  0  0  0
  2  6  1  0  0  0
  3  5  1  0  0  0
  3  4  1  0  0  0
  3 11  2  0  0  0
  4 27  1  0  0  0
  5 15  1  0  0  0
  5 12  2  0  0  0
  6 13  2  0  0  0
  6  8  1  0  0  0
  7  9  1  0  0  0
  8  9  1  0  0  0
  9 28  1  0  0  0
  9 29  1  0  0  0
 10 21  1  0  0  0
 10 30  1  0  0  0
 10 31  1  0  0  0
 11 13  1  0  0  0
 11 32  1  0  0  0
 13 33  1  0  0  0
 14 20  1  0  0  0
 14 34  1  0  0  0
 15 18  1  0  0  0
 15 35  1  0  0  0
 15 36  1  0  0  0
 16 19  2  0  0  0
 16 37  1  0  0  0
 17 19  1  0  0  0
 17 18  1  0  0  0
 17 20  2  0  0  0
 18 38  1  0  0  0
 18 39  1  0  0  0
 19 40  1  0  0  0
 20 41  1  0  0  0
 21 22  1  0  0  0
 21 23  2  0  0  0
 22 24  2  0  0  0
 22 42  1  0  0  0
 23 25  1  0  0  0
 23 43  1  0  0  0
 24 26  1  0  0  0
 24 44  1  0  0  0
 25 26  2  0  0  0
 25 45  1  0  0  0
 26 46  1  0  0  0
M  CHG  1   1   1
M  END
> <s_m_entry_id>
8518

> <s_m_entry_name>
dock_pv.28

> <s_m_Source_Path>
/home/csk/Desktop/cluster/DUD-E-result/aces

> <s_m_Source_File>
dock_pv.maegz

> <i_m_Source_File_Index>
28

> <chembl_id>
CHEMBL363455

> <chembl_pref_name>
None

> <i_lp_mmshare_version>
53161

> <i_f3d_flags>
0

> <r_lp_tautomer_probability>
0.99990000499975

> <s_lp_Force_Field>
OPLS_2005

> <r_lp_Energy>
37.863647

> <b_lp_Chiralities_Consistent>
1

> <s_lp_Variant>
CHEMBL220_lig863-1

> <s_i_glide_gridfile>
glide-grid_1e66

> <i_i_glide_lignum>
1144

> <i_i_glide_rotatable_bonds>
6

> <r_i_docking_score>
-8.60861276825901

> <r_i_glide_ligand_efficiency>
-0.331100491086885

> <r_i_glide_ligand_efficiency_sa>
-0.980883902027375

> <r_i_glide_ligand_efficiency_ln>
-2.02170446146319

> <r_i_glide_gscore>
-8.60861276825901

> <r_i_glide_lipo>
-4.05756403654698

> <r_i_glide_hbond>
0

> <r_i_glide_metal>
0

> <r_i_glide_rewards>
-2.7154435352357

> <r_i_glide_evdw>
-41.6818962097168

> <r_i_glide_ecoul>
-3.30653524398804

> <r_i_glide_erotb>
0.792202162148645

> <r_i_glide_esite>
-0.0477322615409203

> <r_i_glide_emodel>
-71.2212442794068

> <r_i_glide_energy>
-44.9884314537048

> <r_i_glide_einternal>
5.67523813247681

> <i_i_glide_confnum>
4

> <i_i_glide_posenum>
308

> <r_i_glide_eff_state_penalty>
0

> <s_user_duplicate_titles>
CHEMBL220_lig863,313485

> <s_m_subgroup_title>
dock_pv

> <s_m_subgroupid>
dock_pv

> <b_m_subgroup_collapsed>
0

$$$$
CHEMBL220_lig380
                    3D
 Schrodinger Suite 2021-1.
 44 47  0  0  1  0            999 V2000
    0.8805   68.3721   66.2713 C   0  0  0  0  0  0
    3.2956   69.0415   65.6282 C   0  0  0  0  0  0
    1.8951   68.6931   65.4256 C   0  0  0  0  0  0
    5.5002   69.3075   65.1214 N   0  0  0  0  0  0
    4.2918   68.8317   64.6856 C   0  0  0  0  0  0
    0.2890   66.9722   68.2905 N   0  0  2  0  0  0
   -0.4387   68.1074   65.6750 C   0  0  0  0  0  0
    3.9629   69.7085   66.7273 C   0  0  0  0  0  0
    0.9281   68.1936   67.7925 C   0  0  0  0  0  0
    5.3446   69.8634   66.3662 C   0  0  0  0  0  0
   -1.3154   67.0810   66.3920 C   0  0  0  0  0  0
   -0.7953   68.5569   64.5862 O   0  0  0  0  0  0
   -1.1203   66.9302   67.8985 C   0  0  0  0  0  0
    0.4730   66.7665   69.7341 C   0  0  0  0  0  0
    1.0280   65.3797   70.0393 C   0  0  0  0  0  0
    3.5498   70.2460   67.9629 C   0  0  0  0  0  0
    6.2804   70.4959   67.1893 C   0  0  0  0  0  0
    2.3855   65.2287   70.3327 C   0  0  0  0  0  0
    0.2043   64.2510   69.9686 C   0  0  0  0  0  0
    4.4750   70.9050   68.7678 C   0  0  0  0  0  0
    5.8102   71.0167   68.3926 C   0  0  0  0  0  0
    0.7278   62.9873   70.2341 C   0  0  0  0  0  0
    2.9121   63.9657   70.5894 C   0  0  0  0  0  0
    2.0788   62.8499   70.5438 C   0  0  0  0  0  0
    1.6720   68.7210   64.3656 H   0  0  0  0  0  0
    6.3480   69.2785   64.5674 H   0  0  0  0  0  0
    4.2282   68.3867   63.7027 H   0  0  0  0  0  0
    1.9518   68.1866   68.1339 H   0  0  0  0  0  0
    0.4429   69.0619   68.2446 H   0  0  0  0  0  0
   -0.9900   66.1341   65.9683 H   0  0  0  0  0  0
   -2.3602   67.2019   66.1078 H   0  0  0  0  0  0
   -1.7120   67.7082   68.3680 H   0  0  0  0  0  0
   -1.5682   65.9975   68.2345 H   0  0  0  0  0  0
   -0.4567   66.9072   70.2869 H   0  0  0  0  0  0
    1.1706   67.5056   70.1335 H   0  0  0  0  0  0
    2.5183   70.2174   68.2739 H   0  0  0  0  0  0
    7.3184   70.5872   66.9040 H   0  0  0  0  0  0
    3.0363   66.0902   70.3704 H   0  0  0  0  0  0
   -0.8385   64.3473   69.7047 H   0  0  0  0  0  0
    4.1418   71.3050   69.7128 H   0  0  0  0  0  0
    6.5001   71.5199   69.0554 H   0  0  0  0  0  0
    0.0889   62.1167   70.1892 H   0  0  0  0  0  0
    3.9608   63.8573   70.8242 H   0  0  0  0  0  0
    2.4841   61.8691   70.7447 H   0  0  0  0  0  0
  1  3  2  0  0  0
  1  7  1  0  0  0
  1  9  1  0  0  0
  2  3  1  0  0  0
  2  5  2  0  0  0
  2  8  1  0  0  0
  3 25  1  0  0  0
  4  5  1  0  0  0
  4 10  1  0  0  0
  4 26  1  0  0  0
  5 27  1  0  0  0
  6  9  1  0  0  0
  6 13  1  0  0  0
  6 14  1  0  0  0
  7 11  1  0  0  0
  7 12  2  0  0  0
  8 10  2  0  0  0
  8 16  1  0  0  0
  9 28  1  0  0  0
  9 29  1  0  0  0
 10 17  1  0  0  0
 11 13  1  0  0  0
 11 30  1  0  0  0
 11 31  1  0  0  0
 13 32  1  0  0  0
 13 33  1  0  0  0
 14 15  1  0  0  0
 14 34  1  0  0  0
 14 35  1  0  0  0
 15 18  2  0  0  0
 15 19  1  0  0  0
 16 20  2  0  0  0
 16 36  1  0  0  0
 17 21  2  0  0  0
 17 37  1  0  0  0
 18 23  1  0  0  0
 18 38  1  0  0  0
 19 22  2  0  0  0
 19 39  1  0  0  0
 20 21  1  0  0  0
 20 40  1  0  0  0
 21 41  1  0  0  0
 22 24  1  0  0  0
 22 42  1  0  0  0
 23 24  2  0  0  0
 23 43  1  0  0  0
 24 44  1  0  0  0
M  END
> <s_m_entry_id>
8519

> <s_m_entry_name>
dock_pv.29

> <s_m_Source_Path>
/home/csk/Desktop/cluster/DUD-E-result/aces

> <s_m_Source_File>
dock_pv.maegz

> <i_m_Source_File_Index>
29

> <chembl_id>
CHEMBL128172

> <chembl_pref_name>
None

> <i_lp_mmshare_version>
53161

> <i_f3d_flags>
0

> <r_lp_tautomer_probability>
1

> <s_lp_Force_Field>
OPLS_2005

> <r_lp_Energy>
19.720918

> <b_lp_Chiralities_Consistent>
1

> <s_lp_Variant>
CHEMBL220_lig380-1

> <s_i_glide_gridfile>
glide-grid_1e66

> <i_i_glide_lignum>
438

> <i_i_glide_rotatable_bonds>
3

> <r_i_docking_score>
-8.56323755095544

> <r_i_glide_ligand_efficiency>
-0.356801564623143

> <r_i_glide_ligand_efficiency_sa>
-1.0291938054352

> <r_i_glide_ligand_efficiency_ln>
-2.04957568731045

> <r_i_glide_gscore>
-8.56323755095544

> <r_i_glide_lipo>
-4.06015055761804

> <r_i_glide_hbond>
-0.0876159633154345

> <r_i_glide_metal>
0

> <r_i_glide_rewards>
-3.1661020803574

> <r_i_glide_evdw>
-35.9463882446289

> <r_i_glide_ecoul>
1.17348909378052

> <r_i_glide_erotb>
0.371927098499799

> <r_i_glide_esite>
0

> <r_i_glide_emodel>
-46.8974344608737

> <r_i_glide_energy>
-34.7728991508484

> <r_i_glide_einternal>
3.84520125389099

> <i_i_glide_confnum>
1

> <i_i_glide_posenum>
352

> <r_i_glide_eff_state_penalty>
0

> <s_user_duplicate_titles>
CHEMBL220_lig380

> <s_m_subgroup_title>
dock_pv

> <s_m_subgroupid>
dock_pv

> <b_m_subgroup_collapsed>
0

$$$$
CHEMBL220_lig860
                    3D
 Schrodinger Suite 2021-1.
 52 54  0  0  1  0            999 V2000
    2.0201   68.9080   66.8817 S   0  0  0  0  0  0
    2.1708   68.8388   65.1291 C   0  0  0  0  0  0
    2.5072   62.7209   70.6965 N   0  3  0  0  0  0
    0.9741   68.5068   64.5057 C   0  0  0  0  0  0
    0.2608   68.4372   66.8549 C   0  0  1  0  0  0
    3.3018   69.1232   64.3654 C   0  0  0  0  0  0
   -0.0970   68.0256   65.4287 C   0  0  0  0  0  0
    3.2200   69.1107   62.9619 C   0  0  0  0  0  0
    0.8876   68.4926   63.1262 C   0  0  0  0  0  0
    1.9955   68.8347   62.3435 C   0  0  0  0  0  0
   -0.0409   67.3315   67.8862 C   0  0  0  0  0  0
   -0.9257   66.5057   67.6731 O   0  0  0  0  0  0
    0.6602   67.3847   69.2425 C   0  0  0  0  0  0
    1.1575   62.6325   70.5862 C   0  0  0  0  0  0
    3.1513   63.9059   70.5602 C   0  0  0  0  0  0
    1.0230   65.0346   70.3068 C   0  0  0  0  0  0
    0.2090   66.3282   70.2825 C   0  0  0  0  0  0
    4.2708   69.4075   62.1221 O   0  0  0  0  0  0
    1.9370   68.9231   60.9705 O   0  0  0  0  0  0
    3.2954   61.5194   71.0708 C   0  0  0  0  0  0
    2.4208   65.0805   70.3707 C   0  0  0  0  0  0
    0.3918   63.7864   70.3851 C   0  0  0  0  0  0
    0.6742   69.2265   60.3908 C   0  0  0  0  0  0
    5.4229   70.0456   62.6413 C   0  0  0  0  0  0
    3.8141   60.7141   69.8617 C   0  0  0  0  0  0
    2.7378   59.8471   69.1925 C   0  0  0  0  0  0
   -0.3036   69.3248   67.1422 H   0  0  0  0  0  0
    4.2271   69.3744   64.8607 H   0  0  0  0  0  0
   -1.0940   68.3645   65.1435 H   0  0  0  0  0  0
   -0.0750   66.9391   65.3252 H   0  0  0  0  0  0
   -0.0515   68.2031   62.6850 H   0  0  0  0  0  0
    1.7433   67.4152   69.1359 H   0  0  0  0  0  0
    0.3452   68.3688   69.5687 H   0  0  0  0  0  0
    0.7222   61.6487   70.7015 H   0  0  0  0  0  0
    4.2277   63.8957   70.6689 H   0  0  0  0  0  0
    0.2981   66.7600   71.2775 H   0  0  0  0  0  0
   -0.8555   66.1190   70.1655 H   0  0  0  0  0  0
    4.1159   61.8589   71.7114 H   0  0  0  0  0  0
    2.6627   60.9101   71.7235 H   0  0  0  0  0  0
    2.9436   66.0277   70.3505 H   0  0  0  0  0  0
   -0.6841   63.7064   70.3353 H   0  0  0  0  0  0
    0.7326   69.2019   59.3069 H   0  0  0  0  0  0
    0.3075   70.2045   60.7042 H   0  0  0  0  0  0
   -0.0568   68.4783   60.6439 H   0  0  0  0  0  0
    5.9423   70.4611   61.7827 H   0  0  0  0  0  0
    5.1840   70.8768   63.3067 H   0  0  0  0  0  0
    6.0823   69.3419   63.1516 H   0  0  0  0  0  0
    4.2801   61.3765   69.1305 H   0  0  0  0  0  0
    4.6074   60.0511   70.2093 H   0  0  0  0  0  0
    3.1637   59.2137   68.4129 H   0  0  0  0  0  0
    2.2654   59.1826   69.9147 H   0  0  0  0  0  0
    1.9584   60.4595   68.7406 H   0  0  0  0  0  0
  1  2  1  0  0  0
  1  5  1  0  0  0
  2  4  2  0  0  0
  2  6  1  0  0  0
  3 14  1  0  0  0
  3 20  1  0  0  0
  3 15  2  0  0  0
  4  9  1  0  0  0
  4  7  1  0  0  0
  5  7  1  0  0  0
  5 11  1  0  0  0
  5 27  1  0  0  0
  6  8  2  0  0  0
  6 28  1  0  0  0
  7 29  1  0  0  0
  7 30  1  0  0  0
  8 10  1  0  0  0
  8 18  1  0  0  0
  9 10  2  0  0  0
  9 31  1  0  0  0
 10 19  1  0  0  0
 11 12  2  0  0  0
 11 13  1  0  0  0
 13 17  1  0  0  0
 13 32  1  0  0  0
 13 33  1  0  0  0
 14 22  2  0  0  0
 14 34  1  0  0  0
 15 21  1  0  0  0
 15 35  1  0  0  0
 16 17  1  0  0  0
 16 21  2  0  0  0
 16 22  1  0  0  0
 17 36  1  0  0  0
 17 37  1  0  0  0
 18 24  1  0  0  0
 19 23  1  0  0  0
 20 25  1  0  0  0
 20 38  1  0  0  0
 20 39  1  0  0  0
 21 40  1  0  0  0
 22 41  1  0  0  0
 23 42  1  0  0  0
 23 43  1  0  0  0
 23 44  1  0  0  0
 24 45  1  0  0  0
 24 46  1  0  0  0
 24 47  1  0  0  0
 25 26  1  0  0  0
 25 48  1  0  0  0
 25 49  1  0  0  0
 26 50  1  0  0  0
 26 51  1  0  0  0
 26 52  1  0  0  0
M  CHG  1   3   1
M  END
> <s_m_entry_id>
8520

> <s_m_entry_name>
dock_pv.30

> <s_m_Source_Path>
/home/csk/Desktop/cluster/DUD-E-result/aces

> <s_m_Source_File>
dock_pv.maegz

> <i_m_Source_File_Index>
30

> <chembl_id>
CHEMBL187330

> <chembl_pref_name>
None

> <i_lp_mmshare_version>
53161

> <i_f3d_flags>
0

> <r_lp_tautomer_probability>
0.999999960000001

> <s_lp_Force_Field>
OPLS_2005

> <r_lp_Energy>
33.797694

> <b_lp_Chiralities_Consistent>
1

> <s_lp_Variant>
CHEMBL220_lig860-2

> <s_i_glide_gridfile>
glide-grid_1e66

> <i_i_glide_lignum>
1139

> <i_i_glide_rotatable_bonds>
8

> <r_i_docking_score>
-8.56289431699111

> <r_i_glide_ligand_efficiency>
-0.329342089115043

> <r_i_glide_ligand_efficiency_sa>
-0.97567464310477

> <r_i_glide_ligand_efficiency_ln>
-2.0109676331974

> <r_i_glide_gscore>
-8.56289431699111

> <r_i_glide_lipo>
-4.58908057955058

> <r_i_glide_hbond>
0

> <r_i_glide_metal>
0

> <r_i_glide_rewards>
-2.09681698249301

> <r_i_glide_evdw>
-39.5104598999023

> <r_i_glide_ecoul>
-3.98309969902039

> <r_i_glide_erotb>
0.695991194900645

> <r_i_glide_esite>
0

> <r_i_glide_emodel>
-66.1268159148446

> <r_i_glide_energy>
-43.4935595989227

> <r_i_glide_einternal>
2.23111581802368

> <i_i_glide_confnum>
22

> <i_i_glide_posenum>
30

> <r_i_glide_eff_state_penalty>
0

> <s_user_duplicate_titles>
CHEMBL220_lig860

> <s_m_subgroup_title>
dock_pv

> <s_m_subgroupid>
dock_pv

> <b_m_subgroup_collapsed>
0

$$$$
CHEMBL220_lig48
                    3D
 Schrodinger Suite 2021-1.
 45 46  0  0  1  0            999 V2000
    1.5352   67.9339   63.9555 C   0  0  0  0  0  0
    0.2647   68.5099   63.8772 C   0  0  0  0  0  0
   -0.0625   69.2604   62.7427 C   0  0  0  0  0  0
    0.8599   69.4363   61.7111 C   0  0  0  0  0  0
    2.1443   68.9063   61.8245 C   0  0  0  0  0  0
    2.4978   68.1767   62.9643 C   0  0  0  0  0  0
    3.8941   67.6883   63.1549 C   0  0  0  0  0  0
    4.4451   66.9746   62.3154 O   0  0  0  0  0  0
    4.6517   68.1734   64.3114 C   0  0  0  0  0  0
    4.2051   69.1548   65.1268 C   0  0  0  0  0  0
    4.8944   69.7080   66.2944 C   0  0  0  0  0  0
    6.2837   69.7859   66.3680 C   0  0  0  0  0  0
    6.8770   70.3859   67.4728 C   0  0  0  0  0  0
    6.0978   70.9080   68.4987 C   0  0  0  0  0  0
    4.7123   70.8194   68.4388 C   0  0  0  0  0  0
    4.1189   70.1927   67.3476 C   0  0  0  0  0  0
   -0.7667   68.3512   64.9997 C   0  0  0  0  0  0
   -0.4570   68.9749   66.2971 N   0  0  0  0  0  0
   -1.6767   69.0724   67.1170 C   0  0  0  0  0  0
    0.6835   68.3441   66.9805 C   0  0  0  0  0  0
    1.0053   68.9057   68.3680 C   0  0  0  0  0  0
   -2.2783   67.7186   67.5556 C   0  0  0  0  0  0
    1.7894   67.3078   64.7973 H   0  0  0  0  0  0
   -1.0421   69.7080   62.6569 H   0  0  0  0  0  0
    0.5909   70.0111   60.8366 H   0  0  0  0  0  0
    2.8652   69.0863   61.0386 H   0  0  0  0  0  0
    5.6088   67.7080   64.4847 H   0  0  0  0  0  0
    3.2571   69.6368   64.9295 H   0  0  0  0  0  0
    6.8989   69.4040   65.5680 H   0  0  0  0  0  0
    7.9430   70.4469   67.5334 H   0  0  0  0  0  0
    6.5732   71.3756   69.3480 H   0  0  0  0  0  0
    4.1001   71.2210   69.2329 H   0  0  0  0  0  0
    3.0439   70.1569   67.2888 H   0  0  0  0  0  0
   -1.7042   68.7729   64.6314 H   0  0  0  0  0  0
   -0.9587   67.3080   65.1680 H   0  0  0  0  0  0
   -1.4698   69.6945   67.9863 H   0  0  0  0  0  0
   -2.4288   69.6369   66.5626 H   0  0  0  0  0  0
    0.5757   67.2586   67.0243 H   0  0  0  0  0  0
    1.5719   68.5645   66.3972 H   0  0  0  0  0  0
    2.0099   68.6210   68.6780 H   0  0  0  0  0  0
    0.9468   69.9950   68.3879 H   0  0  0  0  0  0
    0.3430   68.5080   69.1303 H   0  0  0  0  0  0
   -3.1623   67.8742   68.1724 H   0  0  0  0  0  0
   -2.5942   67.1162   66.7041 H   0  0  0  0  0  0
   -1.5728   67.1275   68.1389 H   0  0  0  0  0  0
  1  2  2  0  0  0
  1  6  1  0  0  0
  1 23  1  0  0  0
  2  3  1  0  0  0
  2 17  1  0  0  0
  3  4  2  0  0  0
  3 24  1  0  0  0
  4  5  1  0  0  0
  4 25  1  0  0  0
  5  6  2  0  0  0
  5 26  1  0  0  0
  6  7  1  0  0  0
  7  8  2  0  0  0
  7  9  1  0  0  0
  9 10  2  0  0  0
  9 27  1  0  0  0
 10 11  1  0  0  0
 10 28  1  0  0  0
 11 12  2  0  0  0
 11 16  1  0  0  0
 12 13  1  0  0  0
 12 29  1  0  0  0
 13 14  2  0  0  0
 13 30  1  0  0  0
 14 15  1  0  0  0
 14 31  1  0  0  0
 15 16  2  0  0  0
 15 32  1  0  0  0
 16 33  1  0  0  0
 17 18  1  0  0  0
 17 34  1  0  0  0
 17 35  1  0  0  0
 18 19  1  0  0  0
 18 20  1  0  0  0
 19 22  1  0  0  0
 19 36  1  0  0  0
 19 37  1  0  0  0
 20 21  1  0  0  0
 20 38  1  0  0  0
 20 39  1  0  0  0
 21 40  1  0  0  0
 21 41  1  0  0  0
 21 42  1  0  0  0
 22 43  1  0  0  0
 22 44  1  0  0  0
 22 45  1  0  0  0
M  END
> <s_m_entry_id>
8521

> <s_m_entry_name>
dock_pv.31

> <s_m_Source_Path>
/home/csk/Desktop/cluster/DUD-E-result/aces

> <s_m_Source_File>
dock_pv.maegz

> <i_m_Source_File_Index>
31

> <chembl_id>
CHEMBL2381387

> <chembl_pref_name>
None

> <i_lp_mmshare_version>
53161

> <i_f3d_flags>
0

> <r_lp_tautomer_probability>
1

> <s_lp_Force_Field>
OPLS_2005

> <r_lp_Energy>
23.956954

> <b_lp_Chiralities_Consistent>
1

> <s_lp_Variant>
CHEMBL220_lig48-1

> <s_i_glide_gridfile>
glide-grid_1e66

> <i_i_glide_lignum>
51

> <i_i_glide_rotatable_bonds>
7

> <r_i_docking_score>
-8.55952431486408

> <r_i_glide_ligand_efficiency>
-0.389069287039277

> <r_i_glide_ligand_efficiency_sa>
-1.09018744351083

> <r_i_glide_ligand_efficiency_ln>
-2.09225995878816

> <r_i_glide_gscore>
-8.55952431486408

> <r_i_glide_lipo>
-4.75085670013913

> <r_i_glide_hbond>
0

> <r_i_glide_metal>
0

> <r_i_glide_rewards>
-2.18788035154993

> <r_i_glide_evdw>
-39.3291854858398

> <r_i_glide_ecoul>
-3.35574007034302

> <r_i_glide_erotb>
0.849033021668425

> <r_i_glide_esite>
0

> <r_i_glide_emodel>
-60.5654009274966

> <r_i_glide_energy>
-42.6849255561829

> <r_i_glide_einternal>
8.08720302581787

> <i_i_glide_confnum>
7

> <i_i_glide_posenum>
47

> <r_i_glide_eff_state_penalty>
0

> <s_user_duplicate_titles>
CHEMBL220_lig48

> <s_m_subgroup_title>
dock_pv

> <s_m_subgroupid>
dock_pv

> <b_m_subgroup_collapsed>
0

$$$$
CHEMBL220_lig862
                    3D
 Schrodinger Suite 2021-1.
 56 59  0  0  1  0            999 V2000
   -0.7613   68.5080   65.6202 S   0  0  0  0  0  0
    0.6362   68.5080   64.5430 C   0  0  0  0  0  0
    3.1799   62.9617   71.5678 N   0  3  0  0  0  0
    1.8500   68.2808   65.1829 C   0  0  0  0  0  0
    0.2766   68.2512   67.0877 C   0  0  2  0  0  0
    0.6112   68.7677   63.1826 C   0  0  0  0  0  0
    1.7113   67.9433   66.6358 C   0  0  0  0  0  0
    1.8007   68.7799   62.4334 C   0  0  0  0  0  0
    3.0395   68.2938   64.4529 C   0  0  0  0  0  0
    3.0282   68.5583   63.0737 C   0  0  0  0  0  0
   -0.3154   67.1617   68.0023 C   0  0  0  0  0  0
    4.1947   61.9903   72.0416 C   0  0  0  0  0  0
   -1.3693   66.5690   67.7641 O   0  0  0  0  0  0
    0.4967   66.8669   69.2761 C   0  0  0  0  0  0
    1.8889   62.7901   71.9447 C   0  0  0  0  0  0
    3.5499   63.9641   70.7350 C   0  0  0  0  0  0
    1.2394   64.6890   70.5857 C   0  0  0  0  0  0
    0.1134   65.5740   70.0462 C   0  0  0  0  0  0
    1.8300   68.9848   61.0687 O   0  0  0  0  0  0
    4.1671   68.6023   62.2873 O   0  0  0  0  0  0
    0.8990   63.6481   71.4578 C   0  0  0  0  0  0
    2.5886   64.8409   70.2314 C   0  0  0  0  0  0
    3.9618   60.6003   71.4649 C   0  0  0  0  0  0
    0.5953   69.0577   60.3716 C   0  0  0  0  0  0
    5.4494   68.4575   62.8872 C   0  0  0  0  0  0
    3.8103   59.5136   72.3282 C   0  0  0  0  0  0
    3.8478   60.4224   70.0809 C   0  0  0  0  0  0
    3.5089   58.2583   71.8109 C   0  0  0  0  0  0
    3.5436   59.1662   69.5680 C   0  0  0  0  0  0
    3.3778   58.0918   70.4356 C   0  0  0  0  0  0
    0.2516   69.1912   67.6415 H   0  0  0  0  0  0
   -0.3475   68.9701   62.7293 H   0  0  0  0  0  0
    1.9430   66.8818   66.7454 H   0  0  0  0  0  0
    2.4167   68.5104   67.2412 H   0  0  0  0  0  0
    3.9677   68.1072   64.9688 H   0  0  0  0  0  0
    5.1892   62.3514   71.7705 H   0  0  0  0  0  0
    4.1367   61.9992   73.1325 H   0  0  0  0  0  0
    1.5427   66.8833   68.9990 H   0  0  0  0  0  0
    0.3746   67.7083   69.9565 H   0  0  0  0  0  0
    1.6806   61.9556   72.6021 H   0  0  0  0  0  0
    4.5986   64.0352   70.4771 H   0  0  0  0  0  0
   -0.4563   65.9010   70.9155 H   0  0  0  0  0  0
   -0.5405   64.9253   69.4609 H   0  0  0  0  0  0
   -0.1319   63.4895   71.7434 H   0  0  0  0  0  0
    2.9231   65.6153   69.5685 H   0  0  0  0  0  0
    0.7443   68.9081   59.3033 H   0  0  0  0  0  0
   -0.0559   68.2608   60.7231 H   0  0  0  0  0  0
    0.1070   70.0196   60.5271 H   0  0  0  0  0  0
    6.2140   68.5081   62.1112 H   0  0  0  0  0  0
    5.5426   67.4911   63.3832 H   0  0  0  0  0  0
    5.6521   69.2532   63.6058 H   0  0  0  0  0  0
    3.8976   59.6374   73.3982 H   0  0  0  0  0  0
    3.9583   61.2595   69.4057 H   0  0  0  0  0  0
    3.3823   57.4144   72.4734 H   0  0  0  0  0  0
    3.4223   59.0205   68.5035 H   0  0  0  0  0  0
    3.1333   57.1174   70.0383 H   0  0  0  0  0  0
  1  2  1  0  0  0
  1  5  1  0  0  0
  2  4  2  0  0  0
  2  6  1  0  0  0
  3 16  1  0  0  0
  3 12  1  0  0  0
  3 15  2  0  0  0
  4  9  1  0  0  0
  4  7  1  0  0  0
  5  7  1  0  0  0
  5 11  1  0  0  0
  5 31  1  0  0  0
  6  8  2  0  0  0
  6 32  1  0  0  0
  7 33  1  0  0  0
  7 34  1  0  0  0
  8 10  1  0  0  0
  8 19  1  0  0  0
  9 10  2  0  0  0
  9 35  1  0  0  0
 10 20  1  0  0  0
 11 13  2  0  0  0
 11 14  1  0  0  0
 12 23  1  0  0  0
 12 36  1  0  0  0
 12 37  1  0  0  0
 14 18  1  0  0  0
 14 38  1  0  0  0
 14 39  1  0  0  0
 15 21  1  0  0  0
 15 40  1  0  0  0
 16 22  2  0  0  0
 16 41  1  0  0  0
 17 18  1  0  0  0
 17 21  2  0  0  0
 17 22  1  0  0  0
 18 42  1  0  0  0
 18 43  1  0  0  0
 19 24  1  0  0  0
 20 25  1  0  0  0
 21 44  1  0  0  0
 22 45  1  0  0  0
 23 26  2  0  0  0
 23 27  1  0  0  0
 24 46  1  0  0  0
 24 47  1  0  0  0
 24 48  1  0  0  0
 25 49  1  0  0  0
 25 50  1  0  0  0
 25 51  1  0  0  0
 26 28  1  0  0  0
 26 52  1  0  0  0
 27 29  2  0  0  0
 27 53  1  0  0  0
 28 30  2  0  0  0
 28 54  1  0  0  0
 29 30  1  0  0  0
 29 55  1  0  0  0
 30 56  1  0  0  0
M  CHG  1   3   1
M  END
> <s_m_entry_id>
8522

> <s_m_entry_name>
dock_pv.32

> <s_m_Source_Path>
/home/csk/Desktop/cluster/DUD-E-result/aces

> <s_m_Source_File>
dock_pv.maegz

> <i_m_Source_File_Index>
32

> <chembl_id>
CHEMBL186042

> <chembl_pref_name>
None

> <i_lp_mmshare_version>
53161

> <i_f3d_flags>
0

> <r_lp_tautomer_probability>
0.999999960000001

> <s_lp_Force_Field>
OPLS_2005

> <r_lp_Energy>
37.740416

> <b_lp_Chiralities_Consistent>
1

> <s_lp_Variant>
CHEMBL220_lig862-1

> <s_i_glide_gridfile>
glide-grid_1e66

> <i_i_glide_lignum>
1142

> <i_i_glide_rotatable_bonds>
8

> <r_i_docking_score>
-8.47472349000166

> <r_i_glide_ligand_efficiency>
-0.282490783000055

> <r_i_glide_ligand_efficiency_sa>
-0.877764542574979

> <r_i_glide_ligand_efficiency_ln>
-1.92554951643661

> <r_i_glide_gscore>
-8.47472349000166

> <r_i_glide_lipo>
-4.64014240860407

> <r_i_glide_hbond>
0

> <r_i_glide_metal>
0

> <r_i_glide_rewards>
-1.63543840710287

> <r_i_glide_evdw>
-50.2991561889648

> <r_i_glide_ecoul>
-2.37124133110046

> <r_i_glide_erotb>
0.671501334818598

> <r_i_glide_esite>
0

> <r_i_glide_emodel>
-79.0030618660175

> <r_i_glide_energy>
-52.6703975200653

> <r_i_glide_einternal>
4.0624680519104

> <i_i_glide_confnum>
18

> <i_i_glide_posenum>
162

> <r_i_glide_eff_state_penalty>
0

> <s_user_duplicate_titles>
CHEMBL220_lig862,313449

> <s_m_subgroup_title>
dock_pv

> <s_m_subgroupid>
dock_pv

> <b_m_subgroup_collapsed>
0

$$$$
CHEMBL220_lig135
                    3D
 Schrodinger Suite 2021-1.
 39 40  0  0  1  0            999 V2000
    2.8525   69.1385   65.0536 C   0  0  0  0  0  0
    2.1270   68.9081   63.8637 C   0  0  0  0  0  0
    0.8147   68.4004   63.9817 C   0  0  0  0  0  0
    0.2702   68.1547   65.2465 C   0  0  0  0  0  0
    0.9800   68.4380   66.3636 N   0  3  0  0  0  0
    2.2487   68.9062   66.2922 C   0  0  0  0  0  0
    0.3707   68.2045   67.6976 C   0  0  0  0  0  0
    0.5679   66.7401   68.1401 C   0  0  0  0  0  0
    0.4465   66.5108   69.6631 C   0  0  0  0  0  0
    1.0436   65.2055   70.0388 N   0  3  0  0  0  0
    2.3577   65.1538   70.3665 C   0  0  0  0  0  0
    2.9697   63.9262   70.6320 C   0  0  0  0  0  0
    2.2220   62.7396   70.5713 C   0  0  0  0  0  0
    0.8584   62.8345   70.2413 C   0  0  0  0  0  0
    0.2895   64.0819   69.9687 C   0  0  0  0  0  0
    2.6696   69.2745   62.5489 C   0  0  0  0  0  0
    3.6566   68.6985   61.9984 N   0  0  0  0  0  0
    3.9430   69.3095   60.7677 O   0  0  0  0  0  0
    2.8936   61.4060   70.8215 C   0  0  0  0  0  0
    2.1303   60.3978   71.2538 N   0  0  0  0  0  0
    4.1018   61.2551   70.6472 O   0  0  0  0  0  0
    4.4749   69.7522   65.0570 Cl  0  0  0  0  0  0
   -0.1931   68.1080   62.6019 Cl  0  0  0  0  0  0
   -0.7306   67.7665   65.3878 H   0  0  0  0  0  0
    2.7540   69.0921   67.2305 H   0  0  0  0  0  0
   -0.6861   68.4728   67.6259 H   0  0  0  0  0  0
    0.8188   68.9164   68.3967 H   0  0  0  0  0  0
    1.5430   66.3919   67.8028 H   0  0  0  0  0  0
   -0.1548   66.1086   67.6186 H   0  0  0  0  0  0
   -0.5934   66.5081   69.9960 H   0  0  0  0  0  0
    0.9552   67.2853   70.2444 H   0  0  0  0  0  0
    2.8945   66.0931   70.3862 H   0  0  0  0  0  0
    4.0238   63.9017   70.8767 H   0  0  0  0  0  0
    0.2400   61.9523   70.1569 H   0  0  0  0  0  0
   -0.7409   64.2042   69.6647 H   0  0  0  0  0  0
    2.1443   70.1049   62.0811 H   0  0  0  0  0  0
    4.7839   68.8987   60.4888 H   0  0  0  0  0  0
    2.5610   59.5026   71.4330 H   0  0  0  0  0  0
    1.1568   60.5291   71.4815 H   0  0  0  0  0  0
  1  2  2  0  0  0
  1  6  1  0  0  0
  1 22  1  0  0  0
  2  3  1  0  0  0
  2 16  1  0  0  0
  3  4  2  0  0  0
  3 23  1  0  0  0
  4  5  1  0  0  0
  4 24  1  0  0  0
  5  6  2  0  0  0
  5  7  1  0  0  0
  6 25  1  0  0  0
  7  8  1  0  0  0
  7 26  1  0  0  0
  7 27  1  0  0  0
  8  9  1  0  0  0
  8 28  1  0  0  0
  8 29  1  0  0  0
  9 10  1  0  0  0
  9 30  1  0  0  0
  9 31  1  0  0  0
 10 11  2  0  0  0
 10 15  1  0  0  0
 11 12  1  0  0  0
 11 32  1  0  0  0
 12 13  2  0  0  0
 12 33  1  0  0  0
 13 14  1  0  0  0
 13 19  1  0  0  0
 14 15  2  0  0  0
 14 34  1  0  0  0
 15 35  1  0  0  0
 16 17  2  0  0  0
 16 36  1  0  0  0
 17 18  1  0  0  0
 18 37  1  0  0  0
 19 20  1  0  0  0
 19 21  2  0  0  0
 20 38  1  0  0  0
 20 39  1  0  0  0
M  CHG  2   5   1  10   1
M  END
> <s_m_entry_id>
8523

> <s_m_entry_name>
dock_pv.33

> <s_m_Source_Path>
/home/csk/Desktop/cluster/DUD-E-result/aces

> <s_m_Source_File>
dock_pv.maegz

> <i_m_Source_File_Index>
33

> <chembl_id>
CHEMBL4281350

> <chembl_pref_name>
None

> <i_lp_mmshare_version>
53161

> <i_f3d_flags>
0

> <r_lp_tautomer_probability>
1

> <s_lp_Force_Field>
OPLS_2005

> <r_lp_Energy>
34.08921

> <b_lp_Chiralities_Consistent>
1

> <s_lp_Variant>
CHEMBL220_lig135-1

> <s_i_glide_gridfile>
glide-grid_1e66

> <i_i_glide_lignum>
151

> <i_i_glide_rotatable_bonds>
7

> <r_i_docking_score>
-8.47121082513649

> <r_i_glide_ligand_efficiency>
-0.368313514136369

> <r_i_glide_ligand_efficiency_sa>
-1.04743463999077

> <r_i_glide_ligand_efficiency_ln>
-2.04841559021095

> <r_i_glide_gscore>
-8.47121082513649

> <r_i_glide_lipo>
-2.82812238284161

> <r_i_glide_hbond>
-0.16

> <r_i_glide_metal>
0

> <r_i_glide_rewards>
-2.72747892526619

> <r_i_glide_evdw>
-36.4267272949219

> <r_i_glide_ecoul>
-11.8187971115112

> <r_i_glide_erotb>
0.909079298738647

> <r_i_glide_esite>
-0.0705328842945527

> <r_i_glide_emodel>
-82.2431979704404

> <r_i_glide_energy>
-48.2455244064331

> <r_i_glide_einternal>
3.19915890693665

> <i_i_glide_confnum>
91

> <i_i_glide_posenum>
112

> <r_i_glide_eff_state_penalty>
0

> <s_user_duplicate_titles>
CHEMBL220_lig135

> <s_m_subgroup_title>
dock_pv

> <s_m_subgroupid>
dock_pv

> <b_m_subgroup_collapsed>
0

$$$$
CHEMBL220_lig336
                    3D
 Schrodinger Suite 2021-1.
 40 41  0  0  1  0            999 V2000
    4.2963   68.8130   63.7567 N   0  3  0  0  0  0
    2.7668   68.9032   63.5258 C   0  0  0  0  0  0
    1.7481   68.4206   64.4078 C   0  0  0  0  0  0
    1.9472   68.1270   65.7542 O   0  0  0  0  0  0
    0.9951   68.4194   66.7314 C   0  0  0  0  0  0
    4.8332   68.4149   65.1748 C   0  0  0  0  0  0
   -0.1012   68.9534   66.5659 O   0  0  0  0  0  0
    5.1851   69.4818   66.2238 C   0  0  0  0  0  0
    4.8566   67.7222   62.7929 C   0  0  0  0  0  0
    5.0589   70.1107   63.3703 C   0  0  0  0  0  0
    0.4671   68.2082   63.8596 C   0  0  0  0  0  0
    2.4004   69.3073   62.2227 C   0  0  0  0  0  0
    1.4185   68.0281   68.1379 C   0  0  0  0  0  0
    6.5339   69.7079   66.5138 C   0  0  0  0  0  0
    4.2128   70.1080   67.0048 C   0  0  0  0  0  0
    0.1438   68.5808   62.5669 C   0  0  0  0  0  0
    1.1003   69.1657   61.7550 C   0  0  0  0  0  0
    4.5828   70.9080   68.0865 C   0  0  0  0  0  0
    6.9021   70.5080   67.5830 C   0  0  0  0  0  0
    5.9287   71.1054   68.3679 C   0  0  0  0  0  0
    4.1784   67.6496   65.5677 H   0  0  0  0  0  0
    5.7631   67.8737   64.9987 H   0  0  0  0  0  0
    5.9454   67.7043   62.8553 H   0  0  0  0  0  0
    4.4226   66.7680   63.0945 H   0  0  0  0  0  0
    4.5814   67.9599   61.7645 H   0  0  0  0  0  0
    6.1224   69.9689   63.5726 H   0  0  0  0  0  0
    4.9261   70.3449   62.3162 H   0  0  0  0  0  0
    4.6646   70.9079   63.9952 H   0  0  0  0  0  0
   -0.3202   67.7552   64.4458 H   0  0  0  0  0  0
    3.1188   69.6822   61.5117 H   0  0  0  0  0  0
    1.5428   66.9486   68.2085 H   0  0  0  0  0  0
    2.3437   68.5238   68.4205 H   0  0  0  0  0  0
    0.6540   68.3277   68.8561 H   0  0  0  0  0  0
    7.3156   69.2051   65.9680 H   0  0  0  0  0  0
    3.1675   69.9832   66.7941 H   0  0  0  0  0  0
   -0.8571   68.4072   62.2135 H   0  0  0  0  0  0
    0.8479   69.4599   60.7462 H   0  0  0  0  0  0
    3.8266   71.3733   68.7019 H   0  0  0  0  0  0
    7.9430   70.6265   67.8228 H   0  0  0  0  0  0
    6.2300   71.7092   69.2060 H   0  0  0  0  0  0
  1  2  1  0  0  0
  1  6  1  0  0  0
  1  9  1  0  0  0
  1 10  1  0  0  0
  2  3  2  0  0  0
  2 12  1  0  0  0
  3  4  1  0  0  0
  3 11  1  0  0  0
  4  5  1  0  0  0
  5  7  2  0  0  0
  5 13  1  0  0  0
  6  8  1  0  0  0
  6 21  1  0  0  0
  6 22  1  0  0  0
  8 14  2  0  0  0
  8 15  1  0  0  0
  9 23  1  0  0  0
  9 24  1  0  0  0
  9 25  1  0  0  0
 10 26  1  0  0  0
 10 27  1  0  0  0
 10 28  1  0  0  0
 11 16  2  0  0  0
 11 29  1  0  0  0
 12 17  2  0  0  0
 12 30  1  0  0  0
 13 31  1  0  0  0
 13 32  1  0  0  0
 13 33  1  0  0  0
 14 19  1  0  0  0
 14 34  1  0  0  0
 15 18  2  0  0  0
 15 35  1  0  0  0
 16 17  1  0  0  0
 16 36  1  0  0  0
 17 37  1  0  0  0
 18 20  1  0  0  0
 18 38  1  0  0  0
 19 20  2  0  0  0
 19 39  1  0  0  0
 20 40  1  0  0  0
M  CHG  1   1   1
M  END
> <s_m_entry_id>
8524

> <s_m_entry_name>
dock_pv.34

> <s_m_Source_Path>
/home/csk/Desktop/cluster/DUD-E-result/aces

> <s_m_Source_File>
dock_pv.maegz

> <i_m_Source_File_Index>
34

> <chembl_id>
CHEMBL299898

> <chembl_pref_name>
None

> <i_lp_mmshare_version>
53161

> <i_f3d_flags>
0

> <r_lp_tautomer_probability>
1

> <s_lp_Force_Field>
OPLS_2005

> <r_lp_Energy>
28.918089

> <b_lp_Chiralities_Consistent>
1

> <s_lp_Variant>
CHEMBL220_lig336-1

> <s_i_glide_gridfile>
glide-grid_1e66

> <i_i_glide_lignum>
390

> <i_i_glide_rotatable_bonds>
5

> <r_i_docking_score>
-8.42555445232539

> <r_i_glide_ligand_efficiency>
-0.421277722616269

> <r_i_glide_ligand_efficiency_sa>
-1.14352367060669

> <r_i_glide_ligand_efficiency_ln>
-2.10863838603263

> <r_i_glide_gscore>
-8.42555445232539

> <r_i_glide_lipo>
-3.85325295414383

> <r_i_glide_hbond>
0

> <r_i_glide_metal>
0

> <r_i_glide_rewards>
-3.60775062631022

> <r_i_glide_evdw>
-32.5857696533203

> <r_i_glide_ecoul>
-2.09380865097046

> <r_i_glide_erotb>
0.978808908440251

> <r_i_glide_esite>
0

> <r_i_glide_emodel>
-43.4163996005506

> <r_i_glide_energy>
-34.6795783042908

> <r_i_glide_einternal>
23.5662231445312

> <i_i_glide_confnum>
79

> <i_i_glide_posenum>
256

> <r_i_glide_eff_state_penalty>
0

> <s_user_duplicate_titles>
CHEMBL220_lig336

> <s_m_subgroup_title>
dock_pv

> <s_m_subgroupid>
dock_pv

> <b_m_subgroup_collapsed>
0

$$$$
CHEMBL220_lig829
                    3D
 Schrodinger Suite 2021-1.
 56 60  0  0  1  0            999 V2000
    2.0388   68.6171   62.3854 N   0  0  0  0  0  0
    2.3598   68.6768   63.7358 C   0  0  0  0  0  0
    3.1055   68.8664   61.5925 C   0  0  0  0  0  0
    1.9964   68.9352   66.0774 C   0  0  0  0  0  0
    2.3836   69.7095   68.1653 N   0  0  0  0  0  0
    3.6948   69.0271   63.8728 C   0  0  0  0  0  0
    3.3471   69.3082   66.1950 C   0  0  0  0  0  0
    1.5087   68.5082   64.8325 C   0  0  0  0  0  0
    3.5934   69.7374   67.4607 O   0  0  0  0  0  0
    1.4602   69.2106   67.3694 C   0  0  0  0  0  0
    4.2996   69.1080   62.5101 C   0  0  0  0  0  0
    4.2467   69.3073   65.1240 C   0  0  0  0  0  0
    1.3807   64.3411   70.3379 N   0  0  1  0  0  0
    3.1430   68.9079   60.3678 O   0  0  0  0  0  0
    0.0253   69.0748   67.8324 C   0  0  0  0  0  0
    1.8942   63.5061   71.4306 C   0  0  0  0  0  0
   -0.0574   64.5737   70.4523 C   0  0  0  0  0  0
    2.1225   65.5976   70.2138 C   0  0  0  0  0  0
    0.6969   68.4447   61.8313 C   0  0  0  0  0  0
   -0.4612   67.6155   67.9685 C   0  0  0  0  0  0
    2.7481   62.3474   70.9296 C   0  0  0  0  0  0
    0.0642   66.8050   69.1949 C   0  0  0  0  0  0
   -0.5955   65.4477   69.2862 C   0  0  0  0  0  0
    1.5431   66.5305   69.1332 C   0  0  0  0  0  0
    2.2561   61.4931   69.9382 C   0  0  0  0  0  0
    3.9626   62.0542   71.5590 C   0  0  0  0  0  0
    2.9794   60.3630   69.5685 C   0  0  0  0  0  0
    4.6946   60.9320   71.1792 C   0  0  0  0  0  0
    4.1956   60.0915   70.1871 C   0  0  0  0  0  0
    0.4662   68.2490   64.7119 H   0  0  0  0  0  0
    5.0694   68.3562   62.3348 H   0  0  0  0  0  0
    4.7088   70.0971   62.3024 H   0  0  0  0  0  0
    5.2713   69.6259   65.2511 H   0  0  0  0  0  0
   -0.1216   69.6069   68.7679 H   0  0  0  0  0  0
   -0.6214   69.5929   67.1230 H   0  0  0  0  0  0
    2.4668   64.1033   72.1411 H   0  0  0  0  0  0
    1.0873   63.0659   72.0222 H   0  0  0  0  0  0
   -0.2492   65.0513   71.4155 H   0  0  0  0  0  0
   -0.5830   63.6178   70.4657 H   0  0  0  0  0  0
    2.0911   66.1086   71.1680 H   0  0  0  0  0  0
    3.1717   65.3750   70.0110 H   0  0  0  0  0  0
    0.1322   67.7089   62.4026 H   0  0  0  0  0  0
    0.1537   69.3888   61.8807 H   0  0  0  0  0  0
    0.7146   68.1236   60.7910 H   0  0  0  0  0  0
   -1.5509   67.6339   67.9961 H   0  0  0  0  0  0
   -0.2269   67.0732   67.0505 H   0  0  0  0  0  0
   -0.1089   67.3081   70.1431 H   0  0  0  0  0  0
   -1.6564   65.6515   69.2955 H   0  0  0  0  0  0
   -0.4570   64.9081   68.3680 H   0  0  0  0  0  0
    1.7821   66.1068   68.1576 H   0  0  0  0  0  0
    2.0496   67.4822   69.2033 H   0  0  0  0  0  0
    1.3027   61.6957   69.4714 H   0  0  0  0  0  0
    4.3363   62.6861   72.3495 H   0  0  0  0  0  0
    2.5919   59.6954   68.8117 H   0  0  0  0  0  0
    5.6308   60.7052   71.6680 H   0  0  0  0  0  0
    4.7429   59.2077   69.9040 H   0  0  0  0  0  0
  1  2  1  0  0  0
  1  3  1  0  0  0
  1 19  1  0  0  0
  2  6  1  0  0  0
  2  8  2  0  0  0
  3 11  1  0  0  0
  3 14  2  0  0  0
  4  8  1  0  0  0
  4  7  2  0  0  0
  4 10  1  0  0  0
  5 10  2  0  0  0
  5  9  1  0  0  0
  6 12  2  0  0  0
  6 11  1  0  0  0
  7  9  1  0  0  0
  7 12  1  0  0  0
  8 30  1  0  0  0
 10 15  1  0  0  0
 11 31  1  0  0  0
 11 32  1  0  0  0
 12 33  1  0  0  0
 13 18  1  0  0  0
 13 16  1  0  0  0
 13 17  1  0  0  0
 15 20  1  0  0  0
 15 34  1  0  0  0
 15 35  1  0  0  0
 16 21  1  0  0  0
 16 36  1  0  0  0
 16 37  1  0  0  0
 17 23  1  0  0  0
 17 38  1  0  0  0
 17 39  1  0  0  0
 18 24  1  0  0  0
 18 40  1  0  0  0
 18 41  1  0  0  0
 19 42  1  0  0  0
 19 43  1  0  0  0
 19 44  1  0  0  0
 20 22  1  0  0  0
 20 45  1  0  0  0
 20 46  1  0  0  0
 21 25  2  0  0  0
 21 26  1  0  0  0
 22 23  1  0  0  0
 22 24  1  0  0  0
 22 47  1  0  0  0
 23 48  1  0  0  0
 23 49  1  0  0  0
 24 50  1  0  0  0
 24 51  1  0  0  0
 25 27  1  0  0  0
 25 52  1  0  0  0
 26 28  2  0  0  0
 26 53  1  0  0  0
 27 29  2  0  0  0
 27 54  1  0  0  0
 28 29  1  0  0  0
 28 55  1  0  0  0
 29 56  1  0  0  0
M  END
> <s_m_entry_id>
8525

> <s_m_entry_name>
dock_pv.35

> <s_m_Source_Path>
/home/csk/Desktop/cluster/DUD-E-result/aces

> <s_m_Source_File>
dock_pv.maegz

> <i_m_Source_File_Index>
35

> <chembl_id>
CHEMBL426441

> <chembl_pref_name>
None

> <i_lp_mmshare_version>
53161

> <i_f3d_flags>
0

> <r_lp_tautomer_probability>
1

> <s_lp_Force_Field>
OPLS_2005

> <r_lp_Energy>
49.556302

> <b_lp_Chiralities_Consistent>
1

> <s_lp_Variant>
CHEMBL220_lig829-1

> <s_i_glide_gridfile>
glide-grid_1e66

> <i_i_glide_lignum>
1025

> <i_i_glide_rotatable_bonds>
5

> <r_i_docking_score>
-8.42406011869239

> <r_i_glide_ligand_efficiency>
-0.290484831679048

> <r_i_glide_ligand_efficiency_sa>
-0.892461434972333

> <r_i_glide_ligand_efficiency_ln>
-1.92889615144722

> <r_i_glide_gscore>
-8.42406011869239

> <r_i_glide_lipo>
-4.34794445630531

> <r_i_glide_hbond>
-0.0121778316653436

> <r_i_glide_metal>
0

> <r_i_glide_rewards>
-2.54718593017784

> <r_i_glide_evdw>
-39.6069564819336

> <r_i_glide_ecoul>
-1.19291734695435

> <r_i_glide_erotb>
0.642533525595938

> <r_i_glide_esite>
0

> <r_i_glide_emodel>
-50.337940198003

> <r_i_glide_energy>
-40.7998738288879

> <r_i_glide_einternal>
4.49910068511963

> <i_i_glide_confnum>
3

> <i_i_glide_posenum>
144

> <r_i_glide_eff_state_penalty>
0

> <s_user_duplicate_titles>
CHEMBL220_lig829,313812

> <s_m_subgroup_title>
dock_pv

> <s_m_subgroupid>
dock_pv

> <b_m_subgroup_collapsed>
0

$$$$
CHEMBL220_lig521
                    3D
 Schrodinger Suite 2021-1.
 34 37  0  0  1  0            999 V2000
    4.7956   69.3575   64.8325 C   0  0  0  0  0  0
    3.6036   69.3695   65.5356 C   0  0  0  0  0  0
    2.3901   69.1048   65.0103 N   0  0  0  0  0  0
    4.7625   69.0682   63.4714 C   0  0  0  0  0  0
    3.8478   69.8397   66.8963 C   0  0  0  0  0  0
    5.2145   70.0891   67.0334 C   0  0  0  0  0  0
    5.9359   69.7593   65.7440 C   0  0  0  0  0  0
    3.4899   68.9508   62.8357 C   0  0  0  0  0  0
    2.3208   68.9638   63.6638 C   0  0  0  0  0  0
    5.7258   70.5080   68.2619 C   0  0  0  0  0  0
    5.9587   68.9729   62.7680 N   0  0  0  0  0  0
    2.9623   70.0750   67.9470 C   0  0  0  0  0  0
    7.1019   70.5953   68.3496 O   0  0  0  0  0  0
    3.3205   68.8914   61.4299 C   0  0  0  0  0  0
    1.0372   68.9080   63.0768 C   0  0  0  0  0  0
    3.4608   70.5081   69.1661 C   0  0  0  0  0  0
    4.8330   70.6968   69.3288 C   0  0  0  0  0  0
    7.7113   70.7124   69.6322 C   0  0  0  0  0  0
    2.0425   68.9080   60.8891 C   0  0  0  0  0  0
    0.9149   68.9080   61.6951 C   0  0  0  0  0  0
    6.4739   70.6272   65.3608 H   0  0  0  0  0  0
    6.6748   68.9670   65.8682 H   0  0  0  0  0  0
    5.9460   68.8444   61.7617 H   0  0  0  0  0  0
    6.8163   69.2535   63.2306 H   0  0  0  0  0  0
    1.9008   69.9079   67.8331 H   0  0  0  0  0  0
    4.1815   68.8947   60.7767 H   0  0  0  0  0  0
    0.1568   68.9164   63.7046 H   0  0  0  0  0  0
    2.7767   70.6583   69.9844 H   0  0  0  0  0  0
    5.1924   70.9080   70.3209 H   0  0  0  0  0  0
    8.7430   70.3716   69.5680 H   0  0  0  0  0  0
    7.7242   71.7449   69.9656 H   0  0  0  0  0  0
    7.2451   70.1081   70.4077 H   0  0  0  0  0  0
    1.9119   68.9055   59.8195 H   0  0  0  0  0  0
   -0.0570   68.8953   61.2344 H   0  0  0  0  0  0
  1  2  1  0  0  0
  1  4  2  0  0  0
  1  7  1  0  0  0
  2  3  2  0  0  0
  2  5  1  0  0  0
  3  9  1  0  0  0
  4  8  1  0  0  0
  4 11  1  0  0  0
  5 12  1  0  0  0
  5  6  2  0  0  0
  6  7  1  0  0  0
  6 10  1  0  0  0
  7 21  1  0  0  0
  7 22  1  0  0  0
  8  9  1  0  0  0
  8 14  2  0  0  0
  9 15  2  0  0  0
 10 13  1  0  0  0
 10 17  2  0  0  0
 11 23  1  0  0  0
 11 24  1  0  0  0
 12 16  2  0  0  0
 12 25  1  0  0  0
 13 18  1  0  0  0
 14 19  1  0  0  0
 14 26  1  0  0  0
 15 20  1  0  0  0
 15 27  1  0  0  0
 16 17  1  0  0  0
 16 28  1  0  0  0
 17 29  1  0  0  0
 18 30  1  0  0  0
 18 31  1  0  0  0
 18 32  1  0  0  0
 19 20  2  0  0  0
 19 33  1  0  0  0
 20 34  1  0  0  0
M  END
> <s_m_entry_id>
8526

> <s_m_entry_name>
dock_pv.36

> <s_m_Source_Path>
/home/csk/Desktop/cluster/DUD-E-result/aces

> <s_m_Source_File>
dock_pv.maegz

> <i_m_Source_File_Index>
36

> <chembl_id>
CHEMBL64615

> <chembl_pref_name>
None

> <i_lp_mmshare_version>
53161

> <i_f3d_flags>
0

> <r_lp_tautomer_probability>
1

> <s_lp_Force_Field>
OPLS_2005

> <r_lp_Energy>
39.432145

> <b_lp_Chiralities_Consistent>
1

> <s_lp_Variant>
CHEMBL220_lig521-1

> <s_i_glide_gridfile>
glide-grid_1e66

> <i_i_glide_lignum>
602

> <i_i_glide_rotatable_bonds>
1

> <r_i_docking_score>
-8.41279281902817

> <r_i_glide_ligand_efficiency>
-0.420639640951409

> <r_i_glide_ligand_efficiency_sa>
-1.14179165049649

> <r_i_glide_ligand_efficiency_ln>
-2.10544457012518

> <r_i_glide_gscore>
-8.41279281902817

> <r_i_glide_lipo>
-3.97084160537385

> <r_i_glide_hbond>
-0.317425951501034

> <r_i_glide_metal>
0

> <r_i_glide_rewards>
-2.21230853030303

> <r_i_glide_evdw>
-27.4166603088379

> <r_i_glide_ecoul>
-3.48140048980713

> <r_i_glide_erotb>
0

> <r_i_glide_esite>
-0.019173642937292

> <r_i_glide_emodel>
-43.2413129399519

> <r_i_glide_energy>
-30.898060798645

> <r_i_glide_einternal>
0.179845318198204

> <i_i_glide_confnum>
1

> <i_i_glide_posenum>
115

> <r_i_glide_eff_state_penalty>
0

> <s_user_duplicate_titles>
CHEMBL220_lig521

> <s_m_subgroup_title>
dock_pv

> <s_m_subgroupid>
dock_pv

> <b_m_subgroup_collapsed>
0

$$$$
CHEMBL220_lig413
                    3D
 Schrodinger Suite 2021-1.
 49 52  0  0  1  0            999 V2000
    3.9769   68.4818   62.2684 C   0  0  0  0  0  0
    3.3095   69.3015   61.3601 C   0  0  0  0  0  0
    1.9858   69.6956   61.5680 C   0  0  0  0  0  0
    1.2559   69.2688   62.6679 C   0  0  0  0  0  0
    3.2292   68.0460   63.3643 C   0  0  0  0  0  0
    1.8886   68.4056   63.5644 C   0  0  0  0  0  0
    1.5045   67.6675   64.7050 C   0  0  0  0  0  0
    2.5125   66.9551   65.1681 N   0  0  0  0  0  0
    3.6241   67.1910   64.3467 O   0  0  0  0  0  0
    0.0991   67.5663   65.2411 C   0  0  0  0  0  0
   -0.2999   68.5818   66.3294 C   0  0  0  0  0  0
   -0.1986   68.0679   67.7721 C   0  0  0  0  0  0
   -1.1790   66.9081   68.1010 C   0  0  0  0  0  0
   -0.8338   66.0736   69.3555 C   0  0  0  0  0  0
    0.5872   65.8225   69.5682 N   0  0  1  0  0  0
    1.3309   67.0762   69.5901 C   0  0  0  0  0  0
    1.2234   67.7189   68.2026 C   0  0  0  0  0  0
    0.8486   64.9858   70.7408 C   0  0  0  0  0  0
    1.8672   63.9041   70.4133 C   0  0  0  0  0  0
    3.2364   64.1834   70.4549 C   0  0  0  0  0  0
    4.1563   63.2034   70.0930 C   0  0  0  0  0  0
    3.7034   61.9522   69.6768 C   0  0  0  0  0  0
    2.3409   61.6756   69.6074 C   0  0  0  0  0  0
    1.4217   62.6562   69.9681 C   0  0  0  0  0  0
    3.9430   69.7080   60.2235 O   0  0  0  0  0  0
    5.0010   68.1734   62.1170 H   0  0  0  0  0  0
    1.4925   70.3233   60.8429 H   0  0  0  0  0  0
    0.2222   69.5579   62.7973 H   0  0  0  0  0  0
   -0.5866   67.7081   64.4053 H   0  0  0  0  0  0
   -0.0570   66.5417   65.5680 H   0  0  0  0  0  0
    0.2945   69.4873   66.2422 H   0  0  0  0  0  0
   -1.3305   68.8982   66.1566 H   0  0  0  0  0  0
   -0.4570   68.9132   68.4011 H   0  0  0  0  0  0
   -2.2140   67.2523   68.1013 H   0  0  0  0  0  0
   -1.1520   66.1648   67.3083 H   0  0  0  0  0  0
   -1.2570   66.5146   70.2526 H   0  0  0  0  0  0
   -1.2570   65.0794   69.2302 H   0  0  0  0  0  0
    0.9351   67.7080   70.3829 H   0  0  0  0  0  0
    2.3755   66.8931   69.8257 H   0  0  0  0  0  0
    1.5430   66.9663   67.4919 H   0  0  0  0  0  0
    1.8922   68.5739   68.0970 H   0  0  0  0  0  0
    1.2003   65.5980   71.5680 H   0  0  0  0  0  0
   -0.0635   64.4912   71.0776 H   0  0  0  0  0  0
    3.5881   65.1565   70.7668 H   0  0  0  0  0  0
    5.2139   63.4180   70.1292 H   0  0  0  0  0  0
    4.4106   61.1874   69.3963 H   0  0  0  0  0  0
    1.9962   60.7080   69.2725 H   0  0  0  0  0  0
    0.3635   62.4483   69.8964 H   0  0  0  0  0  0
    4.7925   69.2518   60.0544 H   0  0  0  0  0  0
  1  2  2  0  0  0
  1  5  1  0  0  0
  1 26  1  0  0  0
  2  3  1  0  0  0
  2 25  1  0  0  0
  3  4  2  0  0  0
  3 27  1  0  0  0
  4  6  1  0  0  0
  4 28  1  0  0  0
  5  9  1  0  0  0
  5  6  2  0  0  0
  6  7  1  0  0  0
  7  8  2  0  0  0
  7 10  1  0  0  0
  8  9  1  0  0  0
 10 11  1  0  0  0
 10 29  1  0  0  0
 10 30  1  0  0  0
 11 12  1  0  0  0
 11 31  1  0  0  0
 11 32  1  0  0  0
 12 13  1  0  0  0
 12 17  1  0  0  0
 12 33  1  0  0  0
 13 14  1  0  0  0
 13 34  1  0  0  0
 13 35  1  0  0  0
 14 15  1  0  0  0
 14 36  1  0  0  0
 14 37  1  0  0  0
 15 16  1  0  0  0
 15 18  1  0  0  0
 16 17  1  0  0  0
 16 38  1  0  0  0
 16 39  1  0  0  0
 17 40  1  0  0  0
 17 41  1  0  0  0
 18 19  1  0  0  0
 18 42  1  0  0  0
 18 43  1  0  0  0
 19 20  2  0  0  0
 19 24  1  0  0  0
 20 21  1  0  0  0
 20 44  1  0  0  0
 21 22  2  0  0  0
 21 45  1  0  0  0
 22 23  1  0  0  0
 22 46  1  0  0  0
 23 24  2  0  0  0
 23 47  1  0  0  0
 24 48  1  0  0  0
 25 49  1  0  0  0
M  END
> <s_m_entry_id>
8527

> <s_m_entry_name>
dock_pv.37

> <s_m_Source_Path>
/home/csk/Desktop/cluster/DUD-E-result/aces

> <s_m_Source_File>
dock_pv.maegz

> <i_m_Source_File_Index>
37

> <chembl_id>
CHEMBL92463

> <chembl_pref_name>
None

> <i_lp_mmshare_version>
53161

> <i_f3d_flags>
0

> <r_lp_tautomer_probability>
1

> <s_lp_Force_Field>
OPLS_2005

> <r_lp_Energy>
30.303031

> <b_lp_Chiralities_Consistent>
1

> <s_lp_Variant>
CHEMBL220_lig413-1

> <s_i_glide_gridfile>
glide-grid_1e66

> <i_i_glide_lignum>
472

> <i_i_glide_rotatable_bonds>
6

> <r_i_docking_score>
-8.40817369284524

> <r_i_glide_ligand_efficiency>
-0.33632694771381

> <r_i_glide_ligand_efficiency_sa>
-0.983425959898995

> <r_i_glide_ligand_efficiency_ln>
-1.99298913783695

> <r_i_glide_gscore>
-8.40817369284524

> <r_i_glide_lipo>
-4.05741492051415

> <r_i_glide_hbond>
-0.362717445535175

> <r_i_glide_metal>
0

> <r_i_glide_rewards>
-1.91247745278164

> <r_i_glide_evdw>
-33.0301170349121

> <r_i_glide_ecoul>
-8.38918590545654

> <r_i_glide_erotb>
0.834319863549808

> <r_i_glide_esite>
0

> <r_i_glide_emodel>
-57.8575108191572

> <r_i_glide_energy>
-41.4193029403687

> <r_i_glide_einternal>
8.26889419555664

> <i_i_glide_confnum>
146

> <i_i_glide_posenum>
266

> <r_i_glide_eff_state_penalty>
0

> <s_user_duplicate_titles>
CHEMBL220_lig413,149804

> <s_m_subgroup_title>
dock_pv

> <s_m_subgroupid>
dock_pv

> <b_m_subgroup_collapsed>
0

$$$$
CHEMBL220_lig705
                    3D
 Schrodinger Suite 2021-1.
 60 62  0  0  1  0            999 V2000
    0.3412   68.7254   63.6395 C   0  0  0  0  0  0
   -1.0741   68.2682   65.6153 C   0  0  0  0  0  0
   -2.4235   68.4128   66.2430 N   0  3  0  0  0  0
    0.4409   69.3506   62.2880 N   0  3  0  0  0  0
   -0.8894   68.7520   64.3080 C   0  0  0  0  0  0
    1.4452   68.1792   64.3179 C   0  0  0  0  0  0
    0.0259   67.6610   66.2602 C   0  0  0  0  0  0
    1.2589   67.6258   65.5898 C   0  0  0  0  0  0
    2.2058   60.4283   71.4917 C   0  0  0  0  0  0
    2.5314   61.7486   71.5162 O   0  0  0  0  0  0
    2.7278   68.2555   63.7414 N   0  0  0  0  0  0
    1.3803   62.4725   71.5449 C   0  0  0  0  0  0
    0.8249   60.3171   71.5680 C   0  0  0  0  0  0
    1.4068   69.1138   61.5677 O   0  5  0  0  0  0
   -3.3282   68.8976   65.5700 O   0  5  0  0  0  0
    0.2983   61.6096   71.5679 C   0  0  0  0  0  0
   -0.4573   70.1060   61.9329 O   0  0  0  0  0  0
   -2.6054   68.0625   67.4044 O   0  0  0  0  0  0
    3.6695   69.3092   66.3672 N   0  0  0  0  0  0
    3.3390   59.4032   71.5203 C   0  0  0  0  0  0
   -0.1182   67.0721   67.5390 N   0  0  0  0  0  0
    4.5281   59.7085   70.7082 N   0  0  0  0  0  0
    3.9832   67.8709   64.3838 C   0  0  0  0  0  0
    4.5124   68.9042   65.3806 C   0  0  0  0  0  0
    2.1311   64.7863   70.1262 S   0  0  0  0  0  0
    1.5363   63.9694   71.6372 C   0  0  0  0  0  0
    4.1615   70.1080   67.3473 C   0  0  0  0  0  0
    1.0133   66.6269   68.3504 C   0  0  0  0  0  0
    0.6619   65.6788   69.5131 C   0  0  0  0  0  0
    4.2196   59.9937   69.3104 C   0  0  0  0  0  0
    5.3916   60.7285   71.3026 C   0  0  0  0  0  0
    5.8579   69.2810   65.3551 C   0  0  0  0  0  0
    5.4918   70.5261   67.3876 C   0  0  0  0  0  0
    6.3470   70.1081   66.3679 C   0  0  0  0  0  0
   -1.7338   69.1944   63.7971 H   0  0  0  0  0  0
    2.1140   67.1887   66.0703 H   0  0  0  0  0  0
    2.7815   68.6424   62.8068 H   0  0  0  0  0  0
    0.2583   59.3982   71.6091 H   0  0  0  0  0  0
   -0.7464   61.8831   71.6146 H   0  0  0  0  0  0
    2.9466   58.4486   71.1647 H   0  0  0  0  0  0
    3.6487   59.2191   72.5509 H   0  0  0  0  0  0
   -1.0011   67.2413   68.0057 H   0  0  0  0  0  0
    3.9088   66.8993   64.8705 H   0  0  0  0  0  0
    4.7214   67.7413   63.5911 H   0  0  0  0  0  0
    0.6551   64.4716   72.0380 H   0  0  0  0  0  0
    2.3272   64.1080   72.3682 H   0  0  0  0  0  0
    3.4626   70.4139   68.1131 H   0  0  0  0  0  0
    1.5430   67.5046   68.7235 H   0  0  0  0  0  0
    1.7131   66.1078   67.7059 H   0  0  0  0  0  0
   -0.0588   64.9312   69.1778 H   0  0  0  0  0  0
    0.1957   66.2326   70.3294 H   0  0  0  0  0  0
    3.6480   59.1786   68.8625 H   0  0  0  0  0  0
    5.1396   60.1077   68.7402 H   0  0  0  0  0  0
    3.6413   60.9141   69.2028 H   0  0  0  0  0  0
    5.6224   60.4878   72.3415 H   0  0  0  0  0  0
    6.3423   60.7788   70.7697 H   0  0  0  0  0  0
    4.9422   61.7222   71.2738 H   0  0  0  0  0  0
    6.5202   68.9212   64.5809 H   0  0  0  0  0  0
    5.8486   71.1608   68.1865 H   0  0  0  0  0  0
    7.3850   70.4081   66.3684 H   0  0  0  0  0  0
  1  4  1  0  0  0
  1  5  1  0  0  0
  1  6  2  0  0  0
  2  5  2  0  0  0
  2  3  1  0  0  0
  2  7  1  0  0  0
  3 15  1  0  0  0
  3 18  2  0  0  0
  4 14  1  0  0  0
  4 17  2  0  0  0
  5 35  1  0  0  0
  6  8  1  0  0  0
  6 11  1  0  0  0
  7  8  2  0  0  0
  7 21  1  0  0  0
  8 36  1  0  0  0
  9 10  1  0  0  0
  9 20  1  0  0  0
  9 13  2  0  0  0
 10 12  1  0  0  0
 11 23  1  0  0  0
 11 37  1  0  0  0
 12 26  1  0  0  0
 12 16  2  0  0  0
 13 16  1  0  0  0
 13 38  1  0  0  0
 16 39  1  0  0  0
 19 24  2  0  0  0
 19 27  1  0  0  0
 20 22  1  0  0  0
 20 40  1  0  0  0
 20 41  1  0  0  0
 21 28  1  0  0  0
 21 42  1  0  0  0
 22 30  1  0  0  0
 22 31  1  0  0  0
 23 24  1  0  0  0
 23 43  1  0  0  0
 23 44  1  0  0  0
 24 32  1  0  0  0
 25 29  1  0  0  0
 25 26  1  0  0  0
 26 45  1  0  0  0
 26 46  1  0  0  0
 27 33  2  0  0  0
 27 47  1  0  0  0
 28 29  1  0  0  0
 28 48  1  0  0  0
 28 49  1  0  0  0
 29 50  1  0  0  0
 29 51  1  0  0  0
 30 52  1  0  0  0
 30 53  1  0  0  0
 30 54  1  0  0  0
 31 55  1  0  0  0
 31 56  1  0  0  0
 31 57  1  0  0  0
 32 34  2  0  0  0
 32 58  1  0  0  0
 33 34  1  0  0  0
 33 59  1  0  0  0
 34 60  1  0  0  0
M  CHG  4   3   1   4   1  14  -1  15  -1
M  END
> <s_m_entry_id>
8528

> <s_m_entry_name>
dock_pv.38

> <s_m_Source_Path>
/home/csk/Desktop/cluster/DUD-E-result/aces

> <s_m_Source_File>
dock_pv.maegz

> <i_m_Source_File_Index>
38

> <chembl_id>
CHEMBL106344

> <chembl_pref_name>
None

> <i_lp_mmshare_version>
53161

> <i_f3d_flags>
0

> <r_lp_tautomer_probability>
1

> <s_lp_Force_Field>
OPLS_2005

> <r_lp_Energy>
26.789707

> <b_lp_Chiralities_Consistent>
1

> <s_lp_Variant>
CHEMBL220_lig705-1

> <s_i_glide_gridfile>
glide-grid_1e66

> <i_i_glide_lignum>
835

> <i_i_glide_rotatable_bonds>
13

> <r_i_docking_score>
-8.40373127766989

> <r_i_glide_ligand_efficiency>
-0.247168566990291

> <r_i_glide_ligand_efficiency_sa>
-0.800730205585369

> <r_i_glide_ligand_efficiency_ln>
-1.85661995591536

> <r_i_glide_gscore>
-8.40373127766989

> <r_i_glide_lipo>
-3.92360321293573

> <r_i_glide_hbond>
-0.276362522557283

> <r_i_glide_metal>
0

> <r_i_glide_rewards>
-1.89173836363636

> <r_i_glide_evdw>
-57.9889373779297

> <r_i_glide_ecoul>
-1.80722010135651

> <r_i_glide_erotb>
0.858502705559452

> <r_i_glide_esite>
0

> <r_i_glide_emodel>
-83.4849405218342

> <r_i_glide_energy>
-59.7961574792862

> <r_i_glide_einternal>
12.6716499328613

> <i_i_glide_confnum>
253

> <i_i_glide_posenum>
286

> <r_i_glide_eff_state_penalty>
0

> <s_user_duplicate_titles>
CHEMBL220_lig705

> <s_m_subgroup_title>
dock_pv

> <s_m_subgroupid>
dock_pv

> <b_m_subgroup_collapsed>
0

$$$$
CHEMBL220_lig846
                    3D
 Schrodinger Suite 2021-1.
 50 52  0  0  1  0            999 V2000
    1.1418   69.2229   67.6153 S   0  0  0  0  0  0
    2.3275   69.0710   66.3233 C   0  0  0  0  0  0
    2.1832   63.0986   70.5685 N   0  3  0  0  0  0
    1.8311   68.4298   65.1842 C   0  0  0  0  0  0
   -0.2047   68.6343   66.5620 C   0  0  1  0  0  0
    3.6488   69.5045   66.3729 C   0  0  0  0  0  0
    0.3952   67.9637   65.3154 C   0  0  0  0  0  0
    4.5162   69.2852   65.2950 C   0  0  0  0  0  0
    2.6864   68.2088   64.1030 C   0  0  0  0  0  0
    4.0153   68.6484   64.1459 C   0  0  0  0  0  0
   -1.1799   67.7856   67.4047 C   0  0  0  0  0  0
   -2.3594   68.1155   67.5033 O   0  0  0  0  0  0
   -0.7084   66.4801   68.0631 C   0  0  0  0  0  0
    0.8560   62.9770   70.3215 C   0  0  0  0  0  0
    2.8111   64.3013   70.4976 C   0  0  0  0  0  0
    3.2445   61.0089   69.7204 C   0  0  0  0  0  0
    2.9079   59.7103   69.6179 C   0  0  0  0  0  0
    2.9475   61.8811   70.9304 C   0  0  0  0  0  0
    0.7199   65.3544   69.8790 C   0  0  0  0  0  0
   -0.0741   66.5952   69.4765 C   0  0  0  0  0  0
    5.8538   69.6415   65.3056 O   0  0  0  0  0  0
    4.8248   68.4070   63.0618 O   0  0  0  0  0  0
    2.0883   65.4481   70.1563 C   0  0  0  0  0  0
    0.1047   64.1004   69.9680 C   0  0  0  0  0  0
    5.1587   69.5624   62.2996 C   0  0  0  0  0  0
    6.3965   70.3057   66.4416 C   0  0  0  0  0  0
   -0.7438   69.5326   66.2569 H   0  0  0  0  0  0
    3.9994   69.9908   67.2705 H   0  0  0  0  0  0
    0.3577   66.8774   65.3917 H   0  0  0  0  0  0
   -0.1903   68.2323   64.4384 H   0  0  0  0  0  0
    2.3294   67.7084   63.2174 H   0  0  0  0  0  0
   -0.0445   65.9827   67.3665 H   0  0  0  0  0  0
   -1.5939   65.8554   68.1521 H   0  0  0  0  0  0
    0.4371   61.9813   70.3917 H   0  0  0  0  0  0
    3.8715   64.3203   70.7143 H   0  0  0  0  0  0
    3.7668   61.4833   68.9025 H   0  0  0  0  0  0
    2.3896   59.1955   70.4152 H   0  0  0  0  0  0
    3.1431   59.1353   68.7343 H   0  0  0  0  0  0
    2.3685   61.3555   71.6929 H   0  0  0  0  0  0
    3.8832   62.2047   71.3915 H   0  0  0  0  0  0
   -0.8578   66.7133   70.2247 H   0  0  0  0  0  0
    0.5499   67.4818   69.5787 H   0  0  0  0  0  0
    2.5918   66.4042   70.1083 H   0  0  0  0  0  0
   -0.9442   63.9884   69.7355 H   0  0  0  0  0  0
    5.9214   69.3064   61.5692 H   0  0  0  0  0  0
    4.2875   69.9399   61.7616 H   0  0  0  0  0  0
    5.5628   70.3708   62.9105 H   0  0  0  0  0  0
    7.4558   70.5028   66.2744 H   0  0  0  0  0  0
    5.9067   71.2653   66.6092 H   0  0  0  0  0  0
    6.3189   69.6991   67.3444 H   0  0  0  0  0  0
  1  2  1  0  0  0
  1  5  1  0  0  0
  2  4  2  0  0  0
  2  6  1  0  0  0
  3 14  2  0  0  0
  3 18  1  0  0  0
  3 15  1  0  0  0
  4  9  1  0  0  0
  4  7  1  0  0  0
  5  7  1  0  0  0
  5 11  1  0  0  0
  5 27  1  0  0  0
  6  8  2  0  0  0
  6 28  1  0  0  0
  7 29  1  0  0  0
  7 30  1  0  0  0
  8 10  1  0  0  0
  8 21  1  0  0  0
  9 10  2  0  0  0
  9 31  1  0  0  0
 10 22  1  0  0  0
 11 12  2  0  0  0
 11 13  1  0  0  0
 13 20  1  0  0  0
 13 32  1  0  0  0
 13 33  1  0  0  0
 14 24  1  0  0  0
 14 34  1  0  0  0
 15 23  2  0  0  0
 15 35  1  0  0  0
 16 18  1  0  0  0
 16 17  2  0  0  0
 16 36  1  0  0  0
 17 37  1  0  0  0
 17 38  1  0  0  0
 18 39  1  0  0  0
 18 40  1  0  0  0
 19 20  1  0  0  0
 19 23  1  0  0  0
 19 24  2  0  0  0
 20 41  1  0  0  0
 20 42  1  0  0  0
 21 26  1  0  0  0
 22 25  1  0  0  0
 23 43  1  0  0  0
 24 44  1  0  0  0
 25 45  1  0  0  0
 25 46  1  0  0  0
 25 47  1  0  0  0
 26 48  1  0  0  0
 26 49  1  0  0  0
 26 50  1  0  0  0
M  CHG  1   3   1
M  END
> <s_m_entry_id>
8529

> <s_m_entry_name>
dock_pv.39

> <s_m_Source_Path>
/home/csk/Desktop/cluster/DUD-E-result/aces

> <s_m_Source_File>
dock_pv.maegz

> <i_m_Source_File_Index>
39

> <chembl_id>
CHEMBL189122

> <chembl_pref_name>
None

> <i_lp_mmshare_version>
53161

> <i_f3d_flags>
0

> <r_lp_tautomer_probability>
0.999999960000001

> <s_lp_Force_Field>
OPLS_2005

> <r_lp_Energy>
35.375457

> <b_lp_Chiralities_Consistent>
1

> <s_lp_Variant>
CHEMBL220_lig846-2

> <s_i_glide_gridfile>
glide-grid_1e66

> <i_i_glide_lignum>
1097

> <i_i_glide_rotatable_bonds>
8

> <r_i_docking_score>
-8.39627095209239

> <r_i_glide_ligand_efficiency>
-0.322933498157399

> <r_i_glide_ligand_efficiency_sa>
-0.95668921760934

> <r_i_glide_ligand_efficiency_ln>
-1.97183668268679

> <r_i_glide_gscore>
-8.39627095209239

> <r_i_glide_lipo>
-4.2839627901901

> <r_i_glide_hbond>
0

> <r_i_glide_metal>
0

> <r_i_glide_rewards>
-2.36703306390249

> <r_i_glide_evdw>
-44.1478843688965

> <r_i_glide_ecoul>
-2.54141807556152

> <r_i_glide_erotb>
0.843331831779265

> <r_i_glide_esite>
0

> <r_i_glide_emodel>
-67.7054191995405

> <r_i_glide_energy>
-46.689302444458

> <r_i_glide_einternal>
11.0489501953125

> <i_i_glide_confnum>
4

> <i_i_glide_posenum>
67

> <r_i_glide_eff_state_penalty>
0

> <s_user_duplicate_titles>
CHEMBL220_lig846,313661

> <s_m_subgroup_title>
dock_pv

> <s_m_subgroupid>
dock_pv

> <b_m_subgroup_collapsed>
0

$$$$
CHEMBL220_lig682
                    3D
 Schrodinger Suite 2021-1.
 57 60  0  0  1  0            999 V2000
    0.0908   68.2024   66.0470 N   0  3  2  0  0  0
    2.0060   63.1563   70.3868 C   0  0  0  0  0  0
    3.0869   63.1877   71.2821 C   0  0  0  0  0  0
    3.9924   62.1236   71.3262 C   0  0  0  0  0  0
    0.9457   64.2136   70.3892 C   0  0  0  0  0  0
    3.8264   61.0575   70.4658 C   0  0  0  0  0  0
    4.7684   60.0768   70.6145 O   0  0  0  0  0  0
    0.4882   68.1604   64.5250 C   0  0  0  0  0  0
    1.8611   62.0507   69.5358 C   0  0  0  0  0  0
   -0.1833   64.0221   69.9449 O   0  0  0  0  0  0
    2.7713   60.9912   69.5674 C   0  0  0  0  0  0
    1.3347   65.6136   70.8902 C   0  0  0  0  0  0
    1.2749   68.7464   66.9127 C   0  0  0  0  0  0
   -0.3539   66.7807   66.4946 C   0  0  0  0  0  0
    0.6072   66.8424   70.2880 C   0  0  0  0  0  0
    5.6797   60.5078   71.6241 C   0  0  0  0  0  0
   -1.1543   69.1146   66.2267 C   0  0  0  0  0  0
    1.9734   68.1172   64.1324 C   0  0  0  0  0  0
    0.7313   67.0720   68.7600 C   0  0  2  0  0  0
    1.0169   68.5525   68.4147 C   0  0  0  0  0  0
   -0.5586   66.7039   68.0213 C   0  0  0  0  0  0
    5.1386   61.8070   72.2334 C   0  0  0  0  0  0
    2.7515   66.9815   64.3773 C   0  0  0  0  0  0
    2.5438   69.2181   63.4873 C   0  0  0  0  0  0
    3.8790   69.1890   63.0901 C   0  0  0  0  0  0
    4.0845   66.9459   63.9682 C   0  0  0  0  0  0
    4.6418   68.0501   63.3275 C   0  0  0  0  0  0
    3.1954   64.0131   71.9669 H   0  0  0  0  0  0
   -0.0356   67.3120   64.0843 H   0  0  0  0  0  0
    0.0327   69.0440   64.0761 H   0  0  0  0  0  0
    1.0338   62.0088   68.8434 H   0  0  0  0  0  0
    2.6357   60.1420   68.9163 H   0  0  0  0  0  0
    1.1428   65.5999   71.9631 H   0  0  0  0  0  0
    2.4048   65.7481   70.7354 H   0  0  0  0  0  0
    2.1650   68.1746   66.6572 H   0  0  0  0  0  0
    1.4489   69.7855   66.6417 H   0  0  0  0  0  0
    0.4321   66.1081   66.1659 H   0  0  0  0  0  0
   -1.2776   66.5398   65.9702 H   0  0  0  0  0  0
   -0.4367   66.8581   70.6063 H   0  0  0  0  0  0
    1.0537   67.7069   70.7680 H   0  0  0  0  0  0
    6.6454   60.7096   71.1629 H   0  0  0  0  0  0
    5.7946   59.7181   72.3660 H   0  0  0  0  0  0
   -0.8616   70.1082   65.9280 H   0  0  0  0  0  0
   -1.9506   68.7433   65.5777 H   0  0  0  0  0  0
   -1.4759   69.1394   67.2651 H   0  0  0  0  0  0
    1.5393   66.4521   68.3745 H   0  0  0  0  0  0
    0.2199   69.2066   68.7664 H   0  0  0  0  0  0
    1.8965   68.8931   68.9679 H   0  0  0  0  0  0
   -0.8564   65.7019   68.2917 H   0  0  0  0  0  0
   -1.4062   67.2958   68.3632 H   0  0  0  0  0  0
    4.7927   61.6195   73.2521 H   0  0  0  0  0  0
    5.9250   62.5602   72.2872 H   0  0  0  0  0  0
    2.3221   66.1215   64.8693 H   0  0  0  0  0  0
    1.9581   70.1034   63.2903 H   0  0  0  0  0  0
    4.3185   70.0434   62.5952 H   0  0  0  0  0  0
    4.6823   66.0678   64.1525 H   0  0  0  0  0  0
    5.6751   68.0325   63.0109 H   0  0  0  0  0  0
  1  8  1  0  0  0
  1 13  1  0  0  0
  1 14  1  0  0  0
  1 17  1  0  0  0
  2  5  1  0  0  0
  2  3  2  0  0  0
  2  9  1  0  0  0
  3  4  1  0  0  0
  3 28  1  0  0  0
  4 22  1  0  0  0
  4  6  2  0  0  0
  5 12  1  0  0  0
  5 10  2  0  0  0
  6 11  1  0  0  0
  6  7  1  0  0  0
  7 16  1  0  0  0
  8 18  1  0  0  0
  8 29  1  0  0  0
  8 30  1  0  0  0
  9 11  2  0  0  0
  9 31  1  0  0  0
 11 32  1  0  0  0
 12 15  1  0  0  0
 12 33  1  0  0  0
 12 34  1  0  0  0
 13 20  1  0  0  0
 13 35  1  0  0  0
 13 36  1  0  0  0
 14 21  1  0  0  0
 14 37  1  0  0  0
 14 38  1  0  0  0
 15 19  1  0  0  0
 15 39  1  0  0  0
 15 40  1  0  0  0
 16 22  1  0  0  0
 16 41  1  0  0  0
 16 42  1  0  0  0
 17 43  1  0  0  0
 17 44  1  0  0  0
 17 45  1  0  0  0
 18 23  1  0  0  0
 18 24  2  0  0  0
 19 21  1  0  0  0
 19 20  1  0  0  0
 19 46  1  0  0  0
 20 47  1  0  0  0
 20 48  1  0  0  0
 21 49  1  0  0  0
 21 50  1  0  0  0
 22 51  1  0  0  0
 22 52  1  0  0  0
 23 26  2  0  0  0
 23 53  1  0  0  0
 24 25  1  0  0  0
 24 54  1  0  0  0
 25 27  2  0  0  0
 25 55  1  0  0  0
 26 27  1  0  0  0
 26 56  1  0  0  0
 27 57  1  0  0  0
M  CHG  1   1   1
M  END
> <s_m_entry_id>
8530

> <s_m_entry_name>
dock_pv.40

> <s_m_Source_Path>
/home/csk/Desktop/cluster/DUD-E-result/aces

> <s_m_Source_File>
dock_pv.maegz

> <i_m_Source_File_Index>
40

> <chembl_id>
CHEMBL86835

> <chembl_pref_name>
None

> <i_lp_mmshare_version>
53161

> <i_f3d_flags>
0

> <r_lp_tautomer_probability>
0.99990000499975

> <s_lp_Force_Field>
OPLS_2005

> <r_lp_Energy>
51.094445

> <b_lp_Chiralities_Consistent>
1

> <s_lp_Variant>
CHEMBL220_lig682-1

> <s_i_glide_gridfile>
glide-grid_1e66

> <i_i_glide_lignum>
806

> <i_i_glide_rotatable_bonds>
6

> <r_i_docking_score>
-8.38707267917531

> <r_i_glide_ligand_efficiency>
-0.310632321450937

> <r_i_glide_ligand_efficiency_sa>
-0.931896963329019

> <r_i_glide_ligand_efficiency_ln>
-1.95237224801238

> <r_i_glide_gscore>
-8.38707267917531

> <r_i_glide_lipo>
-3.93482128180882

> <r_i_glide_hbond>
-0.293857383384086

> <r_i_glide_metal>
0

> <r_i_glide_rewards>
-2.33631339024578

> <r_i_glide_evdw>
-38.9319305419922

> <r_i_glide_ecoul>
-3.99337434768677

> <r_i_glide_erotb>
0.723522055515995

> <r_i_glide_esite>
0

> <r_i_glide_emodel>
-61.7684446005198

> <r_i_glide_energy>
-42.925304889679

> <r_i_glide_einternal>
10.7682809829712

> <i_i_glide_confnum>
14

> <i_i_glide_posenum>
80

> <r_i_glide_eff_state_penalty>
0

> <s_user_duplicate_titles>
CHEMBL220_lig682,CHEMBL220_lig681,139489

> <s_m_subgroup_title>
dock_pv

> <s_m_subgroupid>
dock_pv

> <b_m_subgroup_collapsed>
0

$$$$
CHEMBL220_lig260
                    3D
 Schrodinger Suite 2021-1.
 53 56  0  0  1  0            999 V2000
    4.7729   66.7689   63.1161 C   0  0  0  0  0  0
    4.5839   65.3885   63.3812 N   0  3  0  0  0  0
    0.6319   66.0440   69.6583 C   0  0  0  0  0  0
    0.3430   65.5210   71.2902 S   0  0  0  0  0  0
    1.6027   64.3083   71.1698 C   0  0  0  0  0  0
    1.7568   65.4842   69.1683 C   0  0  0  0  0  0
    5.1598   67.5606   64.1418 O   0  0  0  0  0  0
    4.3350   69.7684   65.6898 N   0  3  0  0  0  0
    2.3326   64.4642   69.9692 C   0  0  0  0  0  0
    4.6515   67.5368   61.9684 C   0  0  0  0  0  0
    5.3134   68.8204   63.6577 C   0  0  0  0  0  0
    1.9073   63.3082   72.1047 C   0  0  0  0  0  0
   -0.3095   66.8501   68.8932 C   0  0  0  0  0  0
    2.9831   62.4502   71.8429 C   0  0  0  0  0  0
    3.4126   63.6035   69.7291 C   0  0  0  0  0  0
    5.0333   68.8347   62.3097 C   0  0  0  0  0  0
    3.7100   62.6042   70.6569 C   0  0  0  0  0  0
    5.1195   64.9030   64.3677 O   0  5  0  0  0  0
    3.9432   64.7530   62.5619 O   0  0  0  0  0  0
    5.4393   69.8991   64.7042 C   0  0  0  0  0  0
   -1.4807   66.5077   68.7683 O   0  0  0  0  0  0
    0.0864   68.1689   68.2160 C   0  0  0  0  0  0
    3.1184   69.3080   65.2860 C   0  0  0  0  0  0
    4.5585   70.1080   66.9802 C   0  0  0  0  0  0
    2.3516   69.3098   67.5585 C   0  0  0  0  0  0
    1.3957   68.8856   68.6542 C   0  0  0  0  0  0
    3.3847   61.4425   72.7032 O   0  0  0  0  0  0
    4.7397   61.7510   70.3675 O   0  0  0  0  0  0
    2.1280   69.0279   66.2091 C   0  0  0  0  0  0
    3.5428   69.9500   67.9253 C   0  0  0  0  0  0
    2.6781   61.2278   73.9194 C   0  0  0  0  0  0
    4.3140   60.4910   69.8623 C   0  0  0  0  0  0
    1.9579   65.7081   68.1466 H   0  0  0  0  0  0
    4.3429   67.2100   60.9882 H   0  0  0  0  0  0
    1.3223   63.2232   73.0078 H   0  0  0  0  0  0
    3.9972   63.6881   68.8270 H   0  0  0  0  0  0
    5.0350   69.6982   61.6590 H   0  0  0  0  0  0
    5.3646   70.9075   64.2966 H   0  0  0  0  0  0
    6.3845   69.8147   65.2427 H   0  0  0  0  0  0
    0.0415   67.9270   67.1626 H   0  0  0  0  0  0
   -0.7284   68.8779   68.3585 H   0  0  0  0  0  0
    2.9628   69.1278   64.2330 H   0  0  0  0  0  0
    5.5334   70.5085   67.2226 H   0  0  0  0  0  0
    1.1507   69.8324   69.1276 H   0  0  0  0  0  0
    1.9434   68.3201   69.4092 H   0  0  0  0  0  0
    1.2185   68.5994   65.8259 H   0  0  0  0  0  0
    3.7222   70.2142   68.9582 H   0  0  0  0  0  0
    3.1527   60.4166   74.4721 H   0  0  0  0  0  0
    2.6956   62.1129   74.5557 H   0  0  0  0  0  0
    1.6426   60.9402   73.7330 H   0  0  0  0  0  0
    5.1354   60.0320   69.3206 H   0  0  0  0  0  0
    3.4735   60.5701   69.1685 H   0  0  0  0  0  0
    4.0271   59.8231   70.6745 H   0  0  0  0  0  0
  1  2  1  0  0  0
  1  7  1  0  0  0
  1 10  2  0  0  0
  2 18  1  0  0  0
  2 19  2  0  0  0
  3 13  1  0  0  0
  3  4  1  0  0  0
  3  6  2  0  0  0
  4  5  1  0  0  0
  5 12  2  0  0  0
  5  9  1  0  0  0
  6  9  1  0  0  0
  6 33  1  0  0  0
  7 11  1  0  0  0
  8 20  1  0  0  0
  8 23  2  0  0  0
  8 24  1  0  0  0
  9 15  2  0  0  0
 10 16  1  0  0  0
 10 34  1  0  0  0
 11 20  1  0  0  0
 11 16  2  0  0  0
 12 14  1  0  0  0
 12 35  1  0  0  0
 13 22  1  0  0  0
 13 21  2  0  0  0
 14 27  1  0  0  0
 14 17  2  0  0  0
 15 17  1  0  0  0
 15 36  1  0  0  0
 16 37  1  0  0  0
 17 28  1  0  0  0
 20 38  1  0  0  0
 20 39  1  0  0  0
 22 26  1  0  0  0
 22 40  1  0  0  0
 22 41  1  0  0  0
 23 29  1  0  0  0
 23 42  1  0  0  0
 24 30  2  0  0  0
 24 43  1  0  0  0
 25 29  2  0  0  0
 25 26  1  0  0  0
 25 30  1  0  0  0
 26 44  1  0  0  0
 26 45  1  0  0  0
 27 31  1  0  0  0
 28 32  1  0  0  0
 29 46  1  0  0  0
 30 47  1  0  0  0
 31 48  1  0  0  0
 31 49  1  0  0  0
 31 50  1  0  0  0
 32 51  1  0  0  0
 32 52  1  0  0  0
 32 53  1  0  0  0
M  CHG  3   2   1   8   1  18  -1
M  END
> <s_m_entry_id>
8531

> <s_m_entry_name>
dock_pv.41

> <s_m_Source_Path>
/home/csk/Desktop/cluster/DUD-E-result/aces

> <s_m_Source_File>
dock_pv.maegz

> <i_m_Source_File_Index>
41

> <chembl_id>
CHEMBL609440

> <chembl_pref_name>
None

> <i_lp_mmshare_version>
53161

> <i_f3d_flags>
0

> <r_lp_tautomer_probability>
0.99990000499975

> <s_lp_Force_Field>
OPLS_2005

> <r_lp_Energy>
25.678187

> <b_lp_Chiralities_Consistent>
1

> <s_lp_Variant>
CHEMBL220_lig260-1

> <s_i_glide_gridfile>
glide-grid_1e66

> <i_i_glide_lignum>
306

> <i_i_glide_rotatable_bonds>
9

> <r_i_docking_score>
-8.38416278489056

> <r_i_glide_ligand_efficiency>
-0.26200508702783

> <r_i_glide_ligand_efficiency_sa>
-0.831814300577045

> <r_i_glide_ligand_efficiency_ln>
-1.87744259118284

> <r_i_glide_gscore>
-8.38416278489056

> <r_i_glide_lipo>
-3.55013123172536

> <r_i_glide_hbond>
0

> <r_i_glide_metal>
0

> <r_i_glide_rewards>
-3.21672418802362

> <r_i_glide_evdw>
-22.0176334381104

> <r_i_glide_ecoul>
-6.41834735870361

> <r_i_glide_erotb>
0.585655479132943

> <r_i_glide_esite>
-0.139329068563465

> <r_i_glide_emodel>
-52.0189044406747

> <r_i_glide_energy>
-28.435980796814

> <r_i_glide_einternal>
30.6937694549561

> <i_i_glide_confnum>
11

> <i_i_glide_posenum>
13

> <r_i_glide_eff_state_penalty>
0

> <s_user_duplicate_titles>
CHEMBL220_lig260,608365

> <s_m_subgroup_title>
dock_pv

> <s_m_subgroupid>
dock_pv

> <b_m_subgroup_collapsed>
0

$$$$
CHEMBL220_lig896
                    3D
 Schrodinger Suite 2021-1.
 57 60  0  0  1  0            999 V2000
    0.3161   68.2155   65.1338 C   0  0  0  0  0  0
    1.3734   67.9778   66.0345 C   0  0  0  0  0  0
    2.6718   68.0722   65.6741 N   0  0  0  0  0  0
    2.9982   68.3379   64.3937 C   0  0  0  0  0  0
    0.6424   68.5080   63.7925 C   0  0  0  0  0  0
    2.0132   68.5625   63.3912 C   0  0  0  0  0  0
    4.3677   68.3547   64.0681 C   0  0  0  0  0  0
   -1.1276   68.1585   65.6555 C   0  0  0  0  0  0
    2.4569   68.8220   62.0624 C   0  0  0  0  0  0
    4.3434   60.1051   70.7029 S   0  0  0  0  0  0
    3.5430   58.2608   70.3711 S   0  0  0  0  0  0
    0.3708   64.5988   70.2615 C   0  0  0  0  0  0
    1.1432   67.5036   67.4701 C   0  0  0  0  0  0
   -0.0201   65.3084   69.1881 N   0  0  0  0  0  0
    0.3506   65.0281   71.4144 O   0  0  0  0  0  0
   -0.3767   68.7685   62.8703 N   0  0  0  0  0  0
    4.7615   68.5746   62.7568 C   0  0  0  0  0  0
    3.8193   68.8169   61.7634 C   0  0  0  0  0  0
   -1.2554   67.1225   66.7871 C   0  0  0  0  0  0
   -0.3223   67.5208   67.9447 C   0  0  1  0  0  0
    2.8425   60.6387   71.5598 C   0  0  1  0  0  0
   -0.5225   66.6759   69.2343 C   0  0  0  0  0  0
    6.4324   68.5080   62.3686 Cl  0  0  0  0  0  0
    2.6001   59.5628   72.6251 C   0  0  0  0  0  0
    2.7078   58.1696   71.9817 C   0  0  0  0  0  0
    0.8636   63.1777   69.9916 C   0  0  0  0  0  0
    2.9691   62.0768   72.1074 C   0  0  0  0  0  0
    2.3936   63.1030   69.7673 C   0  0  0  0  0  0
    3.2555   63.1713   71.0510 C   0  0  0  0  0  0
    5.1030   68.1756   64.8401 H   0  0  0  0  0  0
   -1.8351   67.9290   64.8619 H   0  0  0  0  0  0
   -1.4066   69.1464   66.0238 H   0  0  0  0  0  0
    1.7389   69.0041   61.2746 H   0  0  0  0  0  0
    1.7383   68.1084   68.1572 H   0  0  0  0  0  0
    1.5426   66.4961   67.5285 H   0  0  0  0  0  0
    0.1322   64.8994   68.2680 H   0  0  0  0  0  0
   -0.1422   69.0268   61.9259 H   0  0  0  0  0  0
   -1.3284   68.8164   63.2036 H   0  0  0  0  0  0
    4.1531   68.9915   60.7514 H   0  0  0  0  0  0
   -1.0507   66.1083   66.4435 H   0  0  0  0  0  0
   -2.2899   67.1013   67.1333 H   0  0  0  0  0  0
   -0.5477   68.5578   68.1984 H   0  0  0  0  0  0
    2.0213   60.5982   70.8417 H   0  0  0  0  0  0
   -1.5852   66.5557   69.4458 H   0  0  0  0  0  0
   -0.0536   67.2050   70.0694 H   0  0  0  0  0  0
    1.6216   59.7021   73.0913 H   0  0  0  0  0  0
    3.3336   59.6602   73.4291 H   0  0  0  0  0  0
    1.7102   57.7727   71.7799 H   0  0  0  0  0  0
    3.2143   57.4543   72.6327 H   0  0  0  0  0  0
    0.3495   62.8040   69.1069 H   0  0  0  0  0  0
    0.5404   62.5222   70.7985 H   0  0  0  0  0  0
    2.0481   62.3324   72.6348 H   0  0  0  0  0  0
    3.7541   62.1071   72.8657 H   0  0  0  0  0  0
    2.7111   63.8951   69.0869 H   0  0  0  0  0  0
    2.6241   62.1792   69.2355 H   0  0  0  0  0  0
    3.1402   64.1530   71.5153 H   0  0  0  0  0  0
    4.3065   63.1163   70.7595 H   0  0  0  0  0  0
  1  2  1  0  0  0
  1  5  2  0  0  0
  1  8  1  0  0  0
  2  3  2  0  0  0
  2 13  1  0  0  0
  3  4  1  0  0  0
  4  6  1  0  0  0
  4  7  2  0  0  0
  5  6  1  0  0  0
  5 16  1  0  0  0
  6  9  2  0  0  0
  7 17  1  0  0  0
  7 30  1  0  0  0
  8 19  1  0  0  0
  8 31  1  0  0  0
  8 32  1  0  0  0
  9 18  1  0  0  0
  9 33  1  0  0  0
 10 21  1  0  0  0
 10 11  1  0  0  0
 11 25  1  0  0  0
 12 14  1  0  0  0
 12 15  2  0  0  0
 12 26  1  0  0  0
 13 20  1  0  0  0
 13 34  1  0  0  0
 13 35  1  0  0  0
 14 22  1  0  0  0
 14 36  1  0  0  0
 16 37  1  0  0  0
 16 38  1  0  0  0
 17 18  2  0  0  0
 17 23  1  0  0  0
 18 39  1  0  0  0
 19 20  1  0  0  0
 19 40  1  0  0  0
 19 41  1  0  0  0
 20 22  1  0  0  0
 20 42  1  0  0  0
 21 27  1  0  0  0
 21 24  1  0  0  0
 21 43  1  0  0  0
 22 44  1  0  0  0
 22 45  1  0  0  0
 24 25  1  0  0  0
 24 46  1  0  0  0
 24 47  1  0  0  0
 25 48  1  0  0  0
 25 49  1  0  0  0
 26 28  1  0  0  0
 26 50  1  0  0  0
 26 51  1  0  0  0
 27 29  1  0  0  0
 27 52  1  0  0  0
 27 53  1  0  0  0
 28 29  1  0  0  0
 28 54  1  0  0  0
 28 55  1  0  0  0
 29 56  1  0  0  0
 29 57  1  0  0  0
M  END
> <s_m_entry_id>
8533

> <s_m_entry_name>
dock_pv.43

> <s_m_Source_Path>
/home/csk/Desktop/cluster/DUD-E-result/aces

> <s_m_Source_File>
dock_pv.maegz

> <i_m_Source_File_Index>
43

> <chembl_id>
CHEMBL363391

> <chembl_pref_name>
None

> <i_lp_mmshare_version>
53161

> <i_f3d_flags>
0

> <r_lp_tautomer_probability>
1

> <s_lp_Force_Field>
OPLS_2005

> <r_lp_Energy>
26.408872

> <b_lp_Chiralities_Consistent>
1

> <s_lp_Variant>
CHEMBL220_lig896-2

> <s_i_glide_gridfile>
glide-grid_1e66

> <i_i_glide_lignum>
1211

> <i_i_glide_rotatable_bonds>
8

> <r_i_docking_score>
-8.37457905768177

> <r_i_glide_ligand_efficiency>
-0.288778588195923

> <r_i_glide_ligand_efficiency_sa>
-0.887219314416296

> <r_i_glide_ligand_efficiency_ln>
-1.91756624320723

> <r_i_glide_gscore>
-8.37457905768177

> <r_i_glide_lipo>
-3.83805981845766

> <r_i_glide_hbond>
-0.32

> <r_i_glide_metal>
0

> <r_i_glide_rewards>
-1.40062355752128

> <r_i_glide_evdw>
-48.1197738647461

> <r_i_glide_ecoul>
-7.20735120773315

> <r_i_glide_erotb>
0.692755967250188

> <r_i_glide_esite>
-0.021560274555744

> <r_i_glide_emodel>
-75.2666363339677

> <r_i_glide_energy>
-55.3271250724792

> <r_i_glide_einternal>
7.65335083007812

> <i_i_glide_confnum>
92

> <i_i_glide_posenum>
378

> <r_i_glide_eff_state_penalty>
0

> <s_user_duplicate_titles>
CHEMBL220_lig896

> <s_m_subgroup_title>
dock_pv

> <s_m_subgroupid>
dock_pv

> <b_m_subgroup_collapsed>
0

$$$$
CHEMBL220_lig323
                    3D
 Schrodinger Suite 2021-1.
 35 36  0  0  1  0            999 V2000
    4.7238   68.8213   63.4741 N   0  3  0  0  0  0
    3.2381   68.7388   63.0956 C   0  0  0  0  0  0
    5.0849   68.4715   64.9635 C   0  0  0  0  0  0
    2.7480   69.2579   61.8726 C   0  0  0  0  0  0
    4.7386   69.4410   66.1090 C   0  0  0  0  0  0
    5.3295   70.2330   63.2579 C   0  0  0  0  0  0
    5.5513   67.8423   62.6055 C   0  0  0  0  0  0
    3.5439   69.7052   60.8478 O   0  0  0  0  0  0
    2.3318   68.0991   63.9597 C   0  0  0  0  0  0
    1.3704   69.2773   61.6343 C   0  0  0  0  0  0
    5.7652   70.2332   66.6390 C   0  0  0  0  0  0
    3.4986   69.4075   66.7662 C   0  0  0  0  0  0
    0.9637   68.1087   63.6967 C   0  0  0  0  0  0
    0.4784   68.7268   62.5511 C   0  0  0  0  0  0
    3.3073   70.1080   67.9539 C   0  0  0  0  0  0
    5.5674   70.9527   67.8167 C   0  0  0  0  0  0
    4.3421   70.8823   68.4725 C   0  0  0  0  0  0
    6.1706   68.3406   64.9626 H   0  0  0  0  0  0
    4.6882   67.4794   65.1596 H   0  0  0  0  0  0
    6.3420   70.2609   63.6604 H   0  0  0  0  0  0
    5.3666   70.4979   62.2049 H   0  0  0  0  0  0
    4.6860   70.9080   63.8116 H   0  0  0  0  0  0
    6.6093   68.0932   62.7206 H   0  0  0  0  0  0
    5.3247   66.8270   62.9284 H   0  0  0  0  0  0
    5.2647   67.9674   61.5676 H   0  0  0  0  0  0
    4.4810   69.4933   60.9116 H   0  0  0  0  0  0
    2.6419   67.5615   64.8374 H   0  0  0  0  0  0
    0.9891   69.7012   60.7173 H   0  0  0  0  0  0
    6.7386   70.2609   66.1682 H   0  0  0  0  0  0
    2.6829   68.7906   66.4403 H   0  0  0  0  0  0
    0.2742   67.6321   64.3811 H   0  0  0  0  0  0
   -0.5848   68.7405   62.3600 H   0  0  0  0  0  0
    2.3620   70.0483   68.4765 H   0  0  0  0  0  0
    6.3688   71.5443   68.2347 H   0  0  0  0  0  0
    4.1823   71.3984   69.4035 H   0  0  0  0  0  0
  1  2  1  0  0  0
  1  3  1  0  0  0
  1  6  1  0  0  0
  1  7  1  0  0  0
  2  4  2  0  0  0
  2  9  1  0  0  0
  3  5  1  0  0  0
  3 18  1  0  0  0
  3 19  1  0  0  0
  4  8  1  0  0  0
  4 10  1  0  0  0
  5 11  1  0  0  0
  5 12  2  0  0  0
  6 20  1  0  0  0
  6 21  1  0  0  0
  6 22  1  0  0  0
  7 23  1  0  0  0
  7 24  1  0  0  0
  7 25  1  0  0  0
  8 26  1  0  0  0
  9 13  2  0  0  0
  9 27  1  0  0  0
 10 14  2  0  0  0
 10 28  1  0  0  0
 11 16  2  0  0  0
 11 29  1  0  0  0
 12 15  1  0  0  0
 12 30  1  0  0  0
 13 14  1  0  0  0
 13 31  1  0  0  0
 14 32  1  0  0  0
 15 17  2  0  0  0
 15 33  1  0  0  0
 16 17  1  0  0  0
 16 34  1  0  0  0
 17 35  1  0  0  0
M  CHG  1   1   1
M  END
> <s_m_entry_id>
8534

> <s_m_entry_name>
dock_pv.44

> <s_m_Source_Path>
/home/csk/Desktop/cluster/DUD-E-result/aces

> <s_m_Source_File>
dock_pv.maegz

> <i_m_Source_File_Index>
44

> <chembl_id>
CHEMBL291783

> <chembl_pref_name>
None

> <i_lp_mmshare_version>
53161

> <i_f3d_flags>
0

> <r_lp_tautomer_probability>
1

> <s_lp_Force_Field>
OPLS_2005

> <r_lp_Energy>
26.035193

> <b_lp_Chiralities_Consistent>
1

> <s_lp_Variant>
CHEMBL220_lig323-1

> <s_i_glide_gridfile>
glide-grid_1e66

> <i_i_glide_lignum>
377

> <i_i_glide_rotatable_bonds>
4

> <r_i_docking_score>
-8.34329259689381

> <r_i_glide_ligand_efficiency>
-0.490781917464342

> <r_i_glide_ligand_efficiency_sa>
-1.26193850821223

> <r_i_glide_ligand_efficiency_ln>
-2.17657924253836

> <r_i_glide_gscore>
-8.34329259689381

> <r_i_glide_lipo>
-3.71651684042994

> <r_i_glide_hbond>
-0.101656073404313

> <r_i_glide_metal>
0

> <r_i_glide_rewards>
-3.2183547024045

> <r_i_glide_evdw>
-28.9407119750977

> <r_i_glide_ecoul>
-5.60201454162598

> <r_i_glide_erotb>
0.980572799343715

> <r_i_glide_esite>
0

> <r_i_glide_emodel>
-54.609624478455

> <r_i_glide_energy>
-34.5427265167236

> <r_i_glide_einternal>
2.24276185035706

> <i_i_glide_confnum>
14

> <i_i_glide_posenum>
261

> <r_i_glide_eff_state_penalty>
0

> <s_user_duplicate_titles>
CHEMBL220_lig323

> <s_m_subgroup_title>
dock_pv

> <s_m_subgroupid>
dock_pv

> <b_m_subgroup_collapsed>
0

$$$$
CHEMBL220_lig858
                    3D
 Schrodinger Suite 2021-1.
 63 66  0  0  1  0            999 V2000
   -0.9735   66.1080   68.7677 S   0  0  0  0  0  0
    0.1736   65.1331   69.6985 C   0  0  0  0  0  0
    0.1823   67.4375   68.4245 C   0  0  2  0  0  0
    4.4399   69.2045   64.0292 N   0  3  2  0  0  0
    1.4527   65.6464   69.6253 C   0  0  0  0  0  0
   -0.0552   63.9332   70.3738 C   0  0  0  0  0  0
   -0.0097   67.9262   66.9708 C   0  0  0  0  0  0
    1.5427   66.8535   68.7494 C   0  0  0  0  0  0
    1.0060   63.2374   70.9807 C   0  0  0  0  0  0
    2.5249   64.9313   70.1543 C   0  0  0  0  0  0
    2.3165   63.7182   70.8280 C   0  0  0  0  0  0
    4.0284   66.5713   64.2794 C   0  0  0  0  0  0
    0.5916   67.0861   65.8340 C   0  0  0  0  0  0
   -0.5748   68.9878   66.7296 O   0  0  0  0  0  0
    5.4299   70.2215   64.6932 C   0  0  0  0  0  0
    2.7852   66.4144   64.7655 C   0  0  0  0  0  0
    2.9820   69.6824   64.3162 C   0  0  0  0  0  0
    4.8867   67.8061   64.5213 C   0  0  0  0  0  0
    1.9689   67.5550   65.3258 C   0  0  1  0  0  0
    0.8421   62.0674   71.7016 O   0  0  0  0  0  0
    3.3487   62.9534   71.3442 O   0  0  0  0  0  0
    4.6310   69.2209   62.4882 C   0  0  0  0  0  0
    5.6961   70.2296   66.2274 C   0  0  0  0  0  0
    1.8499   68.6549   64.2496 C   0  0  0  0  0  0
    4.6819   63.2014   70.9066 C   0  0  0  0  0  0
   -0.4690   61.6350   72.0487 C   0  0  0  0  0  0
    4.7423   70.6225   67.1737 C   0  0  0  0  0  0
    6.9826   69.9771   66.7013 C   0  0  0  0  0  0
    5.0726   70.9250   68.4857 C   0  0  0  0  0  0
    7.3198   70.2749   68.0179 C   0  0  0  0  0  0
    6.3866   70.8024   68.8945 C   0  0  0  0  0  0
   -0.0412   68.2721   69.0827 H   0  0  0  0  0  0
   -1.0520   63.5255   70.4009 H   0  0  0  0  0  0
    2.1940   67.6275   69.1686 H   0  0  0  0  0  0
    1.9424   66.3887   67.8438 H   0  0  0  0  0  0
    3.5213   65.3178   70.0133 H   0  0  0  0  0  0
    4.5148   65.7106   63.8434 H   0  0  0  0  0  0
   -0.0709   67.0007   64.9863 H   0  0  0  0  0  0
    0.6578   66.0938   66.2445 H   0  0  0  0  0  0
    5.1439   71.2021   64.3380 H   0  0  0  0  0  0
    6.3515   70.0094   64.1694 H   0  0  0  0  0  0
    2.2940   65.4598   64.6377 H   0  0  0  0  0  0
    2.8028   70.5065   63.6325 H   0  0  0  0  0  0
    2.9671   70.0982   65.3061 H   0  0  0  0  0  0
    5.9208   67.7047   64.1925 H   0  0  0  0  0  0
    4.9060   67.9492   65.5811 H   0  0  0  0  0  0
    2.5272   67.9448   66.1805 H   0  0  0  0  0  0
    5.6502   68.9133   62.2448 H   0  0  0  0  0  0
    3.9088   68.5276   62.0544 H   0  0  0  0  0  0
    4.4576   70.2356   62.1295 H   0  0  0  0  0  0
    1.7722   68.2287   63.2477 H   0  0  0  0  0  0
    0.9169   69.2034   64.3742 H   0  0  0  0  0  0
    5.3510   62.4829   71.3795 H   0  0  0  0  0  0
    4.7675   63.0731   69.8263 H   0  0  0  0  0  0
    5.0320   64.1994   71.1676 H   0  0  0  0  0  0
   -0.4009   60.7569   72.6903 H   0  0  0  0  0  0
   -1.0159   62.4051   72.5960 H   0  0  0  0  0  0
   -1.0414   61.3520   71.1685 H   0  0  0  0  0  0
    3.7387   70.8813   66.9205 H   0  0  0  0  0  0
    7.7413   69.6024   66.0387 H   0  0  0  0  0  0
    4.3183   71.2890   69.1686 H   0  0  0  0  0  0
    8.3160   70.1067   68.3820 H   0  0  0  0  0  0
    6.6690   71.0412   69.9097 H   0  0  0  0  0  0
  1  2  1  0  0  0
  1  3  1  0  0  0
  2  5  2  0  0  0
  2  6  1  0  0  0
  3  7  1  0  0  0
  3  8  1  0  0  0
  3 32  1  0  0  0
  4 17  1  0  0  0
  4 15  1  0  0  0
  4 22  1  0  0  0
  4 18  1  0  0  0
  5 10  1  0  0  0
  5  8  1  0  0  0
  6  9  2  0  0  0
  6 33  1  0  0  0
  7 13  1  0  0  0
  7 14  2  0  0  0
  8 34  1  0  0  0
  8 35  1  0  0  0
  9 11  1  0  0  0
  9 20  1  0  0  0
 10 11  2  0  0  0
 10 36  1  0  0  0
 11 21  1  0  0  0
 12 16  2  0  0  0
 12 18  1  0  0  0
 12 37  1  0  0  0
 13 19  1  0  0  0
 13 38  1  0  0  0
 13 39  1  0  0  0
 15 23  1  0  0  0
 15 40  1  0  0  0
 15 41  1  0  0  0
 16 19  1  0  0  0
 16 42  1  0  0  0
 17 24  1  0  0  0
 17 43  1  0  0  0
 17 44  1  0  0  0
 18 45  1  0  0  0
 18 46  1  0  0  0
 19 24  1  0  0  0
 19 47  1  0  0  0
 20 26  1  0  0  0
 21 25  1  0  0  0
 22 48  1  0  0  0
 22 49  1  0  0  0
 22 50  1  0  0  0
 23 27  2  0  0  0
 23 28  1  0  0  0
 24 51  1  0  0  0
 24 52  1  0  0  0
 25 53  1  0  0  0
 25 54  1  0  0  0
 25 55  1  0  0  0
 26 56  1  0  0  0
 26 57  1  0  0  0
 26 58  1  0  0  0
 27 29  1  0  0  0
 27 59  1  0  0  0
 28 30  2  0  0  0
 28 60  1  0  0  0
 29 31  2  0  0  0
 29 61  1  0  0  0
 30 31  1  0  0  0
 30 62  1  0  0  0
 31 63  1  0  0  0
M  CHG  1   4   1
M  END
> <s_m_entry_id>
8535

> <s_m_entry_name>
dock_pv.45

> <s_m_Source_Path>
/home/csk/Desktop/cluster/DUD-E-result/aces

> <s_m_Source_File>
dock_pv.maegz

> <i_m_Source_File_Index>
45

> <chembl_id>
CHEMBL186090

> <chembl_pref_name>
None

> <i_lp_mmshare_version>
53161

> <i_f3d_flags>
0

> <r_lp_tautomer_probability>
0.999999960000001

> <s_lp_Force_Field>
OPLS_2005

> <r_lp_Energy>
49.465394

> <b_lp_Chiralities_Consistent>
1

> <s_lp_Variant>
CHEMBL220_lig858-1

> <s_i_glide_gridfile>
glide-grid_1e66

> <i_i_glide_lignum>
1126

> <i_i_glide_rotatable_bonds>
7

> <r_i_docking_score>
-8.30923238342867

> <r_i_glide_ligand_efficiency>
-0.268039754304151

> <r_i_glide_ligand_efficiency_sa>
-0.842014897278978

> <r_i_glide_ligand_efficiency_ln>
-1.87398654985372

> <r_i_glide_gscore>
-8.30923238342867

> <r_i_glide_lipo>
-4.6499470009796

> <r_i_glide_hbond>
0

> <r_i_glide_metal>
0

> <r_i_glide_rewards>
-3.01214877321128

> <r_i_glide_evdw>
-14.4223394393921

> <r_i_glide_ecoul>
-2.96383547782898

> <r_i_glide_erotb>
0.518555684406165

> <r_i_glide_esite>
0

> <r_i_glide_emodel>
-20.5021159974376

> <r_i_glide_energy>
-17.3861749172211

> <r_i_glide_einternal>
12.2165231704712

> <i_i_glide_confnum>
39

> <i_i_glide_posenum>
141

> <r_i_glide_eff_state_penalty>
0

> <s_user_duplicate_titles>
CHEMBL220_lig858

> <s_m_subgroup_title>
dock_pv

> <s_m_subgroupid>
dock_pv

> <b_m_subgroup_collapsed>
0

$$$$
CHEMBL220_lig529
                    3D
 Schrodinger Suite 2021-1.
 45 48  0  0  1  0            999 V2000
    3.2580   69.3101   65.9211 C   0  0  0  0  0  0
    5.9397   69.2865   65.1117 N   0  0  0  0  0  0
    4.2664   69.8621   66.7649 C   0  0  0  0  0  0
    5.6163   69.7939   66.3221 C   0  0  0  0  0  0
    3.6000   68.8720   64.6248 C   0  0  0  0  0  0
    4.9627   68.9137   64.2546 C   0  0  0  0  0  0
    1.9263   69.2723   66.3679 N   0  0  0  0  0  0
    4.0018   70.4570   68.0284 C   0  0  0  0  0  0
    6.6604   70.2525   67.1608 C   0  0  0  0  0  0
    1.3630   67.9586   66.6779 C   0  0  0  0  0  0
    5.0454   70.9087   68.8205 C   0  0  0  0  0  0
    6.3707   70.7935   68.4125 C   0  0  0  0  0  0
    2.5396   68.3605   63.6311 C   0  0  0  0  0  0
   -0.1575   67.9767   66.6093 C   0  0  0  0  0  0
    5.4231   68.5293   62.8505 C   0  0  0  0  0  0
    7.4919   71.1462   69.3753 C   0  0  0  0  0  0
   -0.8219   68.5984   65.5472 C   0  0  0  0  0  0
   -0.8977   67.3248   67.5988 C   0  0  0  0  0  0
    3.0484   68.2504   62.1856 C   0  0  0  0  0  0
    4.4276   67.5810   62.1708 C   0  0  0  0  0  0
   -2.2880   67.3798   67.5691 C   0  0  0  0  0  0
   -2.2077   68.6674   65.5336 C   0  0  0  0  0  0
   -2.9326   68.0846   66.5600 C   0  0  0  0  0  0
    1.7456   69.9240   67.1178 H   0  0  0  0  0  0
    2.9892   70.5303   68.3982 H   0  0  0  0  0  0
    7.6816   70.1504   66.8255 H   0  0  0  0  0  0
    1.6435   67.7111   67.7008 H   0  0  0  0  0  0
    1.7466   67.1666   66.0366 H   0  0  0  0  0  0
    4.8051   71.3062   69.7903 H   0  0  0  0  0  0
    2.2096   67.3730   63.9505 H   0  0  0  0  0  0
    1.6635   69.0069   63.6491 H   0  0  0  0  0  0
    6.4291   68.1093   62.8600 H   0  0  0  0  0  0
    5.5021   69.4427   62.2572 H   0  0  0  0  0  0
    7.1432   71.1703   70.4074 H   0  0  0  0  0  0
    8.2673   70.3804   69.3443 H   0  0  0  0  0  0
    7.9413   72.1081   69.1336 H   0  0  0  0  0  0
   -0.2740   69.0640   64.7443 H   0  0  0  0  0  0
   -0.4063   66.8178   68.4204 H   0  0  0  0  0  0
    2.3310   67.7082   61.5733 H   0  0  0  0  0  0
    3.1129   69.2450   61.7395 H   0  0  0  0  0  0
    4.3977   66.6191   62.6846 H   0  0  0  0  0  0
    4.7449   67.3760   61.1552 H   0  0  0  0  0  0
   -2.8685   66.9100   68.3478 H   0  0  0  0  0  0
   -2.7196   69.1819   64.7339 H   0  0  0  0  0  0
   -4.0119   68.1438   66.5527 H   0  0  0  0  0  0
  1  3  1  0  0  0
  1  5  2  0  0  0
  1  7  1  0  0  0
  2  6  2  0  0  0
  2  4  1  0  0  0
  3  4  1  0  0  0
  3  8  2  0  0  0
  4  9  2  0  0  0
  5  6  1  0  0  0
  5 13  1  0  0  0
  6 15  1  0  0  0
  7 10  1  0  0  0
  7 24  1  0  0  0
  8 11  1  0  0  0
  8 25  1  0  0  0
  9 12  1  0  0  0
  9 26  1  0  0  0
 10 14  1  0  0  0
 10 27  1  0  0  0
 10 28  1  0  0  0
 11 12  2  0  0  0
 11 29  1  0  0  0
 12 16  1  0  0  0
 13 19  1  0  0  0
 13 30  1  0  0  0
 13 31  1  0  0  0
 14 17  1  0  0  0
 14 18  2  0  0  0
 15 20  1  0  0  0
 15 32  1  0  0  0
 15 33  1  0  0  0
 16 34  1  0  0  0
 16 35  1  0  0  0
 16 36  1  0  0  0
 17 22  2  0  0  0
 17 37  1  0  0  0
 18 21  1  0  0  0
 18 38  1  0  0  0
 19 20  1  0  0  0
 19 39  1  0  0  0
 19 40  1  0  0  0
 20 41  1  0  0  0
 20 42  1  0  0  0
 21 23  2  0  0  0
 21 43  1  0  0  0
 22 23  1  0  0  0
 22 44  1  0  0  0
 23 45  1  0  0  0
M  END
> <s_m_entry_id>
8536

> <s_m_entry_name>
dock_pv.46

> <s_m_Source_Path>
/home/csk/Desktop/cluster/DUD-E-result/aces

> <s_m_Source_File>
dock_pv.maegz

> <i_m_Source_File_Index>
46

> <chembl_id>
CHEMBL64465

> <chembl_pref_name>
None

> <i_lp_mmshare_version>
53161

> <i_f3d_flags>
0

> <r_lp_tautomer_probability>
1

> <s_lp_Force_Field>
OPLS_2005

> <r_lp_Energy>
29.729801

> <b_lp_Chiralities_Consistent>
1

> <s_lp_Variant>
CHEMBL220_lig529-1

> <s_i_glide_gridfile>
glide-grid_1e66

> <i_i_glide_lignum>
610

> <i_i_glide_rotatable_bonds>
3

> <r_i_docking_score>
-8.28861942709504

> <r_i_glide_ligand_efficiency>
-0.360374757699784

> <r_i_glide_ligand_efficiency_sa>
-1.02485787272328

> <r_i_glide_ligand_efficiency_ln>
-2.00426333451727

> <r_i_glide_gscore>
-8.28861942709504

> <r_i_glide_lipo>
-4.98195208060405

> <r_i_glide_hbond>
0

> <r_i_glide_metal>
0

> <r_i_glide_rewards>
-2.17947840769707

> <r_i_glide_evdw>
-38.3126106262207

> <r_i_glide_ecoul>
1.22980999946594

> <r_i_glide_erotb>
0.603970092597233

> <r_i_glide_esite>
0

> <r_i_glide_emodel>
-45.1629438381634

> <r_i_glide_energy>
-37.0828006267548

> <r_i_glide_einternal>
3.45817041397095

> <i_i_glide_confnum>
29

> <i_i_glide_posenum>
188

> <r_i_glide_eff_state_penalty>
0

> <s_user_duplicate_titles>
CHEMBL220_lig529,95709

> <s_m_subgroup_title>
dock_pv

> <s_m_subgroupid>
dock_pv

> <b_m_subgroup_collapsed>
0

$$$$
CHEMBL220_lig524
                    3D
 Schrodinger Suite 2021-1.
 30 33  0  0  1  0            999 V2000
    4.4885   69.2932   64.3247 C   0  0  0  0  0  0
    3.6543   69.3076   65.4283 C   0  0  0  0  0  0
    2.3435   68.9804   65.3996 N   0  0  0  0  0  0
    3.9432   69.0808   63.0660 C   0  0  0  0  0  0
    4.4110   69.8109   66.5818 C   0  0  0  0  0  0
    5.7483   69.9038   66.2024 C   0  0  0  0  0  0
    5.9077   69.5723   64.7453 C   0  0  0  0  0  0
    2.5353   68.8701   62.9601 C   0  0  0  0  0  0
    1.7834   68.7701   64.1761 C   0  0  0  0  0  0
    4.0114   70.2069   67.8587 C   0  0  0  0  0  0
    6.7152   70.2806   67.1268 C   0  0  0  0  0  0
    4.7972   69.1276   61.9680 N   0  0  0  0  0  0
    6.3298   70.6289   68.4176 C   0  0  0  0  0  0
    4.9759   70.6464   68.7682 C   0  0  0  0  0  0
    7.5428   70.9081   69.6085 Cl  0  0  0  0  0  0
    1.8415   68.7785   61.7253 C   0  0  0  0  0  0
    0.3948   68.5079   64.1195 C   0  0  0  0  0  0
    0.4641   68.5840   61.7091 C   0  0  0  0  0  0
   -0.2505   68.4405   62.8913 C   0  0  0  0  0  0
    6.3413   70.4109   64.1974 H   0  0  0  0  0  0
    6.5623   68.7168   64.5798 H   0  0  0  0  0  0
    2.9727   70.1676   68.1540 H   0  0  0  0  0  0
    7.7585   70.2896   66.8541 H   0  0  0  0  0  0
    4.4819   68.8888   61.0378 H   0  0  0  0  0  0
    5.7850   69.2638   62.1244 H   0  0  0  0  0  0
    4.6783   70.9075   69.7729 H   0  0  0  0  0  0
    2.3802   68.8699   60.7939 H   0  0  0  0  0  0
   -0.1722   68.4146   65.0352 H   0  0  0  0  0  0
   -0.0546   68.5098   60.7642 H   0  0  0  0  0  0
   -1.3156   68.2645   62.8585 H   0  0  0  0  0  0
  1  2  1  0  0  0
  1  4  2  0  0  0
  1  7  1  0  0  0
  2  3  2  0  0  0
  2  5  1  0  0  0
  3  9  1  0  0  0
  4  8  1  0  0  0
  4 12  1  0  0  0
  5 10  1  0  0  0
  5  6  2  0  0  0
  6  7  1  0  0  0
  6 11  1  0  0  0
  7 20  1  0  0  0
  7 21  1  0  0  0
  8  9  1  0  0  0
  8 16  2  0  0  0
  9 17  2  0  0  0
 10 14  2  0  0  0
 10 22  1  0  0  0
 11 13  2  0  0  0
 11 23  1  0  0  0
 12 24  1  0  0  0
 12 25  1  0  0  0
 13 15  1  0  0  0
 13 14  1  0  0  0
 14 26  1  0  0  0
 16 18  1  0  0  0
 16 27  1  0  0  0
 17 19  1  0  0  0
 17 28  1  0  0  0
 18 19  2  0  0  0
 18 29  1  0  0  0
 19 30  1  0  0  0
M  END
> <s_m_entry_id>
8537

> <s_m_entry_name>
dock_pv.47

> <s_m_Source_Path>
/home/csk/Desktop/cluster/DUD-E-result/aces

> <s_m_Source_File>
dock_pv.maegz

> <i_m_Source_File_Index>
47

> <chembl_id>
CHEMBL293896

> <chembl_pref_name>
None

> <i_lp_mmshare_version>
53161

> <i_f3d_flags>
0

> <r_lp_tautomer_probability>
1

> <s_lp_Force_Field>
OPLS_2005

> <r_lp_Energy>
36.072262

> <b_lp_Chiralities_Consistent>
1

> <s_lp_Variant>
CHEMBL220_lig524-1

> <s_i_glide_gridfile>
glide-grid_1e66

> <i_i_glide_lignum>
605

> <i_i_glide_rotatable_bonds>
0

> <r_i_docking_score>
-8.28223376950918

> <r_i_glide_ligand_efficiency>
-0.435907040500483

> <r_i_glide_ligand_efficiency_sa>
-1.16317506441936

> <r_i_glide_ligand_efficiency_ln>
-2.09972414664136

> <r_i_glide_gscore>
-8.28223376950918

> <r_i_glide_lipo>
-4.15134608199452

> <r_i_glide_hbond>
-0.0104083004916501

> <r_i_glide_metal>
0

> <r_i_glide_rewards>
-2.38218048484848

> <r_i_glide_evdw>
-29.2507438659668

> <r_i_glide_ecoul>
-1.8331995010376

> <r_i_glide_erotb>
0

> <r_i_glide_esite>
-0.000781783720544692

> <r_i_glide_emodel>
-39.3973716842138

> <r_i_glide_energy>
-31.0839433670044

> <r_i_glide_einternal>
0

> <i_i_glide_confnum>
1

> <i_i_glide_posenum>
119

> <r_i_glide_eff_state_penalty>
0

> <s_user_duplicate_titles>
CHEMBL220_lig524

> <s_m_subgroup_title>
dock_pv

> <s_m_subgroupid>
dock_pv

> <b_m_subgroup_collapsed>
0

$$$$
CHEMBL220_lig1027
                    3D
 Schrodinger Suite 2021-1.
 28 30  0  0  1  0            999 V2000
    5.9304   69.8195   65.5883 N   0  0  0  0  0  0
    5.1865   70.1081   66.7202 C   0  0  0  0  0  0
    3.8484   69.7083   66.4634 C   0  0  0  0  0  0
    3.7870   69.2895   65.1216 C   0  0  0  0  0  0
    2.7238   68.9063   64.2909 C   0  0  0  0  0  0
    2.9771   68.6288   62.9380 C   0  0  0  0  0  0
    4.2865   68.6627   62.4575 C   0  0  0  0  0  0
    5.3742   69.0100   63.2596 C   0  0  0  0  0  0
    5.1006   69.3525   64.5872 C   0  0  0  0  0  0
    5.5281   70.6835   67.9523 C   0  0  0  0  0  0
    2.8863   69.8651   67.4822 C   0  0  0  0  0  0
    3.2934   70.5073   68.6551 C   0  0  0  0  0  0
    4.5665   70.9078   68.8868 N   0  0  0  0  0  0
    6.9152   71.0934   68.3870 C   0  0  0  0  0  0
    1.9943   68.3358   62.0130 O   0  0  0  0  0  0
    0.6258   68.3849   62.4082 C   0  0  0  0  0  0
    6.9212   69.9898   65.4714 H   0  0  0  0  0  0
    1.7223   68.8840   64.6905 H   0  0  0  0  0  0
    4.4667   68.4400   61.4152 H   0  0  0  0  0  0
    6.3729   69.0559   62.8491 H   0  0  0  0  0  0
    1.8553   69.5792   67.3364 H   0  0  0  0  0  0
    2.5827   70.6890   69.4496 H   0  0  0  0  0  0
    7.6145   70.9080   67.5753 H   0  0  0  0  0  0
    6.9495   72.1508   68.6457 H   0  0  0  0  0  0
    7.2350   70.5119   69.2522 H   0  0  0  0  0  0
   -0.0031   68.1156   61.5599 H   0  0  0  0  0  0
    0.4095   67.6765   63.2089 H   0  0  0  0  0  0
    0.3383   69.3872   62.7305 H   0  0  0  0  0  0
  1  2  1  0  0  0
  1  9  1  0  0  0
  1 17  1  0  0  0
  2  3  2  0  0  0
  2 10  1  0  0  0
  3  4  1  0  0  0
  3 11  1  0  0  0
  4  5  1  0  0  0
  4  9  2  0  0  0
  5  6  2  0  0  0
  5 18  1  0  0  0
  6  7  1  0  0  0
  6 15  1  0  0  0
  7  8  2  0  0  0
  7 19  1  0  0  0
  8  9  1  0  0  0
  8 20  1  0  0  0
 10 13  2  0  0  0
 10 14  1  0  0  0
 11 12  2  0  0  0
 11 21  1  0  0  0
 12 13  1  0  0  0
 12 22  1  0  0  0
 14 23  1  0  0  0
 14 24  1  0  0  0
 14 25  1  0  0  0
 15 16  1  0  0  0
 16 26  1  0  0  0
 16 27  1  0  0  0
 16 28  1  0  0  0
M  END
> <s_m_entry_id>
8538

> <s_m_entry_name>
dock_pv.48

> <s_m_Source_Path>
/home/csk/Desktop/cluster/DUD-E-result/aces

> <s_m_Source_File>
dock_pv.maegz

> <i_m_Source_File_Index>
48

> <chembl_id>
CHEMBL278193

> <chembl_pref_name>
None

> <i_lp_mmshare_version>
53161

> <i_f3d_flags>
0

> <r_lp_tautomer_probability>
1

> <s_lp_Force_Field>
OPLS_2005

> <r_lp_Energy>
13.401396

> <b_lp_Chiralities_Consistent>
1

> <s_lp_Variant>
CHEMBL220_lig1027-1

> <s_i_glide_gridfile>
glide-grid_1e66

> <i_i_glide_lignum>
1426

> <i_i_glide_rotatable_bonds>
1

> <r_i_docking_score>
-8.28079422194747

> <r_i_glide_ligand_efficiency>
-0.517549638871717

> <r_i_glide_ligand_efficiency_sa>
-1.30414336755465

> <r_i_glide_ligand_efficiency_ln>
-2.19498992114655

> <r_i_glide_gscore>
-8.28079422194747

> <r_i_glide_lipo>
-3.33572121278323

> <r_i_glide_hbond>
-0.257458529307814

> <r_i_glide_metal>
0

> <r_i_glide_rewards>
-2.72792303879731

> <r_i_glide_evdw>
-31.6859474182129

> <r_i_glide_ecoul>
-2.50262713432312

> <r_i_glide_erotb>
0

> <r_i_glide_esite>
0

> <r_i_glide_emodel>
-50.4834569360617

> <r_i_glide_energy>
-34.188574552536

> <r_i_glide_einternal>
0.0206024665385485

> <i_i_glide_confnum>
1

> <i_i_glide_posenum>
74

> <r_i_glide_eff_state_penalty>
0

> <s_user_duplicate_titles>
CHEMBL220_lig1027

> <s_m_subgroup_title>
dock_pv

> <s_m_subgroupid>
dock_pv

> <b_m_subgroup_collapsed>
0

$$$$
CHEMBL220_lig1025
                    3D
 Schrodinger Suite 2021-1.
 25 27  0  0  1  0            999 V2000
    5.9430   69.8551   65.4143 N   0  0  0  0  0  0
    3.7954   69.2976   65.0251 C   0  0  0  0  0  0
    5.0889   69.3742   64.4456 C   0  0  0  0  0  0
    5.2452   70.1200   66.5733 C   0  0  0  0  0  0
    3.9035   69.7080   66.3679 C   0  0  0  0  0  0
    2.7102   68.9048   64.2278 C   0  0  0  0  0  0
    4.7111   70.9080   68.7684 N   0  0  0  0  0  0
    5.3273   69.0322   63.1123 C   0  0  0  0  0  0
    2.9271   68.6322   62.8675 C   0  0  0  0  0  0
    5.6242   70.7058   67.7852 C   0  0  0  0  0  0
    4.2192   68.6752   62.3461 C   0  0  0  0  0  0
    2.9846   69.8442   67.4283 C   0  0  0  0  0  0
    1.9252   68.3338   61.9683 O   0  0  0  0  0  0
    3.4369   70.4781   68.5909 C   0  0  0  0  0  0
    0.5689   68.3753   62.3939 C   0  0  0  0  0  0
    6.9267   70.0422   65.2608 H   0  0  0  0  0  0
    1.7215   68.8712   64.6573 H   0  0  0  0  0  0
    6.3127   69.0859   62.6713 H   0  0  0  0  0  0
    6.6317   71.0443   67.9732 H   0  0  0  0  0  0
    4.3672   68.4540   61.2983 H   0  0  0  0  0  0
    1.9523   69.5446   67.3257 H   0  0  0  0  0  0
    2.7602   70.6403   69.4178 H   0  0  0  0  0  0
   -0.0590   68.1068   61.5476 H   0  0  0  0  0  0
    0.2796   69.3749   62.7227 H   0  0  0  0  0  0
    0.3680   67.6599   63.1925 H   0  0  0  0  0  0
  1  3  1  0  0  0
  1  4  1  0  0  0
  1 16  1  0  0  0
  2  3  2  0  0  0
  2  6  1  0  0  0
  2  5  1  0  0  0
  3  8  1  0  0  0
  4  5  2  0  0  0
  4 10  1  0  0  0
  5 12  1  0  0  0
  6  9  2  0  0  0
  6 17  1  0  0  0
  7 10  2  0  0  0
  7 14  1  0  0  0
  8 11  2  0  0  0
  8 18  1  0  0  0
  9 11  1  0  0  0
  9 13  1  0  0  0
 10 19  1  0  0  0
 11 20  1  0  0  0
 12 14  2  0  0  0
 12 21  1  0  0  0
 13 15  1  0  0  0
 14 22  1  0  0  0
 15 23  1  0  0  0
 15 24  1  0  0  0
 15 25  1  0  0  0
M  END
> <s_m_entry_id>
8539

> <s_m_entry_name>
dock_pv.49

> <s_m_Source_Path>
/home/csk/Desktop/cluster/DUD-E-result/aces

> <s_m_Source_File>
dock_pv.maegz

> <i_m_Source_File_Index>
49

> <chembl_id>
CHEMBL80619

> <chembl_pref_name>
None

> <i_lp_mmshare_version>
53161

> <i_f3d_flags>
0

> <r_lp_tautomer_probability>
1

> <s_lp_Force_Field>
OPLS_2005

> <r_lp_Energy>
13.577225

> <b_lp_Chiralities_Consistent>
1

> <s_lp_Variant>
CHEMBL220_lig1025-1

> <s_i_glide_gridfile>
glide-grid_1e66

> <i_i_glide_lignum>
1424

> <i_i_glide_rotatable_bonds>
1

> <r_i_docking_score>
-8.27895684029606

> <r_i_glide_ligand_efficiency>
-0.551930456019738

> <r_i_glide_ligand_efficiency_sa>
-1.36117755359789

> <r_i_glide_ligand_efficiency_ln>
-2.23269815436564

> <r_i_glide_gscore>
-8.27895684029606

> <r_i_glide_lipo>
-3.00699219026104

> <r_i_glide_hbond>
-0.32

> <r_i_glide_metal>
0

> <r_i_glide_rewards>
-3.04482551562797

> <r_i_glide_evdw>
-29.2280769348145

> <r_i_glide_ecoul>
-2.97156858444214

> <r_i_glide_erotb>
0

> <r_i_glide_esite>
0

> <r_i_glide_emodel>
-48.3009386956752

> <r_i_glide_energy>
-32.1996455192566

> <r_i_glide_einternal>
0.276097685098648

> <i_i_glide_confnum>
1

> <i_i_glide_posenum>
238

> <r_i_glide_eff_state_penalty>
0

> <s_user_duplicate_titles>
CHEMBL220_lig1025

> <s_m_subgroup_title>
dock_pv

> <s_m_subgroupid>
dock_pv

> <b_m_subgroup_collapsed>
0

$$$$
CHEMBL220_lig850
                    3D
 Schrodinger Suite 2021-1.
 56 59  0  0  1  0            999 V2000
    1.1852   69.2977   67.5774 S   0  0  0  0  0  0
    2.3846   69.1204   66.3038 C   0  0  0  0  0  0
    2.1077   62.9535   70.6883 N   0  3  0  0  0  0
    1.9094   68.4611   65.1705 C   0  0  0  0  0  0
   -0.1357   68.6327   66.5388 C   0  0  1  0  0  0
    3.7064   69.5460   66.3696 C   0  0  0  0  0  0
    0.4743   67.9961   65.2795 C   0  0  0  0  0  0
    4.5923   69.3064   65.3093 C   0  0  0  0  0  0
    2.7797   68.2234   64.1039 C   0  0  0  0  0  0
    4.1076   68.6581   64.1640 C   0  0  0  0  0  0
   -1.0014   67.7094   67.4106 C   0  0  0  0  0  0
    2.8203   61.6927   71.0034 C   0  0  0  0  0  0
   -2.1989   67.9433   67.5677 O   0  0  0  0  0  0
   -0.3822   66.4485   68.0279 C   0  0  0  0  0  0
    0.8000   62.8913   70.3346 C   0  0  0  0  0  0
    2.7764   64.1347   70.7212 C   0  0  0  0  0  0
    2.3003   60.9920   72.2536 C   0  0  0  0  0  0
    1.3559   59.7076   74.5346 C   0  0  0  0  0  0
    0.7829   65.2838   69.9694 C   0  0  0  0  0  0
    0.0674   66.5514   69.5064 C   0  0  0  0  0  0
    5.9293   69.6592   65.3414 O   0  0  0  0  0  0
    4.9311   68.4058   63.0946 O   0  0  0  0  0  0
    0.8945   59.0857   75.6433 F   0  0  0  0  0  0
    2.1251   65.3191   70.3632 C   0  0  0  0  0  0
    0.1166   64.0526   69.9714 C   0  0  0  0  0  0
    0.8515   59.3545   73.2841 C   0  0  0  0  0  0
    2.3314   60.6969   74.6507 C   0  0  0  0  0  0
    1.3252   59.9937   72.1416 C   0  0  0  0  0  0
    2.8048   61.3411   73.5103 C   0  0  0  0  0  0
    6.4505   70.3079   66.4967 C   0  0  0  0  0  0
    5.1950   69.5497   62.2881 C   0  0  0  0  0  0
   -0.7512   69.4864   66.2503 H   0  0  0  0  0  0
    4.0384   70.0467   67.2664 H   0  0  0  0  0  0
   -0.1061   68.2928   64.4055 H   0  0  0  0  0  0
    0.4491   66.9065   65.3223 H   0  0  0  0  0  0
    2.4396   67.7077   63.2184 H   0  0  0  0  0  0
    2.7180   61.0571   70.1210 H   0  0  0  0  0  0
    3.8837   61.9087   71.1076 H   0  0  0  0  0  0
   -1.1660   65.7084   67.9685 H   0  0  0  0  0  0
    0.4425   66.1087   67.4048 H   0  0  0  0  0  0
    0.3412   61.9116   70.3273 H   0  0  0  0  0  0
    3.8143   64.1098   71.0225 H   0  0  0  0  0  0
    0.7020   67.4235   69.6697 H   0  0  0  0  0  0
   -0.7979   66.6859   70.1554 H   0  0  0  0  0  0
    2.6668   66.2570   70.3756 H   0  0  0  0  0  0
   -0.9124   63.9894   69.6527 H   0  0  0  0  0  0
    0.0978   58.5860   73.2061 H   0  0  0  0  0  0
    2.7161   60.9651   75.6258 H   0  0  0  0  0  0
    0.9307   59.7105   71.1747 H   0  0  0  0  0  0
    3.5603   62.1068   73.6127 H   0  0  0  0  0  0
    7.5126   70.5081   66.3603 H   0  0  0  0  0  0
    5.9487   71.2606   66.6738 H   0  0  0  0  0  0
    6.3512   69.6851   67.3872 H   0  0  0  0  0  0
    5.9713   69.3067   61.5678 H   0  0  0  0  0  0
    5.5436   70.4046   62.8686 H   0  0  0  0  0  0
    4.3046   69.8488   61.7345 H   0  0  0  0  0  0
  1  2  1  0  0  0
  1  5  1  0  0  0
  2  4  2  0  0  0
  2  6  1  0  0  0
  3 15  2  0  0  0
  3 12  1  0  0  0
  3 16  1  0  0  0
  4  9  1  0  0  0
  4  7  1  0  0  0
  5  7  1  0  0  0
  5 11  1  0  0  0
  5 32  1  0  0  0
  6  8  2  0  0  0
  6 33  1  0  0  0
  7 34  1  0  0  0
  7 35  1  0  0  0
  8 10  1  0  0  0
  8 21  1  0  0  0
  9 10  2  0  0  0
  9 36  1  0  0  0
 10 22  1  0  0  0
 11 13  2  0  0  0
 11 14  1  0  0  0
 12 17  1  0  0  0
 12 37  1  0  0  0
 12 38  1  0  0  0
 14 20  1  0  0  0
 14 39  1  0  0  0
 14 40  1  0  0  0
 15 25  1  0  0  0
 15 41  1  0  0  0
 16 24  2  0  0  0
 16 42  1  0  0  0
 17 28  1  0  0  0
 17 29  2  0  0  0
 18 27  2  0  0  0
 18 23  1  0  0  0
 18 26  1  0  0  0
 19 20  1  0  0  0
 19 24  1  0  0  0
 19 25  2  0  0  0
 20 43  1  0  0  0
 20 44  1  0  0  0
 21 30  1  0  0  0
 22 31  1  0  0  0
 24 45  1  0  0  0
 25 46  1  0  0  0
 26 28  2  0  0  0
 26 47  1  0  0  0
 27 29  1  0  0  0
 27 48  1  0  0  0
 28 49  1  0  0  0
 29 50  1  0  0  0
 30 51  1  0  0  0
 30 52  1  0  0  0
 30 53  1  0  0  0
 31 54  1  0  0  0
 31 55  1  0  0  0
 31 56  1  0  0  0
M  CHG  1   3   1
M  END
> <s_m_entry_id>
8540

> <s_m_entry_name>
dock_pv.50

> <s_m_Source_Path>
/home/csk/Desktop/cluster/DUD-E-result/aces

> <s_m_Source_File>
dock_pv.maegz

> <i_m_Source_File_Index>
50

> <chembl_id>
CHEMBL187818

> <chembl_pref_name>
None

> <i_lp_mmshare_version>
53161

> <i_f3d_flags>
0

> <r_lp_tautomer_probability>
0.999999960000001

> <s_lp_Force_Field>
OPLS_2005

> <r_lp_Energy>
37.863236

> <b_lp_Chiralities_Consistent>
1

> <s_lp_Variant>
CHEMBL220_lig850-2

> <s_i_glide_gridfile>
glide-grid_1e66

> <i_i_glide_lignum>
1105

> <i_i_glide_rotatable_bonds>
8

> <r_i_docking_score>
-8.27154579328078

> <r_i_glide_ligand_efficiency>
-0.266824057847767

> <r_i_glide_ligand_efficiency_sa>
-0.838195931956086

> <r_i_glide_ligand_efficiency_ln>
-1.86548706882009

> <r_i_glide_gscore>
-8.27154579328078

> <r_i_glide_lipo>
-4.18168531397561

> <r_i_glide_hbond>
0

> <r_i_glide_metal>
0

> <r_i_glide_rewards>
-1.84400876113983

> <r_i_glide_evdw>
-48.3475189208984

> <r_i_glide_ecoul>
-3.00611567497253

> <r_i_glide_erotb>
0.622441579125463

> <r_i_glide_esite>
0

> <r_i_glide_emodel>
-73.4640845741198

> <r_i_glide_energy>
-51.353634595871

> <r_i_glide_einternal>
12.8737010955811

> <i_i_glide_confnum>
21

> <i_i_glide_posenum>
133

> <r_i_glide_eff_state_penalty>
0

> <s_user_duplicate_titles>
CHEMBL220_lig850,313849

> <s_m_subgroup_title>
dock_pv

> <s_m_subgroupid>
dock_pv

> <b_m_subgroup_collapsed>
0

$$$$
CHEMBL220_lig253
                    3D
 Schrodinger Suite 2021-1.
 58 61  0  0  1  0            999 V2000
    0.0507   64.1356   69.9695 S   0  0  0  0  0  0
    0.9973   65.6182   69.9262 C   0  0  0  0  0  0
    1.4697   63.1613   70.3037 C   0  0  0  0  0  0
    0.3131   67.8546   65.6565 N   0  3  2  0  0  0
    2.6436   63.9505   70.2270 C   0  0  0  0  0  0
    2.3432   65.3157   69.9888 C   0  0  0  0  0  0
    1.5159   61.7949   70.6220 C   0  0  0  0  0  0
    2.7636   61.2060   70.8771 C   0  0  0  0  0  0
    3.8833   63.3276   70.4237 C   0  0  0  0  0  0
    3.9270   61.9758   70.7609 C   0  0  0  0  0  0
    0.1479   68.4224   64.2160 C   0  0  0  0  0  0
    0.3390   66.9896   69.9551 C   0  0  0  0  0  0
   -1.1026   67.6242   66.2723 C   0  0  0  0  0  0
    0.9640   68.9427   66.5503 C   0  0  0  0  0  0
    2.9298   59.8878   71.2652 O   0  0  0  0  0  0
    5.1512   61.4056   70.9926 O   0  0  0  0  0  0
    0.0327   67.7080   68.6065 C   0  0  2  0  0  0
    1.0899   66.5081   65.6115 C   0  0  0  0  0  0
    1.3733   68.6459   63.3050 C   0  0  0  0  0  0
   -1.0136   67.0375   67.6957 C   0  0  0  0  0  0
    1.1976   68.4476   67.9711 C   0  0  0  0  0  0
    1.7946   59.1084   71.6201 C   0  0  0  0  0  0
    5.4941   61.3077   72.3681 C   0  0  0  0  0  0
    1.1123   68.7792   61.9417 C   0  0  0  0  0  0
    2.7125   68.6784   63.7388 C   0  0  0  0  0  0
    3.7542   68.8453   62.8315 C   0  0  0  0  0  0
    2.1564   68.9080   61.0341 C   0  0  0  0  0  0
    3.4738   68.9497   61.4764 C   0  0  0  0  0  0
    3.1097   66.0732   69.9697 H   0  0  0  0  0  0
    0.5997   61.2273   70.6892 H   0  0  0  0  0  0
    4.7980   63.8974   70.3651 H   0  0  0  0  0  0
   -0.5070   67.7080   63.7223 H   0  0  0  0  0  0
   -0.4517   69.3252   64.3140 H   0  0  0  0  0  0
   -0.5779   66.9080   70.5390 H   0  0  0  0  0  0
    0.9699   67.6575   70.5415 H   0  0  0  0  0  0
   -1.6117   68.5899   66.2869 H   0  0  0  0  0  0
   -1.6916   66.9888   65.6257 H   0  0  0  0  0  0
    0.2212   69.7297   66.5912 H   0  0  0  0  0  0
    1.8583   69.3766   66.1255 H   0  0  0  0  0  0
   -0.4570   68.6595   68.7680 H   0  0  0  0  0  0
    0.4278   65.7695   65.1679 H   0  0  0  0  0  0
    1.9999   66.6003   65.0295 H   0  0  0  0  0  0
    1.3372   66.1858   66.6157 H   0  0  0  0  0  0
   -0.7256   65.9959   67.5905 H   0  0  0  0  0  0
   -1.9909   67.0035   68.1802 H   0  0  0  0  0  0
    1.6060   69.2277   68.6198 H   0  0  0  0  0  0
    1.9430   67.7080   67.9028 H   0  0  0  0  0  0
    2.1259   58.1333   71.9774 H   0  0  0  0  0  0
    1.2209   59.5761   72.4219 H   0  0  0  0  0  0
    1.1431   58.9399   70.7681 H   0  0  0  0  0  0
    6.3430   60.6366   72.4756 H   0  0  0  0  0  0
    4.6869   60.9033   72.9824 H   0  0  0  0  0  0
    5.7770   62.2823   72.7682 H   0  0  0  0  0  0
    0.0984   68.7307   61.5707 H   0  0  0  0  0  0
    3.0105   68.5369   64.7607 H   0  0  0  0  0  0
    4.7792   68.8674   63.1734 H   0  0  0  0  0  0
    1.9366   68.9080   59.9769 H   0  0  0  0  0  0
    4.2861   69.0402   60.7679 H   0  0  0  0  0  0
  1  2  1  0  0  0
  1  3  1  0  0  0
  2  6  2  0  0  0
  2 12  1  0  0  0
  3  5  1  0  0  0
  3  7  2  0  0  0
  4 13  1  0  0  0
  4 11  1  0  0  0
  4 18  1  0  0  0
  4 14  1  0  0  0
  5  9  2  0  0  0
  5  6  1  0  0  0
  6 29  1  0  0  0
  7  8  1  0  0  0
  7 30  1  0  0  0
  8 10  2  0  0  0
  8 15  1  0  0  0
  9 10  1  0  0  0
  9 31  1  0  0  0
 10 16  1  0  0  0
 11 19  1  0  0  0
 11 32  1  0  0  0
 11 33  1  0  0  0
 12 17  1  0  0  0
 12 34  1  0  0  0
 12 35  1  0  0  0
 13 20  1  0  0  0
 13 36  1  0  0  0
 13 37  1  0  0  0
 14 21  1  0  0  0
 14 38  1  0  0  0
 14 39  1  0  0  0
 15 22  1  0  0  0
 16 23  1  0  0  0
 17 20  1  0  0  0
 17 21  1  0  0  0
 17 40  1  0  0  0
 18 41  1  0  0  0
 18 42  1  0  0  0
 18 43  1  0  0  0
 19 24  2  0  0  0
 19 25  1  0  0  0
 20 44  1  0  0  0
 20 45  1  0  0  0
 21 46  1  0  0  0
 21 47  1  0  0  0
 22 48  1  0  0  0
 22 49  1  0  0  0
 22 50  1  0  0  0
 23 51  1  0  0  0
 23 52  1  0  0  0
 23 53  1  0  0  0
 24 27  1  0  0  0
 24 54  1  0  0  0
 25 26  2  0  0  0
 25 55  1  0  0  0
 26 28  1  0  0  0
 26 56  1  0  0  0
 27 28  2  0  0  0
 27 57  1  0  0  0
 28 58  1  0  0  0
M  CHG  1   4   1
M  END
> <s_m_entry_id>
8541

> <s_m_entry_name>
dock_pv.51

> <s_m_Source_Path>
/home/csk/Desktop/cluster/DUD-E-result/aces

> <s_m_Source_File>
dock_pv.maegz

> <i_m_Source_File_Index>
51

> <chembl_id>
CHEMBL86233

> <chembl_pref_name>
None

> <i_lp_mmshare_version>
53161

> <i_f3d_flags>
0

> <r_lp_tautomer_probability>
1

> <s_lp_Force_Field>
OPLS_2005

> <r_lp_Energy>
35.683477

> <b_lp_Chiralities_Consistent>
1

> <s_lp_Variant>
CHEMBL220_lig253-2

> <s_i_glide_gridfile>
glide-grid_1e66

> <i_i_glide_lignum>
299

> <i_i_glide_rotatable_bonds>
6

> <r_i_docking_score>
-8.27139625133112

> <r_i_glide_ligand_efficiency>
-0.295407008976111

> <r_i_glide_ligand_efficiency_sa>
-0.897029664675273

> <r_i_glide_ligand_efficiency_ln>
-1.90928111355403

> <r_i_glide_gscore>
-8.27139625133112

> <r_i_glide_lipo>
-4.42290434365078

> <r_i_glide_hbond>
0

> <r_i_glide_metal>
0

> <r_i_glide_rewards>
-1.76827334041862

> <r_i_glide_evdw>
-31.3974838256836

> <r_i_glide_ecoul>
-6.72002840042114

> <r_i_glide_erotb>
0.497659884085633

> <r_i_glide_esite>
0

> <r_i_glide_emodel>
-34.3411309826682

> <r_i_glide_energy>
-38.1175122261047

> <r_i_glide_einternal>
22.3816909790039

> <i_i_glide_confnum>
1

> <i_i_glide_posenum>
275

> <r_i_glide_eff_state_penalty>
0

> <s_user_duplicate_titles>
CHEMBL220_lig253

> <s_m_subgroup_title>
dock_pv

> <s_m_subgroupid>
dock_pv

> <b_m_subgroup_collapsed>
0

$$$$
CHEMBL220_lig501
                    3D
 Schrodinger Suite 2021-1.
 30 33  0  0  1  0            999 V2000
    2.6755   68.8628   65.4460 C   0  0  0  0  0  0
    2.1010   69.1981   66.6637 C   0  0  0  0  0  0
    2.7428   69.8232   67.6751 N   0  0  0  0  0  0
    4.0387   69.0947   65.2576 C   0  0  0  0  0  0
    0.6645   68.9086   66.6203 C   0  0  0  0  0  0
    0.3459   68.5079   65.3266 C   0  0  0  0  0  0
    1.6064   68.3423   64.5047 C   0  0  0  0  0  0
    4.7748   69.7081   66.3217 C   0  0  0  0  0  0
    4.0618   70.1079   67.5004 C   0  0  0  0  0  0
   -0.3330   69.1188   67.5680 C   0  0  0  0  0  0
   -0.9944   68.3946   64.9565 C   0  0  0  0  0  0
    4.6367   68.7469   64.0419 N   0  0  0  0  0  0
   -2.0023   68.6105   65.8980 C   0  0  0  0  0  0
   -1.6676   68.9544   67.2016 C   0  0  0  0  0  0
   -3.3045   68.5083   65.5533 F   0  0  0  0  0  0
    6.1754   69.9262   66.2796 C   0  0  0  0  0  0
    4.7462   70.7760   68.5436 C   0  0  0  0  0  0
    6.8296   70.5080   67.3571 C   0  0  0  0  0  0
    6.1234   70.9567   68.4653 C   0  0  0  0  0  0
    1.7733   67.3100   64.1978 H   0  0  0  0  0  0
    1.5631   68.9381   63.5923 H   0  0  0  0  0  0
   -0.0801   69.4538   68.5647 H   0  0  0  0  0  0
   -1.2671   68.1125   63.9505 H   0  0  0  0  0  0
    5.5674   69.0936   63.8550 H   0  0  0  0  0  0
    4.0325   68.5022   63.2726 H   0  0  0  0  0  0
   -2.4549   69.1273   67.9206 H   0  0  0  0  0  0
    6.7429   69.6112   65.4183 H   0  0  0  0  0  0
    4.1995   71.0847   69.4233 H   0  0  0  0  0  0
    7.8995   70.6342   67.3173 H   0  0  0  0  0  0
    6.6530   71.4287   69.2799 H   0  0  0  0  0  0
  1  2  1  0  0  0
  1  4  2  0  0  0
  1  7  1  0  0  0
  2  3  2  0  0  0
  2  5  1  0  0  0
  3  9  1  0  0  0
  4  8  1  0  0  0
  4 12  1  0  0  0
  5 10  1  0  0  0
  5  6  2  0  0  0
  6  7  1  0  0  0
  6 11  1  0  0  0
  7 20  1  0  0  0
  7 21  1  0  0  0
  8  9  1  0  0  0
  8 16  2  0  0  0
  9 17  2  0  0  0
 10 14  2  0  0  0
 10 22  1  0  0  0
 11 13  2  0  0  0
 11 23  1  0  0  0
 12 24  1  0  0  0
 12 25  1  0  0  0
 13 15  1  0  0  0
 13 14  1  0  0  0
 14 26  1  0  0  0
 16 18  1  0  0  0
 16 27  1  0  0  0
 17 19  1  0  0  0
 17 28  1  0  0  0
 18 19  2  0  0  0
 18 29  1  0  0  0
 19 30  1  0  0  0
M  END
> <s_m_entry_id>
8542

> <s_m_entry_name>
dock_pv.52

> <s_m_Source_Path>
/home/csk/Desktop/cluster/DUD-E-result/aces

> <s_m_Source_File>
dock_pv.maegz

> <i_m_Source_File_Index>
52

> <chembl_id>
CHEMBL292121

> <chembl_pref_name>
None

> <i_lp_mmshare_version>
53161

> <i_f3d_flags>
0

> <r_lp_tautomer_probability>
1

> <s_lp_Force_Field>
OPLS_2005

> <r_lp_Energy>
36.420558

> <b_lp_Chiralities_Consistent>
1

> <s_lp_Variant>
CHEMBL220_lig501-1

> <s_i_glide_gridfile>
glide-grid_1e66

> <i_i_glide_lignum>
579

> <i_i_glide_rotatable_bonds>
0

> <r_i_docking_score>
-8.2680286857525

> <r_i_glide_ligand_efficiency>
-0.435159404513289

> <r_i_glide_ligand_efficiency_sa>
-1.16118007132045

> <r_i_glide_ligand_efficiency_ln>
-2.09612285281182

> <r_i_glide_gscore>
-8.2680286857525

> <r_i_glide_lipo>
-3.98771368026651

> <r_i_glide_hbond>
0

> <r_i_glide_metal>
0

> <r_i_glide_rewards>
-2.72072027594326

> <r_i_glide_evdw>
-29.9460430145264

> <r_i_glide_ecoul>
-0.415283858776093

> <r_i_glide_erotb>
0

> <r_i_glide_esite>
0

> <r_i_glide_emodel>
-43.2947600518526

> <r_i_glide_energy>
-30.3613268733025

> <r_i_glide_einternal>
0

> <i_i_glide_confnum>
1

> <i_i_glide_posenum>
177

> <r_i_glide_eff_state_penalty>
0

> <s_user_duplicate_titles>
CHEMBL220_lig501

> <s_m_subgroup_title>
dock_pv

> <s_m_subgroupid>
dock_pv

> <b_m_subgroup_collapsed>
0

$$$$
CHEMBL220_lig525
                    3D
 Schrodinger Suite 2021-1.
 42 45  0  0  1  0            999 V2000
    3.2290   69.2759   65.8624 C   0  0  0  0  0  0
    5.9188   69.2517   65.0703 N   0  0  0  0  0  0
    5.5810   69.7675   66.2762 C   0  0  0  0  0  0
    4.2274   69.8283   66.7096 C   0  0  0  0  0  0
    3.5822   68.8252   64.5738 C   0  0  0  0  0  0
    4.9477   68.8619   64.2095 C   0  0  0  0  0  0
    1.8967   69.2379   66.3061 N   0  0  0  0  0  0
    6.6083   70.2574   67.1201 C   0  0  0  0  0  0
    3.9446   70.4244   67.9686 C   0  0  0  0  0  0
    6.2919   70.8118   68.3593 C   0  0  0  0  0  0
    1.3131   67.9326   66.6090 C   0  0  0  0  0  0
    4.9683   70.9080   68.7674 C   0  0  0  0  0  0
    7.5429   71.3078   69.4358 Cl  0  0  0  0  0  0
    2.5266   68.3067   63.5818 C   0  0  0  0  0  0
   -0.2061   67.9933   66.5819 C   0  0  0  0  0  0
    5.4105   68.4611   62.8051 C   0  0  0  0  0  0
   -0.8840   68.6687   65.5592 C   0  0  0  0  0  0
   -0.9331   67.3216   67.5684 C   0  0  0  0  0  0
    3.0315   68.2266   62.1352 C   0  0  0  0  0  0
    4.4021   67.5347   62.1052 C   0  0  0  0  0  0
   -2.3227   67.3874   67.5682 C   0  0  0  0  0  0
   -2.2714   68.7414   65.5678 C   0  0  0  0  0  0
   -2.9799   68.1082   66.5773 C   0  0  0  0  0  0
    1.7118   69.8924   67.0534 H   0  0  0  0  0  0
    7.6351   70.1802   66.7958 H   0  0  0  0  0  0
    2.9281   70.4877   68.3296 H   0  0  0  0  0  0
    1.6171   67.6632   67.6213 H   0  0  0  0  0  0
    1.6565   67.1428   65.9424 H   0  0  0  0  0  0
    4.7150   71.3071   69.7332 H   0  0  0  0  0  0
    2.2220   67.3083   63.8933 H   0  0  0  0  0  0
    1.6331   68.9300   63.6136 H   0  0  0  0  0  0
    6.4038   68.0145   62.8250 H   0  0  0  0  0  0
    5.5210   69.3708   62.2127 H   0  0  0  0  0  0
   -0.3463   69.1588   64.7636 H   0  0  0  0  0  0
   -0.4261   66.7731   68.3486 H   0  0  0  0  0  0
    2.3006   67.7080   61.5187 H   0  0  0  0  0  0
    3.1073   69.2300   61.7113 H   0  0  0  0  0  0
    4.3585   66.5696   62.6106 H   0  0  0  0  0  0
    4.7109   67.3230   61.0820 H   0  0  0  0  0  0
   -2.8956   66.9079   68.3475 H   0  0  0  0  0  0
   -2.7945   69.2883   64.7963 H   0  0  0  0  0  0
   -4.0570   68.1683   66.5869 H   0  0  0  0  0  0
  1  4  1  0  0  0
  1  5  2  0  0  0
  1  7  1  0  0  0
  2  6  2  0  0  0
  2  3  1  0  0  0
  3  4  1  0  0  0
  3  8  2  0  0  0
  4  9  2  0  0  0
  5  6  1  0  0  0
  5 14  1  0  0  0
  6 16  1  0  0  0
  7 11  1  0  0  0
  7 24  1  0  0  0
  8 10  1  0  0  0
  8 25  1  0  0  0
  9 12  1  0  0  0
  9 26  1  0  0  0
 10 12  2  0  0  0
 10 13  1  0  0  0
 11 15  1  0  0  0
 11 27  1  0  0  0
 11 28  1  0  0  0
 12 29  1  0  0  0
 14 19  1  0  0  0
 14 30  1  0  0  0
 14 31  1  0  0  0
 15 17  1  0  0  0
 15 18  2  0  0  0
 16 20  1  0  0  0
 16 32  1  0  0  0
 16 33  1  0  0  0
 17 22  2  0  0  0
 17 34  1  0  0  0
 18 21  1  0  0  0
 18 35  1  0  0  0
 19 20  1  0  0  0
 19 36  1  0  0  0
 19 37  1  0  0  0
 20 38  1  0  0  0
 20 39  1  0  0  0
 21 23  2  0  0  0
 21 40  1  0  0  0
 22 23  1  0  0  0
 22 41  1  0  0  0
 23 42  1  0  0  0
M  END
> <s_m_entry_id>
8543

> <s_m_entry_name>
dock_pv.53

> <s_m_Source_Path>
/home/csk/Desktop/cluster/DUD-E-result/aces

> <s_m_Source_File>
dock_pv.maegz

> <i_m_Source_File_Index>
53

> <chembl_id>
CHEMBL59628

> <chembl_pref_name>
None

> <i_lp_mmshare_version>
53161

> <i_f3d_flags>
0

> <r_lp_tautomer_probability>
1

> <s_lp_Force_Field>
OPLS_2005

> <r_lp_Energy>
28.673992

> <b_lp_Chiralities_Consistent>
1

> <s_lp_Variant>
CHEMBL220_lig525-1

> <s_i_glide_gridfile>
glide-grid_1e66

> <i_i_glide_lignum>
606

> <i_i_glide_rotatable_bonds>
3

> <r_i_docking_score>
-8.26623363158132

> <r_i_glide_ligand_efficiency>
-0.359401462242666

> <r_i_glide_ligand_efficiency_sa>
-1.02208994991403

> <r_i_glide_ligand_efficiency_ln>
-1.99885024617888

> <r_i_glide_gscore>
-8.26623363158132

> <r_i_glide_lipo>
-4.96066440829386

> <r_i_glide_hbond>
0

> <r_i_glide_metal>
0

> <r_i_glide_rewards>
-2.04295586579819

> <r_i_glide_evdw>
-38.6801109313965

> <r_i_glide_ecoul>
0.886281251907349

> <r_i_glide_erotb>
0.538450001294454

> <r_i_glide_esite>
0

> <r_i_glide_emodel>
-53.2135355612042

> <r_i_glide_energy>
-37.7938296794891

> <r_i_glide_einternal>
2.59820961952209

> <i_i_glide_confnum>
1

> <i_i_glide_posenum>
322

> <r_i_glide_eff_state_penalty>
0

> <s_user_duplicate_titles>
CHEMBL220_lig525,95737

> <s_m_subgroup_title>
dock_pv

> <s_m_subgroupid>
dock_pv

> <b_m_subgroup_collapsed>
0

$$$$
CHEMBL220_lig847
                    3D
 Schrodinger Suite 2021-1.
 53 56  0  0  1  0            999 V2000
    2.3973   64.5070   69.9679 S   0  0  0  0  0  0
    2.1019   62.9538   70.7417 C   0  0  0  0  0  0
    2.0330   68.6028   64.0428 N   0  3  0  0  0  0
    0.8179   62.8408   71.2691 C   0  0  0  0  0  0
    0.8247   65.2163   70.5635 C   0  0  2  0  0  0
    2.9940   61.8873   70.8288 C   0  0  0  0  0  0
   -0.0560   64.0451   71.0382 C   0  0  0  0  0  0
    2.6025   60.6935   71.4384 C   0  0  0  0  0  0
    0.4107   61.6350   71.8453 C   0  0  0  0  0  0
    1.2953   60.5449   71.9379 C   0  0  0  0  0  0
    0.2138   66.1387   69.4781 C   0  0  0  0  0  0
    1.6544   69.6646   61.7429 C   0  0  0  0  0  0
    0.4673   69.1083   60.9962 C   0  0  0  0  0  0
    0.2499   70.1229   62.0935 C   0  0  0  0  0  0
    2.5041   68.7217   62.6387 C   0  0  0  0  0  0
   -0.9734   66.1079   69.1677 O   0  0  0  0  0  0
    1.1417   67.1191   68.7738 C   0  0  0  0  0  0
    0.8951   67.9067   64.2909 C   0  0  0  0  0  0
    2.7413   69.1832   65.0475 C   0  0  0  0  0  0
    1.0692   68.4481   66.6336 C   0  0  0  0  0  0
    0.5218   68.3335   68.0465 C   0  0  0  0  0  0
    3.5151   59.6689   71.5048 O   0  0  0  0  0  0
    0.9517   59.3212   72.4861 O   0  0  0  0  0  0
    0.3877   67.8280   65.5835 C   0  0  0  0  0  0
    2.2704   69.1168   66.3652 C   0  0  0  0  0  0
    4.0541   59.4466   72.8027 C   0  0  0  0  0  0
   -0.3299   59.1514   73.0822 C   0  0  0  0  0  0
    1.0770   65.8474   71.4157 H   0  0  0  0  0  0
    3.9919   61.9689   70.4273 H   0  0  0  0  0  0
   -0.8092   63.7799   70.2945 H   0  0  0  0  0  0
   -0.5617   64.3151   71.9643 H   0  0  0  0  0  0
   -0.6023   61.5508   72.2131 H   0  0  0  0  0  0
    2.2863   70.3458   61.1728 H   0  0  0  0  0  0
    0.3396   69.4003   59.9543 H   0  0  0  0  0  0
    0.1483   68.0836   61.1679 H   0  0  0  0  0  0
   -0.2377   69.8092   63.0137 H   0  0  0  0  0  0
   -0.0570   71.1281   61.8141 H   0  0  0  0  0  0
    3.5442   69.0588   62.6652 H   0  0  0  0  0  0
    2.5362   67.7086   62.2360 H   0  0  0  0  0  0
    1.9489   67.4269   69.4372 H   0  0  0  0  0  0
    1.5545   66.4722   68.0043 H   0  0  0  0  0  0
    0.3974   67.4562   63.4422 H   0  0  0  0  0  0
    3.6421   69.7187   64.7744 H   0  0  0  0  0  0
   -0.5689   68.3029   67.9928 H   0  0  0  0  0  0
    0.7481   69.2551   68.5902 H   0  0  0  0  0  0
   -0.5321   67.2885   65.7656 H   0  0  0  0  0  0
    2.8213   69.5906   67.1655 H   0  0  0  0  0  0
    4.7421   58.6052   72.7708 H   0  0  0  0  0  0
    4.6107   60.3173   73.1556 H   0  0  0  0  0  0
    3.2851   59.2078   73.5390 H   0  0  0  0  0  0
   -0.4196   58.1326   73.4562 H   0  0  0  0  0  0
   -1.1378   59.3095   72.3682 H   0  0  0  0  0  0
   -0.4667   59.8276   73.9266 H   0  0  0  0  0  0
  1  2  1  0  0  0
  1  5  1  0  0  0
  2  4  2  0  0  0
  2  6  1  0  0  0
  3 19  2  0  0  0
  3 15  1  0  0  0
  3 18  1  0  0  0
  4  9  1  0  0  0
  4  7  1  0  0  0
  5  7  1  0  0  0
  5 11  1  0  0  0
  5 28  1  0  0  0
  6  8  2  0  0  0
  6 29  1  0  0  0
  7 30  1  0  0  0
  7 31  1  0  0  0
  8 10  1  0  0  0
  8 22  1  0  0  0
  9 10  2  0  0  0
  9 32  1  0  0  0
 10 23  1  0  0  0
 11 16  2  0  0  0
 11 17  1  0  0  0
 12 15  1  0  0  0
 12 13  1  0  0  0
 12 14  1  0  0  0
 12 33  1  0  0  0
 13 14  1  0  0  0
 13 34  1  0  0  0
 13 35  1  0  0  0
 14 36  1  0  0  0
 14 37  1  0  0  0
 15 38  1  0  0  0
 15 39  1  0  0  0
 17 21  1  0  0  0
 17 40  1  0  0  0
 17 41  1  0  0  0
 18 24  2  0  0  0
 18 42  1  0  0  0
 19 25  1  0  0  0
 19 43  1  0  0  0
 20 21  1  0  0  0
 20 24  1  0  0  0
 20 25  2  0  0  0
 21 44  1  0  0  0
 21 45  1  0  0  0
 22 26  1  0  0  0
 23 27  1  0  0  0
 24 46  1  0  0  0
 25 47  1  0  0  0
 26 48  1  0  0  0
 26 49  1  0  0  0
 26 50  1  0  0  0
 27 51  1  0  0  0
 27 52  1  0  0  0
 27 53  1  0  0  0
M  CHG  1   3   1
M  END
> <s_m_entry_id>
8544

> <s_m_entry_name>
dock_pv.54

> <s_m_Source_Path>
/home/csk/Desktop/cluster/DUD-E-result/aces

> <s_m_Source_File>
dock_pv.maegz

> <i_m_Source_File_Index>
54

> <chembl_id>
CHEMBL189517

> <chembl_pref_name>
None

> <i_lp_mmshare_version>
53161

> <i_f3d_flags>
0

> <r_lp_tautomer_probability>
0.999999960000001

> <s_lp_Force_Field>
OPLS_2005

> <r_lp_Energy>
43.792809

> <b_lp_Chiralities_Consistent>
1

> <s_lp_Variant>
CHEMBL220_lig847-1

> <s_i_glide_gridfile>
glide-grid_1e66

> <i_i_glide_lignum>
1098

> <i_i_glide_rotatable_bonds>
8

> <r_i_docking_score>
-8.26260232643986

> <r_i_glide_ligand_efficiency>
-0.306022308386662

> <r_i_glide_ligand_efficiency_sa>
-0.918066924151385

> <r_i_glide_ligand_efficiency_ln>
-1.9233976019497

> <r_i_glide_gscore>
-8.26260232643986

> <r_i_glide_lipo>
-3.98903639349269

> <r_i_glide_hbond>
0

> <r_i_glide_metal>
0

> <r_i_glide_rewards>
-2.25151311152221

> <r_i_glide_evdw>
-39.9879608154297

> <r_i_glide_ecoul>
-5.41132736206055

> <r_i_glide_erotb>
0.789044323655597

> <r_i_glide_esite>
0

> <r_i_glide_emodel>
-63.7939358926965

> <r_i_glide_energy>
-45.3992881774902

> <r_i_glide_einternal>
15.1913137435913

> <i_i_glide_confnum>
7

> <i_i_glide_posenum>
69

> <r_i_glide_eff_state_penalty>
0

> <s_user_duplicate_titles>
CHEMBL220_lig847,313662

> <s_m_subgroup_title>
dock_pv

> <s_m_subgroupid>
dock_pv

> <b_m_subgroup_collapsed>
0

$$$$
CHEMBL220_lig1180
                    3D
 Schrodinger Suite 2021-1.
 61 64  0  0  1  0            999 V2000
    6.4391   70.5062   66.9177 C   0  0  0  0  0  0
    5.9892   70.9080   68.1673 C   0  0  0  0  0  0
    4.6579   70.7229   68.5112 C   0  0  0  0  0  0
    5.5627   69.9720   65.9806 C   0  0  0  0  0  0
    4.1901   69.7381   66.2909 C   0  0  0  0  0  0
    3.7639   70.1083   67.6035 C   0  0  0  0  0  0
    2.5103   69.8854   68.0493 N   0  0  0  0  0  0
    3.1931   69.1715   65.4100 C   0  0  0  0  0  0
    1.9050   68.8883   65.9275 C   0  0  0  0  0  0
    1.6218   69.2478   67.2617 C   0  0  0  0  0  0
    0.2524   69.0009   67.8826 C   0  0  0  0  0  0
   -0.8611   69.0942   66.8366 C   0  0  0  0  0  0
   -0.5816   68.0742   65.7305 C   0  0  0  0  0  0
    0.7890   68.2730   65.0447 C   0  0  0  0  0  0
    3.3546   68.8735   64.0346 N   0  0  0  0  0  0
    4.4351   69.2367   63.1244 C   0  0  0  0  0  0
    5.5329   68.1539   62.9387 C   0  0  0  0  0  0
    5.0514   66.7293   62.5870 C   0  0  0  0  0  0
    4.2270   66.1517   63.6470 N   0  0  0  0  0  0
    4.1654   64.8816   64.0769 C   0  0  0  0  0  0
    3.1506   64.6142   65.2068 C   0  0  0  0  0  0
    4.8459   63.9802   63.5938 O   0  0  0  0  0  0
    3.6638   63.6959   66.1903 O   0  0  0  0  0  0
    3.5430   64.2591   67.4909 N   0  0  0  0  0  0
    3.6181   63.4107   68.4436 N   0  3  0  0  0  0
    3.9422   62.1925   68.3679 O   0  5  0  0  0  0
    3.5004   63.9765   69.7509 N   0  0  0  0  0  0
    3.3636   63.0224   70.8565 C   0  0  0  0  0  0
    1.8798   62.6541   70.8823 C   0  0  0  0  0  0
    1.1829   63.9368   70.4318 C   0  0  0  0  0  0
    2.3233   64.8423   69.9418 C   0  0  0  0  0  0
    7.4797   70.6320   66.6567 H   0  0  0  0  0  0
    6.6774   71.3474   68.8750 H   0  0  0  0  0  0
    4.3036   70.9975   69.4931 H   0  0  0  0  0  0
    5.9821   69.7313   65.0287 H   0  0  0  0  0  0
    0.0548   69.7057   68.6916 H   0  0  0  0  0  0
    0.2639   68.0082   68.3360 H   0  0  0  0  0  0
   -0.9197   70.1053   66.4287 H   0  0  0  0  0  0
   -1.8282   68.8931   67.3012 H   0  0  0  0  0  0
   -1.3751   68.1116   64.9833 H   0  0  0  0  0  0
   -0.6229   67.0697   66.1561 H   0  0  0  0  0  0
    0.6383   68.9161   64.1765 H   0  0  0  0  0  0
    1.1198   67.3153   64.6416 H   0  0  0  0  0  0
    2.5554   68.4500   63.5882 H   0  0  0  0  0  0
    4.8457   70.2171   63.3634 H   0  0  0  0  0  0
    3.9378   69.3773   62.1642 H   0  0  0  0  0  0
    6.1564   68.0995   63.8258 H   0  0  0  0  0  0
    6.2097   68.4935   62.1525 H   0  0  0  0  0  0
    5.9097   66.1053   62.3547 H   0  0  0  0  0  0
    4.4345   66.7720   61.6889 H   0  0  0  0  0  0
    3.6601   66.8379   64.1317 H   0  0  0  0  0  0
    2.2775   64.1516   64.7440 H   0  0  0  0  0  0
    2.7993   65.5625   65.6266 H   0  0  0  0  0  0
    3.6524   63.5033   71.7910 H   0  0  0  0  0  0
    4.0096   62.1527   70.7378 H   0  0  0  0  0  0
    1.5629   62.3390   71.8775 H   0  0  0  0  0  0
    1.6748   61.8215   70.2085 H   0  0  0  0  0  0
    0.4604   63.7338   69.6389 H   0  0  0  0  0  0
    0.6482   64.4048   71.2611 H   0  0  0  0  0  0
    2.0244   65.3716   69.0352 H   0  0  0  0  0  0
    2.5454   65.6200   70.6786 H   0  0  0  0  0  0
  1  2  2  0  0  0
  1  4  1  0  0  0
  1 32  1  0  0  0
  2  3  1  0  0  0
  2 33  1  0  0  0
  3  6  2  0  0  0
  3 34  1  0  0  0
  4  5  2  0  0  0
  4 35  1  0  0  0
  5  8  1  0  0  0
  5  6  1  0  0  0
  6  7  1  0  0  0
  7 10  2  0  0  0
  8 15  1  0  0  0
  8  9  2  0  0  0
  9 10  1  0  0  0
  9 14  1  0  0  0
 10 11  1  0  0  0
 11 12  1  0  0  0
 11 36  1  0  0  0
 11 37  1  0  0  0
 12 13  1  0  0  0
 12 38  1  0  0  0
 12 39  1  0  0  0
 13 14  1  0  0  0
 13 40  1  0  0  0
 13 41  1  0  0  0
 14 42  1  0  0  0
 14 43  1  0  0  0
 15 16  1  0  0  0
 15 44  1  0  0  0
 16 17  1  0  0  0
 16 45  1  0  0  0
 16 46  1  0  0  0
 17 18  1  0  0  0
 17 47  1  0  0  0
 17 48  1  0  0  0
 18 19  1  0  0  0
 18 49  1  0  0  0
 18 50  1  0  0  0
 19 20  1  0  0  0
 19 51  1  0  0  0
 20 21  1  0  0  0
 20 22  2  0  0  0
 21 23  1  0  0  0
 21 52  1  0  0  0
 21 53  1  0  0  0
 23 24  1  0  0  0
 24 25  2  0  0  0
 25 26  1  0  0  0
 25 27  1  0  0  0
 27 28  1  0  0  0
 27 31  1  0  0  0
 28 29  1  0  0  0
 28 54  1  0  0  0
 28 55  1  0  0  0
 29 30  1  0  0  0
 29 56  1  0  0  0
 29 57  1  0  0  0
 30 31  1  0  0  0
 30 58  1  0  0  0
 30 59  1  0  0  0
 31 60  1  0  0  0
 31 61  1  0  0  0
M  CHG  2  25   1  26  -1
M  END
> <s_m_entry_id>
8545

> <s_m_entry_name>
dock_pv.55

> <s_m_Source_Path>
/home/csk/Desktop/cluster/DUD-E-result/aces

> <s_m_Source_File>
dock_pv.maegz

> <i_m_Source_File_Index>
55

> <chembl_id>
CHEMBL273051

> <chembl_pref_name>
None

> <i_lp_mmshare_version>
53161

> <i_f3d_flags>
0

> <r_lp_tautomer_probability>
1

> <s_lp_Force_Field>
OPLS_2005

> <r_lp_Energy>
55.129793

> <b_lp_Chiralities_Consistent>
1

> <s_lp_Variant>
CHEMBL220_lig1180-1

> <s_i_glide_gridfile>
glide-grid_1e66

> <i_i_glide_lignum>
1595

> <i_i_glide_rotatable_bonds>
10

> <r_i_docking_score>
-8.26188803589967

> <r_i_glide_ligand_efficiency>
-0.266512517287086

> <r_i_glide_ligand_efficiency_sa>
-0.837217264467448

> <r_i_glide_ligand_efficiency_ln>
-1.86330894855593

> <r_i_glide_gscore>
-8.26188803589967

> <r_i_glide_lipo>
-4.18563287797802

> <r_i_glide_hbond>
-0.114913295143251

> <r_i_glide_metal>
0

> <r_i_glide_rewards>
-1.77077328791627

> <r_i_glide_evdw>
-37.9630470275879

> <r_i_glide_ecoul>
-6.6071457862854

> <r_i_glide_erotb>
0.872803628073312

> <r_i_glide_esite>
-0.174147983613244

> <r_i_glide_emodel>
-53.2960004867828

> <r_i_glide_energy>
-44.5701928138733

> <r_i_glide_einternal>
7.08916854858398

> <i_i_glide_confnum>
59

> <i_i_glide_posenum>
15

> <r_i_glide_eff_state_penalty>
0

> <s_user_duplicate_titles>
CHEMBL220_lig1180,441996

> <s_m_subgroup_title>
dock_pv

> <s_m_subgroupid>
dock_pv

> <b_m_subgroup_collapsed>
0

$$$$
CHEMBL220_lig352
                    3D
 Schrodinger Suite 2021-1.
 35 36  0  0  1  0            999 V2000
    4.6153   68.7167   63.3997 N   0  3  0  0  0  0
    3.1152   68.5021   63.5628 C   0  0  0  0  0  0
    2.1978   69.2860   62.8434 C   0  0  0  0  0  0
    5.4492   68.5427   64.7117 C   0  0  0  0  0  0
    0.8273   69.1005   63.0233 C   0  0  0  0  0  0
    5.2606   69.5082   65.8935 C   0  0  0  0  0  0
    5.0063   70.1143   62.8574 C   0  0  0  0  0  0
    5.1590   67.6918   62.3718 C   0  0  0  0  0  0
   -0.0567   69.9154   62.3680 O   0  0  0  0  0  0
    2.6392   67.4783   64.4006 C   0  0  0  0  0  0
    1.2658   67.3096   64.5864 C   0  0  0  0  0  0
    0.3629   68.1244   63.9032 C   0  0  0  0  0  0
    4.0233   69.6814   66.5265 C   0  0  0  0  0  0
    6.3956   70.1085   66.4475 C   0  0  0  0  0  0
    6.3171   70.7852   67.6621 C   0  0  0  0  0  0
    3.9462   70.3346   67.7536 C   0  0  0  0  0  0
    5.0959   70.8706   68.3223 C   0  0  0  0  0  0
    2.5116   70.0595   62.1606 H   0  0  0  0  0  0
    6.4913   68.5669   64.3871 H   0  0  0  0  0  0
    5.2839   67.5246   65.0508 H   0  0  0  0  0  0
    6.0897   70.2069   62.8820 H   0  0  0  0  0  0
    4.6511   70.2152   61.8317 H   0  0  0  0  0  0
    4.5576   70.8565   63.5168 H   0  0  0  0  0  0
    6.2193   67.8845   62.1922 H   0  0  0  0  0  0
    5.0010   66.6937   62.7797 H   0  0  0  0  0  0
    4.5943   67.8238   61.4472 H   0  0  0  0  0  0
   -0.9221   69.9512   62.7898 H   0  0  0  0  0  0
    3.3013   66.8220   64.9424 H   0  0  0  0  0  0
    0.8938   66.5426   65.2521 H   0  0  0  0  0  0
   -0.6980   67.9856   64.0546 H   0  0  0  0  0  0
    3.1196   69.2459   66.1386 H   0  0  0  0  0  0
    7.3579   69.9977   65.9705 H   0  0  0  0  0  0
    7.2061   71.2011   68.1126 H   0  0  0  0  0  0
    3.0002   70.4064   68.2717 H   0  0  0  0  0  0
    5.0383   71.3080   69.3029 H   0  0  0  0  0  0
  1  2  1  0  0  0
  1  4  1  0  0  0
  1  7  1  0  0  0
  1  8  1  0  0  0
  2  3  1  0  0  0
  2 10  2  0  0  0
  3  5  2  0  0  0
  3 18  1  0  0  0
  4  6  1  0  0  0
  4 19  1  0  0  0
  4 20  1  0  0  0
  5  9  1  0  0  0
  5 12  1  0  0  0
  6 13  1  0  0  0
  6 14  2  0  0  0
  7 21  1  0  0  0
  7 22  1  0  0  0
  7 23  1  0  0  0
  8 24  1  0  0  0
  8 25  1  0  0  0
  8 26  1  0  0  0
  9 27  1  0  0  0
 10 11  1  0  0  0
 10 28  1  0  0  0
 11 12  2  0  0  0
 11 29  1  0  0  0
 12 30  1  0  0  0
 13 16  2  0  0  0
 13 31  1  0  0  0
 14 15  1  0  0  0
 14 32  1  0  0  0
 15 17  2  0  0  0
 15 33  1  0  0  0
 16 17  1  0  0  0
 16 34  1  0  0  0
 17 35  1  0  0  0
M  CHG  1   1   1
M  END
> <s_m_entry_id>
8546

> <s_m_entry_name>
dock_pv.56

> <s_m_Source_Path>
/home/csk/Desktop/cluster/DUD-E-result/aces

> <s_m_Source_File>
dock_pv.maegz

> <i_m_Source_File_Index>
56

> <chembl_id>
CHEMBL60874

> <chembl_pref_name>
None

> <i_lp_mmshare_version>
53161

> <i_f3d_flags>
0

> <r_lp_tautomer_probability>
1

> <s_lp_Force_Field>
OPLS_2005

> <r_lp_Energy>
22.355744

> <b_lp_Chiralities_Consistent>
1

> <s_lp_Variant>
CHEMBL220_lig352-1

> <s_i_glide_gridfile>
glide-grid_1e66

> <i_i_glide_lignum>
406

> <i_i_glide_rotatable_bonds>
4

> <r_i_docking_score>
-8.25830362172456

> <r_i_glide_ligand_efficiency>
-0.485782565983798

> <r_i_glide_ligand_efficiency_sa>
-1.24908376779722

> <r_i_glide_ligand_efficiency_ln>
-2.15440751152813

> <r_i_glide_gscore>
-8.25830362172456

> <r_i_glide_lipo>
-3.39164240217461

> <r_i_glide_hbond>
-0.145456183474316

> <r_i_glide_metal>
0

> <r_i_glide_rewards>
-3.56471983962315

> <r_i_glide_evdw>
-27.7286128997803

> <r_i_glide_ecoul>
-5.0041823387146

> <r_i_glide_erotb>
0.980572799343715

> <r_i_glide_esite>
0

> <r_i_glide_emodel>
-52.0464292687765

> <r_i_glide_energy>
-32.7327952384949

> <r_i_glide_einternal>
4.43910360336304

> <i_i_glide_confnum>
24

> <i_i_glide_posenum>
177

> <r_i_glide_eff_state_penalty>
0

> <s_user_duplicate_titles>
CHEMBL220_lig352

> <s_m_subgroup_title>
dock_pv

> <s_m_subgroupid>
dock_pv

> <b_m_subgroup_collapsed>
0

$$$$
CHEMBL220_lig1024
                    3D
 Schrodinger Suite 2021-1.
 32 34  0  0  1  0            999 V2000
    1.1154   68.1614   62.3256 O   0  0  0  0  0  0
    5.6561   69.8679   64.9180 N   0  0  0  0  0  0
    5.3113   70.5080   68.6108 N   0  0  1  0  0  0
    3.4927   69.2663   64.9497 C   0  0  0  0  0  0
    3.8613   69.7080   66.2664 C   0  0  0  0  0  0
    5.1809   70.0972   66.1854 C   0  0  0  0  0  0
    4.6522   69.3702   64.1223 C   0  0  0  0  0  0
    5.9733   70.7148   67.3250 C   0  0  2  0  0  0
    2.2980   68.8213   64.3723 C   0  0  0  0  0  0
    3.0827   69.8713   67.5696 C   0  0  0  0  0  0
    4.6427   69.0283   62.7680 C   0  0  0  0  0  0
    2.2590   68.5305   63.0003 C   0  0  0  0  0  0
    3.4209   68.6204   62.2353 C   0  0  0  0  0  0
    3.8728   70.7563   68.5843 C   0  0  0  0  0  0
    7.4301   70.2583   67.3047 C   0  0  0  0  0  0
   -0.1179   68.1080   63.0299 C   0  0  0  0  0  0
    6.6087   70.0821   64.6480 H   0  0  0  0  0  0
    5.4568   69.5351   68.8527 H   0  0  0  0  0  0
    5.9430   71.7954   67.1838 H   0  0  0  0  0  0
    1.4166   68.7522   64.9888 H   0  0  0  0  0  0
    2.8718   68.9080   68.0243 H   0  0  0  0  0  0
    2.0903   70.2970   67.4197 H   0  0  0  0  0  0
    5.5241   69.1100   62.1461 H   0  0  0  0  0  0
    3.3695   68.3849   61.1819 H   0  0  0  0  0  0
    3.7611   71.8097   68.3680 H   0  0  0  0  0  0
    3.4531   70.6363   69.5841 H   0  0  0  0  0  0
    7.9430   70.7276   66.4687 H   0  0  0  0  0  0
    7.9430   70.5080   68.2319 H   0  0  0  0  0  0
    7.5111   69.1809   67.1680 H   0  0  0  0  0  0
   -0.8821   67.7080   62.3680 H   0  0  0  0  0  0
   -0.0570   67.4483   63.8947 H   0  0  0  0  0  0
   -0.4358   69.0996   63.3562 H   0  0  0  0  0  0
  1 12  1  0  0  0
  1 16  1  0  0  0
  2  6  1  0  0  0
  2  7  1  0  0  0
  2 17  1  0  0  0
  3  8  1  0  0  0
  3 14  1  0  0  0
  3 18  1  0  0  0
  4  5  1  0  0  0
  4  7  1  0  0  0
  4  9  2  0  0  0
  5  6  2  0  0  0
  5 10  1  0  0  0
  6  8  1  0  0  0
  7 11  2  0  0  0
  8 15  1  0  0  0
  8 19  1  0  0  0
  9 12  1  0  0  0
  9 20  1  0  0  0
 10 14  1  0  0  0
 10 21  1  0  0  0
 10 22  1  0  0  0
 11 13  1  0  0  0
 11 23  1  0  0  0
 12 13  2  0  0  0
 13 24  1  0  0  0
 14 25  1  0  0  0
 14 26  1  0  0  0
 15 27  1  0  0  0
 15 28  1  0  0  0
 15 29  1  0  0  0
 16 30  1  0  0  0
 16 31  1  0  0  0
 16 32  1  0  0  0
M  END
> <s_m_entry_id>
8547

> <s_m_entry_name>
dock_pv.57

> <s_m_Source_Path>
/home/csk/Desktop/cluster/DUD-E-result/aces

> <s_m_Source_File>
dock_pv.maegz

> <i_m_Source_File_Index>
57

> <chembl_id>
CHEMBL221811

> <chembl_pref_name>
ADRENOGLOMERULOTROPIN

> <i_lp_mmshare_version>
53161

> <i_f3d_flags>
0

> <r_lp_tautomer_probability>
1

> <s_lp_Force_Field>
OPLS_2005

> <r_lp_Energy>
16.984363

> <b_lp_Chiralities_Consistent>
1

> <s_lp_Variant>
CHEMBL220_lig1024-1

> <s_i_glide_gridfile>
glide-grid_1e66

> <i_i_glide_lignum>
1422

> <i_i_glide_rotatable_bonds>
1

> <r_i_docking_score>
-8.25671414233805

> <r_i_glide_ligand_efficiency>
-0.516044633896128

> <r_i_glide_ligand_efficiency_sa>
-1.30035099266027

> <r_i_glide_ligand_efficiency_ln>
-2.18860701503557

> <r_i_glide_gscore>
-8.25671414233805

> <r_i_glide_lipo>
-3.1845048295008

> <r_i_glide_hbond>
-0.32

> <r_i_glide_metal>
0

> <r_i_glide_rewards>
-2.83445353023303

> <r_i_glide_evdw>
-26.5840110778809

> <r_i_glide_ecoul>
-3.9237015247345

> <r_i_glide_erotb>
0

> <r_i_glide_esite>
0

> <r_i_glide_emodel>
-42.6815498776996

> <r_i_glide_energy>
-30.5077126026154

> <r_i_glide_einternal>
0.193783774971962

> <i_i_glide_confnum>
1

> <i_i_glide_posenum>
223

> <r_i_glide_eff_state_penalty>
0

> <s_user_duplicate_titles>
CHEMBL220_lig1024

> <s_m_subgroup_title>
dock_pv

> <s_m_subgroupid>
dock_pv

> <b_m_subgroup_collapsed>
0

$$$$
CHEMBL220_lig850
                    3D
 Schrodinger Suite 2021-1.
 56 59  0  0  1  0            999 V2000
    2.1660   68.9079   66.7738 S   0  0  0  0  0  0
    2.3758   68.7757   65.0306 C   0  0  0  0  0  0
    2.2675   62.6522   70.0601 N   0  3  0  0  0  0
    1.3099   68.1064   64.4450 C   0  0  0  0  0  0
    1.1527   67.3987   66.7339 C   0  0  2  0  0  0
    3.3870   69.3078   64.2330 C   0  0  0  0  0  0
    0.4270   67.3779   65.4032 C   0  0  0  0  0  0
    3.2588   69.2698   62.8324 C   0  0  0  0  0  0
    1.1126   68.1821   63.0828 C   0  0  0  0  0  0
    2.0719   68.7888   62.2648 C   0  0  0  0  0  0
    0.2296   67.2885   67.9479 C   0  0  0  0  0  0
    2.9367   61.3358   69.9117 C   0  0  0  0  0  0
   -0.9497   66.9463   67.8350 O   0  0  0  0  0  0
    0.8506   67.4877   69.3231 C   0  0  0  0  0  0
    3.0230   63.7667   70.2237 C   0  0  0  0  0  0
    0.9132   62.7107   70.0386 C   0  0  0  0  0  0
    3.0324   60.5299   71.2048 C   0  0  0  0  0  0
    3.2331   59.0306   73.5433 C   0  0  0  0  0  0
    1.0137   65.1153   70.2858 C   0  0  0  0  0  0
    0.3376   66.4816   70.3767 C   0  0  0  0  0  0
    4.2108   69.7185   61.9426 O   0  0  0  0  0  0
    1.9192   68.9079   60.9021 O   0  0  0  0  0  0
    3.3304   58.3053   74.6796 F   0  0  0  0  0  0
    0.2630   63.9445   70.1300 C   0  0  0  0  0  0
    2.4088   65.0133   70.3526 C   0  0  0  0  0  0
    2.8143   58.4180   72.3644 C   0  0  0  0  0  0
    3.5526   60.3855   73.5609 C   0  0  0  0  0  0
    2.7110   59.1672   71.1945 C   0  0  0  0  0  0
    3.4636   61.1343   72.3916 C   0  0  0  0  0  0
    5.4695   70.1677   62.4101 C   0  0  0  0  0  0
    0.5972   69.0103   60.3890 C   0  0  0  0  0  0
    1.8456   66.5584   66.7709 H   0  0  0  0  0  0
    4.2375   69.7775   64.7021 H   0  0  0  0  0  0
   -0.5612   67.8423   65.4440 H   0  0  0  0  0  0
    0.3432   66.3318   65.1171 H   0  0  0  0  0  0
    0.2299   67.7096   62.6863 H   0  0  0  0  0  0
    2.3796   60.7927   69.1438 H   0  0  0  0  0  0
    3.9341   61.5100   69.5041 H   0  0  0  0  0  0
    1.9376   67.5070   69.2729 H   0  0  0  0  0  0
    0.5619   68.5062   69.5677 H   0  0  0  0  0  0
    4.0956   63.6353   70.2545 H   0  0  0  0  0  0
    0.3858   61.7721   69.9382 H   0  0  0  0  0  0
    0.4877   66.8867   71.3676 H   0  0  0  0  0  0
   -0.7458   66.3876   70.3035 H   0  0  0  0  0  0
   -0.8151   63.9830   70.0689 H   0  0  0  0  0  0
    3.0167   65.8967   70.4933 H   0  0  0  0  0  0
    2.5733   57.3641   72.3648 H   0  0  0  0  0  0
    3.8758   60.8527   74.4777 H   0  0  0  0  0  0
    2.3822   58.6818   70.2866 H   0  0  0  0  0  0
    3.7243   62.1803   72.4218 H   0  0  0  0  0  0
    5.9425   70.6578   61.5614 H   0  0  0  0  0  0
    5.3920   70.9080   63.2057 H   0  0  0  0  0  0
    6.0950   69.3363   62.7394 H   0  0  0  0  0  0
    0.6185   68.9103   59.3041 H   0  0  0  0  0  0
    0.1597   69.9783   60.6349 H   0  0  0  0  0  0
   -0.0554   68.2305   60.7669 H   0  0  0  0  0  0
  1  2  1  0  0  0
  1  5  1  0  0  0
  2  4  2  0  0  0
  2  6  1  0  0  0
  3 15  2  0  0  0
  3 12  1  0  0  0
  3 16  1  0  0  0
  4  9  1  0  0  0
  4  7  1  0  0  0
  5  7  1  0  0  0
  5 11  1  0  0  0
  5 32  1  0  0  0
  6  8  2  0  0  0
  6 33  1  0  0  0
  7 34  1  0  0  0
  7 35  1  0  0  0
  8 10  1  0  0  0
  8 21  1  0  0  0
  9 10  2  0  0  0
  9 36  1  0  0  0
 10 22  1  0  0  0
 11 13  2  0  0  0
 11 14  1  0  0  0
 12 17  1  0  0  0
 12 37  1  0  0  0
 12 38  1  0  0  0
 14 20  1  0  0  0
 14 39  1  0  0  0
 14 40  1  0  0  0
 15 25  1  0  0  0
 15 41  1  0  0  0
 16 24  2  0  0  0
 16 42  1  0  0  0
 17 28  1  0  0  0
 17 29  2  0  0  0
 18 27  2  0  0  0
 18 23  1  0  0  0
 18 26  1  0  0  0
 19 20  1  0  0  0
 19 24  1  0  0  0
 19 25  2  0  0  0
 20 43  1  0  0  0
 20 44  1  0  0  0
 21 30  1  0  0  0
 22 31  1  0  0  0
 24 45  1  0  0  0
 25 46  1  0  0  0
 26 28  2  0  0  0
 26 47  1  0  0  0
 27 29  1  0  0  0
 27 48  1  0  0  0
 28 49  1  0  0  0
 29 50  1  0  0  0
 30 51  1  0  0  0
 30 52  1  0  0  0
 30 53  1  0  0  0
 31 54  1  0  0  0
 31 55  1  0  0  0
 31 56  1  0  0  0
M  CHG  1   3   1
M  END
> <s_m_entry_id>
8548

> <s_m_entry_name>
dock_pv.58

> <s_m_Source_Path>
/home/csk/Desktop/cluster/DUD-E-result/aces

> <s_m_Source_File>
dock_pv.maegz

> <i_m_Source_File_Index>
58

> <chembl_id>
CHEMBL187818

> <chembl_pref_name>
None

> <i_lp_mmshare_version>
53161

> <i_f3d_flags>
0

> <r_lp_tautomer_probability>
0.999999960000001

> <s_lp_Force_Field>
OPLS_2005

> <r_lp_Energy>
37.090716

> <b_lp_Chiralities_Consistent>
1

> <s_lp_Variant>
CHEMBL220_lig850-1

> <s_i_glide_gridfile>
glide-grid_1e66

> <i_i_glide_lignum>
1104

> <i_i_glide_rotatable_bonds>
8

> <r_i_docking_score>
-8.25472351298352

> <r_i_glide_ligand_efficiency>
-0.26628140364463

> <r_i_glide_ligand_efficiency_sa>
-0.836491248543363

> <r_i_glide_ligand_efficiency_ln>
-1.86169312907208

> <r_i_glide_gscore>
-8.25472351298352

> <r_i_glide_lipo>
-4.32074464326065

> <r_i_glide_hbond>
0

> <r_i_glide_metal>
0

> <r_i_glide_rewards>
-1.70587061984214

> <r_i_glide_evdw>
-45.1379165649414

> <r_i_glide_ecoul>
-3.95769333839417

> <r_i_glide_erotb>
0.622441579125463

> <r_i_glide_esite>
0

> <r_i_glide_emodel>
-58.6797604884447

> <r_i_glide_energy>
-49.0956099033356

> <r_i_glide_einternal>
9.19067764282227

> <i_i_glide_confnum>
22

> <i_i_glide_posenum>
69

> <r_i_glide_eff_state_penalty>
0

> <s_user_duplicate_titles>
CHEMBL220_lig850

> <s_m_subgroup_title>
dock_pv

> <s_m_subgroupid>
dock_pv

> <b_m_subgroup_collapsed>
0

$$$$
CHEMBL220_lig832
                    3D
 Schrodinger Suite 2021-1.
 61 64  0  0  1  0            999 V2000
    0.4563   67.3005   68.0400 C   0  0  0  0  0  0
    1.5430   68.6608   68.2088 S   0  0  0  0  0  0
   -0.0572   66.5903   69.2158 C   0  0  0  0  0  0
    0.1426   67.0724   66.7090 C   0  0  0  0  0  0
    1.9190   68.5927   66.4941 C   0  0  0  0  0  0
    0.8042   66.4269   70.5061 C   0  0  2  0  0  0
    0.9918   67.7669   65.8071 C   0  0  0  0  0  0
    2.0733   63.1256   70.7570 N   0  3  1  0  0  0
    2.9717   69.2328   65.8256 C   0  0  0  0  0  0
    3.0767   69.0834   64.4341 C   0  0  0  0  0  0
    1.0619   67.7098   64.4092 C   0  0  0  0  0  0
    2.0799   68.3927   63.7338 C   0  0  0  0  0  0
    2.1476   65.6971   70.2483 C   0  0  0  0  0  0
    0.1100   65.7967   71.7558 C   0  0  2  0  0  0
   -0.0573   64.2541   71.8235 C   0  0  0  0  0  0
   -1.1804   66.1076   69.1666 O   0  0  0  0  0  0
    2.0279   64.2587   69.6909 C   0  0  0  0  0  0
    1.2511   63.4521   72.0409 C   0  0  0  0  0  0
    1.5307   61.8203   70.0901 C   0  0  0  0  0  0
    4.1212   69.5995   63.6868 O   0  0  0  0  0  0
    2.1568   68.3401   62.3607 O   0  0  0  0  0  0
    3.5586   62.9117   71.1582 C   0  0  0  0  0  0
   -0.9381   66.5079   72.3681 O   0  0  0  0  0  0
    1.8024   60.4958   70.8062 C   0  0  0  0  0  0
    1.0045   68.7981   61.6589 C   0  0  0  0  0  0
    5.2779   70.1070   64.3459 C   0  0  0  0  0  0
    0.9087   60.0167   71.7701 C   0  0  0  0  0  0
    2.9113   59.7243   70.4421 C   0  0  0  0  0  0
    1.1473   58.7979   72.3988 C   0  0  0  0  0  0
    3.1437   58.5009   71.0650 C   0  0  0  0  0  0
    2.2682   58.0498   72.0483 C   0  0  0  0  0  0
   -0.5910   66.3505   66.3776 H   0  0  0  0  0  0
    1.0535   67.4545   70.7680 H   0  0  0  0  0  0
    3.6830   69.8185   66.3884 H   0  0  0  0  0  0
    0.3434   67.1201   63.8620 H   0  0  0  0  0  0
    2.7422   66.2823   69.5680 H   0  0  0  0  0  0
    2.7471   65.7032   71.1575 H   0  0  0  0  0  0
    0.7430   66.0392   72.5756 H   0  0  0  0  0  0
   -0.7390   64.0054   72.6377 H   0  0  0  0  0  0
   -0.5769   63.9006   70.9339 H   0  0  0  0  0  0
    2.8297   64.0371   68.9847 H   0  0  0  0  0  0
    1.0808   64.1276   69.1681 H   0  0  0  0  0  0
    1.9191   63.9814   72.7107 H   0  0  0  0  0  0
    1.0551   62.5034   72.5321 H   0  0  0  0  0  0
    0.4586   61.9819   69.9657 H   0  0  0  0  0  0
    1.9747   61.7921   69.0931 H   0  0  0  0  0  0
    4.1006   62.5573   70.2807 H   0  0  0  0  0  0
    3.9684   63.8605   71.4987 H   0  0  0  0  0  0
    3.5926   62.1726   71.9605 H   0  0  0  0  0  0
   -0.6830   67.4307   72.5469 H   0  0  0  0  0  0
    1.2399   68.8912   60.5982 H   0  0  0  0  0  0
    0.6839   69.7819   62.0094 H   0  0  0  0  0  0
    0.1664   68.1069   61.7507 H   0  0  0  0  0  0
    5.9676   70.5094   63.6034 H   0  0  0  0  0  0
    5.0441   70.9078   65.0430 H   0  0  0  0  0  0
    5.7980   69.3154   64.8870 H   0  0  0  0  0  0
    0.0192   60.5747   72.0256 H   0  0  0  0  0  0
    3.5898   60.0659   69.6749 H   0  0  0  0  0  0
    0.4616   58.4299   73.1487 H   0  0  0  0  0  0
    3.9940   57.8961   70.7905 H   0  0  0  0  0  0
    2.4580   57.1061   72.5372 H   0  0  0  0  0  0
  1  2  1  0  0  0
  1  3  1  0  0  0
  1  4  2  0  0  0
  2  5  1  0  0  0
  3  6  1  0  0  0
  3 16  2  0  0  0
  4  7  1  0  0  0
  4 32  1  0  0  0
  5  9  1  0  0  0
  5  7  2  0  0  0
  6 13  1  0  0  0
  6 14  1  0  0  0
  6 33  1  0  0  0
  7 11  1  0  0  0
  8 17  1  0  0  0
  8 19  1  0  0  0
  8 22  1  0  0  0
  8 18  1  0  0  0
  9 10  2  0  0  0
  9 34  1  0  0  0
 10 20  1  0  0  0
 10 12  1  0  0  0
 11 12  2  0  0  0
 11 35  1  0  0  0
 12 21  1  0  0  0
 13 17  1  0  0  0
 13 36  1  0  0  0
 13 37  1  0  0  0
 14 15  1  0  0  0
 14 23  1  0  0  0
 14 38  1  0  0  0
 15 18  1  0  0  0
 15 39  1  0  0  0
 15 40  1  0  0  0
 17 41  1  0  0  0
 17 42  1  0  0  0
 18 43  1  0  0  0
 18 44  1  0  0  0
 19 24  1  0  0  0
 19 45  1  0  0  0
 19 46  1  0  0  0
 20 26  1  0  0  0
 21 25  1  0  0  0
 22 47  1  0  0  0
 22 48  1  0  0  0
 22 49  1  0  0  0
 23 50  1  0  0  0
 24 27  2  0  0  0
 24 28  1  0  0  0
 25 51  1  0  0  0
 25 52  1  0  0  0
 25 53  1  0  0  0
 26 54  1  0  0  0
 26 55  1  0  0  0
 26 56  1  0  0  0
 27 29  1  0  0  0
 27 57  1  0  0  0
 28 30  2  0  0  0
 28 58  1  0  0  0
 29 31  2  0  0  0
 29 59  1  0  0  0
 30 31  1  0  0  0
 30 60  1  0  0  0
 31 61  1  0  0  0
M  CHG  1   8   1
M  END
> <s_m_entry_id>
8549

> <s_m_entry_name>
dock_pv.59

> <s_m_Source_Path>
/home/csk/Desktop/cluster/DUD-E-result/aces

> <s_m_Source_File>
dock_pv.maegz

> <i_m_Source_File_Index>
59

> <chembl_id>
CHEMBL361869

> <chembl_pref_name>
None

> <i_lp_mmshare_version>
53161

> <i_f3d_flags>
0

> <r_lp_tautomer_probability>
0.99990000499975

> <s_lp_Force_Field>
OPLS_2005

> <r_lp_Energy>
53.141271

> <b_lp_Chiralities_Consistent>
1

> <s_lp_Variant>
CHEMBL220_lig832-3

> <s_i_glide_gridfile>
glide-grid_1e66

> <i_i_glide_lignum>
1034

> <i_i_glide_rotatable_bonds>
7

> <r_i_docking_score>
-8.25163109345437

> <r_i_glide_ligand_efficiency>
-0.266181648175947

> <r_i_glide_ligand_efficiency_sa>
-0.836177878644433

> <r_i_glide_ligand_efficiency_ln>
-1.86099569369698

> <r_i_glide_gscore>
-8.25163109345437

> <r_i_glide_lipo>
-4.44309663003671

> <r_i_glide_hbond>
0

> <r_i_glide_metal>
0

> <r_i_glide_rewards>
-1.57815755475938

> <r_i_glide_evdw>
-29.8041877746582

> <r_i_glide_ecoul>
-7.67764854431152

> <r_i_glide_erotb>
0.411479761721355

> <r_i_glide_esite>
0

> <r_i_glide_emodel>
-32.5943633696401

> <r_i_glide_energy>
-37.4818363189697

> <r_i_glide_einternal>
23.0642471313477

> <i_i_glide_confnum>
14

> <i_i_glide_posenum>
321

> <r_i_glide_eff_state_penalty>
0

> <s_user_duplicate_titles>
CHEMBL220_lig832,313414

> <s_m_subgroup_title>
dock_pv

> <s_m_subgroupid>
dock_pv

> <b_m_subgroup_collapsed>
0

$$$$
CHEMBL220_lig1072
                    3D
 Schrodinger Suite 2021-1.
 56 59  0  0  1  0            999 V2000
    2.8798   62.4906   72.0612 C   0  0  0  0  0  0
    3.6613   62.6682   70.9093 C   0  0  0  0  0  0
    3.3105   63.6198   69.9471 C   0  0  0  0  0  0
    1.7560   63.3075   72.2410 C   0  0  0  0  0  0
    1.4313   64.2978   71.3060 C   0  0  0  0  0  0
    2.1903   64.4244   70.1420 C   0  0  0  0  0  0
    1.8669   65.3445   69.1615 O   0  0  0  0  0  0
    0.7228   66.0867   69.2780 C   0  0  0  0  0  0
    0.0184   66.1077   70.4291 C   0  0  0  0  0  0
    0.3429   65.2666   71.5685 C   0  0  0  0  0  0
   -0.2666   65.3080   72.6396 O   0  0  0  0  0  0
    0.3000   66.7915   68.0139 C   0  0  0  0  0  0
   -0.9990   67.3079   67.8740 C   0  0  0  0  0  0
   -1.3843   68.0406   66.7522 C   0  0  0  0  0  0
   -0.4783   68.2592   65.7193 C   0  0  0  0  0  0
    0.8005   67.7071   65.7887 C   0  0  0  0  0  0
    1.1413   66.9168   66.8938 C   0  0  0  0  0  0
    1.7607   67.8425   64.6080 C   0  0  0  0  0  0
    3.1579   68.0615   65.0218 N   0  0  2  0  0  0
    3.3574   69.4847   65.3470 C   0  0  0  0  0  0
    4.5132   69.8082   66.2986 C   0  0  0  0  0  0
    5.8507   69.7089   65.9003 C   0  0  0  0  0  0
    6.8688   70.1080   66.7651 C   0  0  0  0  0  0
    6.5545   70.6580   68.0040 C   0  0  0  0  0  0
    5.2280   70.7744   68.4041 C   0  0  0  0  0  0
    4.2146   70.3151   67.5680 C   0  0  0  0  0  0
    4.0533   67.6450   63.9435 C   0  0  0  0  0  0
    3.3014   61.5570   72.9926 O   0  0  0  0  0  0
    4.8178   61.9518   70.7401 O   0  0  0  0  0  0
    4.6326   60.5856   70.4012 C   0  0  0  0  0  0
    2.4968   61.2869   74.1373 C   0  0  0  0  0  0
    3.9192   63.7547   69.0668 H   0  0  0  0  0  0
    1.1574   63.2187   73.1360 H   0  0  0  0  0  0
   -0.8569   66.7257   70.5158 H   0  0  0  0  0  0
   -1.7492   67.1388   68.6298 H   0  0  0  0  0  0
   -2.3882   68.4342   66.6836 H   0  0  0  0  0  0
   -0.7861   68.8288   64.8539 H   0  0  0  0  0  0
    2.0785   66.3945   66.8263 H   0  0  0  0  0  0
    1.4272   68.6107   63.9062 H   0  0  0  0  0  0
    1.6658   66.9080   64.0630 H   0  0  0  0  0  0
    2.4570   69.8237   65.8629 H   0  0  0  0  0  0
    3.4133   70.1077   64.4529 H   0  0  0  0  0  0
    6.1176   69.3607   64.9152 H   0  0  0  0  0  0
    7.9002   70.0222   66.4538 H   0  0  0  0  0  0
    7.3447   70.9925   68.6600 H   0  0  0  0  0  0
    4.9820   71.1931   69.3675 H   0  0  0  0  0  0
    3.1885   70.4053   67.8933 H   0  0  0  0  0  0
    5.0900   67.6520   64.2713 H   0  0  0  0  0  0
    3.8397   66.6194   63.6392 H   0  0  0  0  0  0
    3.9615   68.2839   63.0625 H   0  0  0  0  0  0
    5.6103   60.1081   70.3683 H   0  0  0  0  0  0
    4.0282   60.0429   71.1282 H   0  0  0  0  0  0
    4.1718   60.4828   69.4176 H   0  0  0  0  0  0
    2.9925   60.5387   74.7555 H   0  0  0  0  0  0
    2.3472   62.1733   74.7561 H   0  0  0  0  0  0
    1.5225   60.8887   73.8510 H   0  0  0  0  0  0
  1  4  1  0  0  0
  1 28  1  0  0  0
  1  2  2  0  0  0
  2  3  1  0  0  0
  2 29  1  0  0  0
  3  6  2  0  0  0
  3 32  1  0  0  0
  4  5  2  0  0  0
  4 33  1  0  0  0
  5 10  1  0  0  0
  5  6  1  0  0  0
  6  7  1  0  0  0
  7  8  1  0  0  0
  8 12  1  0  0  0
  8  9  2  0  0  0
  9 10  1  0  0  0
  9 34  1  0  0  0
 10 11  2  0  0  0
 12 17  1  0  0  0
 12 13  2  0  0  0
 13 14  1  0  0  0
 13 35  1  0  0  0
 14 15  2  0  0  0
 14 36  1  0  0  0
 15 16  1  0  0  0
 15 37  1  0  0  0
 16 17  2  0  0  0
 16 18  1  0  0  0
 17 38  1  0  0  0
 18 19  1  0  0  0
 18 39  1  0  0  0
 18 40  1  0  0  0
 19 20  1  0  0  0
 19 27  1  0  0  0
 20 21  1  0  0  0
 20 41  1  0  0  0
 20 42  1  0  0  0
 21 22  2  0  0  0
 21 26  1  0  0  0
 22 23  1  0  0  0
 22 43  1  0  0  0
 23 24  2  0  0  0
 23 44  1  0  0  0
 24 25  1  0  0  0
 24 45  1  0  0  0
 25 26  2  0  0  0
 25 46  1  0  0  0
 26 47  1  0  0  0
 27 48  1  0  0  0
 27 49  1  0  0  0
 27 50  1  0  0  0
 28 31  1  0  0  0
 29 30  1  0  0  0
 30 51  1  0  0  0
 30 52  1  0  0  0
 30 53  1  0  0  0
 31 54  1  0  0  0
 31 55  1  0  0  0
 31 56  1  0  0  0
M  END
> <s_m_entry_id>
8550

> <s_m_entry_name>
dock_pv.60

> <s_m_Source_Path>
/home/csk/Desktop/cluster/DUD-E-result/aces

> <s_m_Source_File>
dock_pv.maegz

> <i_m_Source_File_Index>
60

> <chembl_id>
CHEMBL245055

> <chembl_pref_name>
None

> <i_lp_mmshare_version>
53161

> <i_f3d_flags>
0

> <r_lp_tautomer_probability>
1

> <s_lp_Force_Field>
OPLS_2005

> <r_lp_Energy>
28.955734

> <b_lp_Chiralities_Consistent>
1

> <s_lp_Variant>
CHEMBL220_lig1072-1

> <s_i_glide_gridfile>
glide-grid_1e66

> <i_i_glide_lignum>
1477

> <i_i_glide_rotatable_bonds>
7

> <r_i_docking_score>
-8.24856933572273

> <r_i_glide_ligand_efficiency>
-0.266082881797508

> <r_i_glide_ligand_efficiency_sa>
-0.83586761585445

> <r_i_glide_ligand_efficiency_ln>
-1.86030517349689

> <r_i_glide_gscore>
-8.24856933572273

> <r_i_glide_lipo>
-4.99470741340404

> <r_i_glide_hbond>
-0.18494187718264

> <r_i_glide_metal>
0

> <r_i_glide_rewards>
-1.47626590909091

> <r_i_glide_evdw>
-37.4701309204102

> <r_i_glide_ecoul>
-1.17815029621124

> <r_i_glide_erotb>
0.457574954407047

> <r_i_glide_esite>
0

> <r_i_glide_emodel>
-44.5628961897439

> <r_i_glide_energy>
-38.6482812166214

> <r_i_glide_einternal>
8.98166656494141

> <i_i_glide_confnum>
41

> <i_i_glide_posenum>
232

> <r_i_glide_eff_state_penalty>
0

> <s_user_duplicate_titles>
CHEMBL220_lig1072

> <s_m_subgroup_title>
dock_pv

> <s_m_subgroupid>
dock_pv

> <b_m_subgroup_collapsed>
0

$$$$
CHEMBL220_lig494
                    3D
 Schrodinger Suite 2021-1.
 32 35  0  0  1  0            999 V2000
    2.1674   68.7515   64.5555 C   0  0  0  0  0  0
    2.3929   68.9633   65.9072 C   0  0  0  0  0  0
    1.4663   68.8431   66.8734 N   0  0  0  0  0  0
    0.8545   68.5080   64.1252 C   0  0  0  0  0  0
   -0.1949   68.5080   65.1088 C   0  0  0  0  0  0
    3.4713   68.9536   63.8031 C   0  0  0  0  0  0
    0.1894   68.6224   66.4810 C   0  0  0  0  0  0
    3.7363   69.5054   66.1119 C   0  0  0  0  0  0
    4.4014   69.4624   64.8916 C   0  0  0  0  0  0
   -1.5921   68.5080   64.8143 C   0  0  0  0  0  0
   -0.7834   68.5955   67.4887 C   0  0  0  0  0  0
    0.5852   68.3990   62.7596 N   0  0  0  0  0  0
   -2.5369   68.5082   65.8434 C   0  0  0  0  0  0
   -3.9018   68.5080   65.5680 N   0  0  0  0  0  0
   -2.1306   68.5102   67.1680 C   0  0  0  0  0  0
    4.3385   70.0627   67.2430 C   0  0  0  0  0  0
    5.7177   69.9175   64.8221 C   0  0  0  0  0  0
    5.6544   70.5080   67.1735 C   0  0  0  0  0  0
    6.3430   70.4261   65.9670 C   0  0  0  0  0  0
    3.3650   69.6962   63.0113 H   0  0  0  0  0  0
    3.8305   68.0407   63.3280 H   0  0  0  0  0  0
   -1.9182   68.4967   63.7857 H   0  0  0  0  0  0
   -0.4555   68.6921   68.5067 H   0  0  0  0  0  0
   -0.3617   68.2137   62.4626 H   0  0  0  0  0  0
    1.3385   68.4747   62.0932 H   0  0  0  0  0  0
   -4.4972   68.1161   66.2867 H   0  0  0  0  0  0
   -4.2013   68.4286   64.6024 H   0  0  0  0  0  0
   -2.8626   68.5086   67.9623 H   0  0  0  0  0  0
    3.8022   70.1265   68.1785 H   0  0  0  0  0  0
    6.2625   69.9001   63.8891 H   0  0  0  0  0  0
    6.1355   70.9174   68.0495 H   0  0  0  0  0  0
    7.3626   70.7771   65.9199 H   0  0  0  0  0  0
  1  2  1  0  0  0
  1  4  2  0  0  0
  1  6  1  0  0  0
  2  3  2  0  0  0
  2  8  1  0  0  0
  3  7  1  0  0  0
  4  5  1  0  0  0
  4 12  1  0  0  0
  5  7  1  0  0  0
  5 10  2  0  0  0
  6  9  1  0  0  0
  6 20  1  0  0  0
  6 21  1  0  0  0
  7 11  2  0  0  0
  8 16  1  0  0  0
  8  9  2  0  0  0
  9 17  1  0  0  0
 10 13  1  0  0  0
 10 22  1  0  0  0
 11 15  1  0  0  0
 11 23  1  0  0  0
 12 24  1  0  0  0
 12 25  1  0  0  0
 13 14  1  0  0  0
 13 15  2  0  0  0
 14 26  1  0  0  0
 14 27  1  0  0  0
 15 28  1  0  0  0
 16 18  2  0  0  0
 16 29  1  0  0  0
 17 19  2  0  0  0
 17 30  1  0  0  0
 18 19  1  0  0  0
 18 31  1  0  0  0
 19 32  1  0  0  0
M  END
> <s_m_entry_id>
8551

> <s_m_entry_name>
dock_pv.61

> <s_m_Source_Path>
/home/csk/Desktop/cluster/DUD-E-result/aces

> <s_m_Source_File>
dock_pv.maegz

> <i_m_Source_File_Index>
61

> <chembl_id>
CHEMBL60308

> <chembl_pref_name>
None

> <i_lp_mmshare_version>
53161

> <i_f3d_flags>
0

> <r_lp_tautomer_probability>
1

> <s_lp_Force_Field>
OPLS_2005

> <r_lp_Energy>
35.39604

> <b_lp_Chiralities_Consistent>
1

> <s_lp_Variant>
CHEMBL220_lig494-1

> <s_i_glide_gridfile>
glide-grid_1e66

> <i_i_glide_lignum>
572

> <i_i_glide_rotatable_bonds>
0

> <r_i_docking_score>
-8.23151752944829

> <r_i_glide_ligand_efficiency>
-0.433237764707805

> <r_i_glide_ligand_efficiency_sa>
-1.15605236450027

> <r_i_glide_ligand_efficiency_ln>
-2.08686649050097

> <r_i_glide_gscore>
-8.23151752944829

> <r_i_glide_lipo>
-3.52550976265449

> <r_i_glide_hbond>
-0.55855785537791

> <r_i_glide_metal>
0

> <r_i_glide_rewards>
-2.29714753705295

> <r_i_glide_evdw>
-29.9805202484131

> <r_i_glide_ecoul>
-2.34184241294861

> <r_i_glide_erotb>
0

> <r_i_glide_esite>
0

> <r_i_glide_emodel>
-42.0890740360288

> <r_i_glide_energy>
-32.3223626613617

> <r_i_glide_einternal>
0

> <i_i_glide_confnum>
1

> <i_i_glide_posenum>
158

> <r_i_glide_eff_state_penalty>
0

> <s_user_duplicate_titles>
CHEMBL220_lig494

> <s_m_subgroup_title>
dock_pv

> <s_m_subgroupid>
dock_pv

> <b_m_subgroup_collapsed>
0

$$$$
CHEMBL220_lig1076
                    3D
 Schrodinger Suite 2021-1.
 50 53  0  0  1  0            999 V2000
    3.1872   69.1711   61.2660 C   0  0  0  0  0  0
    4.1578   69.1114   62.2711 C   0  0  0  0  0  0
    3.7794   68.8947   63.5917 C   0  0  0  0  0  0
    1.8269   69.0612   61.5856 C   0  0  0  0  0  0
    1.4474   68.8513   62.9145 C   0  0  0  0  0  0
    2.4305   68.7353   63.8989 C   0  0  0  0  0  0
    1.9882   68.4071   65.2373 C   0  0  0  0  0  0
    0.6893   68.2493   65.5752 C   0  0  0  0  0  0
   -0.3531   68.5073   64.5420 C   0  0  0  0  0  0
    0.0943   68.7572   63.2309 O   0  0  0  0  0  0
   -1.5726   68.5082   64.6968 O   0  0  0  0  0  0
    0.3659   67.8468   66.9712 C   0  0  0  0  0  0
   -0.5707   66.8482   67.2669 C   0  0  0  0  0  0
   -0.5848   66.2467   68.5339 C   0  0  0  0  0  0
    0.3309   66.6337   69.5070 C   0  0  0  0  0  0
    1.1596   67.7078   69.2448 C   0  0  0  0  0  0
    1.1536   68.3382   68.0126 C   0  0  0  0  0  0
    0.3788   65.9950   70.8905 C   0  0  0  0  0  0
    0.6390   64.5453   70.8943 N   0  0  1  0  0  0
    2.0562   64.2899   70.5821 C   0  0  0  0  0  0
    2.4516   62.8120   70.5534 C   0  0  0  0  0  0
    0.2385   63.9946   72.1956 C   0  0  0  0  0  0
    3.2772   62.2883   71.5557 C   0  0  0  0  0  0
    3.6509   60.9469   71.5374 C   0  0  0  0  0  0
    3.1824   60.1207   70.5199 C   0  0  0  0  0  0
    2.3435   60.6281   69.5287 C   0  0  0  0  0  0
    1.9743   61.9722   69.5438 C   0  0  0  0  0  0
    5.5091   69.2486   61.9692 N   0  0  0  0  0  0
    3.4909   69.3146   60.2411 H   0  0  0  0  0  0
    4.5292   68.8250   64.3675 H   0  0  0  0  0  0
    1.0780   69.1300   60.8105 H   0  0  0  0  0  0
    2.7540   68.2184   65.9767 H   0  0  0  0  0  0
   -1.2154   66.4599   66.4915 H   0  0  0  0  0  0
   -1.2562   65.4407   68.7662 H   0  0  0  0  0  0
    1.8322   68.0756   70.0063 H   0  0  0  0  0  0
    1.8499   69.1491   67.8515 H   0  0  0  0  0  0
   -0.5369   66.2568   71.4063 H   0  0  0  0  0  0
    1.1384   66.5038   71.4788 H   0  0  0  0  0  0
    2.6827   64.8069   71.3107 H   0  0  0  0  0  0
    2.3040   64.7220   69.6114 H   0  0  0  0  0  0
   -0.8291   64.1204   72.3809 H   0  0  0  0  0  0
    0.4336   62.9233   72.2503 H   0  0  0  0  0  0
    0.7467   64.4775   73.0278 H   0  0  0  0  0  0
    3.6299   62.9127   72.3566 H   0  0  0  0  0  0
    4.2894   60.5493   72.3142 H   0  0  0  0  0  0
    3.4572   59.0761   70.5081 H   0  0  0  0  0  0
    1.9721   59.9783   68.7507 H   0  0  0  0  0  0
    1.3165   62.3602   68.7749 H   0  0  0  0  0  0
    6.1895   69.2255   62.7134 H   0  0  0  0  0  0
    5.8059   69.0047   61.0166 H   0  0  0  0  0  0
  1  2  2  0  0  0
  1  4  1  0  0  0
  1 29  1  0  0  0
  2  3  1  0  0  0
  2 28  1  0  0  0
  3  6  2  0  0  0
  3 30  1  0  0  0
  4  5  2  0  0  0
  4 31  1  0  0  0
  5 10  1  0  0  0
  5  6  1  0  0  0
  6  7  1  0  0  0
  7  8  2  0  0  0
  7 32  1  0  0  0
  8 12  1  0  0  0
  8  9  1  0  0  0
  9 10  1  0  0  0
  9 11  2  0  0  0
 12 17  1  0  0  0
 12 13  2  0  0  0
 13 14  1  0  0  0
 13 33  1  0  0  0
 14 15  2  0  0  0
 14 34  1  0  0  0
 15 16  1  0  0  0
 15 18  1  0  0  0
 16 17  2  0  0  0
 16 35  1  0  0  0
 17 36  1  0  0  0
 18 19  1  0  0  0
 18 37  1  0  0  0
 18 38  1  0  0  0
 19 20  1  0  0  0
 19 22  1  0  0  0
 20 21  1  0  0  0
 20 39  1  0  0  0
 20 40  1  0  0  0
 21 23  2  0  0  0
 21 27  1  0  0  0
 22 41  1  0  0  0
 22 42  1  0  0  0
 22 43  1  0  0  0
 23 24  1  0  0  0
 23 44  1  0  0  0
 24 25  2  0  0  0
 24 45  1  0  0  0
 25 26  1  0  0  0
 25 46  1  0  0  0
 26 27  2  0  0  0
 26 47  1  0  0  0
 27 48  1  0  0  0
 28 49  1  0  0  0
 28 50  1  0  0  0
M  END
> <s_m_entry_id>
8552

> <s_m_entry_name>
dock_pv.62

> <s_m_Source_Path>
/home/csk/Desktop/cluster/DUD-E-result/aces

> <s_m_Source_File>
dock_pv.maegz

> <i_m_Source_File_Index>
62

> <chembl_id>
CHEMBL244624

> <chembl_pref_name>
None

> <i_lp_mmshare_version>
53161

> <i_f3d_flags>
0

> <r_lp_tautomer_probability>
1

> <s_lp_Force_Field>
OPLS_2005

> <r_lp_Energy>
30.489688

> <b_lp_Chiralities_Consistent>
1

> <s_lp_Variant>
CHEMBL220_lig1076-1

> <s_i_glide_gridfile>
glide-grid_1e66

> <i_i_glide_lignum>
1481

> <i_i_glide_rotatable_bonds>
5

> <r_i_docking_score>
-8.22641527832467

> <r_i_glide_ligand_efficiency>
-0.293800545654452

> <r_i_glide_ligand_efficiency_sa>
-0.892151495874419

> <r_i_glide_ligand_efficiency_ln>
-1.89889818428539

> <r_i_glide_gscore>
-8.22641527832467

> <r_i_glide_lipo>
-4.60833207973538

> <r_i_glide_hbond>
-0.16

> <r_i_glide_metal>
0

> <r_i_glide_rewards>
-1.78333854545454

> <r_i_glide_evdw>
-42.587703704834

> <r_i_glide_ecoul>
-0.667212963104248

> <r_i_glide_erotb>
0.56233646607607

> <r_i_glide_esite>
-0.00761398950348045

> <r_i_glide_emodel>
-56.1570885472538

> <r_i_glide_energy>
-43.2549166679382

> <r_i_glide_einternal>
2.93065309524536

> <i_i_glide_confnum>
5

> <i_i_glide_posenum>
168

> <r_i_glide_eff_state_penalty>
0

> <s_user_duplicate_titles>
CHEMBL220_lig1076,387542

> <s_m_subgroup_title>
dock_pv

> <s_m_subgroupid>
dock_pv

> <b_m_subgroup_collapsed>
0

$$$$
CHEMBL220_lig211
                    3D
 Schrodinger Suite 2021-1.
 53 55  0  0  1  0            999 V2000
   -0.9946   68.2030   65.7270 C   0  0  0  0  0  0
    0.0654   68.0306   64.9117 C   0  0  0  0  0  0
   -1.2442   67.7260   67.0151 N   0  0  0  0  0  0
    5.3395   70.1491   66.3820 C   0  0  0  0  0  0
    4.8796   69.4804   64.0027 N   0  0  1  0  0  0
    1.1730   67.2087   65.2637 C   0  0  0  0  0  0
    0.1080   68.6094   63.6093 C   0  0  0  0  0  0
    4.0054   69.9778   66.6045 O   0  0  0  0  0  0
   -2.1417   68.9078   65.4287 N   0  0  0  0  0  0
    2.0545   66.5085   65.5291 N   0  0  0  0  0  0
    0.1562   69.0606   62.5446 N   0  0  0  0  0  0
    3.7522   70.2537   67.9149 C   0  0  0  0  0  0
    5.9360   70.5675   67.5606 C   0  0  0  0  0  0
    4.9302   70.6513   68.5208 C   0  0  0  0  0  0
    5.8848   69.9151   64.9818 C   0  0  0  0  0  0
    5.2243   69.9197   62.6449 C   0  0  0  0  0  0
   -3.2288   68.5228   66.2859 C   0  0  0  0  0  0
    1.6842   68.9080   67.8014 N   0  0  1  0  0  0
   -2.4191   68.3938   67.5413 C   0  0  0  0  0  0
    4.6573   68.0296   64.0479 C   0  0  0  0  0  0
   -0.2256   67.2978   67.9696 C   0  0  0  0  0  0
    4.0869   69.6012   61.6524 C   0  0  1  0  0  0
    2.3343   70.0619   68.4190 C   0  0  0  0  0  0
    4.3422   70.1080   60.3669 O   0  0  0  0  0  0
    3.5988   67.5729   63.0205 C   0  0  0  0  0  0
    0.5584   68.4605   68.6062 C   0  0  0  0  0  0
    3.8464   68.0883   61.6011 C   0  0  0  0  0  0
   -2.3822   69.1237   64.4684 H   0  0  0  0  0  0
    6.9833   70.7840   67.7054 H   0  0  0  0  0  0
    5.0509   70.9091   69.5607 H   0  0  0  0  0  0
    6.3379   70.8512   64.6501 H   0  0  0  0  0  0
    6.7053   69.1966   65.0226 H   0  0  0  0  0  0
    5.4034   70.9916   62.6449 H   0  0  0  0  0  0
    6.1624   69.4539   62.3363 H   0  0  0  0  0  0
   -3.6836   67.5826   65.9719 H   0  0  0  0  0  0
   -3.9884   69.3048   66.3596 H   0  0  0  0  0  0
    1.3677   69.1658   66.8777 H   0  0  0  0  0  0
   -2.1374   69.3682   67.9413 H   0  0  0  0  0  0
   -2.9291   67.8103   68.3090 H   0  0  0  0  0  0
    5.5944   67.5097   63.8643 H   0  0  0  0  0  0
    4.3461   67.7546   65.0563 H   0  0  0  0  0  0
   -0.7538   66.7793   68.7708 H   0  0  0  0  0  0
    0.4328   66.5387   67.5537 H   0  0  0  0  0  0
    3.1664   70.0829   61.9877 H   0  0  0  0  0  0
    1.7236   70.9498   68.2582 H   0  0  0  0  0  0
    2.3750   69.9148   69.5008 H   0  0  0  0  0  0
    4.9936   69.5050   59.9595 H   0  0  0  0  0  0
    3.5483   66.4855   63.0171 H   0  0  0  0  0  0
    2.6238   67.9167   63.3434 H   0  0  0  0  0  0
   -0.1131   69.3061   68.7699 H   0  0  0  0  0  0
    0.9396   68.1158   69.5681 H   0  0  0  0  0  0
    4.7068   67.5762   61.1704 H   0  0  0  0  0  0
    2.9910   67.8650   60.9645 H   0  0  0  0  0  0
  1  2  2  0  0  0
  1  3  1  0  0  0
  1  9  1  0  0  0
  2  6  1  0  0  0
  2  7  1  0  0  0
  3 19  1  0  0  0
  3 21  1  0  0  0
  4  8  1  0  0  0
  4 15  1  0  0  0
  4 13  2  0  0  0
  5 15  1  0  0  0
  5 16  1  0  0  0
  5 20  1  0  0  0
  6 10  3  0  0  0
  7 11  3  0  0  0
  8 12  1  0  0  0
  9 17  1  0  0  0
  9 28  1  0  0  0
 12 23  1  0  0  0
 12 14  2  0  0  0
 13 14  1  0  0  0
 13 29  1  0  0  0
 14 30  1  0  0  0
 15 31  1  0  0  0
 15 32  1  0  0  0
 16 22  1  0  0  0
 16 33  1  0  0  0
 16 34  1  0  0  0
 17 19  1  0  0  0
 17 35  1  0  0  0
 17 36  1  0  0  0
 18 26  1  0  0  0
 18 23  1  0  0  0
 18 37  1  0  0  0
 19 38  1  0  0  0
 19 39  1  0  0  0
 20 25  1  0  0  0
 20 40  1  0  0  0
 20 41  1  0  0  0
 21 26  1  0  0  0
 21 42  1  0  0  0
 21 43  1  0  0  0
 22 24  1  0  0  0
 22 27  1  0  0  0
 22 44  1  0  0  0
 23 45  1  0  0  0
 23 46  1  0  0  0
 24 47  1  0  0  0
 25 27  1  0  0  0
 25 48  1  0  0  0
 25 49  1  0  0  0
 26 50  1  0  0  0
 26 51  1  0  0  0
 27 52  1  0  0  0
 27 53  1  0  0  0
M  END
> <s_m_entry_id>
8553

> <s_m_entry_name>
dock_pv.63

> <s_m_Source_Path>
/home/csk/Desktop/cluster/DUD-E-result/aces

> <s_m_Source_File>
dock_pv.maegz

> <i_m_Source_File_Index>
63

> <chembl_id>
CHEMBL152260

> <chembl_pref_name>
None

> <i_lp_mmshare_version>
53161

> <i_f3d_flags>
0

> <r_lp_tautomer_probability>
0.5

> <s_lp_Force_Field>
OPLS_2005

> <r_lp_Energy>
46.797707

> <b_lp_Chiralities_Consistent>
1

> <s_lp_Variant>
CHEMBL220_lig211-2

> <s_i_glide_gridfile>
glide-grid_1e66

> <i_i_glide_lignum>
233

> <i_i_glide_rotatable_bonds>
8

> <r_i_docking_score>
-8.21910389602686

> <r_i_glide_ligand_efficiency>
-0.304411255408402

> <r_i_glide_ligand_efficiency_sa>
-0.913233765221917

> <r_i_glide_ligand_efficiency_ln>
-1.91327188447723

> <r_i_glide_gscore>
-8.21910389602686

> <r_i_glide_lipo>
-3.26947815737954

> <r_i_glide_hbond>
-0.469501401413514

> <r_i_glide_metal>
0

> <r_i_glide_rewards>
-1.72727382440521

> <r_i_glide_evdw>
-41.8160629272461

> <r_i_glide_ecoul>
-10.9740810394287

> <r_i_glide_erotb>
0.98406478944801

> <r_i_glide_esite>
0

> <r_i_glide_emodel>
-75.542790909202

> <r_i_glide_energy>
-52.7901439666748

> <r_i_glide_einternal>
9.24140644073486

> <i_i_glide_confnum>
160

> <i_i_glide_posenum>
194

> <r_i_glide_eff_state_penalty>
0

> <s_user_duplicate_titles>
CHEMBL220_lig211

> <s_m_subgroup_title>
dock_pv

> <s_m_subgroupid>
dock_pv

> <b_m_subgroup_collapsed>
0

$$$$
CHEMBL220_lig328
                    3D
 Schrodinger Suite 2021-1.
 38 39  0  0  1  0            999 V2000
    4.6880   68.7972   63.4717 N   0  3  0  0  0  0
    3.1905   68.5137   63.5851 C   0  0  0  0  0  0
    2.2892   69.1242   62.6957 C   0  0  0  0  0  0
    5.5187   68.5944   64.7854 C   0  0  0  0  0  0
    0.9047   68.9157   62.8280 C   0  0  0  0  0  0
    5.3175   69.5293   65.9928 C   0  0  0  0  0  0
    5.0094   70.2456   63.0218 C   0  0  0  0  0  0
    5.2944   67.8583   62.3995 C   0  0  0  0  0  0
   -0.0567   69.4755   62.0149 O   0  0  0  0  0  0
    2.7022   67.6013   64.5349 C   0  0  0  0  0  0
    1.3282   67.4326   64.6954 C   0  0  0  0  0  0
    0.4405   68.1073   63.8611 C   0  0  0  0  0  0
    6.4469   70.1080   66.5840 C   0  0  0  0  0  0
    4.0692   69.7081   66.6074 C   0  0  0  0  0  0
    0.3287   70.0341   60.7677 C   0  0  0  0  0  0
    6.3448   70.7879   67.7956 C   0  0  0  0  0  0
    3.9702   70.3686   67.8295 C   0  0  0  0  0  0
    5.1115   70.8871   68.4269 C   0  0  0  0  0  0
    2.6483   69.7779   61.9196 H   0  0  0  0  0  0
    6.5621   68.6510   64.4682 H   0  0  0  0  0  0
    5.3770   67.5610   65.0890 H   0  0  0  0  0  0
    6.0748   70.4383   63.1577 H   0  0  0  0  0  0
    4.7401   70.3689   61.9724 H   0  0  0  0  0  0
    4.4206   70.9073   63.6566 H   0  0  0  0  0  0
    6.3484   68.1042   62.2516 H   0  0  0  0  0  0
    5.1700   66.8331   62.7467 H   0  0  0  0  0  0
    4.7406   68.0177   61.4740 H   0  0  0  0  0  0
    3.3484   67.0579   65.2032 H   0  0  0  0  0  0
    0.9434   66.7727   65.4596 H   0  0  0  0  0  0
   -0.6222   67.9610   63.9883 H   0  0  0  0  0  0
    7.4229   69.9869   66.1356 H   0  0  0  0  0  0
    3.1573   69.3099   66.2036 H   0  0  0  0  0  0
   -0.5592   70.3620   60.2265 H   0  0  0  0  0  0
    0.9627   70.9082   60.8859 H   0  0  0  0  0  0
    0.8305   69.2908   60.1463 H   0  0  0  0  0  0
    7.2264   71.1894   68.2735 H   0  0  0  0  0  0
    3.0116   70.4559   68.3240 H   0  0  0  0  0  0
    5.0369   71.3080   69.4118 H   0  0  0  0  0  0
  1  2  1  0  0  0
  1  4  1  0  0  0
  1  7  1  0  0  0
  1  8  1  0  0  0
  2  3  1  0  0  0
  2 10  2  0  0  0
  3  5  2  0  0  0
  3 19  1  0  0  0
  4  6  1  0  0  0
  4 20  1  0  0  0
  4 21  1  0  0  0
  5  9  1  0  0  0
  5 12  1  0  0  0
  6 13  1  0  0  0
  6 14  2  0  0  0
  7 22  1  0  0  0
  7 23  1  0  0  0
  7 24  1  0  0  0
  8 25  1  0  0  0
  8 26  1  0  0  0
  8 27  1  0  0  0
  9 15  1  0  0  0
 10 11  1  0  0  0
 10 28  1  0  0  0
 11 12  2  0  0  0
 11 29  1  0  0  0
 12 30  1  0  0  0
 13 16  2  0  0  0
 13 31  1  0  0  0
 14 17  1  0  0  0
 14 32  1  0  0  0
 15 33  1  0  0  0
 15 34  1  0  0  0
 15 35  1  0  0  0
 16 18  1  0  0  0
 16 36  1  0  0  0
 17 18  2  0  0  0
 17 37  1  0  0  0
 18 38  1  0  0  0
M  CHG  1   1   1
M  END
> <s_m_entry_id>
8554

> <s_m_entry_name>
dock_pv.64

> <s_m_Source_Path>
/home/csk/Desktop/cluster/DUD-E-result/aces

> <s_m_Source_File>
dock_pv.maegz

> <i_m_Source_File_Index>
64

> <chembl_id>
CHEMBL293751

> <chembl_pref_name>
None

> <i_lp_mmshare_version>
53161

> <i_f3d_flags>
0

> <r_lp_tautomer_probability>
1

> <s_lp_Force_Field>
OPLS_2005

> <r_lp_Energy>
26.146033

> <b_lp_Chiralities_Consistent>
1

> <s_lp_Variant>
CHEMBL220_lig328-1

> <s_i_glide_gridfile>
glide-grid_1e66

> <i_i_glide_lignum>
382

> <i_i_glide_rotatable_bonds>
4

> <r_i_docking_score>
-8.1906259190617

> <r_i_glide_ligand_efficiency>
-0.455034773281205

> <r_i_glide_ligand_efficiency_sa>
-1.19252846499357

> <r_i_glide_ligand_efficiency_ln>
-2.10535815823705

> <r_i_glide_gscore>
-8.1906259190617

> <r_i_glide_lipo>
-3.65133066479668

> <r_i_glide_hbond>
0

> <r_i_glide_metal>
0

> <r_i_glide_rewards>
-3.52027252861995

> <r_i_glide_evdw>
-30.6830501556396

> <r_i_glide_ecoul>
-2.47223424911499

> <r_i_glide_erotb>
0.885964919504165

> <r_i_glide_esite>
0

> <r_i_glide_emodel>
-52.2753433615681

> <r_i_glide_energy>
-33.1552844047546

> <r_i_glide_einternal>
2.9425904750824

> <i_i_glide_confnum>
2

> <i_i_glide_posenum>
217

> <r_i_glide_eff_state_penalty>
0

> <s_user_duplicate_titles>
CHEMBL220_lig328

> <s_m_subgroup_title>
dock_pv

> <s_m_subgroupid>
dock_pv

> <b_m_subgroup_collapsed>
0

$$$$
CHEMBL220_lig622
                    3D
 Schrodinger Suite 2021-1.
 25 25  0  0  1  0            999 V2000
    0.8489   68.1760   64.1051 C   0  0  0  0  0  0
    2.2280   68.3050   64.2758 C   0  0  0  0  0  0
    3.0312   68.7207   63.1993 C   0  0  0  0  0  0
    2.4349   69.0137   61.9621 C   0  0  0  0  0  0
    1.0518   68.9100   61.8121 C   0  0  0  0  0  0
    0.2599   68.4925   62.8813 C   0  0  0  0  0  0
    4.5470   68.7806   63.3187 N   0  3  0  0  0  0
    0.0791   67.7080   65.1348 O   0  0  0  0  0  0
    5.0897   68.6689   64.7680 C   0  0  0  0  0  0
    5.1431   70.1052   62.7832 C   0  0  0  0  0  0
    5.1824   67.6278   62.5088 C   0  0  0  0  0  0
    2.6357   68.0506   65.2424 H   0  0  0  0  0  0
    3.0234   69.3107   61.1069 H   0  0  0  0  0  0
    0.5956   69.1384   60.8589 H   0  0  0  0  0  0
   -0.8091   68.3954   62.7559 H   0  0  0  0  0  0
   -0.6674   67.1722   64.8239 H   0  0  0  0  0  0
    6.1782   68.7536   64.7570 H   0  0  0  0  0  0
    4.7993   67.6997   65.1678 H   0  0  0  0  0  0
    4.6487   69.4802   65.3509 H   0  0  0  0  0  0
    6.2160   70.1089   62.9803 H   0  0  0  0  0  0
    4.9573   70.1810   61.7121 H   0  0  0  0  0  0
    4.6567   70.9079   63.3320 H   0  0  0  0  0  0
    6.2688   67.7283   62.5434 H   0  0  0  0  0  0
    4.8464   66.6914   62.9529 H   0  0  0  0  0  0
    4.8352   67.7105   61.4787 H   0  0  0  0  0  0
  1  6  1  0  0  0
  1  8  1  0  0  0
  1  2  2  0  0  0
  2  3  1  0  0  0
  2 12  1  0  0  0
  3  7  1  0  0  0
  3  4  2  0  0  0
  4  5  1  0  0  0
  4 13  1  0  0  0
  5  6  2  0  0  0
  5 14  1  0  0  0
  6 15  1  0  0  0
  7  9  1  0  0  0
  7 10  1  0  0  0
  7 11  1  0  0  0
  8 16  1  0  0  0
  9 17  1  0  0  0
  9 18  1  0  0  0
  9 19  1  0  0  0
 10 20  1  0  0  0
 10 21  1  0  0  0
 10 22  1  0  0  0
 11 23  1  0  0  0
 11 24  1  0  0  0
 11 25  1  0  0  0
M  CHG  1   7   1
M  END
> <s_m_entry_id>
8555

> <s_m_entry_name>
dock_pv.65

> <s_m_Source_Path>
/home/csk/Desktop/cluster/DUD-E-result/aces

> <s_m_Source_File>
dock_pv.maegz

> <i_m_Source_File_Index>
65

> <chembl_id>
CHEMBL422459

> <chembl_pref_name>
None

> <i_lp_mmshare_version>
53161

> <i_f3d_flags>
0

> <r_lp_tautomer_probability>
1

> <s_lp_Force_Field>
OPLS_2005

> <r_lp_Energy>
15.263235

> <b_lp_Chiralities_Consistent>
1

> <s_lp_Variant>
CHEMBL220_lig622-1

> <s_i_glide_gridfile>
glide-grid_1e66

> <i_i_glide_lignum>
725

> <i_i_glide_rotatable_bonds>
2

> <r_i_docking_score>
-8.18812119032467

> <r_i_glide_ligand_efficiency>
-0.744374653665879

> <r_i_glide_ligand_efficiency_sa>
-1.65547440835413

> <r_i_glide_ligand_efficiency_ln>
-2.40976267157912

> <r_i_glide_gscore>
-8.18812119032467

> <r_i_glide_lipo>
-2.15353838865804

> <r_i_glide_hbond>
-0.32

> <r_i_glide_metal>
0

> <r_i_glide_rewards>
-3.44450624069251

> <r_i_glide_evdw>
-21.8452301025391

> <r_i_glide_ecoul>
-7.85210037231445

> <r_i_glide_erotb>
0

> <r_i_glide_esite>
0

> <r_i_glide_emodel>
-48.2856920501698

> <r_i_glide_energy>
-29.6973304748535

> <r_i_glide_einternal>
1.59943437576294

> <i_i_glide_confnum>
1

> <i_i_glide_posenum>
268

> <r_i_glide_eff_state_penalty>
0

> <s_user_duplicate_titles>
CHEMBL220_lig622,227353

> <s_m_subgroup_title>
dock_pv

> <s_m_subgroupid>
dock_pv

> <b_m_subgroup_collapsed>
0

$$$$
CHEMBL220_lig220
                    3D
 Schrodinger Suite 2021-1.
 33 36  0  0  1  0            999 V2000
    2.7533   69.7080   67.2280 N   0  0  0  0  0  0
    4.4086   68.9075   65.0998 C   0  0  0  0  0  0
    4.9574   69.6155   66.2101 C   0  0  0  0  0  0
    4.0714   70.0227   67.2497 C   0  0  0  0  0  0
    4.5748   70.7257   68.3706 C   0  0  0  0  0  0
    5.9426   70.9486   68.4934 C   0  0  0  0  0  0
    6.8163   70.5080   67.5105 C   0  0  0  0  0  0
    6.3430   69.8797   66.3677 C   0  0  0  0  0  0
    5.2227   68.5150   64.0284 N   0  0  0  0  0  0
    3.0406   68.5809   65.0967 C   0  0  0  0  0  0
    2.2468   69.0231   66.1721 C   0  0  0  0  0  0
    0.9874   68.3414   63.6567 C   0  0  0  0  0  0
    2.3652   67.7534   64.0011 C   0  0  0  0  0  0
    0.1406   68.5080   64.9132 C   0  0  0  0  0  0
    0.7601   68.8014   66.1496 C   0  0  0  0  0  0
   -0.0501   69.0483   67.2714 C   0  0  0  0  0  0
   -1.4385   69.0179   67.1680 C   0  0  0  0  0  0
   -2.0450   68.7410   65.9529 C   0  0  0  0  0  0
   -1.2548   68.5080   64.8340 C   0  0  0  0  0  0
    3.8959   71.0354   69.1525 H   0  0  0  0  0  0
    6.3379   71.4422   69.3684 H   0  0  0  0  0  0
    7.8766   70.6598   67.6260 H   0  0  0  0  0  0
    7.0427   69.5448   65.6200 H   0  0  0  0  0  0
    4.7719   68.2173   63.1768 H   0  0  0  0  0  0
    6.1424   68.9329   63.9755 H   0  0  0  0  0  0
    1.1145   69.3165   63.1837 H   0  0  0  0  0  0
    0.4748   67.7080   62.9308 H   0  0  0  0  0  0
    2.2453   66.7329   64.3681 H   0  0  0  0  0  0
    2.9637   67.6913   63.0933 H   0  0  0  0  0  0
    0.3895   69.3102   68.2242 H   0  0  0  0  0  0
   -2.0570   69.2496   68.0171 H   0  0  0  0  0  0
   -3.1219   68.7353   65.8701 H   0  0  0  0  0  0
   -1.7344   68.3227   63.8843 H   0  0  0  0  0  0
  1  4  2  0  0  0
  1 11  1  0  0  0
  2  9  1  0  0  0
  2  3  2  0  0  0
  2 10  1  0  0  0
  3  4  1  0  0  0
  3  8  1  0  0  0
  4  5  1  0  0  0
  5  6  2  0  0  0
  5 20  1  0  0  0
  6  7  1  0  0  0
  6 21  1  0  0  0
  7  8  2  0  0  0
  7 22  1  0  0  0
  8 23  1  0  0  0
  9 24  1  0  0  0
  9 25  1  0  0  0
 10 11  2  0  0  0
 10 13  1  0  0  0
 11 15  1  0  0  0
 12 14  1  0  0  0
 12 13  1  0  0  0
 12 26  1  0  0  0
 12 27  1  0  0  0
 13 28  1  0  0  0
 13 29  1  0  0  0
 14 15  2  0  0  0
 14 19  1  0  0  0
 15 16  1  0  0  0
 16 17  2  0  0  0
 16 30  1  0  0  0
 17 18  1  0  0  0
 17 31  1  0  0  0
 18 19  2  0  0  0
 18 32  1  0  0  0
 19 33  1  0  0  0
M  END
> <s_m_entry_id>
8556

> <s_m_entry_name>
dock_pv.66

> <s_m_Source_Path>
/home/csk/Desktop/cluster/DUD-E-result/aces

> <s_m_Source_File>
dock_pv.maegz

> <i_m_Source_File_Index>
66

> <chembl_id>
CHEMBL89012

> <chembl_pref_name>
None

> <i_lp_mmshare_version>
53161

> <i_f3d_flags>
0

> <r_lp_tautomer_probability>
1

> <s_lp_Force_Field>
OPLS_2005

> <r_lp_Energy>
22.059149

> <b_lp_Chiralities_Consistent>
1

> <s_lp_Variant>
CHEMBL220_lig220-1

> <s_i_glide_gridfile>
glide-grid_1e66

> <i_i_glide_lignum>
245

> <i_i_glide_rotatable_bonds>
0

> <r_i_docking_score>
-8.17841151147003

> <r_i_glide_ligand_efficiency>
-0.430442711130001

> <r_i_glide_ligand_efficiency_sa>
-1.14859403893232

> <r_i_glide_ligand_efficiency_ln>
-2.0734029743308

> <r_i_glide_gscore>
-8.17841151147003

> <r_i_glide_lipo>
-4.10792909323944

> <r_i_glide_hbond>
0

> <r_i_glide_metal>
0

> <r_i_glide_rewards>
-2.49511166839939

> <r_i_glide_evdw>
-30.1623477935791

> <r_i_glide_ecoul>
-0.448355734348297

> <r_i_glide_erotb>
0

> <r_i_glide_esite>
0

> <r_i_glide_emodel>
-43.3965656651181

> <r_i_glide_energy>
-30.6107035279274

> <r_i_glide_einternal>
0

> <i_i_glide_confnum>
1

> <i_i_glide_posenum>
392

> <r_i_glide_eff_state_penalty>
0

> <s_user_duplicate_titles>
CHEMBL220_lig220

> <s_m_subgroup_title>
dock_pv

> <s_m_subgroupid>
dock_pv

> <b_m_subgroup_collapsed>
0

$$$$
CHEMBL220_lig1150
                    3D
 Schrodinger Suite 2021-1.
 43 47  0  0  1  0            999 V2000
    0.5145   69.2988   67.6151 C   0  0  0  0  0  0
    0.5568   68.3469   64.9584 C   0  0  0  0  0  0
    1.7578   68.7758   65.5560 C   0  0  0  0  0  0
    1.7224   69.2620   66.9021 C   0  0  0  0  0  0
    2.9993   69.7209   67.5984 C   0  0  0  0  0  0
    3.0748   68.8596   64.7517 C   0  0  2  0  0  0
    5.6970   69.0503   63.6619 C   0  0  0  0  0  0
    4.7247   68.1616   62.8816 C   0  0  1  0  0  0
    3.4548   67.7388   63.7297 C   0  0  1  0  0  0
    5.5093   69.4329   64.9399 C   0  0  0  0  0  0
    4.2738   69.0469   65.7018 C   0  0  1  0  0  0
    4.0446   70.1070   66.6537 N   0  0  2  0  0  0
    5.3809   70.4253   67.1189 C   0  0  0  0  0  0
    6.2926   70.3321   65.8826 C   0  0  0  0  0  0
   -0.6403   68.8921   66.9735 C   0  0  0  0  0  0
   -0.6215   68.4442   65.6895 C   0  0  0  0  0  0
   -1.8965   68.2090   65.2911 O   0  0  0  0  0  0
   -2.6786   68.2694   66.4512 C   0  0  0  0  0  0
   -1.9159   68.9059   67.4358 O   0  0  0  0  0  0
    2.9680   69.7814   64.1765 H   0  0  0  0  0  0
    4.4547   68.1145   66.2297 H   0  0  0  0  0  0
    3.9436   65.3111   63.9147 C   0  0  0  0  0  0
    3.7688   64.1435   64.8704 C   0  0  0  0  0  0
    4.3430   65.1150   62.7681 O   0  0  0  0  0  0
    3.5559   66.4947   64.4529 O   0  0  0  0  0  0
    4.3442   68.7812   61.6650 O   0  0  0  0  0  0
    0.4835   69.6556   68.6376 H   0  0  0  0  0  0
    0.5332   68.0126   63.9327 H   0  0  0  0  0  0
    3.3101   68.9189   68.2590 H   0  0  0  0  0  0
    2.7947   70.5806   68.2384 H   0  0  0  0  0  0
    6.5990   69.3759   63.1677 H   0  0  0  0  0  0
    5.3047   67.2998   62.5590 H   0  0  0  0  0  0
    2.6221   67.5889   63.0410 H   0  0  0  0  0  0
    5.6805   69.7136   67.8910 H   0  0  0  0  0  0
    5.4062   71.4009   67.6065 H   0  0  0  0  0  0
    7.2703   69.9342   66.1499 H   0  0  0  0  0  0
    6.4371   71.3124   65.4308 H   0  0  0  0  0  0
   -2.9081   67.2533   66.7780 H   0  0  0  0  0  0
   -3.6083   68.8104   66.2695 H   0  0  0  0  0  0
    2.8289   63.6427   64.6439 H   0  0  0  0  0  0
    4.5857   63.4319   64.7643 H   0  0  0  0  0  0
    3.7319   64.4934   65.9024 H   0  0  0  0  0  0
    5.0392   68.6432   61.0014 H   0  0  0  0  0  0
  1 15  1  0  0  0
  1  4  2  0  0  0
  1 27  1  0  0  0
  2 16  1  0  0  0
  2  3  2  0  0  0
  2 28  1  0  0  0
  3  4  1  0  0  0
  3  6  1  0  0  0
  4  5  1  0  0  0
  5 12  1  0  0  0
  5 29  1  0  0  0
  5 30  1  0  0  0
  6 11  1  0  0  0
  6  9  1  0  0  0
  6 20  1  0  0  0
  7 10  2  0  0  0
  7  8  1  0  0  0
  7 31  1  0  0  0
  8  9  1  0  0  0
  8 26  1  0  0  0
  8 32  1  0  0  0
  9 25  1  0  0  0
  9 33  1  0  0  0
 10 11  1  0  0  0
 10 14  1  0  0  0
 11 12  1  0  0  0
 11 21  1  0  0  0
 12 13  1  0  0  0
 13 14  1  0  0  0
 13 34  1  0  0  0
 13 35  1  0  0  0
 14 36  1  0  0  0
 14 37  1  0  0  0
 15 16  2  0  0  0
 15 19  1  0  0  0
 16 17  1  0  0  0
 17 18  1  0  0  0
 18 19  1  0  0  0
 18 38  1  0  0  0
 18 39  1  0  0  0
 22 23  1  0  0  0
 22 24  2  0  0  0
 22 25  1  0  0  0
 23 40  1  0  0  0
 23 41  1  0  0  0
 23 42  1  0  0  0
 26 43  1  0  0  0
M  END
> <s_m_entry_id>
8557

> <s_m_entry_name>
dock_pv.67

> <s_m_Source_Path>
/home/csk/Desktop/cluster/DUD-E-result/aces

> <s_m_Source_File>
dock_pv.maegz

> <i_m_Source_File_Index>
67

> <chembl_id>
CHEMBL251077

> <chembl_pref_name>
None

> <i_lp_mmshare_version>
53161

> <i_f3d_flags>
0

> <r_lp_tautomer_probability>
1

> <s_lp_Force_Field>
OPLS_2005

> <r_lp_Energy>
53.449102

> <b_lp_Chiralities_Consistent>
1

> <s_lp_Variant>
CHEMBL220_lig1150-1

> <s_i_glide_gridfile>
glide-grid_1e66

> <i_i_glide_lignum>
1564

> <i_i_glide_rotatable_bonds>
3

> <r_i_docking_score>
-8.17810957072049

> <r_i_glide_ligand_efficiency>
-0.340754565446687

> <r_i_glide_ligand_efficiency_sa>
-0.982906250150301

> <r_i_glide_ligand_efficiency_ln>
-1.95739688926876

> <r_i_glide_gscore>
-8.17810957072049

> <r_i_glide_lipo>
-3.10282678064378

> <r_i_glide_hbond>
-0.456

> <r_i_glide_metal>
0

> <r_i_glide_rewards>
-1.98394126680362

> <r_i_glide_evdw>
-36.454906463623

> <r_i_glide_ecoul>
-6.57238864898682

> <r_i_glide_erotb>
0.173262097256082

> <r_i_glide_esite>
0

> <r_i_glide_emodel>
-37.9810219298818

> <r_i_glide_energy>
-43.0272951126099

> <r_i_glide_einternal>
14.874475479126

> <i_i_glide_confnum>
2

> <i_i_glide_posenum>
374

> <r_i_glide_eff_state_penalty>
0

> <s_user_duplicate_titles>
CHEMBL220_lig1150

> <s_m_subgroup_title>
dock_pv

> <s_m_subgroupid>
dock_pv

> <b_m_subgroup_collapsed>
0

$$$$
CHEMBL220_lig577
                    3D
 Schrodinger Suite 2021-1.
 30 32  0  0  1  0            999 V2000
    1.6558   68.5080   63.1239 C   0  0  0  0  0  0
    0.3463   68.6896   63.5982 C   0  0  0  0  0  0
    2.2895   67.5448   65.2583 N   0  0  0  0  0  0
    2.5969   67.9170   63.9914 C   0  0  0  0  0  0
    0.0064   68.3160   64.9311 C   0  0  0  0  0  0
    1.0283   67.7239   65.7265 C   0  0  0  0  0  0
    2.0716   69.0332   61.7392 C   0  0  0  0  0  0
    4.0466   67.7202   63.5578 C   0  0  0  0  0  0
   -0.5913   69.3080   62.7680 N   0  0  0  0  0  0
    3.5395   68.7813   61.3496 C   0  0  2  0  0  0
    4.4865   68.7995   62.5568 C   0  0  0  0  0  0
   -1.2829   68.5080   65.5106 C   0  0  0  0  0  0
    3.9430   69.7080   60.3680 O   0  0  0  0  0  0
    0.7327   67.3080   67.0457 C   0  0  0  0  0  0
   -1.5425   68.0880   66.8118 C   0  0  0  0  0  0
   -0.5449   67.4833   67.5680 C   0  0  0  0  0  0
    1.4180   68.6244   60.9669 H   0  0  0  0  0  0
    1.8933   70.1080   61.7440 H   0  0  0  0  0  0
    4.7118   67.7166   64.4233 H   0  0  0  0  0  0
    4.1391   66.7362   63.0977 H   0  0  0  0  0  0
   -0.2466   69.6580   61.8879 H   0  0  0  0  0  0
   -1.3463   69.8103   63.2262 H   0  0  0  0  0  0
    3.5898   67.8017   60.8704 H   0  0  0  0  0  0
    5.5134   68.6159   62.2350 H   0  0  0  0  0  0
    4.4804   69.7841   63.0295 H   0  0  0  0  0  0
   -2.0747   68.9597   64.9318 H   0  0  0  0  0  0
    4.8203   69.4185   60.0546 H   0  0  0  0  0  0
    1.5006   66.8396   67.6424 H   0  0  0  0  0  0
   -2.5279   68.2254   67.2344 H   0  0  0  0  0  0
   -0.7599   67.1496   68.5721 H   0  0  0  0  0  0
  1  2  2  0  0  0
  1  4  1  0  0  0
  1  7  1  0  0  0
  2  5  1  0  0  0
  2  9  1  0  0  0
  3  4  2  0  0  0
  3  6  1  0  0  0
  4  8  1  0  0  0
  5 12  2  0  0  0
  5  6  1  0  0  0
  6 14  2  0  0  0
  7 10  1  0  0  0
  7 17  1  0  0  0
  7 18  1  0  0  0
  8 11  1  0  0  0
  8 19  1  0  0  0
  8 20  1  0  0  0
  9 21  1  0  0  0
  9 22  1  0  0  0
 10 11  1  0  0  0
 10 13  1  0  0  0
 10 23  1  0  0  0
 11 24  1  0  0  0
 11 25  1  0  0  0
 12 15  1  0  0  0
 12 26  1  0  0  0
 13 27  1  0  0  0
 14 16  1  0  0  0
 14 28  1  0  0  0
 15 16  2  0  0  0
 15 29  1  0  0  0
 16 30  1  0  0  0
M  END
> <s_m_entry_id>
8558

> <s_m_entry_name>
dock_pv.68

> <s_m_Source_Path>
/home/csk/Desktop/cluster/DUD-E-result/aces

> <s_m_Source_File>
dock_pv.maegz

> <i_m_Source_File_Index>
68

> <chembl_id>
CHEMBL318026

> <chembl_pref_name>
None

> <i_lp_mmshare_version>
53161

> <i_f3d_flags>
0

> <r_lp_tautomer_probability>
1

> <s_lp_Force_Field>
OPLS_2005

> <r_lp_Energy>
15.168117

> <b_lp_Chiralities_Consistent>
1

> <s_lp_Variant>
CHEMBL220_lig577-1

> <s_i_glide_gridfile>
glide-grid_1e66

> <i_i_glide_lignum>
664

> <i_i_glide_rotatable_bonds>
1

> <r_i_docking_score>
-8.17059281444135

> <r_i_glide_ligand_efficiency>
-0.510662050902584

> <r_i_glide_ligand_efficiency_sa>
-1.28678773344006

> <r_i_glide_ligand_efficiency_ln>
-2.16577883676397

> <r_i_glide_gscore>
-8.17059281444135

> <r_i_glide_lipo>
-2.87848664704696

> <r_i_glide_hbond>
-0.633694655395742

> <r_i_glide_metal>
0

> <r_i_glide_rewards>
-2.07639873943853

> <r_i_glide_evdw>
-28.917989730835

> <r_i_glide_ecoul>
-7.57408857345581

> <r_i_glide_erotb>
0

> <r_i_glide_esite>
0

> <r_i_glide_emodel>
-53.645350029133

> <r_i_glide_energy>
-36.4920783042908

> <r_i_glide_einternal>
0.495435625314713

> <i_i_glide_confnum>
1

> <i_i_glide_posenum>
334

> <r_i_glide_eff_state_penalty>
0

> <s_user_duplicate_titles>
CHEMBL220_lig577

> <s_m_subgroup_title>
dock_pv

> <s_m_subgroupid>
dock_pv

> <b_m_subgroup_collapsed>
0

$$$$
CHEMBL220_lig693
                    3D
 Schrodinger Suite 2021-1.
 46 49  0  0  1  0            999 V2000
    1.8182   68.3077   64.9349 C   0  0  1  0  0  0
    1.2773   68.6633   62.7017 C   0  0  0  0  0  0
    0.1128   68.9417   63.3775 O   0  0  0  0  0  0
    2.3003   68.1919   63.5236 C   0  0  0  0  0  0
    0.2984   68.3297   64.6348 C   0  0  2  0  0  0
    3.5932   68.0508   63.0169 C   0  0  0  0  0  0
    1.9429   67.1722   65.9454 C   0  0  0  0  0  0
    5.0641   69.1601   64.8204 N   0  3  0  0  0  0
    4.7626   67.8849   63.9736 C   0  0  0  0  0  0
    2.5092   69.5795   65.4990 C   0  0  0  0  0  0
   -0.5471   68.7412   65.8501 C   0  0  0  0  0  0
    1.4832   68.9079   61.3464 C   0  0  0  0  0  0
    1.0000   66.9589   66.8983 C   0  0  0  0  0  0
    3.7911   68.2342   61.6438 C   0  0  0  0  0  0
    3.9998   69.4864   65.9206 C   0  0  0  0  0  0
    2.7556   68.6807   60.8236 C   0  0  0  0  0  0
   -0.3408   67.7113   67.0008 C   0  0  2  0  0  0
    5.2766   70.3689   63.8771 C   0  0  0  0  0  0
    6.4140   68.9587   65.5508 C   0  0  0  0  0  0
    0.4476   69.2570   60.5157 O   0  0  0  0  0  0
   -1.3967   66.7807   66.9934 O   0  0  0  0  0  0
   -0.1510   70.5080   60.7681 C   0  0  0  0  0  0
   -0.0325   67.3082   64.4205 H   0  0  0  0  0  0
    2.8514   66.5924   65.9754 H   0  0  0  0  0  0
    5.6730   67.7094   63.3988 H   0  0  0  0  0  0
    4.6234   67.0605   64.6714 H   0  0  0  0  0  0
    1.9596   69.9620   66.3601 H   0  0  0  0  0  0
    2.4618   70.3310   64.7204 H   0  0  0  0  0  0
   -1.6002   68.8383   65.5808 H   0  0  0  0  0  0
   -0.2418   69.7080   66.2307 H   0  0  0  0  0  0
    1.1953   66.1925   67.6350 H   0  0  0  0  0  0
    4.7712   68.1192   61.2110 H   0  0  0  0  0  0
    4.3286   70.4307   66.3588 H   0  0  0  0  0  0
    4.1053   68.7271   66.6869 H   0  0  0  0  0  0
    2.9417   68.8491   59.7742 H   0  0  0  0  0  0
   -0.3936   68.2191   67.9658 H   0  0  0  0  0  0
    6.0642   70.1102   63.1675 H   0  0  0  0  0  0
    4.3429   70.5670   63.3556 H   0  0  0  0  0  0
    5.5751   71.2240   64.4839 H   0  0  0  0  0  0
    7.1418   68.5080   64.8739 H   0  0  0  0  0  0
    6.7626   69.9181   65.9377 H   0  0  0  0  0  0
    6.2406   68.2903   66.3679 H   0  0  0  0  0  0
   -1.4320   66.3741   66.1208 H   0  0  0  0  0  0
   -0.8595   70.7209   59.9681 H   0  0  0  0  0  0
   -0.7047   70.5081   61.7063 H   0  0  0  0  0  0
    0.5900   71.3079   60.7681 H   0  0  0  0  0  0
  1  4  1  0  0  0
  1  5  1  0  0  0
  1  7  1  0  0  0
  1 10  1  0  0  0
  2  4  2  0  0  0
  2 12  1  0  0  0
  2  3  1  0  0  0
  3  5  1  0  0  0
  4  6  1  0  0  0
  5 11  1  0  0  0
  5 23  1  0  0  0
  6  9  1  0  0  0
  6 14  2  0  0  0
  7 13  2  0  0  0
  7 24  1  0  0  0
  8 15  1  0  0  0
  8 18  1  0  0  0
  8 19  1  0  0  0
  8  9  1  0  0  0
  9 25  1  0  0  0
  9 26  1  0  0  0
 10 15  1  0  0  0
 10 27  1  0  0  0
 10 28  1  0  0  0
 11 17  1  0  0  0
 11 29  1  0  0  0
 11 30  1  0  0  0
 12 20  1  0  0  0
 12 16  2  0  0  0
 13 17  1  0  0  0
 13 31  1  0  0  0
 14 16  1  0  0  0
 14 32  1  0  0  0
 15 33  1  0  0  0
 15 34  1  0  0  0
 16 35  1  0  0  0
 17 21  1  0  0  0
 17 36  1  0  0  0
 18 37  1  0  0  0
 18 38  1  0  0  0
 18 39  1  0  0  0
 19 40  1  0  0  0
 19 41  1  0  0  0
 19 42  1  0  0  0
 20 22  1  0  0  0
 21 43  1  0  0  0
 22 44  1  0  0  0
 22 45  1  0  0  0
 22 46  1  0  0  0
M  CHG  1   8   1
M  END
> <s_m_entry_id>
8559

> <s_m_entry_name>
dock_pv.69

> <s_m_Source_Path>
/home/csk/Desktop/cluster/DUD-E-result/aces

> <s_m_Source_File>
dock_pv.maegz

> <i_m_Source_File_Index>
69

> <chembl_id>
CHEMBL85404

> <chembl_pref_name>
None

> <i_lp_mmshare_version>
53161

> <i_f3d_flags>
0

> <r_lp_tautomer_probability>
1

> <s_lp_Force_Field>
OPLS_2005

> <r_lp_Energy>
62.948084

> <b_lp_Chiralities_Consistent>
1

> <s_lp_Variant>
CHEMBL220_lig693-2

> <s_i_glide_gridfile>
glide-grid_1e66

> <i_i_glide_lignum>
820

> <i_i_glide_rotatable_bonds>
2

> <r_i_docking_score>
-8.16340252829599

> <r_i_glide_ligand_efficiency>
-0.371063751286182

> <r_i_glide_ligand_efficiency_sa>
-1.03973522421312

> <r_i_glide_ligand_efficiency_ln>
-1.99543334525769

> <r_i_glide_gscore>
-8.16340252829599

> <r_i_glide_lipo>
-3.08688046366714

> <r_i_glide_hbond>
-0.245713971103015

> <r_i_glide_metal>
0

> <r_i_glide_rewards>
-2.96435187099166

> <r_i_glide_evdw>
-21.1166114807129

> <r_i_glide_ecoul>
-5.40417098999023

> <r_i_glide_erotb>
0

> <r_i_glide_esite>
0

> <r_i_glide_emodel>
-35.357251503158

> <r_i_glide_energy>
-26.5207824707031

> <r_i_glide_einternal>
6.35586214065552

> <i_i_glide_confnum>
1

> <i_i_glide_posenum>
15

> <r_i_glide_eff_state_penalty>
0

> <s_user_duplicate_titles>
CHEMBL220_lig693,139050

> <s_m_subgroup_title>
dock_pv

> <s_m_subgroupid>
dock_pv

> <b_m_subgroup_collapsed>
0

$$$$
CHEMBL220_lig852
                    3D
 Schrodinger Suite 2021-1.
 53 56  0  0  1  0            999 V2000
    0.8228   68.0643   65.0458 S   0  0  0  0  0  0
    2.4480   68.6748   65.3558 C   0  0  0  0  0  0
    1.3568   63.1627   71.3198 N   0  3  0  0  0  0
    2.5697   69.3106   66.5880 C   0  0  0  0  0  0
    0.1418   68.8732   66.5198 C   0  0  2  0  0  0
    3.5541   68.5667   64.5126 C   0  0  0  0  0  0
    2.5834   61.0650   71.7014 C   0  0  0  0  0  0
    1.2894   69.4340   67.3795 C   0  0  0  0  0  0
    4.8027   69.0834   64.9006 C   0  0  0  0  0  0
    3.8086   69.8027   66.9891 C   0  0  0  0  0  0
    4.9328   69.7066   66.1540 C   0  0  0  0  0  0
   -0.8850   67.9408   67.1944 C   0  0  0  0  0  0
    3.6011   59.0581   70.3679 S   0  0  0  0  0  0
    1.5961   62.0539   72.2711 C   0  0  0  0  0  0
    2.2410   59.9831   70.8980 C   0  0  0  0  0  0
    3.9723   61.1104   71.9072 C   0  0  0  0  0  0
    4.6646   60.1081   71.2482 C   0  0  0  0  0  0
   -2.0568   68.2996   67.2863 O   0  0  0  0  0  0
   -0.4778   66.5618   67.7462 C   0  0  0  0  0  0
    2.3117   64.1091   71.1693 C   0  0  0  0  0  0
    0.1972   63.2131   70.6250 C   0  0  0  0  0  0
    0.8683   65.3394   69.6721 C   0  0  0  0  0  0
    0.6056   66.6009   68.8529 C   0  0  0  0  0  0
    5.9429   68.9967   64.1205 O   0  0  0  0  0  0
    6.1849   70.1797   66.5068 O   0  0  0  0  0  0
    2.0748   65.2263   70.3677 C   0  0  0  0  0  0
   -0.0566   64.2963   69.7817 C   0  0  0  0  0  0
    5.8623   68.5000   62.7894 C   0  0  0  0  0  0
    6.3729   70.7837   67.7831 C   0  0  0  0  0  0
   -0.4445   69.7078   66.1339 H   0  0  0  0  0  0
    3.4337   68.0777   63.5609 H   0  0  0  0  0  0
    1.3854   68.9735   68.3558 H   0  0  0  0  0  0
    1.0969   70.4829   67.5873 H   0  0  0  0  0  0
    3.8804   70.2899   67.9490 H   0  0  0  0  0  0
    1.9459   62.5129   73.1984 H   0  0  0  0  0  0
    0.6334   61.5952   72.5097 H   0  0  0  0  0  0
    1.2458   59.6953   70.5908 H   0  0  0  0  0  0
    4.4584   61.8600   72.5162 H   0  0  0  0  0  0
    5.7316   59.9428   71.2622 H   0  0  0  0  0  0
   -1.3933   66.1140   68.1323 H   0  0  0  0  0  0
   -0.1598   65.9637   66.8964 H   0  0  0  0  0  0
    3.2172   63.9814   71.7423 H   0  0  0  0  0  0
   -0.4993   62.3965   70.7685 H   0  0  0  0  0  0
    1.5425   66.8203   68.3507 H   0  0  0  0  0  0
    0.4036   67.3992   69.5685 H   0  0  0  0  0  0
    2.8187   66.0075   70.3077 H   0  0  0  0  0  0
   -0.9770   64.3176   69.2191 H   0  0  0  0  0  0
    6.8606   68.5088   62.3515 H   0  0  0  0  0  0
    5.5035   67.4706   62.7589 H   0  0  0  0  0  0
    5.2195   69.1258   62.1677 H   0  0  0  0  0  0
    7.4265   71.0300   67.9189 H   0  0  0  0  0  0
    6.0957   70.1076   68.5923 H   0  0  0  0  0  0
    5.8004   71.7087   67.8739 H   0  0  0  0  0  0
  1  2  1  0  0  0
  1  5  1  0  0  0
  2  4  2  0  0  0
  2  6  1  0  0  0
  3 21  2  0  0  0
  3 14  1  0  0  0
  3 20  1  0  0  0
  4 10  1  0  0  0
  4  8  1  0  0  0
  5  8  1  0  0  0
  5 12  1  0  0  0
  5 30  1  0  0  0
  6  9  2  0  0  0
  6 31  1  0  0  0
  7 14  1  0  0  0
  7 15  2  0  0  0
  7 16  1  0  0  0
  8 32  1  0  0  0
  8 33  1  0  0  0
  9 11  1  0  0  0
  9 24  1  0  0  0
 10 11  2  0  0  0
 10 34  1  0  0  0
 11 25  1  0  0  0
 12 18  2  0  0  0
 12 19  1  0  0  0
 13 15  1  0  0  0
 13 17  1  0  0  0
 14 35  1  0  0  0
 14 36  1  0  0  0
 15 37  1  0  0  0
 16 17  2  0  0  0
 16 38  1  0  0  0
 17 39  1  0  0  0
 19 23  1  0  0  0
 19 40  1  0  0  0
 19 41  1  0  0  0
 20 26  2  0  0  0
 20 42  1  0  0  0
 21 27  1  0  0  0
 21 43  1  0  0  0
 22 23  1  0  0  0
 22 26  1  0  0  0
 22 27  2  0  0  0
 23 44  1  0  0  0
 23 45  1  0  0  0
 24 28  1  0  0  0
 25 29  1  0  0  0
 26 46  1  0  0  0
 27 47  1  0  0  0
 28 48  1  0  0  0
 28 49  1  0  0  0
 28 50  1  0  0  0
 29 51  1  0  0  0
 29 52  1  0  0  0
 29 53  1  0  0  0
M  CHG  1   3   1
M  END
> <s_m_entry_id>
8560

> <s_m_entry_name>
dock_pv.70

> <s_m_Source_Path>
/home/csk/Desktop/cluster/DUD-E-result/aces

> <s_m_Source_File>
dock_pv.maegz

> <i_m_Source_File_Index>
70

> <chembl_id>
CHEMBL362752

> <chembl_pref_name>
None

> <i_lp_mmshare_version>
53161

> <i_f3d_flags>
0

> <r_lp_tautomer_probability>
0.999999960000001

> <s_lp_Force_Field>
OPLS_2005

> <r_lp_Energy>
36.349614

> <b_lp_Chiralities_Consistent>
1

> <s_lp_Variant>
CHEMBL220_lig852-1

> <s_i_glide_gridfile>
glide-grid_1e66

> <i_i_glide_lignum>
1108

> <i_i_glide_rotatable_bonds>
8

> <r_i_docking_score>
-8.16154830899263

> <r_i_glide_ligand_efficiency>
-0.281432700310091

> <r_i_glide_ligand_efficiency_sa>
-0.864650419490383

> <r_i_glide_ligand_efficiency_ln>
-1.86878760375111

> <r_i_glide_gscore>
-8.16154830899263

> <r_i_glide_lipo>
-3.93015791038051

> <r_i_glide_hbond>
0

> <r_i_glide_metal>
0

> <r_i_glide_rewards>
-2.56368012181787

> <r_i_glide_evdw>
-49.0080604553223

> <r_i_glide_ecoul>
0.855073392391205

> <r_i_glide_erotb>
0.654431737113179

> <r_i_glide_esite>
0

> <r_i_glide_emodel>
-73.1910282839195

> <r_i_glide_energy>
-48.1529870629311

> <r_i_glide_einternal>
6.84527730941772

> <i_i_glide_confnum>
12

> <i_i_glide_posenum>
304

> <r_i_glide_eff_state_penalty>
0

> <s_user_duplicate_titles>
CHEMBL220_lig852,313448

> <s_m_subgroup_title>
dock_pv

> <s_m_subgroupid>
dock_pv

> <b_m_subgroup_collapsed>
0

$$$$
CHEMBL220_lig593
                    3D
 Schrodinger Suite 2021-1.
 28 28  0  0  1  0            999 V2000
    2.9050   68.6961   63.1413 C   0  0  0  0  0  0
    4.4425   68.6920   63.2137 N   0  3  0  0  0  0
    2.2992   69.2691   62.0039 C   0  0  0  0  0  0
    2.0704   68.1081   64.1325 C   0  0  0  0  0  0
    0.6800   68.1617   63.9689 C   0  0  0  0  0  0
    0.9142   69.3079   61.8688 C   0  0  0  0  0  0
    0.1048   68.7629   62.8560 C   0  0  0  0  0  0
    0.3430   69.8882   60.7681 O   0  0  0  0  0  0
    5.1282   69.7642   62.3198 C   0  0  0  0  0  0
    5.0321   68.9906   64.6233 C   0  0  0  0  0  0
    5.0030   67.3432   62.7063 C   0  0  0  0  0  0
    2.5529   67.3772   65.3789 C   0  0  0  0  0  0
    2.8682   69.7081   61.2022 H   0  0  0  0  0  0
    0.0241   67.7358   64.7152 H   0  0  0  0  0  0
   -0.9707   68.8018   62.7685 H   0  0  0  0  0  0
    0.9704   70.2202   60.1108 H   0  0  0  0  0  0
    6.2034   69.7056   62.4788 H   0  0  0  0  0  0
    4.9352   69.5515   61.2677 H   0  0  0  0  0  0
    4.7448   70.7379   62.6205 H   0  0  0  0  0  0
    6.0908   69.2474   64.5568 H   0  0  0  0  0  0
    4.4660   69.8273   65.0419 H   0  0  0  0  0  0
    4.9646   68.1068   65.2479 H   0  0  0  0  0  0
    6.0898   67.4135   62.6719 H   0  0  0  0  0  0
    4.6734   66.5542   63.3803 H   0  0  0  0  0  0
    4.6046   67.1892   61.7018 H   0  0  0  0  0  0
    1.7583   66.7937   65.8474 H   0  0  0  0  0  0
    2.9135   68.0874   66.1234 H   0  0  0  0  0  0
    3.3355   66.6593   65.1462 H   0  0  0  0  0  0
  1  2  1  0  0  0
  1  3  1  0  0  0
  1  4  2  0  0  0
  2  9  1  0  0  0
  2 10  1  0  0  0
  2 11  1  0  0  0
  3  6  2  0  0  0
  3 13  1  0  0  0
  4  5  1  0  0  0
  4 12  1  0  0  0
  5  7  2  0  0  0
  5 14  1  0  0  0
  6  8  1  0  0  0
  6  7  1  0  0  0
  7 15  1  0  0  0
  8 16  1  0  0  0
  9 17  1  0  0  0
  9 18  1  0  0  0
  9 19  1  0  0  0
 10 20  1  0  0  0
 10 21  1  0  0  0
 10 22  1  0  0  0
 11 23  1  0  0  0
 11 24  1  0  0  0
 11 25  1  0  0  0
 12 26  1  0  0  0
 12 27  1  0  0  0
 12 28  1  0  0  0
M  CHG  1   2   1
M  END
> <s_m_entry_id>
8561

> <s_m_entry_name>
dock_pv.71

> <s_m_Source_Path>
/home/csk/Desktop/cluster/DUD-E-result/aces

> <s_m_Source_File>
dock_pv.maegz

> <i_m_Source_File_Index>
71

> <chembl_id>
CHEMBL137561

> <chembl_pref_name>
None

> <i_lp_mmshare_version>
53161

> <i_f3d_flags>
0

> <r_lp_tautomer_probability>
1

> <s_lp_Force_Field>
OPLS_2005

> <r_lp_Energy>
24.931545

> <b_lp_Chiralities_Consistent>
1

> <s_lp_Variant>
CHEMBL220_lig593-1

> <s_i_glide_gridfile>
glide-grid_1e66

> <i_i_glide_lignum>
685

> <i_i_glide_rotatable_bonds>
2

> <r_i_docking_score>
-8.14831742298853

> <r_i_glide_ligand_efficiency>
-0.679026451915711

> <r_i_glide_ligand_efficiency_sa>
-1.55458249986907

> <r_i_glide_ligand_efficiency_ln>
-2.33817379971547

> <r_i_glide_gscore>
-8.14831742298853

> <r_i_glide_lipo>
-2.26041168920554

> <r_i_glide_hbond>
-0.32

> <r_i_glide_metal>
0

> <r_i_glide_rewards>
-3.42086114664768

> <r_i_glide_evdw>
-22.896800994873

> <r_i_glide_ecoul>
-6.68136358261108

> <r_i_glide_erotb>
0

> <r_i_glide_esite>
0

> <r_i_glide_emodel>
-48.6603263967678

> <r_i_glide_energy>
-29.5781645774841

> <r_i_glide_einternal>
1.00610136985779

> <i_i_glide_confnum>
1

> <i_i_glide_posenum>
340

> <r_i_glide_eff_state_penalty>
0

> <s_user_duplicate_titles>
CHEMBL220_lig593,226914

> <s_m_subgroup_title>
dock_pv

> <s_m_subgroupid>
dock_pv

> <b_m_subgroup_collapsed>
0

$$$$
CHEMBL220_lig914
                    3D
 Schrodinger Suite 2021-1.
 33 35  0  0  1  0            999 V2000
    2.2207   68.5593   64.9336 C   0  0  0  0  0  0
    4.8638   69.6336   64.6962 C   0  0  0  0  0  0
    2.7732   69.2116   66.0708 C   0  0  0  0  0  0
    3.1372   68.2612   63.7445 C   0  0  1  0  0  0
    4.2031   69.1959   63.5961 O   0  0  0  0  0  0
    4.1356   69.6505   66.0195 C   0  0  0  0  0  0
    4.6821   70.1711   67.1684 N   0  3  0  0  0  0
    0.8602   68.2434   64.9471 C   0  0  0  0  0  0
    1.9799   69.4406   67.2257 C   0  0  0  0  0  0
    0.0597   68.4546   66.0839 C   0  0  0  0  0  0
    0.6293   69.0356   67.2260 C   0  0  0  0  0  0
    5.9430   70.1644   64.4648 O   0  0  0  0  0  0
    3.9249   70.4484   68.2650 C   0  0  0  0  0  0
    2.5728   70.1078   68.3145 C   0  0  0  0  0  0
    3.8715   66.4229   64.0036 Br  0  0  0  0  0  0
    0.3452   67.7084   63.7940 O   0  0  0  0  0  0
    6.1313   70.4656   67.2832 C   0  0  0  0  0  0
   -1.2711   68.0802   66.0110 O   0  0  0  0  0  0
   -0.6111   68.5153   63.1151 C   0  0  0  0  0  0
   -2.1280   68.2642   67.1310 C   0  0  0  0  0  0
    2.5659   68.2493   62.8155 H   0  0  0  0  0  0
    0.0468   69.2252   68.1170 H   0  0  0  0  0  0
    4.4191   70.9141   69.1048 H   0  0  0  0  0  0
    1.9570   70.3428   69.1684 H   0  0  0  0  0  0
    6.6781   69.5753   66.9627 H   0  0  0  0  0  0
    6.3424   71.3080   66.6322 H   0  0  0  0  0  0
    6.4044   70.6991   68.3140 H   0  0  0  0  0  0
   -1.0920   67.8928   62.3680 H   0  0  0  0  0  0
   -1.4031   68.9079   63.7513 H   0  0  0  0  0  0
   -0.1285   69.3529   62.6087 H   0  0  0  0  0  0
   -3.1384   67.9555   66.8623 H   0  0  0  0  0  0
   -1.8090   67.6430   67.9681 H   0  0  0  0  0  0
   -2.1728   69.3082   67.4462 H   0  0  0  0  0  0
  1  3  2  0  0  0
  1  4  1  0  0  0
  1  8  1  0  0  0
  2  5  1  0  0  0
  2 12  2  0  0  0
  2  6  1  0  0  0
  3  6  1  0  0  0
  3  9  1  0  0  0
  4  5  1  0  0  0
  4 15  1  0  0  0
  4 21  1  0  0  0
  6  7  2  0  0  0
  7 17  1  0  0  0
  7 13  1  0  0  0
  8 10  2  0  0  0
  8 16  1  0  0  0
  9 14  1  0  0  0
  9 11  2  0  0  0
 10 11  1  0  0  0
 10 18  1  0  0  0
 11 22  1  0  0  0
 13 14  2  0  0  0
 13 23  1  0  0  0
 14 24  1  0  0  0
 16 19  1  0  0  0
 17 25  1  0  0  0
 17 26  1  0  0  0
 17 27  1  0  0  0
 18 20  1  0  0  0
 19 28  1  0  0  0
 19 29  1  0  0  0
 19 30  1  0  0  0
 20 31  1  0  0  0
 20 32  1  0  0  0
 20 33  1  0  0  0
M  CHG  1   7   1
M  END
> <s_m_entry_id>
8562

> <s_m_entry_name>
dock_pv.72

> <s_m_Source_Path>
/home/csk/Desktop/cluster/DUD-E-result/aces

> <s_m_Source_File>
dock_pv.maegz

> <i_m_Source_File_Index>
72

> <chembl_id>
CHEMBL370561

> <chembl_pref_name>
None

> <i_lp_mmshare_version>
53161

> <i_f3d_flags>
0

> <r_lp_tautomer_probability>
1

> <s_lp_Force_Field>
OPLS_2005

> <r_lp_Energy>
50.311309

> <b_lp_Chiralities_Consistent>
1

> <s_lp_Variant>
CHEMBL220_lig914-2

> <s_i_glide_gridfile>
glide-grid_1e66

> <i_i_glide_lignum>
1249

> <i_i_glide_rotatable_bonds>
2

> <r_i_docking_score>
-8.13907028541337

> <r_i_glide_ligand_efficiency>
-0.406953514270668

> <r_i_glide_ligand_efficiency_sa>
-1.10464178716844

> <r_i_glide_ligand_efficiency_ln>
-2.03694084793476

> <r_i_glide_gscore>
-8.13907028541337

> <r_i_glide_lipo>
-3.21639513857849

> <r_i_glide_hbond>
0

> <r_i_glide_metal>
0

> <r_i_glide_rewards>
-3.02334999658349

> <r_i_glide_evdw>
-34.3975524902344

> <r_i_glide_ecoul>
-1.19631683826447

> <r_i_glide_erotb>
0

> <r_i_glide_esite>
0

> <r_i_glide_emodel>
-55.4830469156668

> <r_i_glide_energy>
-35.5938693284988

> <r_i_glide_einternal>
2.37265610694885

> <i_i_glide_confnum>
1

> <i_i_glide_posenum>
178

> <r_i_glide_eff_state_penalty>
0

> <s_user_duplicate_titles>
CHEMBL220_lig914

> <s_m_subgroup_title>
dock_pv

> <s_m_subgroupid>
dock_pv

> <b_m_subgroup_collapsed>
0

$$$$
CHEMBL220_lig214
                    3D
 Schrodinger Suite 2021-1.
 36 38  0  0  1  0            999 V2000
    4.0703   68.8817   63.6536 C   0  0  2  0  0  0
    4.4401   69.4172   65.0577 C   0  0  0  0  0  0
    2.5344   68.8496   63.4967 C   0  0  0  0  0  0
    3.5693   69.4442   66.1076 C   0  0  0  0  0  0
    3.6750   66.3772   64.2160 C   0  0  0  0  0  0
    1.8816   68.1273   64.6942 C   0  0  1  0  0  0
    4.1650   64.9382   64.1365 C   0  0  0  0  0  0
    3.8980   69.9945   67.3295 N   0  0  0  0  0  0
    4.5340   67.4141   63.4800 C   0  0  0  0  0  0
    2.4899   66.7266   64.7681 C   0  0  0  0  0  0
    5.7607   69.9761   65.3472 C   0  0  0  0  0  0
    1.8990   69.3082   62.3917 C   0  0  0  0  0  0
    0.4355   69.3286   62.0222 C   0  0  0  0  0  0
    2.1490   68.8983   66.0086 C   0  0  0  0  0  0
    5.1139   70.5081   67.6479 C   0  0  0  0  0  0
    6.0690   70.4810   66.5594 C   0  0  0  0  0  0
    4.7431   69.7011   62.6503 N   0  0  0  0  0  0
    5.3642   70.9377   68.7683 O   0  0  0  0  0  0
    3.5439   64.1435   65.0113 F   0  0  0  0  0  0
    3.9578   64.4832   62.9040 F   0  0  0  0  0  0
    5.4726   64.9078   64.3679 F   0  0  0  0  0  0
    0.3432   69.2059   60.7016 F   0  0  0  0  0  0
   -0.0639   70.5078   62.3678 F   0  0  0  0  0  0
   -0.2570   68.3511   62.6000 F   0  0  0  0  0  0
    0.8076   68.0099   64.5761 H   0  0  0  0  0  0
    5.5693   67.3161   63.7816 H   0  0  0  0  0  0
    4.5361   67.1417   62.4227 H   0  0  0  0  0  0
    1.8990   65.9585   65.2481 H   0  0  0  0  0  0
    6.4950   69.9937   64.5626 H   0  0  0  0  0  0
    2.4912   69.7726   61.6194 H   0  0  0  0  0  0
    1.4433   69.7077   66.1675 H   0  0  0  0  0  0
    1.9576   68.2421   66.8600 H   0  0  0  0  0  0
    7.0522   70.8833   66.7413 H   0  0  0  0  0  0
    4.6420   69.3142   61.7225 H   0  0  0  0  0  0
    4.3581   70.6360   62.6517 H   0  0  0  0  0  0
    3.2372   70.0146   68.0901 H   0  0  0  0  0  0
  1  3  1  0  0  0
  1  9  1  0  0  0
  1 17  1  0  0  0
  1  2  1  0  0  0
  2  4  2  0  0  0
  2 11  1  0  0  0
  3  6  1  0  0  0
  3 12  2  0  0  0
  4  8  1  0  0  0
  4 14  1  0  0  0
  5  9  1  0  0  0
  5  7  1  0  0  0
  5 10  2  0  0  0
  6 14  1  0  0  0
  6 10  1  0  0  0
  6 25  1  0  0  0
  7 19  1  0  0  0
  7 20  1  0  0  0
  7 21  1  0  0  0
  8 15  1  0  0  0
  8 36  1  0  0  0
  9 26  1  0  0  0
  9 27  1  0  0  0
 10 28  1  0  0  0
 11 29  1  0  0  0
 11 16  2  0  0  0
 12 13  1  0  0  0
 12 30  1  0  0  0
 13 22  1  0  0  0
 13 23  1  0  0  0
 13 24  1  0  0  0
 14 31  1  0  0  0
 14 32  1  0  0  0
 15 18  2  0  0  0
 15 16  1  0  0  0
 16 33  1  0  0  0
 17 34  1  0  0  0
 17 35  1  0  0  0
M  END
> <s_m_entry_id>
8563

> <s_m_entry_name>
dock_pv.73

> <s_m_Source_Path>
/home/csk/Desktop/cluster/DUD-E-result/aces

> <s_m_Source_File>
dock_pv.maegz

> <i_m_Source_File_Index>
73

> <chembl_id>
CHEMBL59109

> <chembl_pref_name>
None

> <i_lp_mmshare_version>
53161

> <i_f3d_flags>
0

> <r_lp_tautomer_probability>
0.999

> <s_lp_Force_Field>
OPLS_2005

> <r_lp_Energy>
20.298246

> <b_lp_Chiralities_Consistent>
1

> <s_lp_Variant>
CHEMBL220_lig214-1

> <s_i_glide_gridfile>
glide-grid_1e66

> <i_i_glide_lignum>
236

> <i_i_glide_rotatable_bonds>
2

> <r_i_docking_score>
-8.11023464187812

> <r_i_glide_ligand_efficiency>
-0.337926443411588

> <r_i_glide_ligand_efficiency_sa>
-0.974748534579147

> <r_i_glide_ligand_efficiency_ln>
-1.94115130421924

> <r_i_glide_gscore>
-8.11023464187812

> <r_i_glide_lipo>
-3.30306231908348

> <r_i_glide_hbond>
0

> <r_i_glide_metal>
0

> <r_i_glide_rewards>
-2.66759550868659

> <r_i_glide_evdw>
-35.2798538208008

> <r_i_glide_ecoul>
-3.20554423332214

> <r_i_glide_erotb>
0.155351117942709

> <r_i_glide_esite>
-0.0501036060123997

> <r_i_glide_emodel>
-55.6340537059889

> <r_i_glide_energy>
-38.4853980541229

> <r_i_glide_einternal>
1.73527467250824

> <i_i_glide_confnum>
2

> <i_i_glide_posenum>
154

> <r_i_glide_eff_state_penalty>
0

> <s_user_duplicate_titles>
CHEMBL220_lig214

> <s_m_subgroup_title>
dock_pv

> <s_m_subgroupid>
dock_pv

> <b_m_subgroup_collapsed>
0

$$$$
CHEMBL220_lig1030
                    3D
 Schrodinger Suite 2021-1.
 25 27  0  0  1  0            999 V2000
    2.9846   68.7232   62.9584 C   0  0  0  0  0  0
    4.2920   68.8046   62.4840 C   0  0  0  0  0  0
    5.3587   69.1417   63.3189 C   0  0  0  0  0  0
    2.6967   68.9142   64.3092 C   0  0  0  0  0  0
    3.7347   69.3093   65.1673 C   0  0  0  0  0  0
    5.0538   69.4340   64.6533 C   0  0  0  0  0  0
    5.8514   69.9025   65.6794 N   0  0  0  0  0  0
    3.7622   69.7079   66.5176 C   0  0  0  0  0  0
    5.0820   70.1497   66.8019 C   0  0  0  0  0  0
    5.3795   70.7413   68.0399 C   0  0  0  0  0  0
    4.3908   70.9071   68.9620 N   0  0  0  0  0  0
    3.1462   70.4264   68.7169 C   0  0  0  0  0  0
    2.7804   69.7991   67.5241 C   0  0  0  0  0  0
    1.9644   68.4947   62.0757 O   0  0  0  0  0  0
    6.7279   71.2776   68.4831 C   0  0  0  0  0  0
    4.4865   68.6369   61.4339 H   0  0  0  0  0  0
    6.3605   69.2351   62.9260 H   0  0  0  0  0  0
    1.6813   68.8556   64.6713 H   0  0  0  0  0  0
    6.8373   70.1080   65.5866 H   0  0  0  0  0  0
    2.4195   70.5553   69.5076 H   0  0  0  0  0  0
    1.7661   69.4664   67.3603 H   0  0  0  0  0  0
    1.0958   68.5194   62.4832 H   0  0  0  0  0  0
    7.5385   70.8420   67.8971 H   0  0  0  0  0  0
    6.7556   72.3611   68.3679 H   0  0  0  0  0  0
    6.9179   71.0430   69.5321 H   0  0  0  0  0  0
  1  2  2  0  0  0
  1  4  1  0  0  0
  1 14  1  0  0  0
  2  3  1  0  0  0
  2 16  1  0  0  0
  3  6  2  0  0  0
  3 17  1  0  0  0
  4  5  2  0  0  0
  4 18  1  0  0  0
  5  8  1  0  0  0
  5  6  1  0  0  0
  6  7  1  0  0  0
  7  9  1  0  0  0
  7 19  1  0  0  0
  8  9  2  0  0  0
  8 13  1  0  0  0
  9 10  1  0  0  0
 10 11  2  0  0  0
 10 15  1  0  0  0
 11 12  1  0  0  0
 12 13  2  0  0  0
 12 20  1  0  0  0
 13 21  1  0  0  0
 14 22  1  0  0  0
 15 23  1  0  0  0
 15 24  1  0  0  0
 15 25  1  0  0  0
M  END
> <s_m_entry_id>
8564

> <s_m_entry_name>
dock_pv.74

> <s_m_Source_Path>
/home/csk/Desktop/cluster/DUD-E-result/aces

> <s_m_Source_File>
dock_pv.maegz

> <i_m_Source_File_Index>
74

> <chembl_id>
CHEMBL376012

> <chembl_pref_name>
None

> <i_lp_mmshare_version>
53161

> <i_f3d_flags>
0

> <r_lp_tautomer_probability>
1

> <s_lp_Force_Field>
OPLS_2005

> <r_lp_Energy>
9.24777

> <b_lp_Chiralities_Consistent>
1

> <s_lp_Variant>
CHEMBL220_lig1030-1

> <s_i_glide_gridfile>
glide-grid_1e66

> <i_i_glide_lignum>
1429

> <i_i_glide_rotatable_bonds>
1

> <r_i_docking_score>
-8.10338433251937

> <r_i_glide_ligand_efficiency>
-0.540225622167958

> <r_i_glide_ligand_efficiency_sa>
-1.33231095105065

> <r_i_glide_ligand_efficiency_ln>
-2.18534914390065

> <r_i_glide_gscore>
-8.10338433251937

> <r_i_glide_lipo>
-3.06583422418078

> <r_i_glide_hbond>
-0.134855087799656

> <r_i_glide_metal>
0

> <r_i_glide_rewards>
-3.0538326705519

> <r_i_glide_evdw>
-30.1527938842773

> <r_i_glide_ecoul>
-2.27481770515442

> <r_i_glide_erotb>
0

> <r_i_glide_esite>
0

> <r_i_glide_emodel>
-50.9720772064308

> <r_i_glide_energy>
-32.4276115894318

> <r_i_glide_einternal>
0.00644594617187977

> <i_i_glide_confnum>
1

> <i_i_glide_posenum>
359

> <r_i_glide_eff_state_penalty>
0

> <s_user_duplicate_titles>
CHEMBL220_lig1030

> <s_m_subgroup_title>
dock_pv

> <s_m_subgroupid>
dock_pv

> <b_m_subgroup_collapsed>
0

$$$$
CHEMBL220_lig246
                    3D
 Schrodinger Suite 2021-1.
 51 53  0  0  1  0            999 V2000
    0.2818   67.9724   66.8410 C   0  0  0  0  0  0
    1.5418   68.8750   67.6650 S   0  0  0  0  0  0
    2.4604   68.9776   66.1721 C   0  0  0  0  0  0
    0.4297   68.0421   65.4677 C   0  0  0  0  0  0
    1.7038   68.5134   65.0673 C   0  0  0  0  0  0
    1.8074   62.4153   71.2892 N   0  3  0  0  0  0
    3.7545   69.4848   66.0129 C   0  0  0  0  0  0
   -0.7993   67.3148   67.5798 C   0  0  0  0  0  0
    4.2965   69.5816   64.7223 C   0  0  0  0  0  0
    2.2630   68.6044   63.7877 C   0  0  0  0  0  0
    3.5486   69.1480   63.6139 C   0  0  0  0  0  0
   -1.9525   67.3521   67.1578 O   0  0  0  0  0  0
   -0.5381   66.4411   68.8367 C   0  0  0  0  0  0
    0.5259   62.6417   70.9104 C   0  0  0  0  0  0
    2.7918   63.3104   71.0340 C   0  0  0  0  0  0
    1.1826   64.7802   69.9680 C   0  0  0  0  0  0
    0.9270   66.0850   69.2045 C   0  0  0  0  0  0
    5.5431   70.1320   64.4717 O   0  0  0  0  0  0
    2.1349   61.1516   71.9960 C   0  0  0  0  0  0
    4.1257   69.3047   62.3663 O   0  0  0  0  0  0
    2.4936   64.5075   70.3788 C   0  0  0  0  0  0
    0.1910   63.8211   70.2338 C   0  0  0  0  0  0
    3.3378   60.1604   70.1308 O   0  0  0  0  0  0
    2.2591   59.9551   71.0351 C   0  0  0  0  0  0
    3.3795   68.9694   61.1997 C   0  0  0  0  0  0
    6.3215   70.6644   65.5466 C   0  0  0  0  0  0
    3.5093   59.0866   69.2165 C   0  0  0  0  0  0
   -0.3156   67.7081   64.7651 H   0  0  0  0  0  0
    4.2950   69.8241   66.8830 H   0  0  0  0  0  0
    1.6785   68.2691   62.9452 H   0  0  0  0  0  0
   -1.0173   66.9046   69.6956 H   0  0  0  0  0  0
   -1.0993   65.5320   68.6529 H   0  0  0  0  0  0
   -0.1952   61.8726   71.1468 H   0  0  0  0  0  0
    3.7894   63.0479   71.3587 H   0  0  0  0  0  0
    1.5428   66.0507   68.3082 H   0  0  0  0  0  0
    1.3218   66.8908   69.8272 H   0  0  0  0  0  0
    3.0521   61.3077   72.5705 H   0  0  0  0  0  0
    1.3435   60.9943   72.7321 H   0  0  0  0  0  0
    3.2820   65.2227   70.1896 H   0  0  0  0  0  0
   -0.8356   63.9467   69.9157 H   0  0  0  0  0  0
    2.4290   59.0468   71.6164 H   0  0  0  0  0  0
    1.3248   59.8162   70.4870 H   0  0  0  0  0  0
    3.9447   69.2379   60.3085 H   0  0  0  0  0  0
    2.4381   69.5181   61.1555 H   0  0  0  0  0  0
    3.1751   67.8992   61.1516 H   0  0  0  0  0  0
    7.1318   71.2906   65.1628 H   0  0  0  0  0  0
    5.7418   71.3082   66.2045 H   0  0  0  0  0  0
    6.7610   69.8609   66.1392 H   0  0  0  0  0  0
    4.3337   59.3083   68.5402 H   0  0  0  0  0  0
    3.7400   58.1536   69.7326 H   0  0  0  0  0  0
    2.6199   58.9328   68.6054 H   0  0  0  0  0  0
  1  2  1  0  0  0
  1  4  2  0  0  0
  1  8  1  0  0  0
  2  3  1  0  0  0
  3  7  2  0  0  0
  3  5  1  0  0  0
  4  5  1  0  0  0
  4 28  1  0  0  0
  5 10  2  0  0  0
  6 14  2  0  0  0
  6 19  1  0  0  0
  6 15  1  0  0  0
  7  9  1  0  0  0
  7 29  1  0  0  0
  8 12  2  0  0  0
  8 13  1  0  0  0
  9 18  1  0  0  0
  9 11  2  0  0  0
 10 11  1  0  0  0
 10 30  1  0  0  0
 11 20  1  0  0  0
 13 17  1  0  0  0
 13 31  1  0  0  0
 13 32  1  0  0  0
 14 22  1  0  0  0
 14 33  1  0  0  0
 15 21  2  0  0  0
 15 34  1  0  0  0
 16 17  1  0  0  0
 16 21  1  0  0  0
 16 22  2  0  0  0
 17 35  1  0  0  0
 17 36  1  0  0  0
 18 26  1  0  0  0
 19 24  1  0  0  0
 19 37  1  0  0  0
 19 38  1  0  0  0
 20 25  1  0  0  0
 21 39  1  0  0  0
 22 40  1  0  0  0
 23 24  1  0  0  0
 23 27  1  0  0  0
 24 41  1  0  0  0
 24 42  1  0  0  0
 25 43  1  0  0  0
 25 44  1  0  0  0
 25 45  1  0  0  0
 26 46  1  0  0  0
 26 47  1  0  0  0
 26 48  1  0  0  0
 27 49  1  0  0  0
 27 50  1  0  0  0
 27 51  1  0  0  0
M  CHG  1   6   1
M  END
> <s_m_entry_id>
8565

> <s_m_entry_name>
dock_pv.75

> <s_m_Source_Path>
/home/csk/Desktop/cluster/DUD-E-result/aces

> <s_m_Source_File>
dock_pv.maegz

> <i_m_Source_File_Index>
75

> <chembl_id>
CHEMBL87937

> <chembl_pref_name>
None

> <i_lp_mmshare_version>
53161

> <i_f3d_flags>
0

> <r_lp_tautomer_probability>
0.99990000499975

> <s_lp_Force_Field>
OPLS_2005

> <r_lp_Energy>
25.078296

> <b_lp_Chiralities_Consistent>
1

> <s_lp_Variant>
CHEMBL220_lig246-1

> <s_i_glide_gridfile>
glide-grid_1e66

> <i_i_glide_lignum>
286

> <i_i_glide_rotatable_bonds>
9

> <r_i_docking_score>
-8.08934567403605

> <r_i_glide_ligand_efficiency>
-0.299605395334669

> <r_i_glide_ligand_efficiency_sa>
-0.898816185016556

> <r_i_glide_ligand_efficiency_ln>
-1.88306630962925

> <r_i_glide_gscore>
-8.08934567403605

> <r_i_glide_lipo>
-3.79146497163097

> <r_i_glide_hbond>
0

> <r_i_glide_metal>
0

> <r_i_glide_rewards>
-2.52402225487238

> <r_i_glide_evdw>
-47.0073623657227

> <r_i_glide_ecoul>
-1.36882352828979

> <r_i_glide_erotb>
0.781833199996895

> <r_i_glide_esite>
0

> <r_i_glide_emodel>
-69.2230891003567

> <r_i_glide_energy>
-48.3761858940125

> <r_i_glide_einternal>
8.01332187652588

> <i_i_glide_confnum>
32

> <i_i_glide_posenum>
390

> <r_i_glide_eff_state_penalty>
0

> <s_user_duplicate_titles>
CHEMBL220_lig246,139549

> <s_m_subgroup_title>
dock_pv

> <s_m_subgroupid>
dock_pv

> <b_m_subgroup_collapsed>
0

$$$$
CHEMBL220_lig149 
                    3D
 Schrodinger Suite 2021-1.
 62 65  0  0  1  0            999 V2000
    4.4403   69.7125   65.9911 C   0  0  0  0  0  0
    2.2272   68.3953   64.7867 C   0  0  0  0  0  0
    2.2127   68.6881   66.1657 C   0  0  0  0  0  0
    3.2954   69.3898   66.7151 C   0  0  0  0  0  0
    5.7735   70.5055   66.7504 Cl  0  0  0  0  0  0
    1.2294   67.7070   64.1367 O   0  0  0  0  0  0
    0.2553   68.5211   63.4930 C   0  0  0  0  0  0
    1.0767   68.2531   67.0553 C   0  0  0  0  0  0
    1.3092   68.3025   68.5825 C   0  0  0  0  0  0
    0.0182   67.7850   66.6352 O   0  0  0  0  0  0
    0.5131   67.3023   69.4433 C   0  0  0  0  0  0
    0.9803   65.8412   69.3824 C   0  0  0  0  0  0
    2.1826   65.4672   70.2483 C   0  0  0  0  0  0
    2.5775   63.9843   70.0696 C   0  0  0  0  0  0
    1.4726   63.0663   70.4084 N   0  0  1  0  0  0
    0.1816   63.4017   69.7908 C   0  0  0  0  0  0
   -0.1510   64.9028   69.8306 C   0  0  0  0  0  0
    1.7257   61.6328   70.1845 C   0  0  0  0  0  0
    2.8706   60.9851   71.0007 C   0  0  0  0  0  0
    3.3417   68.7580   64.0007 C   0  0  0  0  0  0
    4.4434   69.4055   64.6313 C   0  0  0  0  0  0
    5.3914   69.6359   63.6561 N   0  0  0  0  0  0
    4.9331   69.1851   62.4463 C   0  0  0  0  0  0
    3.6845   68.6230   62.6124 C   0  0  0  0  0  0
    5.3571   60.3857   71.1537 C   0  0  0  0  0  0
    4.2636   61.0727   70.3211 C   0  0  0  0  0  0
    2.9003   61.4267   72.4881 C   0  0  0  0  0  0
    4.0493   60.7907   73.2896 C   0  0  0  0  0  0
    5.4007   60.9707   72.5739 C   0  0  0  0  0  0
    3.2966   69.6919   67.7524 H   0  0  0  0  0  0
   -0.3974   67.8912   62.8876 H   0  0  0  0  0  0
   -0.3689   69.0397   64.2213 H   0  0  0  0  0  0
    0.7077   69.2643   62.8325 H   0  0  0  0  0  0
    2.3434   68.1109   68.8178 H   0  0  0  0  0  0
    1.1118   69.3242   68.8989 H   0  0  0  0  0  0
    0.5110   67.6283   70.4802 H   0  0  0  0  0  0
   -0.5187   67.3079   69.1086 H   0  0  0  0  0  0
    1.2680   65.6717   68.3663 H   0  0  0  0  0  0
    3.0315   66.1084   70.0286 H   0  0  0  0  0  0
    1.9433   65.6627   71.2846 H   0  0  0  0  0  0
    2.8744   63.8002   69.0361 H   0  0  0  0  0  0
    3.4436   63.7799   70.6908 H   0  0  0  0  0  0
    0.1630   63.0459   68.7682 H   0  0  0  0  0  0
   -0.6038   62.8417   70.3011 H   0  0  0  0  0  0
   -0.4495   65.1614   70.8445 H   0  0  0  0  0  0
   -1.0288   65.0832   69.2090 H   0  0  0  0  0  0
    0.8184   61.0657   70.3972 H   0  0  0  0  0  0
    1.9164   61.4799   69.1207 H   0  0  0  0  0  0
    2.6744   59.9114   71.0118 H   0  0  0  0  0  0
    6.2938   70.0813   63.7718 H   0  0  0  0  0  0
    5.5474   69.3082   61.5692 H   0  0  0  0  0  0
    3.0864   68.1797   61.8301 H   0  0  0  0  0  0
    5.1429   59.3135   71.1957 H   0  0  0  0  0  0
    6.3318   60.5056   70.6811 H   0  0  0  0  0  0
    4.2177   60.6252   69.3259 H   0  0  0  0  0  0
    4.5576   62.1044   70.1429 H   0  0  0  0  0  0
    3.0014   62.5096   72.5473 H   0  0  0  0  0  0
    1.9409   61.2087   72.9596 H   0  0  0  0  0  0
    3.8516   59.7276   73.4421 H   0  0  0  0  0  0
    4.0747   61.2397   74.2840 H   0  0  0  0  0  0
    6.2039   60.5082   73.1438 H   0  0  0  0  0  0
    5.6477   62.0334   72.5275 H   0  0  0  0  0  0
  1 21  2  0  0  0
  1  4  1  0  0  0
  1  5  1  0  0  0
  2 20  2  0  0  0
  2  3  1  0  0  0
  2  6  1  0  0  0
  3  4  2  0  0  0
  3  8  1  0  0  0
  4 30  1  0  0  0
  6  7  1  0  0  0
  7 31  1  0  0  0
  7 32  1  0  0  0
  7 33  1  0  0  0
  8  9  1  0  0  0
  8 10  2  0  0  0
  9 11  1  0  0  0
  9 34  1  0  0  0
  9 35  1  0  0  0
 11 12  1  0  0  0
 11 36  1  0  0  0
 11 37  1  0  0  0
 12 13  1  0  0  0
 12 17  1  0  0  0
 12 38  1  0  0  0
 13 14  1  0  0  0
 13 39  1  0  0  0
 13 40  1  0  0  0
 14 15  1  0  0  0
 14 41  1  0  0  0
 14 42  1  0  0  0
 15 16  1  0  0  0
 15 18  1  0  0  0
 16 17  1  0  0  0
 16 43  1  0  0  0
 16 44  1  0  0  0
 17 45  1  0  0  0
 17 46  1  0  0  0
 18 19  1  0  0  0
 18 47  1  0  0  0
 18 48  1  0  0  0
 19 26  1  0  0  0
 19 27  1  0  0  0
 19 49  1  0  0  0
 20 21  1  0  0  0
 20 24  1  0  0  0
 21 22  1  0  0  0
 22 23  1  0  0  0
 22 50  1  0  0  0
 23 24  2  0  0  0
 23 51  1  0  0  0
 24 52  1  0  0  0
 25 26  1  0  0  0
 25 29  1  0  0  0
 25 53  1  0  0  0
 25 54  1  0  0  0
 26 55  1  0  0  0
 26 56  1  0  0  0
 27 28  1  0  0  0
 27 57  1  0  0  0
 27 58  1  0  0  0
 28 29  1  0  0  0
 28 59  1  0  0  0
 28 60  1  0  0  0
 29 61  1  0  0  0
 29 62  1  0  0  0
M  END
> <s_m_entry_id>
8566

> <s_m_entry_name>
dock_pv.76

> <s_m_Source_Path>
/home/csk/Desktop/cluster/DUD-E-result/aces

> <s_m_Source_File>
dock_pv.maegz

> <i_m_Source_File_Index>
76

> <chembl_id>
CHEMBL4537101

> <chembl_pref_name>
None

> <i_lp_mmshare_version>
53161

> <i_f3d_flags>
0

> <r_lp_tautomer_probability>
0.99990000499975

> <s_lp_Force_Field>
OPLS_2005

> <r_lp_Energy>
50.183391

> <b_lp_Chiralities_Consistent>
1

> <s_lp_Variant>
CHEMBL220_lig149 -1

> <s_i_glide_gridfile>
glide-grid_1e66

> <i_i_glide_lignum>
165

> <i_i_glide_rotatable_bonds>
7

> <r_i_docking_score>
-8.0890277238

> <r_i_glide_ligand_efficiency>
-0.278931990475862

> <r_i_glide_ligand_efficiency_sa>
-0.856967446599148

> <r_i_glide_ligand_efficiency_ln>
-1.85218222870537

> <r_i_glide_gscore>
-8.0890277238

> <r_i_glide_lipo>
-4.16495899086115

> <r_i_glide_hbond>
-0.094131173404453

> <r_i_glide_metal>
0

> <r_i_glide_rewards>
-2.48286696336401

> <r_i_glide_evdw>
-39.3304901123047

> <r_i_glide_ecoul>
-0.416314363479614

> <r_i_glide_erotb>
0.681901063966789

> <r_i_glide_esite>
0

> <r_i_glide_emodel>
-58.6539819369781

> <r_i_glide_energy>
-39.7468044757843

> <r_i_glide_einternal>
2.62650442123413

> <i_i_glide_confnum>
3

> <i_i_glide_posenum>
223

> <r_i_glide_eff_state_penalty>
0

> <s_user_duplicate_titles>
CHEMBL220_lig149 

> <s_m_subgroup_title>
dock_pv

> <s_m_subgroupid>
dock_pv

> <b_m_subgroup_collapsed>
0

$$$$
CHEMBL220_lig178
                    3D
 Schrodinger Suite 2021-1.
 56 59  0  0  1  0            999 V2000
    2.8588   68.8275   65.1424 C   0  0  0  0  0  0
    2.2165   69.1345   66.3477 N   0  0  0  0  0  0
    4.1852   69.0657   65.4549 N   0  0  0  0  0  0
    2.3938   68.4603   63.9302 C   0  0  0  0  0  0
    3.0915   69.7080   67.2708 C   0  0  0  0  0  0
    4.3276   69.7186   66.6685 C   0  0  0  0  0  0
    1.5680   63.3354   70.3677 C   0  0  0  0  0  0
    1.0197   68.4258   63.5750 C   0  0  0  0  0  0
    3.2771   68.1078   62.8703 C   0  0  0  0  0  0
    0.6288   64.2743   70.0715 O   0  0  0  0  0  0
   -0.0741   68.4664   63.2106 N   0  0  0  0  0  0
    3.9848   67.7548   62.0278 N   0  0  0  0  0  0
    1.2454   65.4845   70.0485 C   0  0  0  0  0  0
    2.7934   63.9477   70.5513 C   0  0  0  0  0  0
    0.5779   61.5645   71.7922 N   0  0  0  0  0  0
    2.5848   65.3097   70.3583 C   0  0  0  0  0  0
    1.0994   61.9044   70.4632 C   0  0  0  0  0  0
    0.8262   68.8497   66.7250 C   0  0  0  0  0  0
    0.9544   67.7063   68.9435 N   0  0  1  0  0  0
    2.9115   70.2792   68.5348 C   0  0  0  0  0  0
    0.3589   66.6887   69.8083 C   0  0  0  0  0  0
    5.4281   70.3225   67.2768 C   0  0  0  0  0  0
   -0.7640   62.1375   72.0119 C   0  0  0  0  0  0
    0.5892   60.1052   71.9670 C   0  0  0  0  0  0
    0.6076   67.5462   67.5310 C   0  0  0  0  0  0
    4.0032   70.8849   69.1654 C   0  0  0  0  0  0
    0.0495   59.6707   73.3432 C   0  0  0  0  0  0
   -1.3615   61.7442   73.3805 C   0  0  0  0  0  0
    5.2559   70.9079   68.5351 C   0  0  0  0  0  0
   -1.3566   60.2249   73.6004 C   0  0  0  0  0  0
    4.8694   68.9376   64.7232 H   0  0  0  0  0  0
    3.7221   63.4665   70.8130 H   0  0  0  0  0  0
    3.3196   66.0954   70.4496 H   0  0  0  0  0  0
    0.3444   61.7080   69.7034 H   0  0  0  0  0  0
    1.9363   61.2486   70.2152 H   0  0  0  0  0  0
    0.4276   69.6962   67.2869 H   0  0  0  0  0  0
    0.2041   68.8114   65.8361 H   0  0  0  0  0  0
    0.7437   68.6316   69.3130 H   0  0  0  0  0  0
    1.9468   70.2944   69.0223 H   0  0  0  0  0  0
    0.2085   67.1709   70.7750 H   0  0  0  0  0  0
   -0.6367   66.4027   69.4658 H   0  0  0  0  0  0
    6.3956   70.3381   66.7963 H   0  0  0  0  0  0
   -0.7118   63.2245   71.9468 H   0  0  0  0  0  0
   -1.4350   61.8180   71.2124 H   0  0  0  0  0  0
   -0.0002   59.6570   71.1684 H   0  0  0  0  0  0
    1.6088   59.7342   71.8489 H   0  0  0  0  0  0
   -0.4504   67.2884   67.4506 H   0  0  0  0  0  0
    1.1711   66.7199   67.0953 H   0  0  0  0  0  0
    3.8743   71.3081   70.1490 H   0  0  0  0  0  0
    0.0236   58.5815   73.3894 H   0  0  0  0  0  0
    0.7453   59.9765   74.1260 H   0  0  0  0  0  0
   -0.8275   62.2613   74.1791 H   0  0  0  0  0  0
   -2.3881   62.1080   73.4385 H   0  0  0  0  0  0
    6.0985   71.3707   69.0288 H   0  0  0  0  0  0
   -1.6882   59.9804   74.6106 H   0  0  0  0  0  0
   -2.0642   59.7543   72.9166 H   0  0  0  0  0  0
  1  2  1  0  0  0
  1  3  1  0  0  0
  1  4  2  0  0  0
  2  5  1  0  0  0
  2 18  1  0  0  0
  3  6  1  0  0  0
  3 31  1  0  0  0
  4  8  1  0  0  0
  4  9  1  0  0  0
  5 20  2  0  0  0
  5  6  1  0  0  0
  6 22  2  0  0  0
  7 10  1  0  0  0
  7 17  1  0  0  0
  7 14  2  0  0  0
  8 11  3  0  0  0
  9 12  3  0  0  0
 10 13  1  0  0  0
 13 21  1  0  0  0
 13 16  2  0  0  0
 14 16  1  0  0  0
 14 32  1  0  0  0
 15 17  1  0  0  0
 15 23  1  0  0  0
 15 24  1  0  0  0
 16 33  1  0  0  0
 17 34  1  0  0  0
 17 35  1  0  0  0
 18 25  1  0  0  0
 18 36  1  0  0  0
 18 37  1  0  0  0
 19 25  1  0  0  0
 19 21  1  0  0  0
 19 38  1  0  0  0
 20 26  1  0  0  0
 20 39  1  0  0  0
 21 40  1  0  0  0
 21 41  1  0  0  0
 22 29  1  0  0  0
 22 42  1  0  0  0
 23 28  1  0  0  0
 23 43  1  0  0  0
 23 44  1  0  0  0
 24 27  1  0  0  0
 24 45  1  0  0  0
 24 46  1  0  0  0
 25 47  1  0  0  0
 25 48  1  0  0  0
 26 29  2  0  0  0
 26 49  1  0  0  0
 27 30  1  0  0  0
 27 50  1  0  0  0
 27 51  1  0  0  0
 28 30  1  0  0  0
 28 52  1  0  0  0
 28 53  1  0  0  0
 29 54  1  0  0  0
 30 55  1  0  0  0
 30 56  1  0  0  0
M  END
> <s_m_entry_id>
8567

> <s_m_entry_name>
dock_pv.77

> <s_m_Source_Path>
/home/csk/Desktop/cluster/DUD-E-result/aces

> <s_m_Source_File>
dock_pv.maegz

> <i_m_Source_File_Index>
77

> <chembl_id>
CHEMBL154972

> <chembl_pref_name>
None

> <i_lp_mmshare_version>
53161

> <i_f3d_flags>
0

> <r_lp_tautomer_probability>
0.5

> <s_lp_Force_Field>
OPLS_2005

> <r_lp_Energy>
57.326916

> <b_lp_Chiralities_Consistent>
1

> <s_lp_Variant>
CHEMBL220_lig178-1

> <s_i_glide_gridfile>
glide-grid_1e66

> <i_i_glide_lignum>
194

> <i_i_glide_rotatable_bonds>
7

> <r_i_docking_score>
-8.07395748806647

> <r_i_glide_ligand_efficiency>
-0.269131916268882

> <r_i_glide_ligand_efficiency_sa>
-0.836255437672233

> <r_i_glide_ligand_efficiency_ln>
-1.8344911141016

> <r_i_glide_gscore>
-8.07395748806647

> <r_i_glide_lipo>
-3.73360551378472

> <r_i_glide_hbond>
-0.120769998985743

> <r_i_glide_metal>
0

> <r_i_glide_rewards>
-2.40353189083596

> <r_i_glide_evdw>
-45.3450355529785

> <r_i_glide_ecoul>
-2.64508247375488

> <r_i_glide_erotb>
0.847964064252112

> <r_i_glide_esite>
0

> <r_i_glide_emodel>
-65.4627093473146

> <r_i_glide_energy>
-47.9901180267334

> <r_i_glide_einternal>
7.18480539321899

> <i_i_glide_confnum>
273

> <i_i_glide_posenum>
300

> <r_i_glide_eff_state_penalty>
0

> <s_user_duplicate_titles>
CHEMBL220_lig178,257670

> <s_m_subgroup_title>
dock_pv

> <s_m_subgroupid>
dock_pv

> <b_m_subgroup_collapsed>
0

$$$$
CHEMBL220_lig211
                    3D
 Schrodinger Suite 2021-1.
 53 55  0  0  1  0            999 V2000
    2.1712   62.7555   71.9317 C   0  0  0  0  0  0
    3.3359   62.4957   71.2939 C   0  0  0  0  0  0
    1.0680   63.5294   71.5620 N   0  0  0  0  0  0
    1.9130   68.6959   65.5910 C   0  0  0  0  0  0
    4.3405   68.5976   65.0279 N   0  0  1  0  0  0
    3.6699   62.9885   70.0025 C   0  0  0  0  0  0
    4.3329   61.6743   71.8906 C   0  0  0  0  0  0
    1.8656   68.4802   66.9322 O   0  0  0  0  0  0
    1.8059   62.2764   73.1800 N   0  0  0  0  0  0
    3.9429   63.3285   68.9310 N   0  0  0  0  0  0
    5.1421   60.9936   72.3579 N   0  0  0  0  0  0
    0.6981   67.8341   67.2048 C   0  0  0  0  0  0
    0.7567   68.2013   65.0057 C   0  0  0  0  0  0
   -0.0342   67.7079   66.0416 C   0  0  0  0  0  0
    3.1270   69.4252   65.0588 C   0  0  0  0  0  0
    4.3331   67.6071   63.9354 C   0  0  0  0  0  0
    0.9224   63.2350   73.7983 C   0  0  0  0  0  0
    1.0637   66.1081   68.8726 N   0  0  1  0  0  0
    0.0571   63.5332   72.6035 C   0  0  0  0  0  0
    5.5379   69.4521   64.9392 C   0  0  0  0  0  0
    0.7900   64.1253   70.2591 C   0  0  0  0  0  0
    4.5001   68.1950   62.5059 C   0  0  2  0  0  0
    0.4446   67.3992   68.6262 C   0  0  0  0  0  0
    4.7423   67.1669   61.5701 O   0  0  0  0  0  0
    5.6333   70.1996   63.5916 C   0  0  0  0  0  0
    0.9342   65.6558   70.2503 C   0  0  0  0  0  0
    5.6509   69.2171   62.4143 C   0  0  0  0  0  0
    2.5407   61.9508   73.7955 H   0  0  0  0  0  0
    0.4979   68.2339   63.9578 H   0  0  0  0  0  0
   -1.0201   67.2737   65.9679 H   0  0  0  0  0  0
    2.9096   69.8419   64.0768 H   0  0  0  0  0  0
    3.3083   70.2834   65.7068 H   0  0  0  0  0  0
    5.1447   66.9112   64.1437 H   0  0  0  0  0  0
    3.4223   67.0086   63.9915 H   0  0  0  0  0  0
    1.4637   64.1074   74.1696 H   0  0  0  0  0  0
    0.3551   62.7956   74.6206 H   0  0  0  0  0  0
    0.7452   65.4078   68.2024 H   0  0  0  0  0  0
   -0.6787   62.7463   72.4274 H   0  0  0  0  0  0
   -0.4565   64.4902   72.6921 H   0  0  0  0  0  0
    5.5457   70.1666   65.7638 H   0  0  0  0  0  0
    6.4160   68.8236   65.0868 H   0  0  0  0  0  0
    1.4116   63.6653   69.4956 H   0  0  0  0  0  0
   -0.2297   63.8647   69.9740 H   0  0  0  0  0  0
    3.5772   68.6948   62.2097 H   0  0  0  0  0  0
   -0.6236   67.3081   68.8106 H   0  0  0  0  0  0
    0.8539   68.1213   69.3326 H   0  0  0  0  0  0
    5.2472   67.5663   60.8387 H   0  0  0  0  0  0
    4.8113   70.9081   63.4928 H   0  0  0  0  0  0
    6.5290   70.8194   63.5723 H   0  0  0  0  0  0
    0.0797   66.1093   70.7558 H   0  0  0  0  0  0
    1.8312   65.9670   70.7876 H   0  0  0  0  0  0
    5.5818   69.7739   61.4800 H   0  0  0  0  0  0
    6.6131   68.7016   62.3921 H   0  0  0  0  0  0
  1  2  2  0  0  0
  1  3  1  0  0  0
  1  9  1  0  0  0
  2  6  1  0  0  0
  2  7  1  0  0  0
  3 19  1  0  0  0
  3 21  1  0  0  0
  4  8  1  0  0  0
  4 15  1  0  0  0
  4 13  2  0  0  0
  5 15  1  0  0  0
  5 16  1  0  0  0
  5 20  1  0  0  0
  6 10  3  0  0  0
  7 11  3  0  0  0
  8 12  1  0  0  0
  9 17  1  0  0  0
  9 28  1  0  0  0
 12 23  1  0  0  0
 12 14  2  0  0  0
 13 14  1  0  0  0
 13 29  1  0  0  0
 14 30  1  0  0  0
 15 31  1  0  0  0
 15 32  1  0  0  0
 16 22  1  0  0  0
 16 33  1  0  0  0
 16 34  1  0  0  0
 17 19  1  0  0  0
 17 35  1  0  0  0
 17 36  1  0  0  0
 18 26  1  0  0  0
 18 23  1  0  0  0
 18 37  1  0  0  0
 19 38  1  0  0  0
 19 39  1  0  0  0
 20 25  1  0  0  0
 20 40  1  0  0  0
 20 41  1  0  0  0
 21 26  1  0  0  0
 21 42  1  0  0  0
 21 43  1  0  0  0
 22 24  1  0  0  0
 22 27  1  0  0  0
 22 44  1  0  0  0
 23 45  1  0  0  0
 23 46  1  0  0  0
 24 47  1  0  0  0
 25 27  1  0  0  0
 25 48  1  0  0  0
 25 49  1  0  0  0
 26 50  1  0  0  0
 26 51  1  0  0  0
 27 52  1  0  0  0
 27 53  1  0  0  0
M  END
> <s_m_entry_id>
8568

> <s_m_entry_name>
dock_pv.78

> <s_m_Source_Path>
/home/csk/Desktop/cluster/DUD-E-result/aces

> <s_m_Source_File>
dock_pv.maegz

> <i_m_Source_File_Index>
78

> <chembl_id>
CHEMBL152260

> <chembl_pref_name>
None

> <i_lp_mmshare_version>
53161

> <i_f3d_flags>
0

> <r_lp_tautomer_probability>
0.5

> <s_lp_Force_Field>
OPLS_2005

> <r_lp_Energy>
54.084222

> <b_lp_Chiralities_Consistent>
1

> <s_lp_Variant>
CHEMBL220_lig211-1

> <s_i_glide_gridfile>
glide-grid_1e66

> <i_i_glide_lignum>
232

> <i_i_glide_rotatable_bonds>
8

> <r_i_docking_score>
-8.06761818354532

> <r_i_glide_ligand_efficiency>
-0.298800673464642

> <r_i_glide_ligand_efficiency_sa>
-0.896402019409127

> <r_i_glide_ligand_efficiency_ln>
-1.87800850804868

> <r_i_glide_gscore>
-8.06761818354532

> <r_i_glide_lipo>
-2.74262989852963

> <r_i_glide_hbond>
-0.456

> <r_i_glide_metal>
0

> <r_i_glide_rewards>
-2.03964636860738

> <r_i_glide_evdw>
-39.9934158325195

> <r_i_glide_ecoul>
-12.0915727615356

> <r_i_glide_erotb>
0.98406478944801

> <r_i_glide_esite>
0

> <r_i_glide_emodel>
-74.5131508386968

> <r_i_glide_energy>
-52.0849885940552

> <r_i_glide_einternal>
8.30410289764404

> <i_i_glide_confnum>
75

> <i_i_glide_posenum>
165

> <r_i_glide_eff_state_penalty>
0

> <s_user_duplicate_titles>
CHEMBL220_lig211,256954

> <s_m_subgroup_title>
dock_pv

> <s_m_subgroupid>
dock_pv

> <b_m_subgroup_collapsed>
0

$$$$
CHEMBL220_lig214
                    3D
 Schrodinger Suite 2021-1.
 36 38  0  0  1  0            999 V2000
    4.1531   67.8797   62.9344 C   0  0  1  0  0  0
    4.0063   66.5521   63.7182 C   0  0  0  0  0  0
    2.7793   68.5936   62.9929 C   0  0  0  0  0  0
    2.9855   66.3259   64.5942 C   0  0  0  0  0  0
    4.7415   69.3627   64.9618 C   0  0  0  0  0  0
    2.3170   68.7235   64.4528 C   0  0  2  0  0  0
    5.7953   70.0395   65.8359 C   0  0  0  0  0  0
    2.7590   65.1276   65.1682 N   0  0  0  0  0  0
    5.2085   68.8003   63.6093 C   0  0  0  0  0  0
    3.4345   69.3250   65.3035 C   0  0  0  0  0  0
    4.8649   65.3867   63.4868 C   0  0  0  0  0  0
    2.0276   68.8930   61.9065 C   0  0  0  0  0  0
    0.5580   69.2436   61.8298 C   0  0  0  0  0  0
    1.9262   67.3429   64.9517 C   0  0  0  0  0  0
    3.6143   64.0923   65.1237 C   0  0  0  0  0  0
    4.6398   64.2077   64.1065 C   0  0  0  0  0  0
    4.5205   67.4987   61.5807 N   0  0  0  0  0  0
    3.5443   63.2382   65.9896 O   0  0  0  0  0  0
    5.2806   70.5070   66.9754 F   0  0  0  0  0  0
    6.7443   69.1612   66.1386 F   0  0  0  0  0  0
    6.3429   71.0497   65.1665 F   0  0  0  0  0  0
   -0.0563   68.1081   61.5683 F   0  0  0  0  0  0
    0.3313   70.1090   60.8470 F   0  0  0  0  0  0
    0.0360   69.7079   62.9501 F   0  0  0  0  0  0
    1.4309   69.3081   64.5875 H   0  0  0  0  0  0
    5.4270   69.6495   62.9597 H   0  0  0  0  0  0
    6.1663   68.2917   63.7196 H   0  0  0  0  0  0
    3.1450   69.7503   66.2545 H   0  0  0  0  0  0
    5.6602   65.4716   62.7682 H   0  0  0  0  0  0
    2.4576   68.7812   60.9240 H   0  0  0  0  0  0
    1.7827   67.3708   66.0343 H   0  0  0  0  0  0
    0.9588   67.0169   64.5623 H   0  0  0  0  0  0
    5.2568   63.3441   63.9123 H   0  0  0  0  0  0
    3.6853   67.3077   61.0539 H   0  0  0  0  0  0
    5.0493   68.1981   61.0600 H   0  0  0  0  0  0
    1.9920   65.0380   65.8177 H   0  0  0  0  0  0
  1  3  1  0  0  0
  1  9  1  0  0  0
  1 17  1  0  0  0
  1  2  1  0  0  0
  2  4  2  0  0  0
  2 11  1  0  0  0
  3  6  1  0  0  0
  3 12  2  0  0  0
  4  8  1  0  0  0
  4 14  1  0  0  0
  5  9  1  0  0  0
  5  7  1  0  0  0
  5 10  2  0  0  0
  6 14  1  0  0  0
  6 10  1  0  0  0
  6 25  1  0  0  0
  7 19  1  0  0  0
  7 20  1  0  0  0
  7 21  1  0  0  0
  8 15  1  0  0  0
  8 36  1  0  0  0
  9 26  1  0  0  0
  9 27  1  0  0  0
 10 28  1  0  0  0
 11 29  1  0  0  0
 11 16  2  0  0  0
 12 13  1  0  0  0
 12 30  1  0  0  0
 13 22  1  0  0  0
 13 23  1  0  0  0
 13 24  1  0  0  0
 14 31  1  0  0  0
 14 32  1  0  0  0
 15 18  2  0  0  0
 15 16  1  0  0  0
 16 33  1  0  0  0
 17 34  1  0  0  0
 17 35  1  0  0  0
M  END
> <s_m_entry_id>
8569

> <s_m_entry_name>
dock_pv.79

> <s_m_Source_Path>
/home/csk/Desktop/cluster/DUD-E-result/aces

> <s_m_Source_File>
dock_pv.maegz

> <i_m_Source_File_Index>
79

> <chembl_id>
CHEMBL59109

> <chembl_pref_name>
None

> <i_lp_mmshare_version>
53161

> <i_f3d_flags>
0

> <r_lp_tautomer_probability>
0.999

> <s_lp_Force_Field>
OPLS_2005

> <r_lp_Energy>
20.298281

> <b_lp_Chiralities_Consistent>
1

> <s_lp_Variant>
CHEMBL220_lig214-2

> <s_i_glide_gridfile>
glide-grid_1e66

> <i_i_glide_lignum>
237

> <i_i_glide_rotatable_bonds>
2

> <r_i_docking_score>
-8.0563560763177

> <r_i_glide_ligand_efficiency>
-0.335681503179904

> <r_i_glide_ligand_efficiency_sa>
-0.968273006416982

> <r_i_glide_ligand_efficiency_ln>
-1.92825569115436

> <r_i_glide_gscore>
-8.0563560763177

> <r_i_glide_lipo>
-3.06981697321554

> <r_i_glide_hbond>
-0.696450061333173

> <r_i_glide_metal>
0

> <r_i_glide_rewards>
-2.26778161325563

> <r_i_glide_evdw>
-29.5792465209961

> <r_i_glide_ecoul>
-4.37139272689819

> <r_i_glide_erotb>
0.155351117942709

> <r_i_glide_esite>
-0.042987311371527

> <r_i_glide_emodel>
-46.2076260833278

> <r_i_glide_energy>
-33.9506392478943

> <r_i_glide_einternal>
0.0314676091074944

> <i_i_glide_confnum>
1

> <i_i_glide_posenum>
112

> <r_i_glide_eff_state_penalty>
0

> <s_user_duplicate_titles>
CHEMBL220_lig214

> <s_m_subgroup_title>
dock_pv

> <s_m_subgroupid>
dock_pv

> <b_m_subgroup_collapsed>
0

$$$$
CHEMBL220_lig131
                    3D
 Schrodinger Suite 2021-1.
 49 53  0  0  1  0            999 V2000
    1.5555   65.2262   70.4387 C   0  0  0  0  0  0
    0.3582   65.6504   71.0146 C   0  0  0  0  0  0
   -0.4570   66.5080   70.2788 C   0  0  0  0  0  0
    1.8994   65.6656   69.1680 C   0  0  0  0  0  0
    1.0439   66.4982   68.4252 C   0  0  0  0  0  0
   -0.1442   66.8998   68.9730 C   0  0  0  0  0  0
   -0.9224   67.7155   67.9678 C   0  0  0  0  0  0
   -0.0933   67.6734   66.7131 C   0  0  0  0  0  0
    1.1058   66.9079   66.9959 C   0  0  0  0  0  0
   -0.0570   65.2786   72.2768 O   0  0  0  0  0  0
    0.3241   63.9903   72.7535 C   0  0  0  0  0  0
    1.9430   66.5653   66.1588 O   0  0  0  0  0  0
   -0.3548   68.2961   65.5398 C   0  0  0  0  0  0
    0.5099   68.4877   64.3423 C   0  0  0  0  0  0
    1.8776   68.9080   64.3379 C   0  0  0  0  0  0
    2.4855   69.1013   63.0812 C   0  0  0  0  0  0
    1.8030   68.9078   61.8876 C   0  0  0  0  0  0
    0.4775   68.5091   61.9144 C   0  0  0  0  0  0
   -0.1599   68.3062   63.1288 C   0  0  0  0  0  0
    2.6757   69.2970   65.5703 C   0  0  0  0  0  0
    2.0684   69.7080   66.7680 C   0  0  0  0  0  0
    2.7600   70.1080   67.8941 C   0  0  0  0  0  0
    4.0746   69.3080   65.5474 C   0  0  0  0  0  0
    4.8183   69.8332   66.6246 C   0  0  0  0  0  0
    4.1455   70.2595   67.8095 C   0  0  0  0  0  0
    4.8743   70.8442   68.8648 C   0  0  0  0  0  0
    6.2529   70.9509   68.7676 C   0  0  0  0  0  0
    6.8959   70.5080   67.6232 C   0  0  0  0  0  0
    6.2135   69.9632   66.5506 C   0  0  0  0  0  0
    2.2317   64.5715   70.9653 H   0  0  0  0  0  0
   -1.3417   66.9080   70.7524 H   0  0  0  0  0  0
    2.8091   65.2815   68.7389 H   0  0  0  0  0  0
   -1.9372   67.3438   67.8166 H   0  0  0  0  0  0
   -0.9719   68.7674   68.2521 H   0  0  0  0  0  0
   -0.1665   63.8037   73.7088 H   0  0  0  0  0  0
    1.3968   63.8933   72.9155 H   0  0  0  0  0  0
    0.0058   63.2069   72.0634 H   0  0  0  0  0  0
   -1.3079   68.8036   65.4755 H   0  0  0  0  0  0
    3.4965   69.4677   62.9974 H   0  0  0  0  0  0
    2.2981   69.0793   60.9431 H   0  0  0  0  0  0
   -0.0566   68.3555   60.9896 H   0  0  0  0  0  0
   -1.1975   68.0014   63.1202 H   0  0  0  0  0  0
    1.0073   69.8280   66.8506 H   0  0  0  0  0  0
    2.2285   70.4289   68.7802 H   0  0  0  0  0  0
    4.6238   68.9738   64.6812 H   0  0  0  0  0  0
    4.3502   71.1642   69.7532 H   0  0  0  0  0  0
    6.8268   71.3768   69.5765 H   0  0  0  0  0  0
    7.9430   70.6056   67.5494 H   0  0  0  0  0  0
    6.7430   69.6488   65.6622 H   0  0  0  0  0  0
  1  2  2  0  0  0
  1  4  1  0  0  0
  1 30  1  0  0  0
  2  3  1  0  0  0
  2 10  1  0  0  0
  3  6  2  0  0  0
  3 31  1  0  0  0
  4  5  2  0  0  0
  4 32  1  0  0  0
  5  6  1  0  0  0
  5  9  1  0  0  0
  6  7  1  0  0  0
  7  8  1  0  0  0
  7 33  1  0  0  0
  7 34  1  0  0  0
  8  9  1  0  0  0
  8 13  2  0  0  0
  9 12  2  0  0  0
 10 11  1  0  0  0
 11 35  1  0  0  0
 11 36  1  0  0  0
 11 37  1  0  0  0
 13 14  1  0  0  0
 13 38  1  0  0  0
 14 15  2  0  0  0
 14 19  1  0  0  0
 15 16  1  0  0  0
 15 20  1  0  0  0
 16 17  2  0  0  0
 16 39  1  0  0  0
 17 18  1  0  0  0
 17 40  1  0  0  0
 18 19  2  0  0  0
 18 41  1  0  0  0
 19 42  1  0  0  0
 20 21  2  0  0  0
 20 23  1  0  0  0
 21 22  1  0  0  0
 21 43  1  0  0  0
 22 25  2  0  0  0
 22 44  1  0  0  0
 23 24  2  0  0  0
 23 45  1  0  0  0
 24 25  1  0  0  0
 24 29  1  0  0  0
 25 26  1  0  0  0
 26 27  2  0  0  0
 26 46  1  0  0  0
 27 28  1  0  0  0
 27 47  1  0  0  0
 28 29  2  0  0  0
 28 48  1  0  0  0
 29 49  1  0  0  0
M  END
> <s_m_entry_id>
8570

> <s_m_entry_name>
dock_pv.80

> <s_m_Source_Path>
/home/csk/Desktop/cluster/DUD-E-result/aces

> <s_m_Source_File>
dock_pv.maegz

> <i_m_Source_File_Index>
80

> <chembl_id>
CHEMBL4242359

> <chembl_pref_name>
None

> <i_lp_mmshare_version>
53161

> <i_f3d_flags>
0

> <r_lp_tautomer_probability>
1

> <s_lp_Force_Field>
OPLS_2005

> <r_lp_Energy>
45.392632

> <b_lp_Chiralities_Consistent>
1

> <s_lp_Variant>
CHEMBL220_lig131-1

> <s_i_glide_gridfile>
glide-grid_1e66

> <i_i_glide_lignum>
147

> <i_i_glide_rotatable_bonds>
3

> <r_i_docking_score>
-8.03074349509313

> <r_i_glide_ligand_efficiency>
-0.27692218948597

> <r_i_glide_ligand_efficiency_sa>
-0.850792701208553

> <r_i_glide_ligand_efficiency_ln>
-1.83883661829201

> <r_i_glide_gscore>
-8.03074349509313

> <r_i_glide_lipo>
-5.69361606219342

> <r_i_glide_hbond>
0

> <r_i_glide_metal>
0

> <r_i_glide_rewards>
-1.63045959817726

> <r_i_glide_evdw>
-12.7299699783325

> <r_i_glide_ecoul>
-2.28912043571472

> <r_i_glide_erotb>
0.273198729551382

> <r_i_glide_esite>
0

> <r_i_glide_emodel>
-10.4551028591827

> <r_i_glide_energy>
-15.0190904140472

> <r_i_glide_einternal>
23.3466835021973

> <i_i_glide_confnum>
10

> <i_i_glide_posenum>
199

> <r_i_glide_eff_state_penalty>
0

> <s_user_duplicate_titles>
CHEMBL220_lig131

> <s_m_subgroup_title>
dock_pv

> <s_m_subgroupid>
dock_pv

> <b_m_subgroup_collapsed>
0

$$$$
CHEMBL220_lig862
                    3D
 Schrodinger Suite 2021-1.
 56 59  0  0  1  0            999 V2000
    2.6452   64.5080   69.5680 S   0  0  0  0  0  0
    2.6045   63.4091   70.9293 C   0  0  0  0  0  0
    3.7336   68.7814   65.3953 N   0  3  0  0  0  0
    1.4935   63.5714   71.7516 C   0  0  0  0  0  0
    0.9002   64.9297   69.8262 C   0  0  1  0  0  0
    3.5803   62.4823   71.2387 C   0  0  0  0  0  0
    0.5783   64.6794   71.2999 C   0  0  0  0  0  0
    3.4820   61.7080   72.4026 C   0  0  0  0  0  0
    1.3970   62.8300   72.9297 C   0  0  0  0  0  0
    2.3807   61.8782   73.2579 C   0  0  0  0  0  0
    0.5991   66.3420   69.2955 C   0  0  0  0  0  0
    4.4388   68.8334   64.1070 C   0  0  0  0  0  0
   -0.3796   66.5258   68.5738 O   0  0  0  0  0  0
    1.4991   67.5048   69.7403 C   0  0  0  0  0  0
    4.0151   69.7080   66.3344 C   0  0  0  0  0  0
    2.7195   67.8878   65.5388 C   0  0  0  0  0  0
    2.1469   68.9080   67.6225 C   0  0  0  0  0  0
    1.4324   68.8426   68.9381 C   0  0  0  0  0  0
    4.4527   60.7985   72.7680 O   0  0  0  0  0  0
    2.3475   61.1014   74.4019 O   0  0  0  0  0  0
    3.2313   69.7766   67.4789 C   0  0  0  0  0  0
    1.8406   68.0052   66.6049 C   0  0  0  0  0  0
    3.4852   68.9579   62.9259 C   0  0  0  0  0  0
    5.6379   60.7337   71.9898 C   0  0  0  0  0  0
    1.3299   61.3226   75.3716 C   0  0  0  0  0  0
    2.1313   69.3080   63.0727 C   0  0  0  0  0  0
    3.9937   68.6812   61.6700 C   0  0  0  0  0  0
    1.2638   69.2535   62.0008 C   0  0  0  0  0  0
    3.1430   68.6874   60.5814 C   0  0  0  0  0  0
    1.7787   68.9080   60.7680 C   0  0  0  0  0  0
    0.3341   64.2256   69.2142 H   0  0  0  0  0  0
    4.4194   62.3921   70.5680 H   0  0  0  0  0  0
   -0.4570   64.3830   71.4267 H   0  0  0  0  0  0
    0.7412   65.5699   71.9087 H   0  0  0  0  0  0
    0.5537   62.9943   73.5825 H   0  0  0  0  0  0
    5.1371   69.6739   64.1073 H   0  0  0  0  0  0
    5.0210   67.9117   64.0535 H   0  0  0  0  0  0
    1.1404   67.7080   70.7470 H   0  0  0  0  0  0
    2.5225   67.1742   69.8849 H   0  0  0  0  0  0
    4.8358   70.3861   66.1426 H   0  0  0  0  0  0
    2.5685   67.1803   64.7349 H   0  0  0  0  0  0
    0.4076   69.1818   68.7680 H   0  0  0  0  0  0
    1.9430   69.5781   69.5680 H   0  0  0  0  0  0
    3.4818   70.4910   68.2506 H   0  0  0  0  0  0
    1.0029   67.3283   66.6825 H   0  0  0  0  0  0
    6.3430   60.1080   72.5061 H   0  0  0  0  0  0
    5.4545   60.3012   71.0056 H   0  0  0  0  0  0
    6.1142   61.7080   71.8809 H   0  0  0  0  0  0
    1.4876   60.6513   76.2156 H   0  0  0  0  0  0
    0.3379   61.1167   74.9669 H   0  0  0  0  0  0
    1.3593   62.3440   75.7548 H   0  0  0  0  0  0
    1.7200   69.6119   64.0184 H   0  0  0  0  0  0
    5.0453   68.4594   61.5500 H   0  0  0  0  0  0
    0.2162   69.4904   62.1211 H   0  0  0  0  0  0
    3.5430   68.5080   59.5952 H   0  0  0  0  0  0
    1.1169   68.9034   59.9143 H   0  0  0  0  0  0
  1  2  1  0  0  0
  1  5  1  0  0  0
  2  4  2  0  0  0
  2  6  1  0  0  0
  3 16  1  0  0  0
  3 12  1  0  0  0
  3 15  2  0  0  0
  4  9  1  0  0  0
  4  7  1  0  0  0
  5  7  1  0  0  0
  5 11  1  0  0  0
  5 31  1  0  0  0
  6  8  2  0  0  0
  6 32  1  0  0  0
  7 33  1  0  0  0
  7 34  1  0  0  0
  8 10  1  0  0  0
  8 19  1  0  0  0
  9 10  2  0  0  0
  9 35  1  0  0  0
 10 20  1  0  0  0
 11 13  2  0  0  0
 11 14  1  0  0  0
 12 23  1  0  0  0
 12 36  1  0  0  0
 12 37  1  0  0  0
 14 18  1  0  0  0
 14 38  1  0  0  0
 14 39  1  0  0  0
 15 21  1  0  0  0
 15 40  1  0  0  0
 16 22  2  0  0  0
 16 41  1  0  0  0
 17 18  1  0  0  0
 17 21  2  0  0  0
 17 22  1  0  0  0
 18 42  1  0  0  0
 18 43  1  0  0  0
 19 24  1  0  0  0
 20 25  1  0  0  0
 21 44  1  0  0  0
 22 45  1  0  0  0
 23 26  2  0  0  0
 23 27  1  0  0  0
 24 46  1  0  0  0
 24 47  1  0  0  0
 24 48  1  0  0  0
 25 49  1  0  0  0
 25 50  1  0  0  0
 25 51  1  0  0  0
 26 28  1  0  0  0
 26 52  1  0  0  0
 27 29  2  0  0  0
 27 53  1  0  0  0
 28 30  2  0  0  0
 28 54  1  0  0  0
 29 30  1  0  0  0
 29 55  1  0  0  0
 30 56  1  0  0  0
M  CHG  1   3   1
M  END
> <s_m_entry_id>
8571

> <s_m_entry_name>
dock_pv.81

> <s_m_Source_Path>
/home/csk/Desktop/cluster/DUD-E-result/aces

> <s_m_Source_File>
dock_pv.maegz

> <i_m_Source_File_Index>
81

> <chembl_id>
CHEMBL186042

> <chembl_pref_name>
None

> <i_lp_mmshare_version>
53161

> <i_f3d_flags>
0

> <r_lp_tautomer_probability>
0.999999960000001

> <s_lp_Force_Field>
OPLS_2005

> <r_lp_Energy>
37.060647

> <b_lp_Chiralities_Consistent>
1

> <s_lp_Variant>
CHEMBL220_lig862-2

> <s_i_glide_gridfile>
glide-grid_1e66

> <i_i_glide_lignum>
1143

> <i_i_glide_rotatable_bonds>
8

> <r_i_docking_score>
-8.02537111903343

> <r_i_glide_ligand_efficiency>
-0.267512370634448

> <r_i_glide_ligand_efficiency_sa>
-0.831223132837748

> <r_i_glide_ligand_efficiency_ln>
-1.82345176166641

> <r_i_glide_gscore>
-8.02537111903343

> <r_i_glide_lipo>
-3.55608095777183

> <r_i_glide_hbond>
0

> <r_i_glide_metal>
0

> <r_i_glide_rewards>
-3.31330183390978

> <r_i_glide_evdw>
-27.9430522918701

> <r_i_glide_ecoul>
-2.8689136505127

> <r_i_glide_erotb>
0.671501334818598

> <r_i_glide_esite>
0

> <r_i_glide_emodel>
-40.015693223642

> <r_i_glide_energy>
-30.8119659423828

> <r_i_glide_einternal>
5.62039709091187

> <i_i_glide_confnum>
17

> <i_i_glide_posenum>
249

> <r_i_glide_eff_state_penalty>
0

> <s_user_duplicate_titles>
CHEMBL220_lig862

> <s_m_subgroup_title>
dock_pv

> <s_m_subgroupid>
dock_pv

> <b_m_subgroup_collapsed>
0

$$$$
CHEMBL220_lig823
                    3D
 Schrodinger Suite 2021-1.
 32 34  0  0  1  0            999 V2000
    2.3360   69.0011   65.7357 N   0  0  0  0  0  0
    3.3396   68.8124   63.6028 N   0  0  0  0  0  0
    2.2427   68.7218   64.4929 C   0  0  0  0  0  0
    4.5605   69.4131   63.9781 C   0  0  0  0  0  0
    4.6725   69.7123   65.4529 C   0  0  0  0  0  0
    3.5189   69.5500   66.2419 C   0  0  0  0  0  0
    5.5431   69.7683   63.1248 C   0  0  0  0  0  0
    3.2149   68.2754   62.2385 C   0  0  0  0  0  0
    0.8519   68.3458   63.9632 C   0  0  0  0  0  0
    5.8300   70.2278   66.0632 C   0  0  0  0  0  0
    3.5030   69.9622   67.5755 C   0  0  0  0  0  0
    2.3730   69.1257   61.2794 C   0  0  0  0  0  0
    0.2883   69.2455   62.8387 C   0  0  0  0  0  0
    5.8181   70.6183   67.4024 C   0  0  0  0  0  0
    4.6492   70.5080   68.1507 C   0  0  0  0  0  0
    0.8495   68.9790   61.4433 C   0  0  0  0  0  0
    6.4367   70.2630   63.4590 H   0  0  0  0  0  0
    5.4872   69.5976   62.0613 H   0  0  0  0  0  0
    2.7432   67.3079   62.3147 H   0  0  0  0  0  0
    4.1738   68.0231   61.7833 H   0  0  0  0  0  0
    0.1357   68.3890   64.7869 H   0  0  0  0  0  0
    0.8279   67.3015   63.6659 H   0  0  0  0  0  0
    6.7431   70.3612   65.5085 H   0  0  0  0  0  0
    2.6057   69.8553   68.1689 H   0  0  0  0  0  0
    2.6278   68.8377   60.2609 H   0  0  0  0  0  0
    2.6747   70.1689   61.3568 H   0  0  0  0  0  0
   -0.7948   69.1192   62.8058 H   0  0  0  0  0  0
    0.4390   70.2961   63.0857 H   0  0  0  0  0  0
    6.7115   71.0226   67.8531 H   0  0  0  0  0  0
    4.6354   70.8235   69.1834 H   0  0  0  0  0  0
    0.5580   67.9686   61.1680 H   0  0  0  0  0  0
    0.3493   69.6312   60.7258 H   0  0  0  0  0  0
  1  3  2  0  0  0
  1  6  1  0  0  0
  2  3  1  0  0  0
  2  8  1  0  0  0
  2  4  1  0  0  0
  3  9  1  0  0  0
  4  5  1  0  0  0
  4  7  2  0  0  0
  5  6  1  0  0  0
  5 10  2  0  0  0
  6 11  2  0  0  0
  7 17  1  0  0  0
  7 18  1  0  0  0
  8 12  1  0  0  0
  8 19  1  0  0  0
  8 20  1  0  0  0
  9 13  1  0  0  0
  9 21  1  0  0  0
  9 22  1  0  0  0
 10 14  1  0  0  0
 10 23  1  0  0  0
 11 15  1  0  0  0
 11 24  1  0  0  0
 12 16  1  0  0  0
 12 25  1  0  0  0
 12 26  1  0  0  0
 13 16  1  0  0  0
 13 27  1  0  0  0
 13 28  1  0  0  0
 14 15  2  0  0  0
 14 29  1  0  0  0
 15 30  1  0  0  0
 16 31  1  0  0  0
 16 32  1  0  0  0
M  END
> <s_m_entry_id>
8572

> <s_m_entry_name>
dock_pv.82

> <s_m_Source_Path>
/home/csk/Desktop/cluster/DUD-E-result/aces

> <s_m_Source_File>
dock_pv.maegz

> <i_m_Source_File_Index>
82

> <chembl_id>
CHEMBL1161719

> <chembl_pref_name>
None

> <i_lp_mmshare_version>
53161

> <i_f3d_flags>
0

> <r_lp_tautomer_probability>
0.999601159137504

> <s_lp_Force_Field>
OPLS_2005

> <r_lp_Energy>
22.875861

> <b_lp_Chiralities_Consistent>
1

> <s_lp_Variant>
CHEMBL220_lig823-1

> <s_i_glide_gridfile>
glide-grid_1e66

> <i_i_glide_lignum>
1019

> <i_i_glide_rotatable_bonds>
0

> <r_i_docking_score>
-8.02270728432686

> <r_i_glide_ligand_efficiency>
-0.501419205270428

> <r_i_glide_ligand_efficiency_sa>
-1.26349722191582

> <r_i_glide_ligand_efficiency_ln>
-2.1265788229266

> <r_i_glide_gscore>
-8.02270728432686

> <r_i_glide_lipo>
-3.48582610920779

> <r_i_glide_hbond>
0

> <r_i_glide_metal>
0

> <r_i_glide_rewards>
-3.05345515072682

> <r_i_glide_evdw>
-29.5782089233398

> <r_i_glide_ecoul>
-0.0301038548350334

> <r_i_glide_erotb>
0

> <r_i_glide_esite>
0

> <r_i_glide_emodel>
-44.3969160078555

> <r_i_glide_energy>
-29.6083127781749

> <r_i_glide_einternal>
0

> <i_i_glide_confnum>
1

> <i_i_glide_posenum>
200

> <r_i_glide_eff_state_penalty>
0

> <s_user_duplicate_titles>
CHEMBL220_lig823

> <s_m_subgroup_title>
dock_pv

> <s_m_subgroupid>
dock_pv

> <b_m_subgroup_collapsed>
0

$$$$
CHEMBL220_lig39
                    3D
 Schrodinger Suite 2021-1.
 45 46  0  0  1  0            999 V2000
    1.4436   68.1166   63.7322 C   0  0  0  0  0  0
    0.1100   68.5106   63.7903 C   0  0  0  0  0  0
   -0.4126   69.3080   62.7680 C   0  0  0  0  0  0
    0.3793   69.6636   61.6756 C   0  0  0  0  0  0
    1.7099   69.2508   61.6149 C   0  0  0  0  0  0
    2.2576   68.5080   62.6651 C   0  0  0  0  0  0
    3.6844   68.0953   62.6597 C   0  0  0  0  0  0
    4.1838   67.5494   61.6776 O   0  0  0  0  0  0
    4.5233   68.4289   63.8088 C   0  0  0  0  0  0
    4.1696   69.3147   64.7713 C   0  0  0  0  0  0
    4.9809   69.6987   65.9369 C   0  0  0  0  0  0
    4.3799   70.3134   67.0366 C   0  0  0  0  0  0
    5.1421   70.7453   68.1179 C   0  0  0  0  0  0
    6.5113   70.5080   68.1191 C   0  0  0  0  0  0
    7.1171   69.8687   67.0453 C   0  0  0  0  0  0
    6.3483   69.4525   65.9680 C   0  0  0  0  0  0
   -0.7456   68.1023   64.9798 C   0  0  0  0  0  0
   -0.6503   68.9219   66.1943 N   0  0  0  0  0  0
    0.7070   68.8224   66.7627 C   0  0  0  0  0  0
    0.8920   69.4800   68.1347 C   0  0  0  0  0  0
   -3.1200   68.4774   66.6552 C   0  0  0  0  0  0
   -1.6758   68.5360   67.1826 C   0  0  0  0  0  0
    7.5430   70.9080   69.6587 Br  0  0  0  0  0  0
    1.8447   67.5071   64.5305 H   0  0  0  0  0  0
   -1.4422   69.6329   62.7938 H   0  0  0  0  0  0
   -0.0353   70.2607   60.8767 H   0  0  0  0  0  0
    2.3169   69.5356   60.7681 H   0  0  0  0  0  0
    5.4749   67.9221   63.8351 H   0  0  0  0  0  0
    3.2223   69.8324   64.7058 H   0  0  0  0  0  0
    3.3195   70.5080   67.0349 H   0  0  0  0  0  0
    4.6668   71.2227   68.9618 H   0  0  0  0  0  0
    8.1685   69.6389   67.0696 H   0  0  0  0  0  0
    6.8321   68.9288   65.1619 H   0  0  0  0  0  0
   -1.7703   68.1008   64.6129 H   0  0  0  0  0  0
   -0.4570   67.0891   65.2618 H   0  0  0  0  0  0
    1.0140   67.7774   66.8379 H   0  0  0  0  0  0
    1.4006   69.3080   66.0791 H   0  0  0  0  0  0
    1.9355   69.4779   68.4446 H   0  0  0  0  0  0
    0.5310   70.5080   68.1572 H   0  0  0  0  0  0
    0.3525   68.9080   68.8845 H   0  0  0  0  0  0
   -3.8284   68.5080   67.4811 H   0  0  0  0  0  0
   -3.3476   69.3080   65.9925 H   0  0  0  0  0  0
   -3.3049   67.5549   66.1063 H   0  0  0  0  0  0
   -1.4228   67.5850   67.6554 H   0  0  0  0  0  0
   -1.6746   69.2932   67.9680 H   0  0  0  0  0  0
  1  2  2  0  0  0
  1  6  1  0  0  0
  1 24  1  0  0  0
  2  3  1  0  0  0
  2 17  1  0  0  0
  3  4  2  0  0  0
  3 25  1  0  0  0
  4  5  1  0  0  0
  4 26  1  0  0  0
  5  6  2  0  0  0
  5 27  1  0  0  0
  6  7  1  0  0  0
  7  8  2  0  0  0
  7  9  1  0  0  0
  9 10  2  0  0  0
  9 28  1  0  0  0
 10 11  1  0  0  0
 10 29  1  0  0  0
 11 12  2  0  0  0
 11 16  1  0  0  0
 12 13  1  0  0  0
 12 30  1  0  0  0
 13 14  2  0  0  0
 13 31  1  0  0  0
 14 15  1  0  0  0
 14 23  1  0  0  0
 15 16  2  0  0  0
 15 32  1  0  0  0
 16 33  1  0  0  0
 17 18  1  0  0  0
 17 34  1  0  0  0
 17 35  1  0  0  0
 18 19  1  0  0  0
 18 22  1  0  0  0
 19 20  1  0  0  0
 19 36  1  0  0  0
 19 37  1  0  0  0
 20 38  1  0  0  0
 20 39  1  0  0  0
 20 40  1  0  0  0
 21 22  1  0  0  0
 21 41  1  0  0  0
 21 42  1  0  0  0
 21 43  1  0  0  0
 22 44  1  0  0  0
 22 45  1  0  0  0
M  END
> <s_m_entry_id>
8573

> <s_m_entry_name>
dock_pv.83

> <s_m_Source_Path>
/home/csk/Desktop/cluster/DUD-E-result/aces

> <s_m_Source_File>
dock_pv.maegz

> <i_m_Source_File_Index>
83

> <chembl_id>
CHEMBL2381399

> <chembl_pref_name>
None

> <i_lp_mmshare_version>
53161

> <i_f3d_flags>
0

> <r_lp_tautomer_probability>
1

> <s_lp_Force_Field>
OPLS_2005

> <r_lp_Energy>
21.475962

> <b_lp_Chiralities_Consistent>
1

> <s_lp_Variant>
CHEMBL220_lig39-1

> <s_i_glide_gridfile>
glide-grid_1e66

> <i_i_glide_lignum>
42

> <i_i_glide_rotatable_bonds>
7

> <r_i_docking_score>
-8.01311597798241

> <r_i_glide_ligand_efficiency>
-0.3483963468688

> <r_i_glide_ligand_efficiency_sa>
-0.990792865725552

> <r_i_glide_ligand_efficiency_ln>
-1.93764410239468

> <r_i_glide_gscore>
-8.01311597798241

> <r_i_glide_lipo>
-4.56144992516099

> <r_i_glide_hbond>
0

> <r_i_glide_metal>
0

> <r_i_glide_rewards>
-1.80891374741264

> <r_i_glide_evdw>
-38.3470153808594

> <r_i_glide_ecoul>
-1.88492155075073

> <r_i_glide_erotb>
0.557336696246799

> <r_i_glide_esite>
0

> <r_i_glide_emodel>
-55.2960387879343

> <r_i_glide_energy>
-40.2319369316101

> <r_i_glide_einternal>
6.10199069976807

> <i_i_glide_confnum>
22

> <i_i_glide_posenum>
181

> <r_i_glide_eff_state_penalty>
0

> <s_user_duplicate_titles>
CHEMBL220_lig39

> <s_m_subgroup_title>
dock_pv

> <s_m_subgroupid>
dock_pv

> <b_m_subgroup_collapsed>
0

$$$$
CHEMBL220_lig860
                    3D
 Schrodinger Suite 2021-1.
 52 54  0  0  1  0            999 V2000
   -1.0528   68.3180   65.9677 S   0  0  0  0  0  0
    0.0796   68.5077   64.6272 C   0  0  0  0  0  0
    2.7796   62.3789   70.0702 N   0  3  0  0  0  0
    1.4153   68.3568   64.9977 C   0  0  0  0  0  0
    0.2905   68.2090   67.1884 C   0  0  2  0  0  0
   -0.2468   68.7879   63.3042 C   0  0  0  0  0  0
    1.6034   67.9452   66.4360 C   0  0  0  0  0  0
    0.7568   68.9602   62.3483 C   0  0  0  0  0  0
    2.4231   68.4969   64.0369 C   0  0  0  0  0  0
    2.1035   68.8296   62.7084 C   0  0  0  0  0  0
   -0.0501   67.1813   68.2898 C   0  0  0  0  0  0
   -1.0599   66.4773   68.2610 O   0  0  0  0  0  0
    0.9004   67.1418   69.5002 C   0  0  0  0  0  0
    3.4578   63.5547   70.0927 C   0  0  0  0  0  0
    1.4290   62.3368   70.2096 C   0  0  0  0  0  0
    1.3720   64.7484   70.3698 C   0  0  0  0  0  0
    0.6074   66.0531   70.5681 C   0  0  0  0  0  0
    0.4388   69.2299   61.0392 O   0  0  0  0  0  0
    3.0434   69.0413   61.7132 O   0  0  0  0  0  0
    3.5257   61.1127   69.8787 C   0  0  0  0  0  0
    0.7013   63.5218   70.3624 C   0  0  0  0  0  0
    2.7678   64.7569   70.2582 C   0  0  0  0  0  0
    4.4218   69.1347   62.0524 C   0  0  0  0  0  0
   -0.2586   70.4442   60.8115 C   0  0  0  0  0  0
    4.0387   60.4976   71.2009 C   0  0  0  0  0  0
    5.1137   61.3261   71.9261 C   0  0  0  0  0  0
    0.3334   69.1906   67.6639 H   0  0  0  0  0  0
   -1.2830   68.8835   63.0182 H   0  0  0  0  0  0
    1.8712   66.8878   66.4617 H   0  0  0  0  0  0
    2.4171   68.5079   66.8956 H   0  0  0  0  0  0
    3.4533   68.3615   64.3307 H   0  0  0  0  0  0
    1.9331   67.1122   69.1678 H   0  0  0  0  0  0
    0.7557   68.1078   69.9678 H   0  0  0  0  0  0
    4.5339   63.5031   69.9927 H   0  0  0  0  0  0
    0.9637   61.3607   70.1948 H   0  0  0  0  0  0
    0.8376   66.4240   71.5658 H   0  0  0  0  0  0
   -0.4569   65.8500   70.6131 H   0  0  0  0  0  0
    2.8650   60.4242   69.3501 H   0  0  0  0  0  0
    4.3422   61.3256   69.1858 H   0  0  0  0  0  0
   -0.3726   63.4823   70.4651 H   0  0  0  0  0  0
    3.3149   65.6874   70.3032 H   0  0  0  0  0  0
    4.9793   69.4508   61.1688 H   0  0  0  0  0  0
    4.8239   68.1733   62.3724 H   0  0  0  0  0  0
    4.6010   69.8781   62.8304 H   0  0  0  0  0  0
   -0.4988   70.5096   59.7521 H   0  0  0  0  0  0
   -1.1977   70.4998   61.3646 H   0  0  0  0  0  0
    0.3440   71.3073   61.0778 H   0  0  0  0  0  0
    3.2006   60.3146   71.8778 H   0  0  0  0  0  0
    4.4548   59.5135   70.9841 H   0  0  0  0  0  0
    5.5256   60.7713   72.7677 H   0  0  0  0  0  0
    5.9436   61.5718   71.2668 H   0  0  0  0  0  0
    4.7082   62.2547   72.3244 H   0  0  0  0  0  0
  1  2  1  0  0  0
  1  5  1  0  0  0
  2  4  2  0  0  0
  2  6  1  0  0  0
  3 14  1  0  0  0
  3 20  1  0  0  0
  3 15  2  0  0  0
  4  9  1  0  0  0
  4  7  1  0  0  0
  5  7  1  0  0  0
  5 11  1  0  0  0
  5 27  1  0  0  0
  6  8  2  0  0  0
  6 28  1  0  0  0
  7 29  1  0  0  0
  7 30  1  0  0  0
  8 10  1  0  0  0
  8 18  1  0  0  0
  9 10  2  0  0  0
  9 31  1  0  0  0
 10 19  1  0  0  0
 11 12  2  0  0  0
 11 13  1  0  0  0
 13 17  1  0  0  0
 13 32  1  0  0  0
 13 33  1  0  0  0
 14 22  2  0  0  0
 14 34  1  0  0  0
 15 21  1  0  0  0
 15 35  1  0  0  0
 16 17  1  0  0  0
 16 21  2  0  0  0
 16 22  1  0  0  0
 17 36  1  0  0  0
 17 37  1  0  0  0
 18 24  1  0  0  0
 19 23  1  0  0  0
 20 25  1  0  0  0
 20 38  1  0  0  0
 20 39  1  0  0  0
 21 40  1  0  0  0
 22 41  1  0  0  0
 23 42  1  0  0  0
 23 43  1  0  0  0
 23 44  1  0  0  0
 24 45  1  0  0  0
 24 46  1  0  0  0
 24 47  1  0  0  0
 25 26  1  0  0  0
 25 48  1  0  0  0
 25 49  1  0  0  0
 26 50  1  0  0  0
 26 51  1  0  0  0
 26 52  1  0  0  0
M  CHG  1   3   1
M  END
> <s_m_entry_id>
8574

> <s_m_entry_name>
dock_pv.84

> <s_m_Source_Path>
/home/csk/Desktop/cluster/DUD-E-result/aces

> <s_m_Source_File>
dock_pv.maegz

> <i_m_Source_File_Index>
84

> <chembl_id>
CHEMBL187330

> <chembl_pref_name>
None

> <i_lp_mmshare_version>
53161

> <i_f3d_flags>
0

> <r_lp_tautomer_probability>
0.999999960000001

> <s_lp_Force_Field>
OPLS_2005

> <r_lp_Energy>
33.673213

> <b_lp_Chiralities_Consistent>
1

> <s_lp_Variant>
CHEMBL220_lig860-1

> <s_i_glide_gridfile>
glide-grid_1e66

> <i_i_glide_lignum>
1138

> <i_i_glide_rotatable_bonds>
8

> <r_i_docking_score>
-8.00953177084407

> <r_i_glide_ligand_efficiency>
-0.308058914263233

> <r_i_glide_ligand_efficiency_sa>
-0.912623321351534

> <r_i_glide_ligand_efficiency_ln>
-1.88101225496538

> <r_i_glide_gscore>
-8.00953177084407

> <r_i_glide_lipo>
-4.30933271910828

> <r_i_glide_hbond>
0

> <r_i_glide_metal>
0

> <r_i_glide_rewards>
-2.07209245681242

> <r_i_glide_evdw>
-45.5774345397949

> <r_i_glide_ecoul>
-0.301507085561752

> <r_i_glide_erotb>
0.695991194900645

> <r_i_glide_esite>
0

> <r_i_glide_emodel>
-66.9590900311895

> <r_i_glide_energy>
-45.8789416253567

> <r_i_glide_einternal>
7.55332183837891

> <i_i_glide_confnum>
20

> <i_i_glide_posenum>
83

> <r_i_glide_eff_state_penalty>
0

> <s_user_duplicate_titles>
CHEMBL220_lig860

> <s_m_subgroup_title>
dock_pv

> <s_m_subgroupid>
dock_pv

> <b_m_subgroup_collapsed>
0

$$$$
CHEMBL220_lig204
                    3D
 Schrodinger Suite 2021-1.
 55 57  0  0  1  0            999 V2000
    2.9577   68.9332   64.0950 C   0  0  0  0  0  0
    2.2430   68.9081   62.9524 C   0  0  0  0  0  0
    2.5530   69.0029   65.4258 N   0  0  0  0  0  0
    0.6721   65.0720   70.1065 C   0  0  0  0  0  0
    1.5846   62.7798   70.5202 N   0  0  1  0  0  0
    0.8212   68.9082   62.8845 C   0  0  0  0  0  0
    2.9094   68.8986   61.7018 C   0  0  0  0  0  0
   -0.2981   65.4307   69.2189 O   0  0  0  0  0  0
    4.3369   68.9470   64.1961 N   0  0  0  0  0  0
   -0.3288   68.9079   62.7705 N   0  0  0  0  0  0
    3.5036   68.9087   60.7153 N   0  0  0  0  0  0
   -0.0024   66.6784   68.7671 C   0  0  0  0  0  0
    1.6027   66.0912   70.1843 C   0  0  0  0  0  0
    1.1429   67.1309   69.3870 C   0  0  0  0  0  0
    0.5026   63.7365   70.8033 C   0  0  0  0  0  0
    2.7624   62.9847   71.3767 C   0  0  0  0  0  0
    4.6445   69.8837   65.2450 C   0  0  0  0  0  0
   -0.4776   66.9552   66.3680 N   0  0  3  0  0  0
    3.6673   69.3816   66.2725 C   0  0  0  0  0  0
    1.0832   61.4085   70.6751 C   0  0  0  0  0  0
    1.2400   68.6960   65.9858 C   0  0  0  0  0  0
   -0.9083   67.2869   67.7220 C   0  0  0  0  0  0
    3.9035   62.0051   71.0093 C   0  0  2  0  0  0
    2.1450   60.3331   70.3670 C   0  0  0  0  0  0
    0.8955   67.1994   65.9403 C   0  0  0  0  0  0
    3.4222   60.5550   71.1867 C   0  0  0  0  0  0
    5.1933   62.2966   71.7801 C   0  0  0  0  0  0
    4.8581   69.1572   63.3546 H   0  0  0  0  0  0
    2.5072   66.0980   70.7680 H   0  0  0  0  0  0
    1.6094   68.0947   69.2427 H   0  0  0  0  0  0
    0.4058   63.8783   71.8815 H   0  0  0  0  0  0
   -0.4563   63.3166   70.4926 H   0  0  0  0  0  0
    3.1275   64.0000   71.2247 H   0  0  0  0  0  0
    2.5122   62.9310   72.4383 H   0  0  0  0  0  0
    4.4420   70.9080   64.9394 H   0  0  0  0  0  0
    5.6804   69.8153   65.5807 H   0  0  0  0  0  0
   -1.0672   66.3882   65.7594 H   0  0  0  0  0  0
    4.0630   68.5081   66.7680 H   0  0  0  0  0  0
    3.4085   70.1367   67.0161 H   0  0  0  0  0  0
    0.6603   61.2635   71.6715 H   0  0  0  0  0  0
    0.2708   61.3082   69.9681 H   0  0  0  0  0  0
    1.2104   69.0401   67.0201 H   0  0  0  0  0  0
    0.4723   69.2702   65.4734 H   0  0  0  0  0  0
   -0.9693   68.3710   67.8329 H   0  0  0  0  0  0
   -1.9268   66.9143   67.8355 H   0  0  0  0  0  0
    4.0924   62.1251   69.9400 H   0  0  0  0  0  0
    1.7335   59.3516   70.6020 H   0  0  0  0  0  0
    2.3491   60.3091   69.2958 H   0  0  0  0  0  0
    0.9897   66.8284   64.9188 H   0  0  0  0  0  0
    1.5904   66.6134   66.5426 H   0  0  0  0  0  0
    3.2363   60.3531   72.2431 H   0  0  0  0  0  0
    4.2002   59.8492   70.8927 H   0  0  0  0  0  0
    5.0511   62.2026   72.8579 H   0  0  0  0  0  0
    5.9915   61.6119   71.4929 H   0  0  0  0  0  0
    5.5355   63.3078   71.5681 H   0  0  0  0  0  0
  1  2  2  0  0  0
  1  3  1  0  0  0
  1  9  1  0  0  0
  2  6  1  0  0  0
  2  7  1  0  0  0
  3 19  1  0  0  0
  3 21  1  0  0  0
  4  8  1  0  0  0
  4 15  1  0  0  0
  4 13  2  0  0  0
  5 15  1  0  0  0
  5 16  1  0  0  0
  5 20  1  0  0  0
  6 10  3  0  0  0
  7 11  3  0  0  0
  8 12  1  0  0  0
  9 17  1  0  0  0
  9 28  1  0  0  0
 12 22  1  0  0  0
 12 14  2  0  0  0
 13 14  1  0  0  0
 13 29  1  0  0  0
 14 30  1  0  0  0
 15 31  1  0  0  0
 15 32  1  0  0  0
 16 23  1  0  0  0
 16 33  1  0  0  0
 16 34  1  0  0  0
 17 19  1  0  0  0
 17 35  1  0  0  0
 17 36  1  0  0  0
 18 25  1  0  0  0
 18 22  1  0  0  0
 18 37  1  0  0  0
 19 38  1  0  0  0
 19 39  1  0  0  0
 20 24  1  0  0  0
 20 40  1  0  0  0
 20 41  1  0  0  0
 21 25  1  0  0  0
 21 42  1  0  0  0
 21 43  1  0  0  0
 22 44  1  0  0  0
 22 45  1  0  0  0
 23 27  1  0  0  0
 23 26  1  0  0  0
 23 46  1  0  0  0
 24 26  1  0  0  0
 24 47  1  0  0  0
 24 48  1  0  0  0
 25 49  1  0  0  0
 25 50  1  0  0  0
 26 51  1  0  0  0
 26 52  1  0  0  0
 27 53  1  0  0  0
 27 54  1  0  0  0
 27 55  1  0  0  0
M  END
> <s_m_entry_id>
8575

> <s_m_entry_name>
dock_pv.85

> <s_m_Source_Path>
/home/csk/Desktop/cluster/DUD-E-result/aces

> <s_m_Source_File>
dock_pv.maegz

> <i_m_Source_File_Index>
85

> <chembl_id>
CHEMBL154366

> <chembl_pref_name>
None

> <i_lp_mmshare_version>
53161

> <i_f3d_flags>
0

> <r_lp_tautomer_probability>
0.5

> <s_lp_Force_Field>
OPLS_2005

> <r_lp_Energy>
44.564239

> <b_lp_Chiralities_Consistent>
1

> <s_lp_Variant>
CHEMBL220_lig204-2

> <s_i_glide_gridfile>
glide-grid_1e66

> <i_i_glide_lignum>
222

> <i_i_glide_rotatable_bonds>
7

> <r_i_docking_score>
-8.0092319669045

> <r_i_glide_ligand_efficiency>
-0.296638220996463

> <r_i_glide_ligand_efficiency_sa>
-0.889914662011718

> <r_i_glide_ligand_efficiency_ln>
-1.86441715938671

> <r_i_glide_gscore>
-8.0092319669045

> <r_i_glide_lipo>
-3.49430022183316

> <r_i_glide_hbond>
-0.32

> <r_i_glide_metal>
0

> <r_i_glide_rewards>
-2.84018725362896

> <r_i_glide_evdw>
-38.0570945739746

> <r_i_glide_ecoul>
-2.96926307678223

> <r_i_glide_erotb>
0.993499698773686

> <r_i_glide_esite>
0

> <r_i_glide_emodel>
-57.7693087111669

> <r_i_glide_energy>
-41.0263576507568

> <r_i_glide_einternal>
4.68406677246094

> <i_i_glide_confnum>
173

> <i_i_glide_posenum>
46

> <r_i_glide_eff_state_penalty>
0

> <s_user_duplicate_titles>
CHEMBL220_lig204,257085

> <s_m_subgroup_title>
dock_pv

> <s_m_subgroupid>
dock_pv

> <b_m_subgroup_collapsed>
0

$$$$
CHEMBL220_lig836
                    3D
 Schrodinger Suite 2021-1.
 55 58  0  0  1  0            999 V2000
    0.4120   68.0454   66.8496 C   0  0  0  0  0  0
    1.9426   68.9037   67.0170 S   0  0  0  0  0  0
   -0.0349   68.0953   65.5489 C   0  0  0  0  0  0
    2.1586   68.8764   65.2657 C   0  0  0  0  0  0
    0.9457   68.5074   64.6343 C   0  0  0  0  0  0
   -0.3537   67.4183   67.9299 C   0  0  0  0  0  0
    1.3340   64.3152   70.6563 N   0  3  2  0  0  0
    0.2459   66.5081   68.9437 C   0  0  0  0  0  0
    3.2997   69.1801   64.5085 C   0  0  0  0  0  0
    3.2125   69.1198   63.1047 C   0  0  0  0  0  0
    1.4175   66.6964   69.5763 C   0  0  0  0  0  0
    0.8523   68.5582   63.2508 C   0  0  0  0  0  0
    1.9779   68.8718   62.4838 C   0  0  0  0  0  0
    1.9591   65.7390   70.6482 C   0  0  0  0  0  0
   -1.5832   67.4758   67.8313 O   0  0  0  0  0  0
    1.9738   63.3982   69.5672 C   0  0  0  0  0  0
   -0.5733   65.2533   69.1901 C   0  0  0  0  0  0
   -0.1878   64.4905   70.4765 C   0  0  0  0  0  0
    4.2992   69.3019   62.2686 O   0  0  0  0  0  0
    1.9236   68.9081   61.1038 O   0  0  0  0  0  0
    1.4706   63.6887   72.0786 C   0  0  0  0  0  0
    2.9807   62.3476   70.0425 C   0  0  0  0  0  0
    0.6481   68.9969   60.4650 C   0  0  0  0  0  0
    5.6072   69.4108   62.8187 C   0  0  0  0  0  0
    4.2056   62.7374   70.5918 C   0  0  0  0  0  0
    2.6366   60.9923   69.9937 C   0  0  0  0  0  0
    5.0349   61.7825   71.1732 C   0  0  0  0  0  0
    3.4876   60.0357   70.5404 C   0  0  0  0  0  0
    4.6751   60.4389   71.1462 C   0  0  0  0  0  0
   -1.0011   67.7272   65.2304 H   0  0  0  0  0  0
    4.2203   69.4436   65.0075 H   0  0  0  0  0  0
    1.9527   67.6188   69.4148 H   0  0  0  0  0  0
   -0.0966   68.3052   62.8108 H   0  0  0  0  0  0
    3.0459   65.6584   70.6900 H   0  0  0  0  0  0
    1.5432   66.1224   71.5679 H   0  0  0  0  0  0
    1.1261   62.8914   69.1062 H   0  0  0  0  0  0
    2.4161   64.0580   68.8202 H   0  0  0  0  0  0
   -1.6302   65.5004   69.1680 H   0  0  0  0  0  0
   -0.4569   64.5907   68.3686 H   0  0  0  0  0  0
   -0.4543   65.0892   71.3468 H   0  0  0  0  0  0
   -0.6634   63.5093   70.5461 H   0  0  0  0  0  0
    1.1072   62.6609   72.0236 H   0  0  0  0  0  0
    2.5190   63.7075   72.3650 H   0  0  0  0  0  0
    0.8757   64.2430   72.8048 H   0  0  0  0  0  0
    0.7654   68.9079   59.3863 H   0  0  0  0  0  0
    0.1887   69.9653   60.6677 H   0  0  0  0  0  0
   -0.0513   68.2162   60.7680 H   0  0  0  0  0  0
    6.3357   69.3072   62.0147 H   0  0  0  0  0  0
    5.7576   70.3799   63.2965 H   0  0  0  0  0  0
    5.8222   68.6173   63.5360 H   0  0  0  0  0  0
    4.4864   63.7794   70.6332 H   0  0  0  0  0  0
    1.6939   60.6770   69.5695 H   0  0  0  0  0  0
    5.9431   62.0849   71.6681 H   0  0  0  0  0  0
    3.2075   58.9917   70.5279 H   0  0  0  0  0  0
    5.3169   59.7090   71.6157 H   0  0  0  0  0  0
  1  2  1  0  0  0
  1  3  2  0  0  0
  1  6  1  0  0  0
  2  4  1  0  0  0
  3  5  1  0  0  0
  3 30  1  0  0  0
  4  9  1  0  0  0
  4  5  2  0  0  0
  5 12  1  0  0  0
  6  8  1  0  0  0
  6 15  2  0  0  0
  7 18  1  0  0  0
  7 16  1  0  0  0
  7 21  1  0  0  0
  7 14  1  0  0  0
  8 11  2  0  0  0
  8 17  1  0  0  0
  9 10  2  0  0  0
  9 31  1  0  0  0
 10 19  1  0  0  0
 10 13  1  0  0  0
 11 14  1  0  0  0
 11 32  1  0  0  0
 12 13  2  0  0  0
 12 33  1  0  0  0
 13 20  1  0  0  0
 14 34  1  0  0  0
 14 35  1  0  0  0
 16 22  1  0  0  0
 16 36  1  0  0  0
 16 37  1  0  0  0
 17 18  1  0  0  0
 17 38  1  0  0  0
 17 39  1  0  0  0
 18 40  1  0  0  0
 18 41  1  0  0  0
 19 24  1  0  0  0
 20 23  1  0  0  0
 21 42  1  0  0  0
 21 43  1  0  0  0
 21 44  1  0  0  0
 22 25  1  0  0  0
 22 26  2  0  0  0
 23 45  1  0  0  0
 23 46  1  0  0  0
 23 47  1  0  0  0
 24 48  1  0  0  0
 24 49  1  0  0  0
 24 50  1  0  0  0
 25 27  2  0  0  0
 25 51  1  0  0  0
 26 28  1  0  0  0
 26 52  1  0  0  0
 27 29  1  0  0  0
 27 53  1  0  0  0
 28 29  2  0  0  0
 28 54  1  0  0  0
 29 55  1  0  0  0
M  CHG  1   7   1
M  END
> <s_m_entry_id>
8576

> <s_m_entry_name>
dock_pv.86

> <s_m_Source_Path>
/home/csk/Desktop/cluster/DUD-E-result/aces

> <s_m_Source_File>
dock_pv.maegz

> <i_m_Source_File_Index>
86

> <chembl_id>
CHEMBL188325

> <chembl_pref_name>
None

> <i_lp_mmshare_version>
53161

> <i_f3d_flags>
0

> <r_lp_tautomer_probability>
1

> <s_lp_Force_Field>
OPLS_2005

> <r_lp_Energy>
34.986145

> <b_lp_Chiralities_Consistent>
1

> <s_lp_Variant>
CHEMBL220_lig836-1

> <s_i_glide_gridfile>
glide-grid_1e66

> <i_i_glide_lignum>
1060

> <i_i_glide_rotatable_bonds>
6

> <r_i_docking_score>
-8.00891623064631

> <r_i_glide_ligand_efficiency>
-0.2761695251947

> <r_i_glide_ligand_efficiency_sa>
-0.848480278044988

> <r_i_glide_ligand_efficiency_ln>
-1.83383872822536

> <r_i_glide_gscore>
-8.00891623064631

> <r_i_glide_lipo>
-4.45502249121426

> <r_i_glide_hbond>
0

> <r_i_glide_metal>
0

> <r_i_glide_rewards>
-1.83943876305588

> <r_i_glide_evdw>
-31.7516956329346

> <r_i_glide_ecoul>
-3.99055290222168

> <r_i_glide_erotb>
0.47171274060382

> <r_i_glide_esite>
0

> <r_i_glide_emodel>
-29.8297186747505

> <r_i_glide_energy>
-35.7422485351562

> <r_i_glide_einternal>
21.3539371490479

> <i_i_glide_confnum>
45

> <i_i_glide_posenum>
202

> <r_i_glide_eff_state_penalty>
0

> <s_user_duplicate_titles>
CHEMBL220_lig836

> <s_m_subgroup_title>
dock_pv

> <s_m_subgroupid>
dock_pv

> <b_m_subgroup_collapsed>
0

$$$$
CHEMBL220_lig676
                    3D
 Schrodinger Suite 2021-1.
 57 58  0  0  1  0            999 V2000
    3.5486   69.1108   63.6282 C   0  0  0  0  0  0
    1.1498   68.5916   63.7697 C   0  0  0  0  0  0
    4.7092   69.4423   62.7533 N   0  3  0  0  0  0
   -0.1309   68.5090   63.0215 N   0  3  0  0  0  0
    2.3131   68.8554   63.0312 C   0  0  0  0  0  0
    3.6125   69.0922   65.0322 C   0  0  0  0  0  0
    1.2415   68.5079   65.1749 C   0  0  0  0  0  0
    2.4757   68.7690   65.7761 C   0  0  0  0  0  0
    2.2489   62.2991   71.5282 C   0  0  0  0  0  0
    4.7896   69.4196   65.7060 N   0  0  0  0  0  0
    2.6381   63.5484   71.1672 O   0  0  0  0  0  0
    4.8401   70.1078   66.9276 N   0  0  0  0  0  0
    1.5991   64.1436   70.5290 C   0  0  0  0  0  0
    0.9483   62.0826   71.0960 C   0  0  0  0  0  0
   -0.0570   68.5004   61.8001 O   0  5  0  0  0  0
    5.8420   69.4625   63.2230 O   0  5  0  0  0  0
    0.5347   63.2562   70.4621 C   0  0  0  0  0  0
   -1.2060   68.5080   63.6095 O   0  0  0  0  0  0
    4.4867   69.6799   61.5699 O   0  0  0  0  0  0
    3.2888   61.4628   72.2370 C   0  0  0  0  0  0
    0.1055   68.2185   65.9562 N   0  0  0  0  0  0
    5.9721   70.4525   67.3915 C   0  0  0  0  0  0
    4.2414   60.8855   71.2818 N   0  0  0  0  0  0
    0.3429   66.5080   69.7178 S   0  0  0  0  0  0
    1.8528   65.5530   70.0538 C   0  0  0  0  0  0
    0.0823   68.1259   67.4152 C   0  0  0  0  0  0
    0.3529   66.7016   67.9112 C   0  0  0  0  0  0
    5.5611   60.7483   71.8866 C   0  0  0  0  0  0
    3.7630   59.5988   70.7797 C   0  0  0  0  0  0
    6.0514   71.2699   68.6637 C   0  0  0  0  0  0
    7.3261   70.0648   66.8054 C   0  0  0  0  0  0
    2.2510   68.9084   61.9531 H   0  0  0  0  0  0
    2.5707   68.7609   66.8479 H   0  0  0  0  0  0
    5.6351   69.5075   65.1529 H   0  0  0  0  0  0
    0.3692   61.1787   71.2193 H   0  0  0  0  0  0
   -0.4251   63.4394   70.0009 H   0  0  0  0  0  0
    3.8077   62.1067   72.9500 H   0  0  0  0  0  0
    2.8203   60.6836   72.8417 H   0  0  0  0  0  0
   -0.7300   67.9407   65.4525 H   0  0  0  0  0  0
    2.4556   65.5020   69.1545 H   0  0  0  0  0  0
    2.4605   66.1073   70.7679 H   0  0  0  0  0  0
    0.7751   68.8299   67.8752 H   0  0  0  0  0  0
   -0.9007   68.4571   67.7520 H   0  0  0  0  0  0
   -0.4143   66.0421   67.5079 H   0  0  0  0  0  0
    1.3052   66.3649   67.5063 H   0  0  0  0  0  0
    6.2743   60.3365   71.1724 H   0  0  0  0  0  0
    5.9427   61.7226   72.1941 H   0  0  0  0  0  0
    5.5355   60.1071   72.7680 H   0  0  0  0  0  0
    4.4320   59.2089   70.0131 H   0  0  0  0  0  0
    3.6871   58.8567   71.5772 H   0  0  0  0  0  0
    2.7782   59.7037   70.3232 H   0  0  0  0  0  0
    6.3746   72.2882   68.4531 H   0  0  0  0  0  0
    6.7522   70.8302   69.3736 H   0  0  0  0  0  0
    5.0833   71.3089   69.1664 H   0  0  0  0  0  0
    7.7975   70.9071   66.3091 H   0  0  0  0  0  0
    7.9859   69.7081   67.5912 H   0  0  0  0  0  0
    7.2673   69.2564   66.0778 H   0  0  0  0  0  0
  1  3  1  0  0  0
  1  5  1  0  0  0
  1  6  2  0  0  0
  2  5  2  0  0  0
  2  4  1  0  0  0
  2  7  1  0  0  0
  3 16  1  0  0  0
  3 19  2  0  0  0
  4 15  1  0  0  0
  4 18  2  0  0  0
  5 32  1  0  0  0
  6  8  1  0  0  0
  6 10  1  0  0  0
  7  8  2  0  0  0
  7 21  1  0  0  0
  8 33  1  0  0  0
  9 11  1  0  0  0
  9 20  1  0  0  0
  9 14  2  0  0  0
 10 12  1  0  0  0
 10 34  1  0  0  0
 11 13  1  0  0  0
 12 22  2  0  0  0
 13 25  1  0  0  0
 13 17  2  0  0  0
 14 17  1  0  0  0
 14 35  1  0  0  0
 17 36  1  0  0  0
 20 23  1  0  0  0
 20 37  1  0  0  0
 20 38  1  0  0  0
 21 26  1  0  0  0
 21 39  1  0  0  0
 22 30  1  0  0  0
 22 31  1  0  0  0
 23 28  1  0  0  0
 23 29  1  0  0  0
 24 27  1  0  0  0
 24 25  1  0  0  0
 25 40  1  0  0  0
 25 41  1  0  0  0
 26 27  1  0  0  0
 26 42  1  0  0  0
 26 43  1  0  0  0
 27 44  1  0  0  0
 27 45  1  0  0  0
 28 46  1  0  0  0
 28 47  1  0  0  0
 28 48  1  0  0  0
 29 49  1  0  0  0
 29 50  1  0  0  0
 29 51  1  0  0  0
 30 52  1  0  0  0
 30 53  1  0  0  0
 30 54  1  0  0  0
 31 55  1  0  0  0
 31 56  1  0  0  0
 31 57  1  0  0  0
M  CHG  4   3   1   4   1  15  -1  16  -1
M  END
> <s_m_entry_id>
8577

> <s_m_entry_name>
dock_pv.87

> <s_m_Source_Path>
/home/csk/Desktop/cluster/DUD-E-result/aces

> <s_m_Source_File>
dock_pv.maegz

> <i_m_Source_File_Index>
87

> <chembl_id>
CHEMBL106932

> <chembl_pref_name>
None

> <i_lp_mmshare_version>
53161

> <i_f3d_flags>
0

> <r_lp_tautomer_probability>
1

> <s_lp_Force_Field>
OPLS_2005

> <r_lp_Energy>
26.965002

> <b_lp_Chiralities_Consistent>
1

> <s_lp_Variant>
CHEMBL220_lig676-1

> <s_i_glide_gridfile>
glide-grid_1e66

> <i_i_glide_lignum>
798

> <i_i_glide_rotatable_bonds>
12

> <r_i_docking_score>
-8.00193669303018

> <r_i_glide_ligand_efficiency>
-0.258126990097748

> <r_i_glide_ligand_efficiency_sa>
-0.810875131624911

> <r_i_glide_ligand_efficiency_ln>
-1.80468195418695

> <r_i_glide_gscore>
-8.00193669303018

> <r_i_glide_lipo>
-3.72287786688566

> <r_i_glide_hbond>
0

> <r_i_glide_metal>
0

> <r_i_glide_rewards>
-2.28201994643726

> <r_i_glide_evdw>
-58.9190902709961

> <r_i_glide_ecoul>
0.682051718235016

> <r_i_glide_erotb>
0.889065570853804

> <r_i_glide_esite>
-0.042457694746524

> <r_i_glide_emodel>
-76.3650575151609

> <r_i_glide_energy>
-58.2370385527611

> <r_i_glide_einternal>
12.6990747451782

> <i_i_glide_confnum>
179

> <i_i_glide_posenum>
306

> <r_i_glide_eff_state_penalty>
0

> <s_user_duplicate_titles>
CHEMBL220_lig676,174552

> <s_m_subgroup_title>
dock_pv

> <s_m_subgroupid>
dock_pv

> <b_m_subgroup_collapsed>
0

$$$$
CHEMBL220_lig213
                    3D
 Schrodinger Suite 2021-1.
 55 57  0  0  1  0            999 V2000
    0.0446   68.5340   62.7687 N   0  0  0  0  0  0
    1.1944   68.6529   62.7965 C   0  0  0  0  0  0
    2.6073   68.8226   62.7441 C   0  0  0  0  0  0
    3.4362   68.8264   63.8121 C   0  0  0  0  0  0
    4.8003   69.0700   63.7619 N   0  0  0  0  0  0
    5.4023   69.0673   65.0713 C   0  0  0  0  0  0
    4.1889   69.4966   65.8517 C   0  0  0  0  0  0
    3.1922   68.6816   65.1828 N   0  0  0  0  0  0
    1.8684   68.5964   65.7958 C   0  0  0  0  0  0
    1.2058   67.2178   65.6874 C   0  0  0  0  0  0
   -0.2255   67.3078   65.9682 N   0  0  2  0  0  0
   -0.6852   67.6708   67.3075 C   0  0  0  0  0  0
    0.0974   67.0014   68.4168 C   0  0  0  0  0  0
   -0.2183   65.7225   68.7684 O   0  0  0  0  0  0
    0.6618   65.3322   69.7344 C   0  0  0  0  0  0
    0.5552   63.9122   70.2756 C   0  0  0  0  0  0
    1.7010   63.0226   69.9873 N   0  0  0  0  0  0
    3.0417   63.6025   70.1672 C   0  0  0  0  0  0
    4.2922   62.7606   69.8502 C   0  0  0  0  0  0
    4.5061   61.5469   70.7694 C   0  0  0  0  0  0
    3.6912   60.2969   70.3962 C   0  0  0  0  0  0
    2.2626   60.5372   69.8679 C   0  0  0  0  0  0
    1.4722   61.6796   70.5341 C   0  0  0  0  0  0
    1.4920   66.3950   70.0324 C   0  0  0  0  0  0
    1.1429   67.4444   69.1982 C   0  0  0  0  0  0
    3.1171   69.0118   61.4321 C   0  0  0  0  0  0
    3.5429   69.1733   60.3722 N   0  0  0  0  0  0
    5.3794   68.8487   62.9623 H   0  0  0  0  0  0
    6.2295   69.7744   65.1527 H   0  0  0  0  0  0
    5.7520   68.0738   65.3526 H   0  0  0  0  0  0
    4.2817   69.2796   66.9159 H   0  0  0  0  0  0
    3.9764   70.5592   65.7330 H   0  0  0  0  0  0
    1.9168   68.8990   66.8418 H   0  0  0  0  0  0
    1.2170   69.3078   65.3079 H   0  0  0  0  0  0
    1.3146   66.8231   64.6779 H   0  0  0  0  0  0
    1.6902   66.4964   66.3464 H   0  0  0  0  0  0
   -0.8173   66.6785   65.4195 H   0  0  0  0  0  0
   -0.6522   68.7562   67.4120 H   0  0  0  0  0  0
   -1.7395   67.3987   67.3692 H   0  0  0  0  0  0
    0.4185   63.9586   71.3571 H   0  0  0  0  0  0
   -0.3489   63.4527   69.8720 H   0  0  0  0  0  0
    3.1233   64.5060   69.5660 H   0  0  0  0  0  0
    3.1101   63.9280   71.2068 H   0  0  0  0  0  0
    4.2982   62.4710   68.7988 H   0  0  0  0  0  0
    5.1531   63.4204   69.9661 H   0  0  0  0  0  0
    5.5636   61.2807   70.7786 H   0  0  0  0  0  0
    4.2783   61.8348   71.7973 H   0  0  0  0  0  0
    3.6421   59.6478   71.2723 H   0  0  0  0  0  0
    4.2385   59.7249   69.6455 H   0  0  0  0  0  0
    1.7032   59.6080   69.9669 H   0  0  0  0  0  0
    2.3361   60.7497   68.8001 H   0  0  0  0  0  0
    1.6573   61.7078   71.6095 H   0  0  0  0  0  0
    0.4198   61.4158   70.4141 H   0  0  0  0  0  0
    2.2821   66.3906   70.7641 H   0  0  0  0  0  0
    1.5984   68.4234   69.1672 H   0  0  0  0  0  0
  1  2  3  0  0  0
  2  3  1  0  0  0
  3  4  2  0  0  0
  3 26  1  0  0  0
  4  5  1  0  0  0
  4  8  1  0  0  0
  5  6  1  0  0  0
  5 28  1  0  0  0
  6  7  1  0  0  0
  6 29  1  0  0  0
  6 30  1  0  0  0
  7  8  1  0  0  0
  7 31  1  0  0  0
  7 32  1  0  0  0
  8  9  1  0  0  0
  9 10  1  0  0  0
  9 33  1  0  0  0
  9 34  1  0  0  0
 10 11  1  0  0  0
 10 35  1  0  0  0
 10 36  1  0  0  0
 11 12  1  0  0  0
 11 37  1  0  0  0
 12 13  1  0  0  0
 12 38  1  0  0  0
 12 39  1  0  0  0
 13 14  1  0  0  0
 13 25  2  0  0  0
 14 15  1  0  0  0
 15 16  1  0  0  0
 15 24  2  0  0  0
 16 17  1  0  0  0
 16 40  1  0  0  0
 16 41  1  0  0  0
 17 18  1  0  0  0
 17 23  1  0  0  0
 18 19  1  0  0  0
 18 42  1  0  0  0
 18 43  1  0  0  0
 19 20  1  0  0  0
 19 44  1  0  0  0
 19 45  1  0  0  0
 20 21  1  0  0  0
 20 46  1  0  0  0
 20 47  1  0  0  0
 21 22  1  0  0  0
 21 48  1  0  0  0
 21 49  1  0  0  0
 22 23  1  0  0  0
 22 50  1  0  0  0
 22 51  1  0  0  0
 23 52  1  0  0  0
 23 53  1  0  0  0
 24 25  1  0  0  0
 24 54  1  0  0  0
 25 55  1  0  0  0
 26 27  3  0  0  0
M  END
> <s_m_entry_id>
8578

> <s_m_entry_name>
dock_pv.88

> <s_m_Source_Path>
/home/csk/Desktop/cluster/DUD-E-result/aces

> <s_m_Source_File>
dock_pv.maegz

> <i_m_Source_File_Index>
88

> <chembl_id>
CHEMBL1203538

> <chembl_pref_name>
None

> <i_lp_mmshare_version>
53161

> <i_f3d_flags>
0

> <r_lp_tautomer_probability>
0.5

> <s_lp_Force_Field>
OPLS_2005

> <r_lp_Energy>
53.901111

> <b_lp_Chiralities_Consistent>
1

> <s_lp_Variant>
CHEMBL220_lig213-1

> <s_i_glide_gridfile>
glide-grid_1e66

> <i_i_glide_lignum>
235

> <i_i_glide_rotatable_bonds>
7

> <r_i_docking_score>
-7.99433494345444

> <r_i_glide_ligand_efficiency>
-0.296086479387202

> <r_i_glide_ligand_efficiency_sa>
-0.888259437185752

> <r_i_glide_ligand_efficiency_ln>
-1.86094937792416

> <r_i_glide_gscore>
-7.99433494345444

> <r_i_glide_lipo>
-3.33756737176609

> <r_i_glide_hbond>
-0.395841049645284

> <r_i_glide_metal>
0

> <r_i_glide_rewards>
-2.6679505147163

> <r_i_glide_evdw>
-38.4130973815918

> <r_i_glide_ecoul>
-4.43880558013916

> <r_i_glide_erotb>
0.993499698773686

> <r_i_glide_esite>
0

> <r_i_glide_emodel>
-58.003247968816

> <r_i_glide_energy>
-42.851902961731

> <r_i_glide_einternal>
4.28423118591309

> <i_i_glide_confnum>
155

> <i_i_glide_posenum>
171

> <r_i_glide_eff_state_penalty>
0

> <s_user_duplicate_titles>
CHEMBL220_lig213,677489

> <s_m_subgroup_title>
dock_pv

> <s_m_subgroupid>
dock_pv

> <b_m_subgroup_collapsed>
0

$$$$
CHEMBL220_lig691
                    3D
 Schrodinger Suite 2021-1.
 64 67  0  0  1  0            999 V2000
    1.3424   68.6469   67.2702 N   0  3  1  0  0  0
    2.1372   61.8390   70.7803 C   0  0  0  0  0  0
    1.4234   64.1518   70.4138 C   0  0  0  0  0  0
    1.1334   62.7935   70.5556 C   0  0  0  0  0  0
    0.3439   65.1694   70.3997 C   0  0  0  0  0  0
    1.7637   60.4976   70.9893 N   0  0  0  0  0  0
    3.4784   62.2895   70.8874 C   0  0  0  0  0  0
    1.7903   69.3157   65.9552 C   0  0  0  0  0  0
    2.7514   64.5694   70.4584 C   0  0  0  0  0  0
    0.3292   66.0983   71.2025 O   0  0  0  0  0  0
    3.7626   63.6444   70.6755 C   0  0  0  0  0  0
   -0.5830   65.2116   69.1690 C   0  0  0  0  0  0
   -0.0192   69.3083   67.7156 C   0  0  0  0  0  0
    1.3196   67.1093   67.0279 C   0  0  0  0  0  0
   -1.1255   66.6186   68.7922 C   0  0  0  0  0  0
    2.3475   69.0092   68.3860 C   0  0  0  0  0  0
    3.0148   68.8633   65.1583 C   0  0  0  0  0  0
   -1.1982   67.1006   67.3026 C   0  0  2  0  0  0
   -0.0255   66.7401   66.3850 C   0  0  0  0  0  0
   -1.2927   68.6302   67.1539 C   0  0  0  0  0  0
    2.3796   59.3626   70.3083 C   0  0  0  0  0  0
    4.6239   61.3761   71.3182 C   0  0  0  0  0  0
    2.8324   68.0703   64.0196 C   0  0  0  0  0  0
    4.2841   69.3715   65.4533 C   0  0  0  0  0  0
    3.8060   59.0136   70.7385 C   0  0  0  0  0  0
    4.8466   60.1084   70.4979 C   0  0  0  0  0  0
    5.3638   69.0774   64.6248 C   0  0  0  0  0  0
    3.9083   67.7893   63.1834 C   0  0  0  0  0  0
    5.1664   68.2956   63.4878 C   0  0  0  0  0  0
    0.1015   62.4691   70.5453 H   0  0  0  0  0  0
    0.7591   60.3932   70.9865 H   0  0  0  0  0  0
    0.9044   69.3019   65.3281 H   0  0  0  0  0  0
    1.9706   70.3253   66.3156 H   0  0  0  0  0  0
    3.0093   65.6170   70.3775 H   0  0  0  0  0  0
    4.7783   64.0076   70.7499 H   0  0  0  0  0  0
    0.0335   64.9099   68.3684 H   0  0  0  0  0  0
   -1.3106   64.4137   69.1902 H   0  0  0  0  0  0
    0.0050   70.3798   67.5682 H   0  0  0  0  0  0
   -0.0486   69.2348   68.7785 H   0  0  0  0  0  0
    2.1458   66.8283   66.3751 H   0  0  0  0  0  0
    1.5270   66.6094   67.9743 H   0  0  0  0  0  0
   -2.0990   66.7907   69.2546 H   0  0  0  0  0  0
   -0.4530   67.3056   69.2834 H   0  0  0  0  0  0
    3.3425   68.9085   67.9645 H   0  0  0  0  0  0
    2.1912   70.0495   68.6750 H   0  0  0  0  0  0
    2.2043   68.3515   69.2419 H   0  0  0  0  0  0
   -2.0965   66.6523   66.8722 H   0  0  0  0  0  0
   -0.0565   65.7060   66.1510 H   0  0  0  0  0  0
   -0.1102   67.2213   65.4096 H   0  0  0  0  0  0
   -1.4627   68.9310   66.1200 H   0  0  0  0  0  0
   -2.1539   68.9963   67.7159 H   0  0  0  0  0  0
    2.4015   59.6396   69.2533 H   0  0  0  0  0  0
    1.7375   58.4853   70.3843 H   0  0  0  0  0  0
    4.4923   61.1342   72.3742 H   0  0  0  0  0  0
    5.5506   61.9495   71.2902 H   0  0  0  0  0  0
    1.8482   67.7111   63.7587 H   0  0  0  0  0  0
    4.4342   70.0297   66.2963 H   0  0  0  0  0  0
    4.1027   58.1092   70.2087 H   0  0  0  0  0  0
    3.7997   58.7392   71.7954 H   0  0  0  0  0  0
    4.8910   60.3524   69.4358 H   0  0  0  0  0  0
    5.8241   59.7129   70.7704 H   0  0  0  0  0  0
    6.3429   69.4820   64.8417 H   0  0  0  0  0  0
    3.7600   67.2031   62.2866 H   0  0  0  0  0  0
    5.9985   68.0997   62.8277 H   0  0  0  0  0  0
  1  8  1  0  0  0
  1 13  1  0  0  0
  1 14  1  0  0  0
  1 16  1  0  0  0
  2  4  2  0  0  0
  2  6  1  0  0  0
  2  7  1  0  0  0
  3  5  1  0  0  0
  3  4  1  0  0  0
  3  9  2  0  0  0
  4 30  1  0  0  0
  5 12  1  0  0  0
  5 10  2  0  0  0
  6 21  1  0  0  0
  6 31  1  0  0  0
  7 11  2  0  0  0
  7 22  1  0  0  0
  8 17  1  0  0  0
  8 32  1  0  0  0
  8 33  1  0  0  0
  9 11  1  0  0  0
  9 34  1  0  0  0
 11 35  1  0  0  0
 12 15  1  0  0  0
 12 36  1  0  0  0
 12 37  1  0  0  0
 13 20  1  0  0  0
 13 38  1  0  0  0
 13 39  1  0  0  0
 14 19  1  0  0  0
 14 40  1  0  0  0
 14 41  1  0  0  0
 15 18  1  0  0  0
 15 42  1  0  0  0
 15 43  1  0  0  0
 16 44  1  0  0  0
 16 45  1  0  0  0
 16 46  1  0  0  0
 17 23  2  0  0  0
 17 24  1  0  0  0
 18 19  1  0  0  0
 18 20  1  0  0  0
 18 47  1  0  0  0
 19 48  1  0  0  0
 19 49  1  0  0  0
 20 50  1  0  0  0
 20 51  1  0  0  0
 21 25  1  0  0  0
 21 52  1  0  0  0
 21 53  1  0  0  0
 22 26  1  0  0  0
 22 54  1  0  0  0
 22 55  1  0  0  0
 23 28  1  0  0  0
 23 56  1  0  0  0
 24 27  2  0  0  0
 24 57  1  0  0  0
 25 26  1  0  0  0
 25 58  1  0  0  0
 25 59  1  0  0  0
 26 60  1  0  0  0
 26 61  1  0  0  0
 27 29  1  0  0  0
 27 62  1  0  0  0
 28 29  2  0  0  0
 28 63  1  0  0  0
 29 64  1  0  0  0
M  CHG  1   1   1
M  END
> <s_m_entry_id>
8579

> <s_m_entry_name>
dock_pv.89

> <s_m_Source_Path>
/home/csk/Desktop/cluster/DUD-E-result/aces

> <s_m_Source_File>
dock_pv.maegz

> <i_m_Source_File_Index>
89

> <chembl_id>
CHEMBL315385

> <chembl_pref_name>
None

> <i_lp_mmshare_version>
53161

> <i_f3d_flags>
0

> <r_lp_tautomer_probability>
0.99990000499975

> <s_lp_Force_Field>
OPLS_2005

> <r_lp_Energy>
49.669093

> <b_lp_Chiralities_Consistent>
1

> <s_lp_Variant>
CHEMBL220_lig691-1

> <s_i_glide_gridfile>
glide-grid_1e66

> <i_i_glide_lignum>
816

> <i_i_glide_rotatable_bonds>
6

> <r_i_docking_score>
-7.98576183099691

> <r_i_glide_ligand_efficiency>
-0.275371097620583

> <r_i_glide_ligand_efficiency_sa>
-0.84602725557769

> <r_i_glide_ligand_efficiency_ln>
-1.82853695785056

> <r_i_glide_gscore>
-7.98576183099691

> <r_i_glide_lipo>
-4.10360963584705

> <r_i_glide_hbond>
0

> <r_i_glide_metal>
0

> <r_i_glide_rewards>
-2.22923480606866

> <r_i_glide_evdw>
-32.4597129821777

> <r_i_glide_ecoul>
-4.44234180450439

> <r_i_glide_erotb>
0.636419530703337

> <r_i_glide_esite>
0

> <r_i_glide_emodel>
-33.7541930129512

> <r_i_glide_energy>
-36.9020547866821

> <r_i_glide_einternal>
14.973614692688

> <i_i_glide_confnum>
5

> <i_i_glide_posenum>
262

> <r_i_glide_eff_state_penalty>
0

> <s_user_duplicate_titles>
CHEMBL220_lig691,138521

> <s_m_subgroup_title>
dock_pv

> <s_m_subgroupid>
dock_pv

> <b_m_subgroup_collapsed>
0

$$$$
CHEMBL220_lig645
                    3D
 Schrodinger Suite 2021-1.
 31 33  0  0  1  0            999 V2000
    2.3796   69.2107   65.9075 N   0  0  0  0  0  0
    2.4391   68.7062   64.7347 C   0  0  0  0  0  0
    3.6341   68.6222   63.9886 N   0  0  0  0  0  0
    4.7575   69.8204   65.8587 C   0  0  0  0  0  0
    3.5300   69.7002   66.5340 C   0  0  0  0  0  0
    4.7686   69.5047   64.3579 C   0  0  0  0  0  0
    5.8783   70.2594   66.5669 C   0  0  0  0  0  0
    3.4044   70.1080   67.8642 C   0  0  0  0  0  0
    5.7554   70.6553   67.8999 C   0  0  0  0  0  0
    4.5167   70.6038   68.5397 C   0  0  0  0  0  0
    3.6862   68.1589   62.5987 C   0  0  0  0  0  0
    7.1365   71.1967   68.7688 Cl  0  0  0  0  0  0
    1.1277   68.2597   64.0897 C   0  0  0  0  0  0
    2.9534   69.0680   61.5932 C   0  0  0  0  0  0
    0.6576   69.0988   62.8795 C   0  0  0  0  0  0
    1.4213   68.9082   61.5637 C   0  0  0  0  0  0
    5.7143   69.0240   64.0966 H   0  0  0  0  0  0
    4.7120   70.4364   63.7903 H   0  0  0  0  0  0
    6.8360   70.3334   66.0710 H   0  0  0  0  0  0
    2.4514   70.0410   68.3696 H   0  0  0  0  0  0
    4.4259   70.9073   69.5725 H   0  0  0  0  0  0
    3.2513   67.1612   62.5623 H   0  0  0  0  0  0
    4.7177   68.0129   62.2710 H   0  0  0  0  0  0
    0.3339   68.3149   64.8376 H   0  0  0  0  0  0
    1.1657   67.2019   63.8540 H   0  0  0  0  0  0
    3.3344   68.8449   60.5948 H   0  0  0  0  0  0
    3.2238   70.1080   61.7735 H   0  0  0  0  0  0
    0.6814   70.1534   63.1443 H   0  0  0  0  0  0
   -0.3972   68.8793   62.6983 H   0  0  0  0  0  0
    1.0139   69.5981   60.8240 H   0  0  0  0  0  0
    1.1836   67.9191   61.1821 H   0  0  0  0  0  0
  1  2  2  0  0  0
  1  5  1  0  0  0
  2  3  1  0  0  0
  2 13  1  0  0  0
  3 11  1  0  0  0
  3  6  1  0  0  0
  4  5  1  0  0  0
  4  6  1  0  0  0
  4  7  2  0  0  0
  5  8  2  0  0  0
  6 17  1  0  0  0
  6 18  1  0  0  0
  7  9  1  0  0  0
  7 19  1  0  0  0
  8 10  1  0  0  0
  8 20  1  0  0  0
  9 10  2  0  0  0
  9 12  1  0  0  0
 10 21  1  0  0  0
 11 14  1  0  0  0
 11 22  1  0  0  0
 11 23  1  0  0  0
 13 15  1  0  0  0
 13 24  1  0  0  0
 13 25  1  0  0  0
 14 16  1  0  0  0
 14 26  1  0  0  0
 14 27  1  0  0  0
 15 16  1  0  0  0
 15 28  1  0  0  0
 15 29  1  0  0  0
 16 30  1  0  0  0
 16 31  1  0  0  0
M  END
> <s_m_entry_id>
8580

> <s_m_entry_name>
dock_pv.90

> <s_m_Source_Path>
/home/csk/Desktop/cluster/DUD-E-result/aces

> <s_m_Source_File>
dock_pv.maegz

> <i_m_Source_File_Index>
90

> <chembl_id>
CHEMBL165726

> <chembl_pref_name>
None

> <i_lp_mmshare_version>
53161

> <i_f3d_flags>
0

> <r_lp_tautomer_probability>
0.999601159137504

> <s_lp_Force_Field>
OPLS_2005

> <r_lp_Energy>
18.370883

> <b_lp_Chiralities_Consistent>
1

> <s_lp_Variant>
CHEMBL220_lig645-1

> <s_i_glide_gridfile>
glide-grid_1e66

> <i_i_glide_lignum>
751

> <i_i_glide_rotatable_bonds>
0

> <r_i_docking_score>
-7.98163043750461

> <r_i_glide_ligand_efficiency>
-0.498851902344038

> <r_i_glide_ligand_efficiency_sa>
-1.25702802392497

> <r_i_glide_ligand_efficiency_ln>
-2.11569058414773

> <r_i_glide_gscore>
-7.98163043750461

> <r_i_glide_lipo>
-3.4445333157316

> <r_i_glide_hbond>
0

> <r_i_glide_metal>
0

> <r_i_glide_rewards>
-2.9900665029862

> <r_i_glide_evdw>
-30.68918800354

> <r_i_glide_ecoul>
-0.0838081240653992

> <r_i_glide_erotb>
0

> <r_i_glide_esite>
0

> <r_i_glide_emodel>
-44.9588197237544

> <r_i_glide_energy>
-30.7729961276054

> <r_i_glide_einternal>
0

> <i_i_glide_confnum>
1

> <i_i_glide_posenum>
108

> <r_i_glide_eff_state_penalty>
0

> <s_user_duplicate_titles>
CHEMBL220_lig645,272678

> <s_m_subgroup_title>
dock_pv

> <s_m_subgroupid>
dock_pv

> <b_m_subgroup_collapsed>
0

$$$$
CHEMBL220_lig215
                    3D
 Schrodinger Suite 2021-1.
 36 38  0  0  1  0            999 V2000
    1.5312   67.9717   65.2742 C   0  0  1  0  0  0
    2.3876   68.8513   66.2308 C   0  0  0  0  0  0
    3.6101   69.3520   65.8720 C   0  0  0  0  0  0
    1.8935   68.3783   63.8238 C   0  0  0  0  0  0
    3.1432   65.9651   64.7680 C   0  0  0  0  0  0
    3.4045   68.2136   63.5813 C   0  0  2  0  0  0
    3.5762   64.5077   64.9920 C   0  0  0  0  0  0
    4.3871   70.1080   66.7222 N   0  0  0  0  0  0
    1.8672   66.4530   65.4661 C   0  0  0  0  0  0
    3.8101   66.7852   63.9269 C   0  0  0  0  0  0
    1.9426   69.2477   67.5763 C   0  0  0  0  0  0
    4.1864   69.2099   64.4634 C   0  0  0  0  0  0
    4.0359   70.4835   67.9785 C   0  0  0  0  0  0
    2.7086   70.0359   68.3679 C   0  0  0  0  0  0
    0.1149   68.1487   65.5653 N   0  0  0  0  0  0
    1.0098   68.8141   62.8905 C   0  0  0  0  0  0
    4.8060   71.0983   68.7072 O   0  0  0  0  0  0
    4.7926   64.2728   64.5010 F   0  0  0  0  0  0
    2.7430   63.7081   64.3679 F   0  0  0  0  0  0
    3.5430   64.1561   66.2775 F   0  0  0  0  0  0
    1.2983   69.2634   61.4701 C   0  0  0  0  0  0
    3.6689   68.3696   62.5371 H   0  0  0  0  0  0
    1.0542   65.8351   65.0801 H   0  0  0  0  0  0
    1.9046   66.1972   66.5253 H   0  0  0  0  0  0
    4.7029   66.4116   63.4477 H   0  0  0  0  0  0
    0.9725   68.9324   67.9359 H   0  0  0  0  0  0
    5.2327   68.9041   64.5273 H   0  0  0  0  0  0
    4.2333   70.1988   64.0048 H   0  0  0  0  0  0
    2.3463   70.3255   69.3437 H   0  0  0  0  0  0
   -0.1682   69.0800   65.3001 H   0  0  0  0  0  0
   -0.4308   67.5019   65.0072 H   0  0  0  0  0  0
   -0.0376   68.8809   63.1461 H   0  0  0  0  0  0
    5.2907   70.4477   66.4360 H   0  0  0  0  0  0
    0.7597   70.1880   61.2624 H   0  0  0  0  0  0
    2.3511   69.4529   61.2740 H   0  0  0  0  0  0
    0.9485   68.5081   60.7680 H   0  0  0  0  0  0
  1  4  1  0  0  0
  1  9  1  0  0  0
  1 15  1  0  0  0
  1  2  1  0  0  0
  2  3  2  0  0  0
  2 11  1  0  0  0
  3  8  1  0  0  0
  3 12  1  0  0  0
  4  6  1  0  0  0
  4 16  2  0  0  0
  5  9  1  0  0  0
  5  7  1  0  0  0
  5 10  2  0  0  0
  6 12  1  0  0  0
  6 10  1  0  0  0
  6 22  1  0  0  0
  7 18  1  0  0  0
  7 19  1  0  0  0
  7 20  1  0  0  0
  8 13  1  0  0  0
  8 33  1  0  0  0
  9 23  1  0  0  0
  9 24  1  0  0  0
 10 25  1  0  0  0
 11 26  1  0  0  0
 11 14  2  0  0  0
 12 27  1  0  0  0
 12 28  1  0  0  0
 13 17  2  0  0  0
 13 14  1  0  0  0
 14 29  1  0  0  0
 15 30  1  0  0  0
 15 31  1  0  0  0
 16 21  1  0  0  0
 16 32  1  0  0  0
 21 34  1  0  0  0
 21 35  1  0  0  0
 21 36  1  0  0  0
M  END
> <s_m_entry_id>
8581

> <s_m_entry_name>
dock_pv.91

> <s_m_Source_Path>
/home/csk/Desktop/cluster/DUD-E-result/aces

> <s_m_Source_File>
dock_pv.maegz

> <i_m_Source_File_Index>
91

> <chembl_id>
CHEMBL294891

> <chembl_pref_name>
None

> <i_lp_mmshare_version>
53161

> <i_f3d_flags>
0

> <r_lp_tautomer_probability>
0.999

> <s_lp_Force_Field>
OPLS_2005

> <r_lp_Energy>
21.72889

> <b_lp_Chiralities_Consistent>
1

> <s_lp_Variant>
CHEMBL220_lig215-2

> <s_i_glide_gridfile>
glide-grid_1e66

> <i_i_glide_lignum>
239

> <i_i_glide_rotatable_bonds>
1

> <r_i_docking_score>
-7.97750756358364

> <r_i_glide_ligand_efficiency>
-0.379881312551602

> <r_i_glide_ligand_efficiency_sa>
-1.04806373629039

> <r_i_glide_ligand_efficiency_ln>
-1.97242262502418

> <r_i_glide_gscore>
-7.97750756358364

> <r_i_glide_lipo>
-3.27004480669996

> <r_i_glide_hbond>
-0.126155389134357

> <r_i_glide_metal>
0

> <r_i_glide_rewards>
-2.40537381947745

> <r_i_glide_evdw>
-27.4499111175537

> <r_i_glide_ecoul>
-4.81129693984985

> <r_i_glide_erotb>
0

> <r_i_glide_esite>
-0.0817434514167083

> <r_i_glide_emodel>
-47.3474820685651

> <r_i_glide_energy>
-32.2612080574036

> <r_i_glide_einternal>
0.0121271125972271

> <i_i_glide_confnum>
1

> <i_i_glide_posenum>
253

> <r_i_glide_eff_state_penalty>
0

> <s_user_duplicate_titles>
CHEMBL220_lig215,90097

> <s_m_subgroup_title>
dock_pv

> <s_m_subgroupid>
dock_pv

> <b_m_subgroup_collapsed>
0

$$$$
CHEMBL220_lig889
                    3D
 Schrodinger Suite 2021-1.
 60 63  0  0  1  0            999 V2000
    2.8360   68.8417   65.6532 C   0  0  0  0  0  0
    2.2830   70.0362   68.1250 N   0  0  0  0  0  0
    1.5430   68.7568   66.2031 C   0  0  0  0  0  0
    3.8860   69.5060   66.3758 C   0  0  0  0  0  0
    1.3240   69.3491   67.4609 C   0  0  0  0  0  0
    3.5361   70.1080   67.6195 C   0  0  0  0  0  0
    4.3725   63.5784   69.9677 S   0  0  0  0  0  0
    3.9152   61.8766   70.9903 S   0  0  0  0  0  0
    4.7165   65.4874   63.1680 C   0  0  0  0  0  0
    3.0622   68.1463   64.4589 N   0  0  0  0  0  0
    3.9430   64.9780   62.3680 O   0  0  0  0  0  0
    5.0386   66.7894   63.1225 N   0  0  0  0  0  0
    3.7533   62.8849   68.4126 C   0  0  1  0  0  0
    0.3751   68.1116   65.4230 C   0  0  0  0  0  0
    2.3367   62.4401   68.7913 C   0  0  0  0  0  0
    5.2556   69.5801   65.9718 C   0  0  0  0  0  0
    2.3988   61.5513   70.0440 C   0  0  0  0  0  0
   -0.0467   69.3069   68.1206 C   0  0  0  0  0  0
    4.5060   70.8226   68.3680 C   0  0  0  0  0  0
    5.4128   64.5745   64.1712 C   0  0  0  0  0  0
    3.6090   68.8178   63.2824 C   0  0  0  0  0  0
    4.3026   67.8044   62.3451 C   0  0  0  0  0  0
    3.9430   63.9144   67.2618 C   0  0  0  0  0  0
    4.5748   63.3510   64.6490 C   0  0  0  0  0  0
    3.5442   63.4949   65.8220 C   0  0  0  0  0  0
   -0.9400   67.9788   66.2148 C   0  0  0  0  0  0
    6.1914   70.2767   66.7334 C   0  0  0  0  0  0
   -1.1891   69.2010   67.1027 C   0  0  0  0  0  0
    5.8181   70.9080   67.9144 C   0  0  0  0  0  0
    3.5968   67.3075   64.6330 H   0  0  0  0  0  0
    5.7667   67.1466   63.7210 H   0  0  0  0  0  0
    4.3430   61.9974   68.1924 H   0  0  0  0  0  0
    0.1848   68.7305   64.5448 H   0  0  0  0  0  0
    0.6606   67.1295   65.0425 H   0  0  0  0  0  0
    1.8585   61.9102   67.9680 H   0  0  0  0  0  0
    1.7193   63.3080   69.0246 H   0  0  0  0  0  0
    5.5986   69.0774   65.0831 H   0  0  0  0  0  0
    2.4399   60.4990   69.7602 H   0  0  0  0  0  0
    1.5222   61.6814   70.6803 H   0  0  0  0  0  0
   -0.1947   70.1749   68.7670 H   0  0  0  0  0  0
   -0.0570   68.4307   68.7680 H   0  0  0  0  0  0
    4.2163   71.2884   69.2984 H   0  0  0  0  0  0
    5.9411   65.1055   64.9614 H   0  0  0  0  0  0
    6.2100   64.1457   63.5680 H   0  0  0  0  0  0
    4.3410   69.5672   63.5715 H   0  0  0  0  0  0
    2.8379   69.3931   62.7685 H   0  0  0  0  0  0
    5.0145   68.3202   61.6981 H   0  0  0  0  0  0
    3.5555   67.3562   61.6862 H   0  0  0  0  0  0
    3.4496   64.8511   67.5244 H   0  0  0  0  0  0
    5.0075   64.1080   67.2614 H   0  0  0  0  0  0
    5.2688   62.5252   64.7680 H   0  0  0  0  0  0
    3.9933   62.9737   63.8053 H   0  0  0  0  0  0
    3.1430   62.5080   65.9679 H   0  0  0  0  0  0
    2.7430   64.1400   65.4639 H   0  0  0  0  0  0
   -1.7747   67.8332   65.5284 H   0  0  0  0  0  0
   -0.9040   67.0795   66.8325 H   0  0  0  0  0  0
    7.2189   70.3242   66.4014 H   0  0  0  0  0  0
   -1.2569   70.1080   66.5002 H   0  0  0  0  0  0
   -2.1440   69.1019   67.6195 H   0  0  0  0  0  0
    6.5540   71.4476   68.4929 H   0  0  0  0  0  0
  1  3  2  0  0  0
  1  4  1  0  0  0
  1 10  1  0  0  0
  2  6  1  0  0  0
  2  5  2  0  0  0
  3  5  1  0  0  0
  3 14  1  0  0  0
  4  6  1  0  0  0
  4 16  2  0  0  0
  5 18  1  0  0  0
  6 19  2  0  0  0
  7 13  1  0  0  0
  7  8  1  0  0  0
  8 17  1  0  0  0
  9 12  1  0  0  0
  9 11  2  0  0  0
  9 20  1  0  0  0
 10 21  1  0  0  0
 10 30  1  0  0  0
 12 22  1  0  0  0
 12 31  1  0  0  0
 13 23  1  0  0  0
 13 15  1  0  0  0
 13 32  1  0  0  0
 14 26  1  0  0  0
 14 33  1  0  0  0
 14 34  1  0  0  0
 15 17  1  0  0  0
 15 35  1  0  0  0
 15 36  1  0  0  0
 16 27  1  0  0  0
 16 37  1  0  0  0
 17 38  1  0  0  0
 17 39  1  0  0  0
 18 28  1  0  0  0
 18 40  1  0  0  0
 18 41  1  0  0  0
 19 29  1  0  0  0
 19 42  1  0  0  0
 20 24  1  0  0  0
 20 43  1  0  0  0
 20 44  1  0  0  0
 21 22  1  0  0  0
 21 45  1  0  0  0
 21 46  1  0  0  0
 22 47  1  0  0  0
 22 48  1  0  0  0
 23 25  1  0  0  0
 23 49  1  0  0  0
 23 50  1  0  0  0
 24 25  1  0  0  0
 24 51  1  0  0  0
 24 52  1  0  0  0
 25 53  1  0  0  0
 25 54  1  0  0  0
 26 28  1  0  0  0
 26 55  1  0  0  0
 26 56  1  0  0  0
 27 29  2  0  0  0
 27 57  1  0  0  0
 28 58  1  0  0  0
 28 59  1  0  0  0
 29 60  1  0  0  0
M  END
> <s_m_entry_id>
8582

> <s_m_entry_name>
dock_pv.92

> <s_m_Source_Path>
/home/csk/Desktop/cluster/DUD-E-result/aces

> <s_m_Source_File>
dock_pv.maegz

> <i_m_Source_File_Index>
92

> <chembl_id>
CHEMBL192682

> <chembl_pref_name>
None

> <i_lp_mmshare_version>
53161

> <i_f3d_flags>
0

> <r_lp_tautomer_probability>
1

> <s_lp_Force_Field>
OPLS_2005

> <r_lp_Energy>
22.714812

> <b_lp_Chiralities_Consistent>
1

> <s_lp_Variant>
CHEMBL220_lig889-1

> <s_i_glide_gridfile>
glide-grid_1e66

> <i_i_glide_lignum>
1196

> <i_i_glide_rotatable_bonds>
10

> <r_i_docking_score>
-7.96153289584942

> <r_i_glide_ligand_efficiency>
-0.274535617098256

> <r_i_glide_ligand_efficiency_sa>
-0.843460394714292

> <r_i_glide_ligand_efficiency_ln>
-1.82298914609457

> <r_i_glide_gscore>
-7.96153289584942

> <r_i_glide_lipo>
-4.23657979810137

> <r_i_glide_hbond>
-0.419908437074923

> <r_i_glide_metal>
0

> <r_i_glide_rewards>
-1.35988847229774

> <r_i_glide_evdw>
-33.5452919006348

> <r_i_glide_ecoul>
-6.78455495834351

> <r_i_glide_erotb>
0.861318428484601

> <r_i_glide_esite>
-0.111526778076731

> <r_i_glide_emodel>
-56.7186018000208

> <r_i_glide_energy>
-40.3298468589783

> <r_i_glide_einternal>
13.4465589523315

> <i_i_glide_confnum>
91

> <i_i_glide_posenum>
119

> <r_i_glide_eff_state_penalty>
0

> <s_user_duplicate_titles>
CHEMBL220_lig889,323423

> <s_m_subgroup_title>
dock_pv

> <s_m_subgroupid>
dock_pv

> <b_m_subgroup_collapsed>
0

$$$$
CHEMBL220_lig825
                    3D
 Schrodinger Suite 2021-1.
 32 34  0  0  1  0            999 V2000
    4.1303   69.1517   64.9737 N   0  0  0  0  0  0
    1.8532   68.5076   65.0924 N   0  0  0  0  0  0
    1.6602   68.9440   66.4329 C   0  0  0  0  0  0
    3.0907   68.6687   64.4164 C   0  0  0  0  0  0
    4.0641   69.6423   66.2799 C   0  0  0  0  0  0
    2.8872   69.5793   67.0546 C   0  0  0  0  0  0
    5.2425   70.1822   66.7948 C   0  0  0  0  0  0
    2.9289   70.1095   68.3585 C   0  0  0  0  0  0
    0.5057   68.8646   67.1397 C   0  0  0  0  0  0
    5.2637   70.6996   68.0868 C   0  0  0  0  0  0
    4.1017   70.6793   68.8585 C   0  0  0  0  0  0
    0.7440   67.8392   64.3809 C   0  0  0  0  0  0
    3.2343   68.2778   62.9407 C   0  0  0  0  0  0
    6.7421   71.3069   68.7417 Cl  0  0  0  0  0  0
    0.0919   68.6646   63.2475 C   0  0  0  0  0  0
    2.3399   69.0491   61.9502 C   0  0  0  0  0  0
    0.8490   68.6856   61.9149 C   0  0  0  0  0  0
    6.1393   70.1974   66.1936 H   0  0  0  0  0  0
    2.0692   70.0973   69.0096 H   0  0  0  0  0  0
    0.4167   69.2184   68.1540 H   0  0  0  0  0  0
   -0.4040   68.4497   66.7389 H   0  0  0  0  0  0
    4.1098   71.0570   69.8696 H   0  0  0  0  0  0
   -0.0313   67.4533   65.0389 H   0  0  0  0  0  0
    1.1333   66.9096   63.9684 H   0  0  0  0  0  0
    3.1431   67.2018   62.8200 H   0  0  0  0  0  0
    4.2633   68.4701   62.6251 H   0  0  0  0  0  0
   -0.1093   69.6849   63.5681 H   0  0  0  0  0  0
   -0.8976   68.2448   63.0582 H   0  0  0  0  0  0
    2.4358   70.1079   62.1588 H   0  0  0  0  0  0
    2.7426   68.9243   60.9438 H   0  0  0  0  0  0
    0.3395   69.3650   61.2289 H   0  0  0  0  0  0
    0.7468   67.7080   61.4582 H   0  0  0  0  0  0
  1  4  2  0  0  0
  1  5  1  0  0  0
  2  4  1  0  0  0
  2 12  1  0  0  0
  2  3  1  0  0  0
  3  6  1  0  0  0
  3  9  2  0  0  0
  4 13  1  0  0  0
  5  6  1  0  0  0
  5  7  2  0  0  0
  6  8  2  0  0  0
  7 10  1  0  0  0
  7 18  1  0  0  0
  8 11  1  0  0  0
  8 19  1  0  0  0
  9 20  1  0  0  0
  9 21  1  0  0  0
 10 11  2  0  0  0
 10 14  1  0  0  0
 11 22  1  0  0  0
 12 15  1  0  0  0
 12 23  1  0  0  0
 12 24  1  0  0  0
 13 16  1  0  0  0
 13 25  1  0  0  0
 13 26  1  0  0  0
 15 17  1  0  0  0
 15 27  1  0  0  0
 15 28  1  0  0  0
 16 17  1  0  0  0
 16 29  1  0  0  0
 16 30  1  0  0  0
 17 31  1  0  0  0
 17 32  1  0  0  0
M  END
> <s_m_entry_id>
8583

> <s_m_entry_name>
dock_pv.93

> <s_m_Source_Path>
/home/csk/Desktop/cluster/DUD-E-result/aces

> <s_m_Source_File>
dock_pv.maegz

> <i_m_Source_File_Index>
93

> <chembl_id>
CHEMBL1161717

> <chembl_pref_name>
None

> <i_lp_mmshare_version>
53161

> <i_f3d_flags>
0

> <r_lp_tautomer_probability>
0.999601159137504

> <s_lp_Force_Field>
OPLS_2005

> <r_lp_Energy>
22.680745

> <b_lp_Chiralities_Consistent>
1

> <s_lp_Variant>
CHEMBL220_lig825-1

> <s_i_glide_gridfile>
glide-grid_1e66

> <i_i_glide_lignum>
1021

> <i_i_glide_rotatable_bonds>
0

> <r_i_docking_score>
-7.9546927325791

> <r_i_glide_ligand_efficiency>
-0.467923101916418

> <r_i_glide_ligand_efficiency_sa>
-1.20316205666511

> <r_i_glide_ligand_efficiency_ln>
-2.07520219163216

> <r_i_glide_gscore>
-7.9546927325791

> <r_i_glide_lipo>
-3.37230512035236

> <r_i_glide_hbond>
0

> <r_i_glide_metal>
0

> <r_i_glide_rewards>
-2.87375593281104

> <r_i_glide_evdw>
-33.1646957397461

> <r_i_glide_ecoul>
-0.335979282855988

> <r_i_glide_erotb>
0

> <r_i_glide_esite>
0

> <r_i_glide_emodel>
-48.9641214036244

> <r_i_glide_energy>
-33.5006750226021

> <r_i_glide_einternal>
0

> <i_i_glide_confnum>
2

> <i_i_glide_posenum>
32

> <r_i_glide_eff_state_penalty>
0

> <s_user_duplicate_titles>
CHEMBL220_lig825

> <s_m_subgroup_title>
dock_pv

> <s_m_subgroupid>
dock_pv

> <b_m_subgroup_collapsed>
0

$$$$
CHEMBL220_lig617
                    3D
 Schrodinger Suite 2021-1.
 28 28  0  0  1  0            999 V2000
    2.9362   69.0878   62.3952 C   0  0  0  0  0  0
    3.6115   68.7528   63.5816 C   0  0  0  0  0  0
    5.1150   68.9767   63.6714 N   0  3  0  0  0  0
    1.5469   68.9637   62.3221 C   0  0  0  0  0  0
    0.8200   68.5078   63.4302 C   0  0  0  0  0  0
    2.8825   68.2764   64.6833 C   0  0  0  0  0  0
    1.4950   68.1512   64.6007 C   0  0  0  0  0  0
    0.8934   69.3159   61.1681 O   0  0  0  0  0  0
    5.8768   68.3655   62.4675 C   0  0  0  0  0  0
    5.4320   70.4862   63.6949 C   0  0  0  0  0  0
    5.7775   68.3663   64.9318 C   0  0  0  0  0  0
   -0.6968   68.4192   63.3819 C   0  0  0  0  0  0
    3.4693   69.4682   61.5360 H   0  0  0  0  0  0
    3.3467   68.0181   65.6234 H   0  0  0  0  0  0
    0.9414   67.7995   65.4607 H   0  0  0  0  0  0
    1.4456   69.7061   60.4839 H   0  0  0  0  0  0
    6.9505   68.5099   62.6000 H   0  0  0  0  0  0
    5.6256   67.3059   62.4115 H   0  0  0  0  0  0
    5.5615   68.8854   61.5680 H   0  0  0  0  0  0
    6.5064   70.6370   63.7562 H   0  0  0  0  0  0
    5.0411   70.9080   62.7714 H   0  0  0  0  0  0
    4.9315   70.9079   64.5664 H   0  0  0  0  0  0
    6.8553   68.5086   64.8853 H   0  0  0  0  0  0
    5.3750   68.8753   65.8082 H   0  0  0  0  0  0
    5.5252   67.3080   64.9359 H   0  0  0  0  0  0
   -1.1322   68.1144   64.3349 H   0  0  0  0  0  0
   -0.9995   67.7084   62.6139 H   0  0  0  0  0  0
   -1.1246   69.3819   63.1121 H   0  0  0  0  0  0
  1  2  2  0  0  0
  1  4  1  0  0  0
  1 13  1  0  0  0
  2  3  1  0  0  0
  2  6  1  0  0  0
  3  9  1  0  0  0
  3 10  1  0  0  0
  3 11  1  0  0  0
  4  5  2  0  0  0
  4  8  1  0  0  0
  5  7  1  0  0  0
  5 12  1  0  0  0
  6  7  2  0  0  0
  6 14  1  0  0  0
  7 15  1  0  0  0
  8 16  1  0  0  0
  9 17  1  0  0  0
  9 18  1  0  0  0
  9 19  1  0  0  0
 10 20  1  0  0  0
 10 21  1  0  0  0
 10 22  1  0  0  0
 11 23  1  0  0  0
 11 24  1  0  0  0
 11 25  1  0  0  0
 12 26  1  0  0  0
 12 27  1  0  0  0
 12 28  1  0  0  0
M  CHG  1   3   1
M  END
> <s_m_entry_id>
8584

> <s_m_entry_name>
dock_pv.94

> <s_m_Source_Path>
/home/csk/Desktop/cluster/DUD-E-result/aces

> <s_m_Source_File>
dock_pv.maegz

> <i_m_Source_File_Index>
94

> <chembl_id>
CHEMBL137560

> <chembl_pref_name>
None

> <i_lp_mmshare_version>
53161

> <i_f3d_flags>
0

> <r_lp_tautomer_probability>
1

> <s_lp_Force_Field>
OPLS_2005

> <r_lp_Energy>
15.138594

> <b_lp_Chiralities_Consistent>
1

> <s_lp_Variant>
CHEMBL220_lig617-1

> <s_i_glide_gridfile>
glide-grid_1e66

> <i_i_glide_lignum>
718

> <i_i_glide_rotatable_bonds>
2

> <r_i_docking_score>
-7.93260474284736

> <r_i_glide_ligand_efficiency>
-0.66105039523728

> <r_i_glide_ligand_efficiency_sa>
-1.51342760369367

> <r_i_glide_ligand_efficiency_ln>
-2.27627467247363

> <r_i_glide_gscore>
-7.93260474284736

> <r_i_glide_lipo>
-2.05129173821784

> <r_i_glide_hbond>
-0.318658244027207

> <r_i_glide_metal>
0

> <r_i_glide_rewards>
-3.55610640359242

> <r_i_glide_evdw>
-23.395336151123

> <r_i_glide_ecoul>
-5.5785436630249

> <r_i_glide_erotb>
0

> <r_i_glide_esite>
0

> <r_i_glide_emodel>
-47.8934482682073

> <r_i_glide_energy>
-28.9738798141479

> <r_i_glide_einternal>
0.997646033763885

> <i_i_glide_confnum>
1

> <i_i_glide_posenum>
68

> <r_i_glide_eff_state_penalty>
0

> <s_user_duplicate_titles>
CHEMBL220_lig617,226913

> <s_m_subgroup_title>
dock_pv

> <s_m_subgroupid>
dock_pv

> <b_m_subgroup_collapsed>
0

$$$$
CHEMBL220_lig576
                    3D
 Schrodinger Suite 2021-1.
 30 32  0  0  1  0            999 V2000
    3.9648   69.2442   64.3123 C   0  0  0  0  0  0
    2.6763   68.9080   64.7852 C   0  0  0  0  0  0
    4.9542   69.6661   65.1347 N   0  0  0  0  0  0
    2.3955   69.1177   66.1492 C   0  0  0  0  0  0
    3.3818   69.7080   66.9897 C   0  0  0  0  0  0
    4.6740   69.9383   66.4317 C   0  0  0  0  0  0
    4.3210   69.2071   62.8241 C   0  0  0  0  0  0
    1.6276   68.3254   63.8279 C   0  0  0  0  0  0
    1.1390   68.7694   66.6633 N   0  0  0  0  0  0
    3.3605   68.3517   61.9832 C   0  0  1  0  0  0
    1.9044   68.6625   62.3544 C   0  0  0  0  0  0
    3.1430   70.1080   68.3379 C   0  0  0  0  0  0
    3.5430   68.5660   60.5994 O   0  0  0  0  0  0
    5.6932   70.5080   67.2293 C   0  0  0  0  0  0
    4.1482   70.7244   69.0771 C   0  0  0  0  0  0
    5.4168   70.9080   68.5338 C   0  0  0  0  0  0
    4.2806   70.2359   62.4644 H   0  0  0  0  0  0
    5.3524   68.8808   62.6784 H   0  0  0  0  0  0
    1.6178   67.2454   63.9680 H   0  0  0  0  0  0
    0.6249   68.6725   64.0811 H   0  0  0  0  0  0
    0.4531   68.3409   66.0594 H   0  0  0  0  0  0
    0.9346   68.9410   67.6380 H   0  0  0  0  0  0
    3.5405   67.2903   62.1613 H   0  0  0  0  0  0
    1.2179   68.1080   61.7125 H   0  0  0  0  0  0
    1.6950   69.7178   62.1743 H   0  0  0  0  0  0
    2.1714   69.9614   68.7879 H   0  0  0  0  0  0
    4.4879   68.5080   60.3737 H   0  0  0  0  0  0
    6.6739   70.6642   66.8036 H   0  0  0  0  0  0
    3.9437   71.0270   70.0941 H   0  0  0  0  0  0
    6.1938   71.3623   69.1312 H   0  0  0  0  0  0
  1  2  1  0  0  0
  1  3  2  0  0  0
  1  7  1  0  0  0
  2  4  2  0  0  0
  2  8  1  0  0  0
  3  6  1  0  0  0
  4  9  1  0  0  0
  4  5  1  0  0  0
  5  6  1  0  0  0
  5 12  2  0  0  0
  6 14  2  0  0  0
  7 10  1  0  0  0
  7 17  1  0  0  0
  7 18  1  0  0  0
  8 11  1  0  0  0
  8 19  1  0  0  0
  8 20  1  0  0  0
  9 21  1  0  0  0
  9 22  1  0  0  0
 10 11  1  0  0  0
 10 13  1  0  0  0
 10 23  1  0  0  0
 11 24  1  0  0  0
 11 25  1  0  0  0
 12 15  1  0  0  0
 12 26  1  0  0  0
 13 27  1  0  0  0
 14 16  1  0  0  0
 14 28  1  0  0  0
 15 16  2  0  0  0
 15 29  1  0  0  0
 16 30  1  0  0  0
M  END
> <s_m_entry_id>
8585

> <s_m_entry_name>
dock_pv.95

> <s_m_Source_Path>
/home/csk/Desktop/cluster/DUD-E-result/aces

> <s_m_Source_File>
dock_pv.maegz

> <i_m_Source_File_Index>
95

> <chembl_id>
CHEMBL1127

> <chembl_pref_name>
7-HYDROXYTACRINE

> <i_lp_mmshare_version>
53161

> <i_f3d_flags>
0

> <r_lp_tautomer_probability>
1

> <s_lp_Force_Field>
OPLS_2005

> <r_lp_Energy>
17.957031

> <b_lp_Chiralities_Consistent>
1

> <s_lp_Variant>
CHEMBL220_lig576-2

> <s_i_glide_gridfile>
glide-grid_1e66

> <i_i_glide_lignum>
663

> <i_i_glide_rotatable_bonds>
1

> <r_i_docking_score>
-7.93118678919952

> <r_i_glide_ligand_efficiency>
-0.49569917432497

> <r_i_glide_ligand_efficiency_sa>
-1.24908364714068

> <r_i_glide_ligand_efficiency_ln>
-2.10231948752971

> <r_i_glide_gscore>
-7.93118678919952

> <r_i_glide_lipo>
-3.19229598050381

> <r_i_glide_hbond>
-0.16

> <r_i_glide_metal>
0

> <r_i_glide_rewards>
-2.47320640909091

> <r_i_glide_evdw>
-28.5930786132812

> <r_i_glide_ecoul>
-4.50686979293823

> <r_i_glide_erotb>
0

> <r_i_glide_esite>
0

> <r_i_glide_emodel>
-48.9513089736097

> <r_i_glide_energy>
-33.0999484062195

> <r_i_glide_einternal>
0.00862423330545425

> <i_i_glide_confnum>
1

> <i_i_glide_posenum>
194

> <r_i_glide_eff_state_penalty>
0

> <s_user_duplicate_titles>
CHEMBL220_lig576,167613

> <s_m_subgroup_title>
dock_pv

> <s_m_subgroupid>
dock_pv

> <b_m_subgroup_collapsed>
0

$$$$
CHEMBL220_lig179
                    3D
 Schrodinger Suite 2021-1.
 51 52  0  0  1  0            999 V2000
    2.7461   68.9557   65.4904 C   0  0  0  0  0  0
    4.0300   69.3923   65.8896 C   0  0  0  0  0  0
    2.5409   68.6097   64.1424 C   0  0  0  0  0  0
    1.5807   68.9079   66.4638 C   0  0  0  0  0  0
    5.0825   69.3644   64.9591 C   0  0  0  0  0  0
    2.3387   63.3463   69.7519 C   0  0  0  0  0  0
    2.1837   64.6953   69.6954 O   0  0  0  0  0  0
    3.5800   68.6345   63.2214 C   0  0  0  0  0  0
    4.8646   68.9732   63.6436 C   0  0  0  0  0  0
    0.9335   64.9946   70.1223 C   0  0  0  0  0  0
    1.1632   62.7698   70.2051 C   0  0  0  0  0  0
    0.2726   63.8129   70.4417 C   0  0  0  0  0  0
    1.5570   69.5989   67.4833 O   0  0  0  0  0  0
    3.7005   62.8033   69.3706 C   0  0  0  0  0  0
    0.5746   68.0671   66.1480 N   0  0  0  0  0  0
    5.9434   68.9212   62.7678 N   0  0  0  0  0  0
    4.7432   63.0529   70.3727 N   0  0  0  0  0  0
    3.2473   68.2682   61.5671 Cl  0  0  0  0  0  0
    4.2183   69.8271   67.1902 O   0  0  0  0  0  0
    0.6010   67.1569   68.9473 N   0  0  1  0  0  0
    0.5997   66.4684   70.2245 C   0  0  0  0  0  0
   -0.6507   67.8870   66.9356 C   0  0  0  0  0  0
   -0.5419   66.8658   68.0916 C   0  0  0  0  0  0
    5.0764   64.4699   70.5187 C   0  0  0  0  0  0
    4.4753   62.4137   71.6586 C   0  0  0  0  0  0
    5.4512   70.4240   67.5810 C   0  0  0  0  0  0
    1.5567   68.3352   63.7836 H   0  0  0  0  0  0
    6.0829   69.6549   65.2456 H   0  0  0  0  0  0
    0.9813   61.7172   70.3616 H   0  0  0  0  0  0
   -0.7315   63.7099   70.8242 H   0  0  0  0  0  0
    3.6372   61.7277   69.2071 H   0  0  0  0  0  0
    4.0198   63.2318   68.4193 H   0  0  0  0  0  0
    0.6759   67.4751   65.3401 H   0  0  0  0  0  0
    6.8313   69.3077   63.0666 H   0  0  0  0  0  0
    5.7739   68.7641   61.7774 H   0  0  0  0  0  0
    0.7446   68.1605   69.0541 H   0  0  0  0  0  0
    1.4009   66.9591   70.7687 H   0  0  0  0  0  0
   -0.3255   66.6502   70.7742 H   0  0  0  0  0  0
   -0.9967   68.8479   67.3270 H   0  0  0  0  0  0
   -1.4438   67.5621   66.2593 H   0  0  0  0  0  0
   -1.4659   66.9002   68.6688 H   0  0  0  0  0  0
   -0.4540   65.8566   67.6887 H   0  0  0  0  0  0
    5.9421   64.6063   71.1623 H   0  0  0  0  0  0
    5.3287   64.9055   69.5530 H   0  0  0  0  0  0
    4.2554   65.0480   70.9475 H   0  0  0  0  0  0
    5.3294   62.5075   72.3291 H   0  0  0  0  0  0
    3.6065   62.8525   72.1498 H   0  0  0  0  0  0
    4.2862   61.3476   71.5254 H   0  0  0  0  0  0
    5.3612   70.7804   68.6076 H   0  0  0  0  0  0
    6.2762   69.7086   67.5524 H   0  0  0  0  0  0
    5.6944   71.2852   66.9560 H   0  0  0  0  0  0
  1  2  2  0  0  0
  1  3  1  0  0  0
  1  4  1  0  0  0
  2  5  1  0  0  0
  2 19  1  0  0  0
  3  8  2  0  0  0
  3 27  1  0  0  0
  4 13  2  0  0  0
  4 15  1  0  0  0
  5  9  2  0  0  0
  5 28  1  0  0  0
  6  7  1  0  0  0
  6 14  1  0  0  0
  6 11  2  0  0  0
  7 10  1  0  0  0
  8  9  1  0  0  0
  8 18  1  0  0  0
  9 16  1  0  0  0
 10 21  1  0  0  0
 10 12  2  0  0  0
 11 12  1  0  0  0
 11 29  1  0  0  0
 12 30  1  0  0  0
 14 17  1  0  0  0
 14 31  1  0  0  0
 14 32  1  0  0  0
 15 22  1  0  0  0
 15 33  1  0  0  0
 16 34  1  0  0  0
 16 35  1  0  0  0
 17 24  1  0  0  0
 17 25  1  0  0  0
 19 26  1  0  0  0
 20 23  1  0  0  0
 20 21  1  0  0  0
 20 36  1  0  0  0
 21 37  1  0  0  0
 21 38  1  0  0  0
 22 23  1  0  0  0
 22 39  1  0  0  0
 22 40  1  0  0  0
 23 41  1  0  0  0
 23 42  1  0  0  0
 24 43  1  0  0  0
 24 44  1  0  0  0
 24 45  1  0  0  0
 25 46  1  0  0  0
 25 47  1  0  0  0
 25 48  1  0  0  0
 26 49  1  0  0  0
 26 50  1  0  0  0
 26 51  1  0  0  0
M  END
> <s_m_entry_id>
8586

> <s_m_entry_name>
dock_pv.96

> <s_m_Source_Path>
/home/csk/Desktop/cluster/DUD-E-result/aces

> <s_m_Source_File>
dock_pv.maegz

> <i_m_Source_File_Index>
96

> <chembl_id>
CHEMBL152722

> <chembl_pref_name>
None

> <i_lp_mmshare_version>
53161

> <i_f3d_flags>
0

> <r_lp_tautomer_probability>
1

> <s_lp_Force_Field>
OPLS_2005

> <r_lp_Energy>
25.34201

> <b_lp_Chiralities_Consistent>
1

> <s_lp_Variant>
CHEMBL220_lig179-1

> <s_i_glide_gridfile>
glide-grid_1e66

> <i_i_glide_lignum>
195

> <i_i_glide_rotatable_bonds>
10

> <r_i_docking_score>
-7.92644897994211

> <r_i_glide_ligand_efficiency>
-0.304863422305466

> <r_i_glide_ligand_efficiency_sa>
-0.903156689000301

> <r_i_glide_ligand_efficiency_ln>
-1.86150053413893

> <r_i_glide_gscore>
-7.92644897994211

> <r_i_glide_lipo>
-4.2665953809785

> <r_i_glide_hbond>
-0.269123045161665

> <r_i_glide_metal>
0

> <r_i_glide_rewards>
-1.51515186490188

> <r_i_glide_evdw>
-47.6670799255371

> <r_i_glide_ecoul>
-3.60582542419434

> <r_i_glide_erotb>
1.07017320747695

> <r_i_glide_esite>
-0.0215240864710027

> <r_i_glide_emodel>
-74.0515714477745

> <r_i_glide_energy>
-51.2729053497314

> <r_i_glide_einternal>
2.74237203598022

> <i_i_glide_confnum>
50

> <i_i_glide_posenum>
8

> <r_i_glide_eff_state_penalty>
0

> <s_user_duplicate_titles>
CHEMBL220_lig179

> <s_m_subgroup_title>
dock_pv

> <s_m_subgroupid>
dock_pv

> <b_m_subgroup_collapsed>
0

$$$$
CHEMBL220_lig234
                    3D
 Schrodinger Suite 2021-1.
 54 56  0  0  1  0            999 V2000
    0.0399   67.7969   68.2497 C   0  0  0  0  0  0
   -1.1216   66.5080   68.3489 S   0  0  0  0  0  0
   -0.0162   65.5488   69.3289 C   0  0  0  0  0  0
    1.1430   67.5655   69.0336 C   0  0  0  0  0  0
    1.1853   66.2520   69.5626 C   0  0  0  0  0  0
    4.1858   68.6330   63.4439 N   0  3  2  0  0  0
   -0.1867   64.2399   69.8042 C   0  0  0  0  0  0
    4.7430   65.1607   63.1680 N   0  0  0  0  0  0
   -0.2854   68.9894   67.4902 C   0  0  0  0  0  0
    0.8505   63.6166   70.5075 C   0  0  0  0  0  0
    2.2277   65.5873   70.2138 C   0  0  0  0  0  0
    2.0856   64.2576   70.6251 C   0  0  0  0  0  0
    4.5251   66.2278   62.7790 C   0  0  0  0  0  0
   -0.1122   70.1079   67.9680 O   0  0  0  0  0  0
   -0.7985   68.8424   66.0463 C   0  0  0  0  0  0
    4.0035   68.0253   64.8707 C   0  0  0  0  0  0
    3.0476   69.6480   63.1423 C   0  0  0  0  0  0
    4.2369   67.5844   62.2873 C   0  0  0  0  0  0
    0.7269   62.3541   71.0553 O   0  0  0  0  0  0
    3.1346   63.5388   71.1625 O   0  0  0  0  0  0
    0.0814   67.9523   65.1288 C   0  0  0  0  0  0
    5.5232   69.4173   63.4541 C   0  0  0  0  0  0
    1.5093   68.4940   64.8261 C   0  0  2  0  0  0
    1.6509   69.0171   63.3788 C   0  0  0  0  0  0
    2.5911   67.4178   65.0297 C   0  0  0  0  0  0
   -0.5451   61.9615   71.5678 C   0  0  0  0  0  0
    4.4599   63.8921   70.7748 C   0  0  0  0  0  0
    1.9365   68.2868   69.1666 H   0  0  0  0  0  0
   -1.0914   63.7080   69.5680 H   0  0  0  0  0  0
    3.1489   66.1080   70.3710 H   0  0  0  0  0  0
   -0.8951   69.8339   65.6105 H   0  0  0  0  0  0
   -1.8084   68.4340   66.0913 H   0  0  0  0  0  0
    4.8050   67.3080   65.0362 H   0  0  0  0  0  0
    4.1416   68.8407   65.5842 H   0  0  0  0  0  0
    3.2148   70.4675   63.8391 H   0  0  0  0  0  0
    3.1860   70.0109   62.1222 H   0  0  0  0  0  0
    4.9919   67.9056   61.5680 H   0  0  0  0  0  0
    3.2700   67.5715   61.7896 H   0  0  0  0  0  0
   -0.4571   67.7836   64.1953 H   0  0  0  0  0  0
    0.1398   66.9542   65.5681 H   0  0  0  0  0  0
    5.4917   70.1705   64.2439 H   0  0  0  0  0  0
    6.3318   68.7064   63.6300 H   0  0  0  0  0  0
    5.6407   69.8957   62.4801 H   0  0  0  0  0  0
    1.7366   69.3080   65.5165 H   0  0  0  0  0  0
    0.8790   69.7592   63.1681 H   0  0  0  0  0  0
    1.4310   68.2217   62.6661 H   0  0  0  0  0  0
    2.4224   66.5686   64.3681 H   0  0  0  0  0  0
    2.4921   66.9971   66.0303 H   0  0  0  0  0  0
   -0.5114   60.9091   71.8496 H   0  0  0  0  0  0
   -0.7852   62.5361   72.4633 H   0  0  0  0  0  0
   -1.3646   62.0850   70.8640 H   0  0  0  0  0  0
    5.1430   63.1416   71.1680 H   0  0  0  0  0  0
    4.5716   63.9039   69.6891 H   0  0  0  0  0  0
    4.7693   64.8603   71.1680 H   0  0  0  0  0  0
  1  2  1  0  0  0
  1  4  2  0  0  0
  1  9  1  0  0  0
  2  3  1  0  0  0
  3  7  2  0  0  0
  3  5  1  0  0  0
  4  5  1  0  0  0
  4 28  1  0  0  0
  5 11  2  0  0  0
  6 17  1  0  0  0
  6 18  1  0  0  0
  6 22  1  0  0  0
  6 16  1  0  0  0
  7 10  1  0  0  0
  7 29  1  0  0  0
  8 13  3  0  0  0
  9 14  2  0  0  0
  9 15  1  0  0  0
 10 19  1  0  0  0
 10 12  2  0  0  0
 11 12  1  0  0  0
 11 30  1  0  0  0
 12 20  1  0  0  0
 13 18  1  0  0  0
 15 21  1  0  0  0
 15 31  1  0  0  0
 15 32  1  0  0  0
 16 25  1  0  0  0
 16 33  1  0  0  0
 16 34  1  0  0  0
 17 24  1  0  0  0
 17 35  1  0  0  0
 17 36  1  0  0  0
 18 37  1  0  0  0
 18 38  1  0  0  0
 19 26  1  0  0  0
 20 27  1  0  0  0
 21 23  1  0  0  0
 21 39  1  0  0  0
 21 40  1  0  0  0
 22 41  1  0  0  0
 22 42  1  0  0  0
 22 43  1  0  0  0
 23 24  1  0  0  0
 23 25  1  0  0  0
 23 44  1  0  0  0
 24 45  1  0  0  0
 24 46  1  0  0  0
 25 47  1  0  0  0
 25 48  1  0  0  0
 26 49  1  0  0  0
 26 50  1  0  0  0
 26 51  1  0  0  0
 27 52  1  0  0  0
 27 53  1  0  0  0
 27 54  1  0  0  0
M  CHG  1   6   1
M  END
> <s_m_entry_id>
8587

> <s_m_entry_name>
dock_pv.97

> <s_m_Source_Path>
/home/csk/Desktop/cluster/DUD-E-result/aces

> <s_m_Source_File>
dock_pv.maegz

> <i_m_Source_File_Index>
97

> <chembl_id>
CHEMBL314502

> <chembl_pref_name>
None

> <i_lp_mmshare_version>
53161

> <i_f3d_flags>
0

> <r_lp_tautomer_probability>
0.99990000499975

> <s_lp_Force_Field>
OPLS_2005

> <r_lp_Energy>
40.411919

> <b_lp_Chiralities_Consistent>
1

> <s_lp_Variant>
CHEMBL220_lig234-2

> <s_i_glide_gridfile>
glide-grid_1e66

> <i_i_glide_lignum>
266

> <i_i_glide_rotatable_bonds>
7

> <r_i_docking_score>
-7.92568464666919

> <r_i_glide_ligand_efficiency>
-0.293543875802562

> <r_i_glide_ligand_efficiency_sa>
-0.880631626440215

> <r_i_glide_ligand_efficiency_ln>
-1.84496872062115

> <r_i_glide_gscore>
-7.92568464666919

> <r_i_glide_lipo>
-3.20351246586628

> <r_i_glide_hbond>
-0.32

> <r_i_glide_metal>
0

> <r_i_glide_rewards>
-2.751840605824

> <r_i_glide_evdw>
-30.9836597442627

> <r_i_glide_ecoul>
-4.65826082229614

> <r_i_glide_erotb>
0.648419711544245

> <r_i_glide_esite>
-0.0508291759655935

> <r_i_glide_emodel>
-41.4629007703531

> <r_i_glide_energy>
-35.6419205665588

> <r_i_glide_einternal>
21.3119239807129

> <i_i_glide_confnum>
8

> <i_i_glide_posenum>
375

> <r_i_glide_eff_state_penalty>
0

> <s_user_duplicate_titles>
CHEMBL220_lig234

> <s_m_subgroup_title>
dock_pv

> <s_m_subgroupid>
dock_pv

> <b_m_subgroup_collapsed>
0

$$$$
CHEMBL220_lig403
                    3D
 Schrodinger Suite 2021-1.
 50 53  0  0  1  0            999 V2000
    1.0519   68.5081   63.9230 C   0  0  0  0  0  0
    0.1611   69.0010   66.3422 C   0  0  0  0  0  0
   -0.0379   68.3453   67.7405 C   0  0  0  0  0  0
   -0.9774   67.1100   67.8054 C   0  0  0  0  0  0
   -0.8192   66.1873   69.0380 C   0  0  0  0  0  0
    0.5708   65.9542   69.4558 N   0  0  1  0  0  0
    1.2053   67.2401   69.7620 C   0  0  0  0  0  0
    1.2652   68.1674   68.5277 C   0  0  0  0  0  0
    0.6064   65.0125   70.5912 C   0  0  0  0  0  0
    1.8551   64.1266   70.7248 C   0  0  0  0  0  0
    3.0901   64.4579   70.1558 C   0  0  0  0  0  0
    4.2111   63.6587   70.3675 C   0  0  0  0  0  0
    4.1061   62.5243   71.1665 C   0  0  0  0  0  0
    2.8898   62.1904   71.7592 C   0  0  0  0  0  0
    1.7724   62.9966   71.5467 C   0  0  0  0  0  0
    0.3413   67.9974   65.1797 C   0  0  0  0  0  0
    0.2477   68.7284   62.8523 N   0  0  0  0  0  0
    0.8710   69.1031   61.7109 C   0  0  0  0  0  0
    2.2015   69.2777   61.5312 N   0  0  0  0  0  0
    2.4720   68.6686   63.8778 C   0  0  0  0  0  0
    3.0044   69.0639   62.6100 C   0  0  0  0  0  0
    4.4007   69.2464   62.4630 C   0  0  0  0  0  0
    5.2484   69.0537   63.5494 C   0  0  0  0  0  0
    4.7355   68.6688   64.7850 C   0  0  0  0  0  0
    3.3671   68.4671   64.9613 C   0  0  0  0  0  0
    1.0286   69.6612   66.3744 H   0  0  0  0  0  0
   -0.6896   69.6506   66.1230 H   0  0  0  0  0  0
   -0.5480   69.0796   68.3660 H   0  0  0  0  0  0
   -2.0170   67.3908   67.6249 H   0  0  0  0  0  0
   -0.7380   66.4374   66.9824 H   0  0  0  0  0  0
   -1.4191   66.5291   69.8794 H   0  0  0  0  0  0
   -1.2491   65.2248   68.7686 H   0  0  0  0  0  0
    0.6666   67.7078   70.5825 H   0  0  0  0  0  0
    2.2166   67.0904   70.1337 H   0  0  0  0  0  0
    1.9428   67.7082   67.8244 H   0  0  0  0  0  0
    1.7171   69.1298   68.7684 H   0  0  0  0  0  0
    0.4872   65.5703   71.5214 H   0  0  0  0  0  0
   -0.2442   64.3302   70.5426 H   0  0  0  0  0  0
    3.1917   65.3349   69.5462 H   0  0  0  0  0  0
    5.1568   63.9250   69.9180 H   0  0  0  0  0  0
    4.9737   61.9042   71.3376 H   0  0  0  0  0  0
    2.8141   61.3174   72.3897 H   0  0  0  0  0  0
    0.8374   62.7368   72.0226 H   0  0  0  0  0  0
   -0.6693   67.7014   64.9011 H   0  0  0  0  0  0
    0.8613   67.0961   65.5089 H   0  0  0  0  0  0
    0.2465   69.2675   60.8458 H   0  0  0  0  0  0
    4.8056   69.5411   61.5037 H   0  0  0  0  0  0
    6.3117   69.2116   63.4350 H   0  0  0  0  0  0
    5.4077   68.5297   65.6203 H   0  0  0  0  0  0
    2.9898   68.1704   65.9266 H   0  0  0  0  0  0
  1 16  1  0  0  0
  1 17  2  0  0  0
  1 20  1  0  0  0
  2 16  1  0  0  0
  2  3  1  0  0  0
  2 26  1  0  0  0
  2 27  1  0  0  0
  3  4  1  0  0  0
  3  8  1  0  0  0
  3 28  1  0  0  0
  4  5  1  0  0  0
  4 29  1  0  0  0
  4 30  1  0  0  0
  5  6  1  0  0  0
  5 31  1  0  0  0
  5 32  1  0  0  0
  6  7  1  0  0  0
  6  9  1  0  0  0
  7  8  1  0  0  0
  7 33  1  0  0  0
  7 34  1  0  0  0
  8 35  1  0  0  0
  8 36  1  0  0  0
  9 10  1  0  0  0
  9 37  1  0  0  0
  9 38  1  0  0  0
 10 15  1  0  0  0
 10 11  2  0  0  0
 11 12  1  0  0  0
 11 39  1  0  0  0
 12 13  2  0  0  0
 12 40  1  0  0  0
 13 14  1  0  0  0
 13 41  1  0  0  0
 14 15  2  0  0  0
 14 42  1  0  0  0
 15 43  1  0  0  0
 16 44  1  0  0  0
 16 45  1  0  0  0
 17 18  1  0  0  0
 18 19  2  0  0  0
 18 46  1  0  0  0
 19 21  1  0  0  0
 20 21  1  0  0  0
 20 25  2  0  0  0
 21 22  2  0  0  0
 22 23  1  0  0  0
 22 47  1  0  0  0
 23 24  2  0  0  0
 23 48  1  0  0  0
 24 25  1  0  0  0
 24 49  1  0  0  0
 25 50  1  0  0  0
M  END
> <s_m_entry_id>
8588

> <s_m_entry_name>
dock_pv.98

> <s_m_Source_Path>
/home/csk/Desktop/cluster/DUD-E-result/aces

> <s_m_Source_File>
dock_pv.maegz

> <i_m_Source_File_Index>
98

> <chembl_id>
CHEMBL329531

> <chembl_pref_name>
None

> <i_lp_mmshare_version>
53161

> <i_f3d_flags>
0

> <r_lp_tautomer_probability>
1

> <s_lp_Force_Field>
OPLS_2005

> <r_lp_Energy>
20.388329

> <b_lp_Chiralities_Consistent>
1

> <s_lp_Variant>
CHEMBL220_lig403-1

> <s_i_glide_gridfile>
glide-grid_1e66

> <i_i_glide_lignum>
462

> <i_i_glide_rotatable_bonds>
5

> <r_i_docking_score>
-7.91337770659508

> <r_i_glide_ligand_efficiency>
-0.316535108263803

> <r_i_glide_ligand_efficiency_sa>
-0.925554270337409

> <r_i_glide_ligand_efficiency_ln>
-1.87570766125649

> <r_i_glide_gscore>
-7.91337770659508

> <r_i_glide_lipo>
-4.10542169770168

> <r_i_glide_hbond>
0

> <r_i_glide_metal>
0

> <r_i_glide_rewards>
-2.49917727272727

> <r_i_glide_evdw>
-42.7486038208008

> <r_i_glide_ecoul>
-0.18632698059082

> <r_i_glide_erotb>
0.85660050196254

> <r_i_glide_esite>
0

> <r_i_glide_emodel>
-56.7293978903421

> <r_i_glide_energy>
-42.9349308013916

> <r_i_glide_einternal>
9.10314846038818

> <i_i_glide_confnum>
164

> <i_i_glide_posenum>
53

> <r_i_glide_eff_state_penalty>
0

> <s_user_duplicate_titles>
CHEMBL220_lig403,149995

> <s_m_subgroup_title>
dock_pv

> <s_m_subgroupid>
dock_pv

> <b_m_subgroup_collapsed>
0

$$$$
CHEMBL220_lig181
                    3D
 Schrodinger Suite 2021-1.
 52 55  0  0  1  0            999 V2000
   -0.3800   68.6957   63.1069 C   0  0  0  0  0  0
    0.3301   68.6100   64.2841 N   0  0  0  0  0  0
    0.3430   68.6234   62.0230 N   0  0  0  0  0  0
    1.6588   68.5037   63.9127 C   0  0  0  0  0  0
    1.6258   68.5379   62.4917 C   0  0  0  0  0  0
    0.7258   65.2221   70.2269 C   0  0  0  0  0  0
   -0.4570   65.2810   69.5628 O   0  0  0  0  0  0
   -0.5124   66.4720   68.9099 C   0  0  0  0  0  0
    1.4491   66.3758   69.9684 C   0  0  0  0  0  0
    1.7315   62.9667   70.1990 N   0  0  0  0  0  0
    0.6729   67.1622   69.1262 C   0  0  0  0  0  0
   -1.7310   68.9080   63.1680 O   0  0  0  0  0  0
    1.0096   63.9526   71.0082 C   0  0  0  0  0  0
   -0.2021   68.8360   65.6276 C   0  0  0  0  0  0
   -1.6823   67.9667   67.3362 N   0  0  1  0  0  0
    2.8629   68.4245   64.6248 C   0  0  0  0  0  0
   -1.8107   66.7922   68.1816 C   0  0  0  0  0  0
    2.8246   68.5081   61.7656 C   0  0  0  0  0  0
    3.0829   63.4379   69.8655 C   0  0  0  0  0  0
    1.7603   61.6438   70.8419 C   0  0  0  0  0  0
   -0.9801   67.6215   66.1106 C   0  0  0  0  0  0
    4.0387   68.3881   63.8687 C   0  0  0  0  0  0
    3.7640   62.4679   68.9006 C   0  0  0  0  0  0
    2.4797   60.5934   69.9612 C   0  0  0  0  0  0
    4.0246   68.4303   62.4735 C   0  0  0  0  0  0
    3.8708   61.0576   69.5003 C   0  0  0  0  0  0
    2.4272   66.6178   70.3573 H   0  0  0  0  0  0
    0.9156   68.1459   68.7512 H   0  0  0  0  0  0
   -1.9075   69.7757   63.5680 H   0  0  0  0  0  0
    1.5829   64.1737   71.9097 H   0  0  0  0  0  0
    0.0705   63.5189   71.3565 H   0  0  0  0  0  0
    0.6278   69.0554   66.3008 H   0  0  0  0  0  0
   -0.8569   69.7079   65.5816 H   0  0  0  0  0  0
   -2.6048   68.3261   67.1252 H   0  0  0  0  0  0
    2.8932   68.4103   65.7047 H   0  0  0  0  0  0
   -2.5986   66.9643   68.9149 H   0  0  0  0  0  0
   -2.1776   65.9729   67.5681 H   0  0  0  0  0  0
    2.8203   68.5472   60.6868 H   0  0  0  0  0  0
    3.0414   64.4067   69.3700 H   0  0  0  0  0  0
    3.6668   63.5821   70.7769 H   0  0  0  0  0  0
    2.2311   61.7183   71.8240 H   0  0  0  0  0  0
    0.7331   61.3182   71.0162 H   0  0  0  0  0  0
   -1.7167   67.3080   65.3772 H   0  0  0  0  0  0
   -0.2948   66.7774   66.2209 H   0  0  0  0  0  0
    4.9902   68.3429   64.3799 H   0  0  0  0  0  0
    3.2256   62.4758   67.9536 H   0  0  0  0  0  0
    4.7430   62.8667   68.6731 H   0  0  0  0  0  0
    2.5726   59.6613   70.5196 H   0  0  0  0  0  0
    1.8576   60.3458   69.1025 H   0  0  0  0  0  0
    4.9605   68.4153   61.9294 H   0  0  0  0  0  0
    4.5540   61.0711   70.3512 H   0  0  0  0  0  0
    4.2896   60.3608   68.7728 H   0  0  0  0  0  0
  1  2  1  0  0  0
  1  3  2  0  0  0
  1 12  1  0  0  0
  2  4  1  0  0  0
  2 14  1  0  0  0
  3  5  1  0  0  0
  4 16  2  0  0  0
  4  5  1  0  0  0
  5 18  2  0  0  0
  6  7  1  0  0  0
  6 13  1  0  0  0
  6  9  2  0  0  0
  7  8  1  0  0  0
  8 17  1  0  0  0
  8 11  2  0  0  0
  9 11  1  0  0  0
  9 27  1  0  0  0
 10 13  1  0  0  0
 10 19  1  0  0  0
 10 20  1  0  0  0
 11 28  1  0  0  0
 12 29  1  0  0  0
 13 30  1  0  0  0
 13 31  1  0  0  0
 14 21  1  0  0  0
 14 32  1  0  0  0
 14 33  1  0  0  0
 15 21  1  0  0  0
 15 17  1  0  0  0
 15 34  1  0  0  0
 16 22  1  0  0  0
 16 35  1  0  0  0
 17 36  1  0  0  0
 17 37  1  0  0  0
 18 25  1  0  0  0
 18 38  1  0  0  0
 19 23  1  0  0  0
 19 39  1  0  0  0
 19 40  1  0  0  0
 20 24  1  0  0  0
 20 41  1  0  0  0
 20 42  1  0  0  0
 21 43  1  0  0  0
 21 44  1  0  0  0
 22 25  2  0  0  0
 22 45  1  0  0  0
 23 26  1  0  0  0
 23 46  1  0  0  0
 23 47  1  0  0  0
 24 26  1  0  0  0
 24 48  1  0  0  0
 24 49  1  0  0  0
 25 50  1  0  0  0
 26 51  1  0  0  0
 26 52  1  0  0  0
M  END
> <s_m_entry_id>
8589

> <s_m_entry_name>
dock_pv.99

> <s_m_Source_Path>
/home/csk/Desktop/cluster/DUD-E-result/aces

> <s_m_Source_File>
dock_pv.maegz

> <i_m_Source_File_Index>
99

> <chembl_id>
CHEMBL156659

> <chembl_pref_name>
None

> <i_lp_mmshare_version>
53161

> <i_f3d_flags>
0

> <r_lp_tautomer_probability>
1

> <s_lp_Force_Field>
OPLS_2005

> <r_lp_Energy>
20.033576

> <b_lp_Chiralities_Consistent>
1

> <s_lp_Variant>
CHEMBL220_lig181-1

> <s_i_glide_gridfile>
glide-grid_1e66

> <i_i_glide_lignum>
197

> <i_i_glide_rotatable_bonds>
8

> <r_i_docking_score>
-7.9070089514256

> <r_i_glide_ligand_efficiency>
-0.304115728900985

> <r_i_glide_ligand_efficiency_sa>
-0.900941650231557

> <r_i_glide_ligand_efficiency_ln>
-1.85693510722976

> <r_i_glide_gscore>
-7.9070089514256

> <r_i_glide_lipo>
-3.48104157757586

> <r_i_glide_hbond>
-0.32

> <r_i_glide_metal>
0

> <r_i_glide_rewards>
-2.2523549511013

> <r_i_glide_evdw>
-38.6370811462402

> <r_i_glide_ecoul>
-6.57646131515503

> <r_i_glide_erotb>
1.06471083183683

> <r_i_glide_esite>
0

> <r_i_glide_emodel>
-59.4658709962593

> <r_i_glide_energy>
-45.2135424613953

> <r_i_glide_einternal>
6.09900617599487

> <i_i_glide_confnum>
60

> <i_i_glide_posenum>
242

> <r_i_glide_eff_state_penalty>
0

> <s_user_duplicate_titles>
CHEMBL220_lig181

> <s_m_subgroup_title>
dock_pv

> <s_m_subgroupid>
dock_pv

> <b_m_subgroup_collapsed>
0

$$$$
CHEMBL220_lig277
                    3D
 Schrodinger Suite 2021-1.
 30 32  0  0  1  0            999 V2000
    1.9535   68.8898   65.9048 C   0  0  0  0  0  0
    3.2539   69.0928   65.3985 C   0  0  0  0  0  0
    1.6958   69.3009   67.2324 C   0  0  0  0  0  0
    2.6327   69.8894   68.0133 N   0  0  0  0  0  0
    4.2515   69.7072   66.2145 C   0  0  0  0  0  0
    3.8770   70.1079   67.5289 C   0  0  0  0  0  0
    0.8910   68.0933   65.1239 C   0  0  1  0  0  0
    3.5600   68.6730   64.0979 N   0  0  0  0  0  0
    0.3215   69.1384   67.8809 C   0  0  0  0  0  0
    1.1429   66.7019   65.1667 O   0  0  0  0  0  0
    5.5994   69.9214   65.8056 C   0  0  0  0  0  0
    4.8210   70.7368   68.3736 C   0  0  0  0  0  0
   -0.5994   68.1413   67.1676 C   0  0  0  0  0  0
   -0.5333   68.3594   65.6544 C   0  0  0  0  0  0
    6.5179   70.4971   66.6781 C   0  0  0  0  0  0
    6.1333   70.9081   67.9488 C   0  0  0  0  0  0
    0.9104   68.3754   64.0701 H   0  0  0  0  0  0
    2.8511   68.1988   63.5576 H   0  0  0  0  0  0
    4.4623   68.8950   63.7031 H   0  0  0  0  0  0
    0.4426   68.8290   68.9173 H   0  0  0  0  0  0
   -0.1641   70.1146   67.9032 H   0  0  0  0  0  0
    0.3365   66.2588   64.8729 H   0  0  0  0  0  0
    5.9253   69.6227   64.8203 H   0  0  0  0  0  0
    4.5224   71.0397   69.3668 H   0  0  0  0  0  0
   -1.6229   68.2575   67.5259 H   0  0  0  0  0  0
   -0.3069   67.1173   67.4119 H   0  0  0  0  0  0
   -0.8560   69.3675   65.3918 H   0  0  0  0  0  0
   -1.2509   67.7090   65.1540 H   0  0  0  0  0  0
    7.5421   70.6216   66.3579 H   0  0  0  0  0  0
    6.8575   71.3619   68.6103 H   0  0  0  0  0  0
  1  2  2  0  0  0
  1  3  1  0  0  0
  1  7  1  0  0  0
  2  5  1  0  0  0
  2  8  1  0  0  0
  3  4  2  0  0  0
  3  9  1  0  0  0
  4  6  1  0  0  0
  5 11  2  0  0  0
  5  6  1  0  0  0
  6 12  2  0  0  0
  7 10  1  0  0  0
  7 14  1  0  0  0
  7 17  1  0  0  0
  8 18  1  0  0  0
  8 19  1  0  0  0
  9 13  1  0  0  0
  9 20  1  0  0  0
  9 21  1  0  0  0
 10 22  1  0  0  0
 11 15  1  0  0  0
 11 23  1  0  0  0
 12 16  1  0  0  0
 12 24  1  0  0  0
 13 14  1  0  0  0
 13 25  1  0  0  0
 13 26  1  0  0  0
 14 27  1  0  0  0
 14 28  1  0  0  0
 15 16  2  0  0  0
 15 29  1  0  0  0
 16 30  1  0  0  0
M  END
> <s_m_entry_id>
8590

> <s_m_entry_name>
dock_pv.100

> <s_m_Source_Path>
/home/csk/Desktop/cluster/DUD-E-result/aces

> <s_m_Source_File>
dock_pv.maegz

> <i_m_Source_File_Index>
100

> <chembl_id>
CHEMBL51934

> <chembl_pref_name>
VELNACRINE

> <i_lp_mmshare_version>
53161

> <i_f3d_flags>
0

> <r_lp_tautomer_probability>
1

> <s_lp_Force_Field>
OPLS_2005

> <r_lp_Energy>
20.009051

> <b_lp_Chiralities_Consistent>
1

> <s_lp_Variant>
CHEMBL220_lig277-2

> <s_i_glide_gridfile>
glide-grid_1e66

> <i_i_glide_lignum>
327

> <i_i_glide_rotatable_bonds>
1

> <r_i_docking_score>
-7.90170105172046

> <r_i_glide_ligand_efficiency>
-0.493856315732529

> <r_i_glide_ligand_efficiency_sa>
-1.24443993447978

> <r_i_glide_ligand_efficiency_ln>
-2.09450370381992

> <r_i_glide_gscore>
-7.90170105172046

> <r_i_glide_lipo>
-3.02441464191112

> <r_i_glide_hbond>
-0.32

> <r_i_glide_metal>
0

> <r_i_glide_rewards>
-2.63153974242424

> <r_i_glide_evdw>
-28.7224807739258

> <r_i_glide_ecoul>
-3.26415085792542

> <r_i_glide_erotb>
0

> <r_i_glide_esite>
0

> <r_i_glide_emodel>
-46.9773315088663

> <r_i_glide_energy>
-31.9866316318512

> <r_i_glide_einternal>
0.410643309354782

> <i_i_glide_confnum>
1

> <i_i_glide_posenum>
196

> <r_i_glide_eff_state_penalty>
0

> <s_user_duplicate_titles>
CHEMBL220_lig277,79946

> <s_m_subgroup_title>
dock_pv

> <s_m_subgroupid>
dock_pv

> <b_m_subgroup_collapsed>
0

$$$$
CHEMBL220_lig277
                    3D
 Schrodinger Suite 2021-1.
 30 32  0  0  1  0            999 V2000
    4.2376   69.5797   66.3692 C   0  0  0  0  0  0
    3.3089   68.9253   65.5245 C   0  0  0  0  0  0
    3.7355   70.1080   67.5833 C   0  0  0  0  0  0
    2.4444   69.9747   67.9680 N   0  0  0  0  0  0
    1.9459   68.7710   65.9246 C   0  0  0  0  0  0
    1.5645   69.3184   67.1799 C   0  0  0  0  0  0
    5.6780   69.9369   65.9255 C   0  0  2  0  0  0
    3.7259   68.4585   64.2740 N   0  0  0  0  0  0
    4.6241   70.8209   68.6042 C   0  0  0  0  0  0
    6.3430   68.9384   65.1680 O   0  0  0  0  0  0
    0.9363   68.1483   65.1314 C   0  0  0  0  0  0
    0.2195   69.2456   67.6090 C   0  0  0  0  0  0
    5.9426   71.3403   68.0280 C   0  0  0  0  0  0
    6.5897   70.3061   67.1037 C   0  0  0  0  0  0
   -0.3874   68.1244   65.5670 C   0  0  0  0  0  0
   -0.7443   68.6596   66.7974 C   0  0  0  0  0  0
    5.6044   70.7986   65.2595 H   0  0  0  0  0  0
    4.7129   68.5523   64.0606 H   0  0  0  0  0  0
    3.0617   68.0944   63.6095 H   0  0  0  0  0  0
    4.0733   71.6320   69.0833 H   0  0  0  0  0  0
    4.8544   70.1081   69.3956 H   0  0  0  0  0  0
    7.1799   69.3080   64.8384 H   0  0  0  0  0  0
    1.1822   67.7299   64.1674 H   0  0  0  0  0  0
   -0.0563   69.6798   68.5602 H   0  0  0  0  0  0
    6.6254   71.5992   68.8385 H   0  0  0  0  0  0
    5.7614   72.2675   67.4899 H   0  0  0  0  0  0
    6.8458   69.4038   67.6573 H   0  0  0  0  0  0
    7.5440   70.6644   66.7247 H   0  0  0  0  0  0
   -1.1552   67.7080   64.9350 H   0  0  0  0  0  0
   -1.7764   68.6346   67.1181 H   0  0  0  0  0  0
  1  2  2  0  0  0
  1  3  1  0  0  0
  1  7  1  0  0  0
  2  5  1  0  0  0
  2  8  1  0  0  0
  3  4  2  0  0  0
  3  9  1  0  0  0
  4  6  1  0  0  0
  5 11  2  0  0  0
  5  6  1  0  0  0
  6 12  2  0  0  0
  7 10  1  0  0  0
  7 14  1  0  0  0
  7 17  1  0  0  0
  8 18  1  0  0  0
  8 19  1  0  0  0
  9 13  1  0  0  0
  9 20  1  0  0  0
  9 21  1  0  0  0
 10 22  1  0  0  0
 11 15  1  0  0  0
 11 23  1  0  0  0
 12 16  1  0  0  0
 12 24  1  0  0  0
 13 14  1  0  0  0
 13 25  1  0  0  0
 13 26  1  0  0  0
 14 27  1  0  0  0
 14 28  1  0  0  0
 15 16  2  0  0  0
 15 29  1  0  0  0
 16 30  1  0  0  0
M  END
> <s_m_entry_id>
8591

> <s_m_entry_name>
dock_pv.101

> <s_m_Source_Path>
/home/csk/Desktop/cluster/DUD-E-result/aces

> <s_m_Source_File>
dock_pv.maegz

> <i_m_Source_File_Index>
101

> <chembl_id>
CHEMBL51934

> <chembl_pref_name>
VELNACRINE

> <i_lp_mmshare_version>
53161

> <i_f3d_flags>
0

> <r_lp_tautomer_probability>
1

> <s_lp_Force_Field>
OPLS_2005

> <r_lp_Energy>
20.00905

> <b_lp_Chiralities_Consistent>
1

> <s_lp_Variant>
CHEMBL220_lig277-1

> <s_i_glide_gridfile>
glide-grid_1e66

> <i_i_glide_lignum>
326

> <i_i_glide_rotatable_bonds>
1

> <r_i_docking_score>
-7.88326259826123

> <r_i_glide_ligand_efficiency>
-0.492703912391327

> <r_i_glide_ligand_efficiency_sa>
-1.24153606002736

> <r_i_glide_ligand_efficiency_ln>
-2.08961622341408

> <r_i_glide_gscore>
-7.88326259826123

> <r_i_glide_lipo>
-3.09643318509446

> <r_i_glide_hbond>
-0.32

> <r_i_glide_metal>
0

> <r_i_glide_rewards>
-2.31908347009731

> <r_i_glide_evdw>
-27.4175758361816

> <r_i_glide_ecoul>
-5.17911434173584

> <r_i_glide_erotb>
0

> <r_i_glide_esite>
0

> <r_i_glide_emodel>
-48.960865929584

> <r_i_glide_energy>
-32.5966901779175

> <r_i_glide_einternal>
0.0566034764051437

> <i_i_glide_confnum>
2

> <i_i_glide_posenum>
123

> <r_i_glide_eff_state_penalty>
0

> <s_user_duplicate_titles>
CHEMBL220_lig277

> <s_m_subgroup_title>
dock_pv

> <s_m_subgroupid>
dock_pv

> <b_m_subgroup_collapsed>
0

$$$$
CHEMBL220_lig827
                    3D
 Schrodinger Suite 2021-1.
 32 34  0  0  1  0            999 V2000
    1.8411   68.9024   66.0841 N   0  0  0  0  0  0
    4.4086   69.3713   64.9025 C   0  0  0  0  0  0
    3.3629   68.6293   64.2997 N   0  0  0  0  0  0
    4.1585   69.7081   66.3661 C   0  0  0  0  0  0
    2.0808   68.5351   64.8884 C   0  0  0  0  0  0
    2.8425   69.5059   66.8466 C   0  0  0  0  0  0
    5.1126   70.2005   67.2922 C   0  0  0  0  0  0
    5.4671   69.8691   64.2150 C   0  0  0  0  0  0
    3.5765   68.0698   62.9529 C   0  0  0  0  0  0
    6.8225   70.1784   67.0292 Cl  0  0  0  0  0  0
    0.8727   68.1097   64.0517 C   0  0  0  0  0  0
    2.4598   69.9062   68.1287 C   0  0  0  0  0  0
    3.3844   70.5087   68.9690 C   0  0  0  0  0  0
    4.7043   70.6510   68.5503 C   0  0  0  0  0  0
    2.9900   68.9370   61.8171 C   0  0  0  0  0  0
    0.5661   69.0264   62.8456 C   0  0  0  0  0  0
    1.4648   68.8545   61.6117 C   0  0  0  0  0  0
    6.2156   70.5095   64.6432 H   0  0  0  0  0  0
    5.6160   69.6714   63.1655 H   0  0  0  0  0  0
    3.1427   67.0732   62.9172 H   0  0  0  0  0  0
    4.6248   67.8543   62.7521 H   0  0  0  0  0  0
   -0.0183   68.1310   64.6850 H   0  0  0  0  0  0
    0.9375   67.0627   63.7771 H   0  0  0  0  0  0
    1.4439   69.7637   68.4721 H   0  0  0  0  0  0
    3.0884   70.8304   69.9599 H   0  0  0  0  0  0
    5.4335   71.0540   69.2367 H   0  0  0  0  0  0
    3.4752   68.6460   60.8844 H   0  0  0  0  0  0
    3.2870   69.9745   61.9720 H   0  0  0  0  0  0
   -0.4678   68.8619   62.5380 H   0  0  0  0  0  0
    0.5979   70.0680   63.1657 H   0  0  0  0  0  0
    1.2264   67.8913   61.1721 H   0  0  0  0  0  0
    1.1731   69.5862   60.8591 H   0  0  0  0  0  0
  1  5  2  0  0  0
  1  6  1  0  0  0
  2  4  1  0  0  0
  2  8  2  0  0  0
  2  3  1  0  0  0
  3  5  1  0  0  0
  3  9  1  0  0  0
  4  6  1  0  0  0
  4  7  2  0  0  0
  5 11  1  0  0  0
  6 12  2  0  0  0
  7 10  1  0  0  0
  7 14  1  0  0  0
  8 18  1  0  0  0
  8 19  1  0  0  0
  9 15  1  0  0  0
  9 20  1  0  0  0
  9 21  1  0  0  0
 11 16  1  0  0  0
 11 22  1  0  0  0
 11 23  1  0  0  0
 12 13  1  0  0  0
 12 24  1  0  0  0
 13 14  2  0  0  0
 13 25  1  0  0  0
 14 26  1  0  0  0
 15 17  1  0  0  0
 15 27  1  0  0  0
 15 28  1  0  0  0
 16 17  1  0  0  0
 16 29  1  0  0  0
 16 30  1  0  0  0
 17 31  1  0  0  0
 17 32  1  0  0  0
M  END
> <s_m_entry_id>
8592

> <s_m_entry_name>
dock_pv.102

> <s_m_Source_Path>
/home/csk/Desktop/cluster/DUD-E-result/aces

> <s_m_Source_File>
dock_pv.maegz

> <i_m_Source_File_Index>
102

> <chembl_id>
CHEMBL1161716

> <chembl_pref_name>
None

> <i_lp_mmshare_version>
53161

> <i_f3d_flags>
0

> <r_lp_tautomer_probability>
0.999601159137504

> <s_lp_Force_Field>
OPLS_2005

> <r_lp_Energy>
28.650896

> <b_lp_Chiralities_Consistent>
1

> <s_lp_Variant>
CHEMBL220_lig827-1

> <s_i_glide_gridfile>
glide-grid_1e66

> <i_i_glide_lignum>
1023

> <i_i_glide_rotatable_bonds>
0

> <r_i_docking_score>
-7.88277908593543

> <r_i_glide_ligand_efficiency>
-0.463692887407966

> <r_i_glide_ligand_efficiency_sa>
-1.19228498398527

> <r_i_glide_ligand_efficiency_ln>
-2.056441522661

> <r_i_glide_gscore>
-7.88277908593543

> <r_i_glide_lipo>
-3.59129388594734

> <r_i_glide_hbond>
0

> <r_i_glide_metal>
0

> <r_i_glide_rewards>
-2.65424858499711

> <r_i_glide_evdw>
-32.6702079772949

> <r_i_glide_ecoul>
-0.0248414408415556

> <r_i_glide_erotb>
0

> <r_i_glide_esite>
0

> <r_i_glide_emodel>
-47.919462191052

> <r_i_glide_energy>
-32.6950494181365

> <r_i_glide_einternal>
0

> <i_i_glide_confnum>
1

> <i_i_glide_posenum>
325

> <r_i_glide_eff_state_penalty>
0

> <s_user_duplicate_titles>
CHEMBL220_lig827

> <s_m_subgroup_title>
dock_pv

> <s_m_subgroupid>
dock_pv

> <b_m_subgroup_collapsed>
0

$$$$
CHEMBL220_lig486
                    3D
 Schrodinger Suite 2021-1.
 30 33  0  0  1  0            999 V2000
    2.3824   68.7904   65.1310 C   0  0  0  0  0  0
    1.9161   69.1119   66.3982 C   0  0  0  0  0  0
    2.6603   69.6886   67.3722 N   0  0  0  0  0  0
    3.7266   68.9977   64.8331 C   0  0  0  0  0  0
    3.9737   69.9175   67.1023 C   0  0  0  0  0  0
    4.5618   69.5657   65.8442 C   0  0  0  0  0  0
    1.2369   68.3273   64.2567 C   0  0  0  0  0  0
    0.4651   68.8822   66.4444 C   0  0  0  0  0  0
    0.0479   68.5082   65.1657 C   0  0  0  0  0  0
    4.7765   70.5084   68.1110 C   0  0  0  0  0  0
    5.9429   69.7975   65.6627 C   0  0  0  0  0  0
    4.2020   68.6752   63.5579 N   0  0  0  0  0  0
    6.1423   70.6840   67.9044 C   0  0  0  0  0  0
    6.7158   70.3259   66.6904 C   0  0  0  0  0  0
    7.1418   71.3080   69.1664 Cl  0  0  0  0  0  0
   -0.4653   69.0639   67.4650 C   0  0  0  0  0  0
   -1.3133   68.4827   64.8678 C   0  0  0  0  0  0
   -1.8234   68.9070   67.1811 C   0  0  0  0  0  0
   -2.2523   68.6444   65.8836 C   0  0  0  0  0  0
    1.3465   67.3003   63.9181 H   0  0  0  0  0  0
    1.1477   68.9466   63.3638 H   0  0  0  0  0  0
    4.3284   70.7707   69.0587 H   0  0  0  0  0  0
    6.4000   69.5403   64.7207 H   0  0  0  0  0  0
    5.1228   68.9935   63.2918 H   0  0  0  0  0  0
    3.5260   68.4466   62.8452 H   0  0  0  0  0  0
    7.7731   70.4643   66.5292 H   0  0  0  0  0  0
   -0.1476   69.3463   68.4584 H   0  0  0  0  0  0
   -1.6546   68.2686   63.8657 H   0  0  0  0  0  0
   -2.5509   69.0146   67.9688 H   0  0  0  0  0  0
   -3.3081   68.5643   65.6670 H   0  0  0  0  0  0
  1  2  1  0  0  0
  1  4  2  0  0  0
  1  7  1  0  0  0
  2  3  2  0  0  0
  2  8  1  0  0  0
  3  5  1  0  0  0
  4  6  1  0  0  0
  4 12  1  0  0  0
  5  6  1  0  0  0
  5 10  2  0  0  0
  6 11  2  0  0  0
  7  9  1  0  0  0
  7 20  1  0  0  0
  7 21  1  0  0  0
  8 16  1  0  0  0
  8  9  2  0  0  0
  9 17  1  0  0  0
 10 13  1  0  0  0
 10 22  1  0  0  0
 11 14  1  0  0  0
 11 23  1  0  0  0
 12 24  1  0  0  0
 12 25  1  0  0  0
 13 14  2  0  0  0
 13 15  1  0  0  0
 14 26  1  0  0  0
 16 18  2  0  0  0
 16 27  1  0  0  0
 17 19  2  0  0  0
 17 28  1  0  0  0
 18 19  1  0  0  0
 18 29  1  0  0  0
 19 30  1  0  0  0
M  END
> <s_m_entry_id>
8593

> <s_m_entry_name>
dock_pv.103

> <s_m_Source_Path>
/home/csk/Desktop/cluster/DUD-E-result/aces

> <s_m_Source_File>
dock_pv.maegz

> <i_m_Source_File_Index>
103

> <chembl_id>
CHEMBL59730

> <chembl_pref_name>
None

> <i_lp_mmshare_version>
53161

> <i_f3d_flags>
0

> <r_lp_tautomer_probability>
1

> <s_lp_Force_Field>
OPLS_2005

> <r_lp_Energy>
35.233547

> <b_lp_Chiralities_Consistent>
1

> <s_lp_Variant>
CHEMBL220_lig486-1

> <s_i_glide_gridfile>
glide-grid_1e66

> <i_i_glide_lignum>
564

> <i_i_glide_rotatable_bonds>
0

> <r_i_docking_score>
-7.88113699593179

> <r_i_glide_ligand_efficiency>
-0.41479668399641

> <r_i_glide_ligand_efficiency_sa>
-1.10684415437407

> <r_i_glide_ligand_efficiency_ln>
-1.9980374997707

> <r_i_glide_gscore>
-7.88113699593179

> <r_i_glide_lipo>
-3.92149302656503

> <r_i_glide_hbond>
0

> <r_i_glide_metal>
0

> <r_i_glide_rewards>
-2.30389835877201

> <r_i_glide_evdw>
-30.5720291137695

> <r_i_glide_ecoul>
-0.847627699375153

> <r_i_glide_erotb>
0

> <r_i_glide_esite>
0

> <r_i_glide_emodel>
-43.7259185670735

> <r_i_glide_energy>
-31.4196568131447

> <r_i_glide_einternal>
0

> <i_i_glide_confnum>
1

> <i_i_glide_posenum>
188

> <r_i_glide_eff_state_penalty>
0

> <s_user_duplicate_titles>
CHEMBL220_lig486

> <s_m_subgroup_title>
dock_pv

> <s_m_subgroupid>
dock_pv

> <b_m_subgroup_collapsed>
0

$$$$
CHEMBL220_lig318
                    3D
 Schrodinger Suite 2021-1.
 28 28  0  0  1  0            999 V2000
    5.5650   69.7229   65.5224 N   0  3  0  0  0  0
    5.1950   68.4121   64.7799 C   0  0  0  0  0  0
    4.0462   68.4953   63.7809 C   0  0  0  0  0  0
    4.3181   68.6555   62.4190 C   0  0  0  0  0  0
    3.2708   68.7640   61.5069 C   0  0  0  0  0  0
    3.5430   68.9080   60.1762 O   0  0  0  0  0  0
    5.9327   70.8094   64.4903 C   0  0  0  0  0  0
    6.7559   69.4910   66.4792 C   0  0  0  0  0  0
    4.3828   70.2015   66.3943 C   0  0  0  0  0  0
    1.6705   68.5117   63.2976 C   0  0  0  0  0  0
    2.7178   68.3941   64.2116 C   0  0  0  0  0  0
    1.9485   68.7094   61.9456 C   0  0  0  0  0  0
    6.1198   68.1080   64.2894 H   0  0  0  0  0  0
    4.9535   67.7080   65.5680 H   0  0  0  0  0  0
    5.3397   68.7106   62.0673 H   0  0  0  0  0  0
    4.4887   68.7772   59.9680 H   0  0  0  0  0  0
    5.0464   70.9515   63.8758 H   0  0  0  0  0  0
    6.7430   70.4734   63.8517 H   0  0  0  0  0  0
    6.2118   71.7080   65.0364 H   0  0  0  0  0  0
    6.3757   68.9080   67.3124 H   0  0  0  0  0  0
    7.5435   68.9447   65.9680 H   0  0  0  0  0  0
    7.1129   70.4602   66.8304 H   0  0  0  0  0  0
    4.0694   69.3777   67.0370 H   0  0  0  0  0  0
    4.7345   71.0422   66.9936 H   0  0  0  0  0  0
    3.5756   70.5080   65.7306 H   0  0  0  0  0  0
    0.6454   68.4474   63.6352 H   0  0  0  0  0  0
    2.4888   68.2444   65.2571 H   0  0  0  0  0  0
    1.1405   68.7929   61.2329 H   0  0  0  0  0  0
  1  2  1  0  0  0
  1  7  1  0  0  0
  1  8  1  0  0  0
  1  9  1  0  0  0
  2  3  1  0  0  0
  2 13  1  0  0  0
  2 14  1  0  0  0
  3  4  1  0  0  0
  3 11  2  0  0  0
  4  5  2  0  0  0
  4 15  1  0  0  0
  5  6  1  0  0  0
  5 12  1  0  0  0
  6 16  1  0  0  0
  7 17  1  0  0  0
  7 18  1  0  0  0
  7 19  1  0  0  0
  8 20  1  0  0  0
  8 21  1  0  0  0
  8 22  1  0  0  0
  9 23  1  0  0  0
  9 24  1  0  0  0
  9 25  1  0  0  0
 10 11  1  0  0  0
 10 12  2  0  0  0
 10 26  1  0  0  0
 11 27  1  0  0  0
 12 28  1  0  0  0
M  CHG  1   1   1
M  END
> <s_m_entry_id>
8594

> <s_m_entry_name>
dock_pv.104

> <s_m_Source_Path>
/home/csk/Desktop/cluster/DUD-E-result/aces

> <s_m_Source_File>
dock_pv.maegz

> <i_m_Source_File_Index>
104

> <chembl_id>
CHEMBL58034

> <chembl_pref_name>
None

> <i_lp_mmshare_version>
53161

> <i_f3d_flags>
0

> <r_lp_tautomer_probability>
0.999999999997365

> <s_lp_Force_Field>
OPLS_2005

> <r_lp_Energy>
10.915497

> <b_lp_Chiralities_Consistent>
1

> <s_lp_Variant>
CHEMBL220_lig318-1

> <s_i_glide_gridfile>
glide-grid_1e66

> <i_i_glide_lignum>
372

> <i_i_glide_rotatable_bonds>
3

> <r_i_docking_score>
-7.87772820155994

> <r_i_glide_ligand_efficiency>
-0.656477350129995

> <r_i_glide_ligand_efficiency_sa>
-1.50295794397005

> <r_i_glide_ligand_efficiency_ln>
-2.26052775388953

> <r_i_glide_gscore>
-7.87772820155994

> <r_i_glide_lipo>
-1.81339252121135

> <r_i_glide_hbond>
-0.198359074846668

> <r_i_glide_metal>
0

> <r_i_glide_rewards>
-4.03627783109825

> <r_i_glide_evdw>
-16.3517608642578

> <r_i_glide_ecoul>
-10.4377365112305

> <r_i_glide_erotb>
0.553549745493792

> <r_i_glide_esite>
0

> <r_i_glide_emodel>
-47.0205860789378

> <r_i_glide_energy>
-26.7894973754883

> <r_i_glide_einternal>
0.432705283164978

> <i_i_glide_confnum>
1

> <i_i_glide_posenum>
281

> <r_i_glide_eff_state_penalty>
0

> <s_user_duplicate_titles>
CHEMBL220_lig318

> <s_m_subgroup_title>
dock_pv

> <s_m_subgroupid>
dock_pv

> <b_m_subgroup_collapsed>
0

$$$$
CHEMBL220_lig510
                    3D
 Schrodinger Suite 2021-1.
 56 60  0  0  1  0            999 V2000
    0.8101   67.7143   68.7239 C   0  0  0  0  0  0
    0.3881   66.4404   69.5167 C   0  0  0  0  0  0
    1.4421   65.3012   69.5084 C   0  0  0  0  0  0
    2.5227   65.4508   70.5802 C   0  0  0  0  0  0
    3.6520   64.4334   70.3555 C   0  0  0  0  0  0
    3.1450   63.0528   70.4368 N   0  0  1  0  0  0
    1.9069   62.7935   69.6683 C   0  0  0  0  0  0
    0.8434   63.9110   69.8245 C   0  0  0  0  0  0
    4.2146   62.1006   70.1206 C   0  0  0  0  0  0
    3.9590   60.7297   70.7279 C   0  0  0  0  0  0
    3.3613   59.7215   69.9670 C   0  0  0  0  0  0
    3.0634   58.4949   70.5521 C   0  0  0  0  0  0
    3.3485   58.2877   71.8993 C   0  0  0  0  0  0
    3.9319   59.2944   72.6678 C   0  0  0  0  0  0
    4.2317   60.5199   72.0818 C   0  0  0  0  0  0
    0.3554   67.8006   67.2787 C   0  0  0  0  0  0
   -0.9285   67.7321   66.9884 N   0  0  0  0  0  0
   -1.0763   67.9657   65.6173 O   0  0  0  0  0  0
    1.1265   68.0711   66.1020 C   0  0  0  0  0  0
    0.1657   68.1179   65.0847 C   0  0  0  0  0  0
    0.4787   68.3428   63.7414 C   0  0  0  0  0  0
    2.4703   68.2886   65.7633 C   0  0  0  0  0  0
    2.8251   68.4677   64.4209 C   0  0  0  0  0  0
    1.8305   68.5082   63.4306 C   0  0  0  0  0  0
    2.1905   68.7181   62.1006 N   0  0  0  0  0  0
    3.3697   69.1416   61.6088 C   0  0  0  0  0  0
    4.4333   69.4484   62.6912 C   0  0  0  0  0  0
    4.2791   68.5909   63.9775 C   0  0  0  0  0  0
    3.5429   69.3070   60.4076 O   0  0  0  0  0  0
    1.8757   67.9086   68.8368 H   0  0  0  0  0  0
    0.3436   68.5825   69.1679 H   0  0  0  0  0  0
    0.1856   66.7223   70.5513 H   0  0  0  0  0  0
   -0.5656   66.0725   69.1354 H   0  0  0  0  0  0
    1.9387   65.3081   68.5377 H   0  0  0  0  0  0
    2.9320   66.4600   70.5658 H   0  0  0  0  0  0
    2.0791   65.3159   71.5671 H   0  0  0  0  0  0
    4.0843   64.5779   69.3645 H   0  0  0  0  0  0
    4.4635   64.5904   71.0677 H   0  0  0  0  0  0
    2.1723   62.7035   68.6147 H   0  0  0  0  0  0
    1.4917   61.8269   69.9588 H   0  0  0  0  0  0
    0.3809   63.8792   70.8126 H   0  0  0  0  0  0
    0.0011   63.7035   69.1668 H   0  0  0  0  0  0
    4.3319   62.0233   69.0389 H   0  0  0  0  0  0
    5.1600   62.4630   70.5248 H   0  0  0  0  0  0
    3.1136   59.8888   68.9295 H   0  0  0  0  0  0
    2.5985   57.7131   69.9700 H   0  0  0  0  0  0
    3.1198   57.3350   72.3564 H   0  0  0  0  0  0
    4.1448   59.1232   73.7134 H   0  0  0  0  0  0
    4.6657   61.3089   72.6806 H   0  0  0  0  0  0
   -0.2956   68.3749   62.9902 H   0  0  0  0  0  0
    3.2367   68.2942   66.5196 H   0  0  0  0  0  0
    1.4871   68.5995   61.3885 H   0  0  0  0  0  0
    5.4202   69.3072   62.2458 H   0  0  0  0  0  0
    4.3432   70.5077   62.9333 H   0  0  0  0  0  0
    4.6712   67.5912   63.7897 H   0  0  0  0  0  0
    4.8928   69.0109   64.7762 H   0  0  0  0  0  0
  1 16  1  0  0  0
  1  2  1  0  0  0
  1 30  1  0  0  0
  1 31  1  0  0  0
  2  3  1  0  0  0
  2 32  1  0  0  0
  2 33  1  0  0  0
  3  4  1  0  0  0
  3  8  1  0  0  0
  3 34  1  0  0  0
  4  5  1  0  0  0
  4 35  1  0  0  0
  4 36  1  0  0  0
  5  6  1  0  0  0
  5 37  1  0  0  0
  5 38  1  0  0  0
  6  7  1  0  0  0
  6  9  1  0  0  0
  7  8  1  0  0  0
  7 39  1  0  0  0
  7 40  1  0  0  0
  8 41  1  0  0  0
  8 42  1  0  0  0
  9 10  1  0  0  0
  9 43  1  0  0  0
  9 44  1  0  0  0
 10 15  1  0  0  0
 10 11  2  0  0  0
 11 12  1  0  0  0
 11 45  1  0  0  0
 12 13  2  0  0  0
 12 46  1  0  0  0
 13 14  1  0  0  0
 13 47  1  0  0  0
 14 15  2  0  0  0
 14 48  1  0  0  0
 15 49  1  0  0  0
 16 17  2  0  0  0
 16 19  1  0  0  0
 17 18  1  0  0  0
 18 20  1  0  0  0
 19 20  2  0  0  0
 19 22  1  0  0  0
 20 21  1  0  0  0
 21 24  2  0  0  0
 21 50  1  0  0  0
 22 23  2  0  0  0
 22 51  1  0  0  0
 23 24  1  0  0  0
 23 28  1  0  0  0
 24 25  1  0  0  0
 25 26  1  0  0  0
 25 52  1  0  0  0
 26 27  1  0  0  0
 26 29  2  0  0  0
 27 28  1  0  0  0
 27 53  1  0  0  0
 27 54  1  0  0  0
 28 55  1  0  0  0
 28 56  1  0  0  0
M  END
> <s_m_entry_id>
8595

> <s_m_entry_name>
dock_pv.105

> <s_m_Source_Path>
/home/csk/Desktop/cluster/DUD-E-result/aces

> <s_m_Source_File>
dock_pv.maegz

> <i_m_Source_File_Index>
105

> <chembl_id>
CHEMBL329231

> <chembl_pref_name>
None

> <i_lp_mmshare_version>
53161

> <i_f3d_flags>
0

> <r_lp_tautomer_probability>
1

> <s_lp_Force_Field>
OPLS_2005

> <r_lp_Energy>
40.522273

> <b_lp_Chiralities_Consistent>
1

> <s_lp_Variant>
CHEMBL220_lig510-1

> <s_i_glide_gridfile>
glide-grid_1e66

> <i_i_glide_lignum>
588

> <i_i_glide_rotatable_bonds>
5

> <r_i_docking_score>
-7.8768843979489

> <r_i_glide_ligand_efficiency>
-0.271616703377548

> <r_i_glide_ligand_efficiency_sa>
-0.834492566987502

> <r_i_glide_ligand_efficiency_ln>
-1.80360678657605

> <r_i_glide_gscore>
-7.8768843979489

> <r_i_glide_lipo>
-4.02184065420073

> <r_i_glide_hbond>
-0.104703781651776

> <r_i_glide_metal>
0

> <r_i_glide_rewards>
-1.78939072869346

> <r_i_glide_evdw>
-44.8752746582031

> <r_i_glide_ecoul>
-2.39812684059143

> <r_i_glide_erotb>
0.642533525595938

> <r_i_glide_esite>
0

> <r_i_glide_emodel>
-63.62541185107

> <r_i_glide_energy>
-47.2734014987946

> <r_i_glide_einternal>
5.34711456298828

> <i_i_glide_confnum>
61

> <i_i_glide_posenum>
216

> <r_i_glide_eff_state_penalty>
0

> <s_user_duplicate_titles>
CHEMBL220_lig510,154565

> <s_m_subgroup_title>
dock_pv

> <s_m_subgroupid>
dock_pv

> <b_m_subgroup_collapsed>
0

$$$$
CHEMBL220_lig245
                    3D
 Schrodinger Suite 2021-1.
 44 46  0  0  1  0            999 V2000
    0.6337   67.5429   66.2579 C   0  0  0  0  0  0
    2.1064   66.9080   65.5682 S   0  0  0  0  0  0
    1.7910   67.8118   64.1115 C   0  0  0  0  0  0
   -0.2005   68.1080   65.3170 C   0  0  0  0  0  0
    0.4333   68.2219   64.0559 C   0  0  0  0  0  0
    5.6807   70.2675   67.5188 N   0  3  0  0  0  0
    2.6927   68.1080   63.0869 C   0  0  0  0  0  0
    0.4268   67.4288   67.6834 C   0  0  0  0  0  0
    2.1998   68.7166   61.9290 C   0  0  0  0  0  0
   -0.0573   68.7094   62.8466 C   0  0  0  0  0  0
    0.8216   68.9076   61.7761 C   0  0  0  0  0  0
   -0.2188   66.5078   68.1790 O   0  0  0  0  0  0
    0.9564   68.5385   68.6031 C   0  0  0  0  0  0
    5.1043   70.6259   68.6908 C   0  0  0  0  0  0
    4.9479   69.8400   66.4638 C   0  0  0  0  0  0
    2.9394   70.0203   67.8113 C   0  0  0  0  0  0
    1.4337   69.8831   67.9856 C   0  0  0  0  0  0
    3.0301   69.1520   60.9170 O   0  0  0  0  0  0
    0.3432   69.3023   60.5533 O   0  0  0  0  0  0
    7.1504   70.2886   67.4333 C   0  0  0  0  0  0
    3.7227   70.5082   68.8602 C   0  0  0  0  0  0
    3.5638   69.7080   66.5971 C   0  0  0  0  0  0
   -0.3776   70.5079   60.5493 C   0  0  0  0  0  0
    4.3435   69.5689   61.2804 C   0  0  0  0  0  0
   -1.2039   68.4560   65.5161 H   0  0  0  0  0  0
    3.7358   67.8515   63.1882 H   0  0  0  0  0  0
   -1.1077   68.9381   62.7682 H   0  0  0  0  0  0
    1.6772   68.1330   69.3133 H   0  0  0  0  0  0
    0.0656   68.7837   69.1680 H   0  0  0  0  0  0
    5.7741   70.9086   69.4897 H   0  0  0  0  0  0
    5.4808   69.6094   65.5517 H   0  0  0  0  0  0
    1.1115   70.6945   68.6423 H   0  0  0  0  0  0
    0.9377   70.1044   67.0461 H   0  0  0  0  0  0
    7.5427   69.7080   68.2627 H   0  0  0  0  0  0
    7.4889   69.8879   66.4757 H   0  0  0  0  0  0
    7.4773   71.3078   67.5682 H   0  0  0  0  0  0
    3.2690   70.7585   69.8086 H   0  0  0  0  0  0
    2.9761   69.4336   65.7417 H   0  0  0  0  0  0
   -0.8129   70.6737   59.5682 H   0  0  0  0  0  0
   -1.1962   70.5080   61.2689 H   0  0  0  0  0  0
    0.3292   71.3080   60.7680 H   0  0  0  0  0  0
    4.7941   70.1078   60.4462 H   0  0  0  0  0  0
    4.3245   70.2591   62.1253 H   0  0  0  0  0  0
    4.9866   68.7298   61.5512 H   0  0  0  0  0  0
  1  2  1  0  0  0
  1  4  2  0  0  0
  1  8  1  0  0  0
  2  3  1  0  0  0
  3  7  2  0  0  0
  3  5  1  0  0  0
  4  5  1  0  0  0
  4 25  1  0  0  0
  5 10  2  0  0  0
  6 14  2  0  0  0
  6 20  1  0  0  0
  6 15  1  0  0  0
  7  9  1  0  0  0
  7 26  1  0  0  0
  8 12  2  0  0  0
  8 13  1  0  0  0
  9 18  1  0  0  0
  9 11  2  0  0  0
 10 11  1  0  0  0
 10 27  1  0  0  0
 11 19  1  0  0  0
 13 17  1  0  0  0
 13 28  1  0  0  0
 13 29  1  0  0  0
 14 21  1  0  0  0
 14 30  1  0  0  0
 15 22  2  0  0  0
 15 31  1  0  0  0
 16 17  1  0  0  0
 16 21  2  0  0  0
 16 22  1  0  0  0
 17 32  1  0  0  0
 17 33  1  0  0  0
 18 24  1  0  0  0
 19 23  1  0  0  0
 20 34  1  0  0  0
 20 35  1  0  0  0
 20 36  1  0  0  0
 21 37  1  0  0  0
 22 38  1  0  0  0
 23 39  1  0  0  0
 23 40  1  0  0  0
 23 41  1  0  0  0
 24 42  1  0  0  0
 24 43  1  0  0  0
 24 44  1  0  0  0
M  CHG  1   6   1
M  END
> <s_m_entry_id>
8596

> <s_m_entry_name>
dock_pv.106

> <s_m_Source_Path>
/home/csk/Desktop/cluster/DUD-E-result/aces

> <s_m_Source_File>
dock_pv.maegz

> <i_m_Source_File_Index>
106

> <chembl_id>
CHEMBL441632

> <chembl_pref_name>
None

> <i_lp_mmshare_version>
53161

> <i_f3d_flags>
0

> <r_lp_tautomer_probability>
0.99990000499975

> <s_lp_Force_Field>
OPLS_2005

> <r_lp_Energy>
29.381426

> <b_lp_Chiralities_Consistent>
1

> <s_lp_Variant>
CHEMBL220_lig245-1

> <s_i_glide_gridfile>
glide-grid_1e66

> <i_i_glide_lignum>
285

> <i_i_glide_rotatable_bonds>
6

> <r_i_docking_score>
-7.86031762636664

> <r_i_glide_ligand_efficiency>
-0.327513234431943

> <r_i_glide_ligand_efficiency_sa>
-0.944711642258138

> <r_i_glide_ligand_efficiency_ln>
-1.88133469446277

> <r_i_glide_gscore>
-7.86031762636664

> <r_i_glide_lipo>
-3.30062511006338

> <r_i_glide_hbond>
0

> <r_i_glide_metal>
0

> <r_i_glide_rewards>
-2.97941222601232

> <r_i_glide_evdw>
-37.6593399047852

> <r_i_glide_ecoul>
-2.29441571235657

> <r_i_glide_erotb>
0.646849061801806

> <r_i_glide_esite>
0

> <r_i_glide_emodel>
-43.1455694263752

> <r_i_glide_energy>
-39.9537556171417

> <r_i_glide_einternal>
22.0506420135498

> <i_i_glide_confnum>
6

> <i_i_glide_posenum>
144

> <r_i_glide_eff_state_penalty>
0

> <s_user_duplicate_titles>
CHEMBL220_lig245,138800

> <s_m_subgroup_title>
dock_pv

> <s_m_subgroupid>
dock_pv

> <b_m_subgroup_collapsed>
0

$$$$
CHEMBL220_lig25
                    3D
 Schrodinger Suite 2021-1.
 39 41  0  0  1  0            999 V2000
    1.5414   67.9150   65.0629 C   0  0  2  0  0  0
    3.4427   68.1837   63.4184 C   0  0  2  0  0  0
    3.8460   66.7484   63.7643 C   0  0  0  0  0  0
    3.1435   65.9273   64.5700 C   0  0  0  0  0  0
    1.8458   66.3938   65.2269 C   0  0  0  0  0  0
    4.1765   69.1979   64.3231 C   0  0  0  0  0  0
    1.9301   68.3436   63.6271 C   0  0  0  0  0  0
    3.6083   69.3023   65.7560 C   0  0  0  0  0  0
    2.3950   68.7401   66.0684 C   0  0  0  0  0  0
    1.9428   68.9755   67.4409 C   0  0  0  0  0  0
    2.6702   69.7069   68.3035 C   0  0  0  0  0  0
    3.9444   70.3025   67.9560 C   0  0  0  0  0  0
    4.3726   70.0474   66.6657 N   0  0  0  0  0  0
    4.5523   70.9660   68.7956 O   0  0  0  0  0  0
    1.0658   68.7944   62.6868 C   0  0  0  0  0  0
    1.3796   69.2598   61.2785 C   0  0  0  0  0  0
    3.5512   64.4876   64.8124 C   0  0  0  0  0  0
    0.1254   68.1083   65.3355 N   0  0  0  0  0  0
    5.6883   70.6212   66.3178 C   0  0  0  0  0  0
    3.7351   68.3475   62.3813 H   0  0  0  0  0  0
    4.7550   66.3655   63.3255 H   0  0  0  0  0  0
    1.0488   65.7915   64.7890 H   0  0  0  0  0  0
    1.8413   66.1116   66.2815 H   0  0  0  0  0  0
    5.2276   68.9067   64.3594 H   0  0  0  0  0  0
    4.1968   70.1923   63.8753 H   0  0  0  0  0  0
    1.0044   68.5528   67.7760 H   0  0  0  0  0  0
    2.3115   69.8575   69.3142 H   0  0  0  0  0  0
    0.0135   68.8571   62.9233 H   0  0  0  0  0  0
    0.8914   70.2169   61.0955 H   0  0  0  0  0  0
    0.9949   68.5372   60.5561 H   0  0  0  0  0  0
    2.4432   69.3974   61.0863 H   0  0  0  0  0  0
    2.8151   63.8154   64.3723 H   0  0  0  0  0  0
    4.5188   64.2567   64.3658 H   0  0  0  0  0  0
    3.6139   64.2796   65.8795 H   0  0  0  0  0  0
   -0.1491   69.0453   65.0834 H   0  0  0  0  0  0
   -0.4252   67.4695   64.7749 H   0  0  0  0  0  0
    6.1493   71.2242   67.1039 H   0  0  0  0  0  0
    6.3957   69.8269   66.0719 H   0  0  0  0  0  0
    5.5977   71.2733   65.4462 H   0  0  0  0  0  0
  1  5  1  0  0  0
  1  7  1  0  0  0
  1  9  1  0  0  0
  1 18  1  0  0  0
  2  3  1  0  0  0
  2  6  1  0  0  0
  2  7  1  0  0  0
  2 20  1  0  0  0
  3  4  2  0  0  0
  3 21  1  0  0  0
  4  5  1  0  0  0
  4 17  1  0  0  0
  5 22  1  0  0  0
  5 23  1  0  0  0
  6  8  1  0  0  0
  6 24  1  0  0  0
  6 25  1  0  0  0
  7 15  2  0  0  0
  8  9  2  0  0  0
  8 13  1  0  0  0
  9 10  1  0  0  0
 10 11  2  0  0  0
 10 26  1  0  0  0
 11 12  1  0  0  0
 11 27  1  0  0  0
 12 13  1  0  0  0
 12 14  2  0  0  0
 13 19  1  0  0  0
 15 16  1  0  0  0
 15 28  1  0  0  0
 16 29  1  0  0  0
 16 30  1  0  0  0
 16 31  1  0  0  0
 17 32  1  0  0  0
 17 33  1  0  0  0
 17 34  1  0  0  0
 18 35  1  0  0  0
 18 36  1  0  0  0
 19 37  1  0  0  0
 19 38  1  0  0  0
 19 39  1  0  0  0
M  END
> <s_m_entry_id>
8597

> <s_m_entry_name>
dock_pv.107

> <s_m_Source_Path>
/home/csk/Desktop/cluster/DUD-E-result/aces

> <s_m_Source_File>
dock_pv.maegz

> <i_m_Source_File_Index>
107

> <chembl_id>
CHEMBL2333849

> <chembl_pref_name>
None

> <i_lp_mmshare_version>
53161

> <i_f3d_flags>
0

> <r_lp_tautomer_probability>
1

> <s_lp_Force_Field>
OPLS_2005

> <r_lp_Energy>
30.653451

> <b_lp_Chiralities_Consistent>
1

> <s_lp_Variant>
CHEMBL220_lig25-1

> <s_i_glide_gridfile>
glide-grid_1e66

> <i_i_glide_lignum>
26

> <i_i_glide_rotatable_bonds>
0

> <r_i_docking_score>
-7.84290140155916

> <r_i_glide_ligand_efficiency>
-0.412784284292588

> <r_i_glide_ligand_efficiency_sa>
-1.10147426369177

> <r_i_glide_ligand_efficiency_ln>
-1.98834395537197

> <r_i_glide_gscore>
-7.84290140155916

> <r_i_glide_lipo>
-3.53603145080308

> <r_i_glide_hbond>
-0.212883625217877

> <r_i_glide_metal>
0

> <r_i_glide_rewards>
-2.21942242888218

> <r_i_glide_evdw>
-28.2352256774902

> <r_i_glide_ecoul>
-3.08535075187683

> <r_i_glide_erotb>
0

> <r_i_glide_esite>
0

> <r_i_glide_emodel>
-45.9377417317277

> <r_i_glide_energy>
-31.3205764293671

> <r_i_glide_einternal>
0

> <i_i_glide_confnum>
1

> <i_i_glide_posenum>
358

> <r_i_glide_eff_state_penalty>
0

> <s_user_duplicate_titles>
CHEMBL220_lig25

> <s_m_subgroup_title>
dock_pv

> <s_m_subgroupid>
dock_pv

> <b_m_subgroup_collapsed>
0

$$$$
CHEMBL220_lig25
                    3D
 Schrodinger Suite 2021-1.
 39 41  0  0  1  0            999 V2000
    3.8117   68.6424   63.4966 C   0  0  1  0  0  0
    1.7968   67.9761   64.8588 C   0  0  1  0  0  0
    2.4259   66.5834   64.9469 C   0  0  0  0  0  0
    3.5431   66.1962   64.2970 C   0  0  0  0  0  0
    4.2789   67.1582   63.3652 C   0  0  0  0  0  0
    2.2185   68.8638   66.0534 C   0  0  0  0  0  0
    2.2678   68.6510   63.5667 C   0  0  0  0  0  0
    3.6648   69.3919   65.9674 C   0  0  0  0  0  0
    4.3757   69.2673   64.8017 C   0  0  0  0  0  0
    5.7389   69.7709   64.8516 C   0  0  0  0  0  0
    6.2490   70.3207   65.9691 C   0  0  0  0  0  0
    5.4689   70.5080   67.1737 C   0  0  0  0  0  0
    4.1760   70.0197   67.1145 N   0  0  0  0  0  0
    5.9778   71.1018   68.1265 O   0  0  0  0  0  0
    1.4409   69.1459   62.6130 C   0  0  0  0  0  0
   -0.0759   69.1735   62.6331 C   0  0  0  0  0  0
    4.0617   64.7697   64.3679 C   0  0  0  0  0  0
    4.3209   69.3894   62.3545 N   0  0  0  0  0  0
    3.3632   70.2461   68.3282 C   0  0  0  0  0  0
    0.7178   67.8295   64.8730 H   0  0  0  0  0  0
    1.9290   65.8559   65.5708 H   0  0  0  0  0  0
    5.3559   67.0748   63.5062 H   0  0  0  0  0  0
    4.1156   66.8038   62.3467 H   0  0  0  0  0  0
    1.5428   69.7040   66.1869 H   0  0  0  0  0  0
    2.0896   68.2804   66.9672 H   0  0  0  0  0  0
    6.3432   69.6842   63.9644 H   0  0  0  0  0  0
    7.2703   70.6671   65.9688 H   0  0  0  0  0  0
    1.8654   69.5895   61.7241 H   0  0  0  0  0  0
   -0.4354   70.1248   62.2379 H   0  0  0  0  0  0
   -0.4998   69.0601   63.6296 H   0  0  0  0  0  0
   -0.4563   68.3703   62.0025 H   0  0  0  0  0  0
    4.0486   64.3117   63.3778 H   0  0  0  0  0  0
    5.0817   64.7490   64.7516 H   0  0  0  0  0  0
    3.4485   64.1500   65.0218 H   0  0  0  0  0  0
    4.0676   68.9469   61.4852 H   0  0  0  0  0  0
    3.9350   70.3230   62.3621 H   0  0  0  0  0  0
    3.8809   70.7643   69.1380 H   0  0  0  0  0  0
    2.4830   70.8426   68.0857 H   0  0  0  0  0  0
    3.0117   69.3012   68.7396 H   0  0  0  0  0  0
  1  5  1  0  0  0
  1  7  1  0  0  0
  1  9  1  0  0  0
  1 18  1  0  0  0
  2  3  1  0  0  0
  2  6  1  0  0  0
  2  7  1  0  0  0
  2 20  1  0  0  0
  3  4  2  0  0  0
  3 21  1  0  0  0
  4  5  1  0  0  0
  4 17  1  0  0  0
  5 22  1  0  0  0
  5 23  1  0  0  0
  6  8  1  0  0  0
  6 24  1  0  0  0
  6 25  1  0  0  0
  7 15  2  0  0  0
  8  9  2  0  0  0
  8 13  1  0  0  0
  9 10  1  0  0  0
 10 11  2  0  0  0
 10 26  1  0  0  0
 11 12  1  0  0  0
 11 27  1  0  0  0
 12 13  1  0  0  0
 12 14  2  0  0  0
 13 19  1  0  0  0
 15 16  1  0  0  0
 15 28  1  0  0  0
 16 29  1  0  0  0
 16 30  1  0  0  0
 16 31  1  0  0  0
 17 32  1  0  0  0
 17 33  1  0  0  0
 17 34  1  0  0  0
 18 35  1  0  0  0
 18 36  1  0  0  0
 19 37  1  0  0  0
 19 38  1  0  0  0
 19 39  1  0  0  0
M  END
> <s_m_entry_id>
8598

> <s_m_entry_name>
dock_pv.108

> <s_m_Source_Path>
/home/csk/Desktop/cluster/DUD-E-result/aces

> <s_m_Source_File>
dock_pv.maegz

> <i_m_Source_File_Index>
108

> <chembl_id>
CHEMBL2333849

> <chembl_pref_name>
None

> <i_lp_mmshare_version>
53161

> <i_f3d_flags>
0

> <r_lp_tautomer_probability>
1

> <s_lp_Force_Field>
OPLS_2005

> <r_lp_Energy>
28.567755

> <b_lp_Chiralities_Consistent>
1

> <s_lp_Variant>
CHEMBL220_lig25-2

> <s_i_glide_gridfile>
glide-grid_1e66

> <i_i_glide_lignum>
27

> <i_i_glide_rotatable_bonds>
0

> <r_i_docking_score>
-7.84174606398312

> <r_i_glide_ligand_efficiency>
-0.412723477051743

> <r_i_glide_ligand_efficiency_sa>
-1.10131200555021

> <r_i_glide_ligand_efficiency_ln>
-1.98805105248206

> <r_i_glide_gscore>
-7.84174606398312

> <r_i_glide_lipo>
-3.65952932272201

> <r_i_glide_hbond>
0

> <r_i_glide_metal>
0

> <r_i_glide_rewards>
-2.38642521661244

> <r_i_glide_evdw>
-32.4195785522461

> <r_i_glide_ecoul>
-1.16541731357574

> <r_i_glide_erotb>
0

> <r_i_glide_esite>
0

> <r_i_glide_emodel>
-48.5619970603749

> <r_i_glide_energy>
-33.5849958658218

> <r_i_glide_einternal>
0

> <i_i_glide_confnum>
1

> <i_i_glide_posenum>
248

> <r_i_glide_eff_state_penalty>
0

> <s_user_duplicate_titles>
CHEMBL220_lig25

> <s_m_subgroup_title>
dock_pv

> <s_m_subgroupid>
dock_pv

> <b_m_subgroup_collapsed>
0

$$$$
CHEMBL220_lig150 
                    3D
 Schrodinger Suite 2021-1.
 48 51  0  0  1  0            999 V2000
    1.6956   69.0733   61.3746 C   0  0  0  0  0  0
    0.5298   69.8068   61.2217 C   0  0  0  0  0  0
   -0.4570   69.7470   62.1850 C   0  0  0  0  0  0
    1.8803   68.2840   62.5021 C   0  0  0  0  0  0
    0.8985   68.2095   63.5338 C   0  0  0  0  0  0
   -0.2997   68.9350   63.3211 C   0  0  0  0  0  0
   -1.3214   68.9080   64.1909 N   0  0  0  0  0  0
    0.9946   67.4510   64.7522 C   0  0  0  0  0  0
   -0.0570   67.5259   65.6954 C   0  0  0  0  0  0
   -1.2110   68.2486   65.3507 C   0  0  0  0  0  0
   -2.4269   68.3185   66.2587 C   0  0  0  0  0  0
   -1.9861   68.2765   67.7118 C   0  0  0  0  0  0
   -1.2227   66.9720   67.9680 C   0  0  0  0  0  0
   -0.0277   66.7499   67.0146 C   0  0  0  0  0  0
    2.0489   66.5596   65.0051 N   0  0  0  0  0  0
    3.3375   67.0842   65.1006 N   0  0  0  0  0  0
    4.3772   66.8613   64.2468 C   0  0  0  0  0  0
    4.7169   65.3732   63.5680 S   0  0  0  0  0  0
    5.1430   67.9428   63.9126 N   0  0  0  0  0  0
    4.8141   69.3423   64.2466 C   0  0  0  0  0  0
    4.8004   69.7079   65.7281 C   0  0  0  0  0  0
    3.5958   69.7080   66.4409 C   0  0  0  0  0  0
    3.5700   70.1080   67.7722 C   0  0  0  0  0  0
    4.7411   70.5711   68.3680 C   0  0  0  0  0  0
    5.9430   70.5907   67.6627 C   0  0  0  0  0  0
    5.9727   70.1531   66.3420 C   0  0  0  0  0  0
    2.4593   69.1052   60.6117 H   0  0  0  0  0  0
    0.3660   70.4335   60.3619 H   0  0  0  0  0  0
   -1.3686   70.3127   62.0570 H   0  0  0  0  0  0
    2.7764   67.7045   62.5454 H   0  0  0  0  0  0
   -3.0853   67.4750   66.0469 H   0  0  0  0  0  0
   -3.0119   69.2203   66.0674 H   0  0  0  0  0  0
   -2.8570   68.3286   68.3637 H   0  0  0  0  0  0
   -1.3644   69.1429   67.9484 H   0  0  0  0  0  0
   -1.9247   66.1452   67.8507 H   0  0  0  0  0  0
   -0.8821   66.9080   69.0021 H   0  0  0  0  0  0
   -0.0571   65.7080   66.7208 H   0  0  0  0  0  0
    0.9118   66.9319   67.5382 H   0  0  0  0  0  0
    1.8770   66.0232   65.8443 H   0  0  0  0  0  0
    3.4833   67.6436   65.9309 H   0  0  0  0  0  0
    5.8837   67.8035   63.2401 H   0  0  0  0  0  0
    3.8631   69.6217   63.7918 H   0  0  0  0  0  0
    5.5478   69.9779   63.7477 H   0  0  0  0  0  0
    2.6671   69.4335   65.9631 H   0  0  0  0  0  0
    2.6410   70.1058   68.3249 H   0  0  0  0  0  0
    4.7175   70.9076   69.3943 H   0  0  0  0  0  0
    6.8458   70.9445   68.1385 H   0  0  0  0  0  0
    6.9012   70.1821   65.7918 H   0  0  0  0  0  0
  1  2  2  0  0  0
  1  4  1  0  0  0
  1 27  1  0  0  0
  2  3  1  0  0  0
  2 28  1  0  0  0
  3  6  2  0  0  0
  3 29  1  0  0  0
  4  5  2  0  0  0
  4 30  1  0  0  0
  5  6  1  0  0  0
  5  8  1  0  0  0
  6  7  1  0  0  0
  7 10  2  0  0  0
  8  9  2  0  0  0
  8 15  1  0  0  0
  9 10  1  0  0  0
  9 14  1  0  0  0
 10 11  1  0  0  0
 11 12  1  0  0  0
 11 31  1  0  0  0
 11 32  1  0  0  0
 12 13  1  0  0  0
 12 33  1  0  0  0
 12 34  1  0  0  0
 13 14  1  0  0  0
 13 35  1  0  0  0
 13 36  1  0  0  0
 14 37  1  0  0  0
 14 38  1  0  0  0
 15 16  1  0  0  0
 15 39  1  0  0  0
 16 17  1  0  0  0
 16 40  1  0  0  0
 17 18  2  0  0  0
 17 19  1  0  0  0
 19 20  1  0  0  0
 19 41  1  0  0  0
 20 21  1  0  0  0
 20 42  1  0  0  0
 20 43  1  0  0  0
 21 22  2  0  0  0
 21 26  1  0  0  0
 22 23  1  0  0  0
 22 44  1  0  0  0
 23 24  2  0  0  0
 23 45  1  0  0  0
 24 25  1  0  0  0
 24 46  1  0  0  0
 25 26  2  0  0  0
 25 47  1  0  0  0
 26 48  1  0  0  0
M  END
> <s_m_entry_id>
8599

> <s_m_entry_name>
dock_pv.109

> <s_m_Source_Path>
/home/csk/Desktop/cluster/DUD-E-result/aces

> <s_m_Source_File>
dock_pv.maegz

> <i_m_Source_File_Index>
109

> <chembl_id>
CHEMBL4458648

> <chembl_pref_name>
None

> <i_lp_mmshare_version>
53161

> <i_f3d_flags>
0

> <r_lp_tautomer_probability>
1

> <s_lp_Force_Field>
OPLS_2005

> <r_lp_Energy>
31.946943

> <b_lp_Chiralities_Consistent>
1

> <s_lp_Variant>
CHEMBL220_lig150 -1

> <s_i_glide_gridfile>
glide-grid_1e66

> <i_i_glide_lignum>
166

> <i_i_glide_rotatable_bonds>
6

> <r_i_docking_score>
-7.83525409773647

> <r_i_glide_ligand_efficiency>
-0.301355926836018

> <r_i_glide_ligand_efficiency_sa>
-0.892765747473391

> <r_i_glide_ligand_efficiency_ln>
-1.84008371528775

> <r_i_glide_gscore>
-7.83525409773647

> <r_i_glide_lipo>
-4.44927071021297

> <r_i_glide_hbond>
-0.0518777286478543

> <r_i_glide_metal>
0

> <r_i_glide_rewards>
-1.74164448828358

> <r_i_glide_evdw>
-29.23610496521

> <r_i_glide_ecoul>
-4.45854330062866

> <r_i_glide_erotb>
0.584551850590224

> <r_i_glide_esite>
-0.0464262778274924

> <r_i_glide_emodel>
-32.906178711267

> <r_i_glide_energy>
-33.6946482658386

> <r_i_glide_einternal>
12.0456266403198

> <i_i_glide_confnum>
329

> <i_i_glide_posenum>
285

> <r_i_glide_eff_state_penalty>
0

> <s_user_duplicate_titles>
CHEMBL220_lig150 

> <s_m_subgroup_title>
dock_pv

> <s_m_subgroupid>
dock_pv

> <b_m_subgroup_collapsed>
0

$$$$
CHEMBL220_lig1037
                    3D
 Schrodinger Suite 2021-1.
 32 34  0  0  1  0            999 V2000
   -0.8369   67.1806   67.6745 C   0  0  0  0  0  0
   -2.0037   67.7677   67.1862 C   0  0  0  0  0  0
   -2.0564   68.4467   65.9685 C   0  0  0  0  0  0
    0.3520   67.2830   66.9395 C   0  0  0  0  0  0
    0.3256   67.8931   65.6783 C   0  0  0  0  0  0
   -0.8857   68.4558   65.2043 C   0  0  0  0  0  0
   -0.6490   68.9069   63.9236 N   0  0  0  0  0  0
    1.2974   68.0758   64.6807 C   0  0  0  0  0  0
    0.6647   68.6699   63.5623 C   0  0  0  0  0  0
    1.3535   68.9393   62.3703 C   0  0  0  0  0  0
    2.6902   68.6262   62.3593 N   0  3  0  0  0  0
    3.3316   68.0806   63.4211 C   0  0  0  0  0  0
    2.6623   67.7755   64.6037 C   0  0  0  0  0  0
   -0.9395   66.5080   68.8772 O   0  0  0  0  0  0
    0.2439   66.1453   69.5786 C   0  0  0  0  0  0
    0.6889   69.5645   61.1525 C   0  0  0  0  0  0
    3.5502   68.8558   61.1713 C   0  0  0  0  0  0
   -2.9006   67.6949   67.7789 H   0  0  0  0  0  0
   -2.9792   68.8835   65.6148 H   0  0  0  0  0  0
    1.2632   66.8354   67.2971 H   0  0  0  0  0  0
   -1.3396   69.3809   63.3576 H   0  0  0  0  0  0
    4.3907   67.8904   63.3019 H   0  0  0  0  0  0
    3.1821   67.3307   65.4396 H   0  0  0  0  0  0
   -0.0290   65.7667   70.5639 H   0  0  0  0  0  0
    0.7922   65.3529   69.0684 H   0  0  0  0  0  0
    0.9024   67.0012   69.7282 H   0  0  0  0  0  0
   -0.3657   69.7607   61.3407 H   0  0  0  0  0  0
    1.1430   70.5235   60.9128 H   0  0  0  0  0  0
    0.7480   68.9074   60.2842 H   0  0  0  0  0  0
    3.0027   69.3081   60.3543 H   0  0  0  0  0  0
    4.3679   69.5150   61.4708 H   0  0  0  0  0  0
    3.9420   67.8895   60.8500 H   0  0  0  0  0  0
  1  2  2  0  0  0
  1  4  1  0  0  0
  1 14  1  0  0  0
  2  3  1  0  0  0
  2 18  1  0  0  0
  3  6  2  0  0  0
  3 19  1  0  0  0
  4  5  2  0  0  0
  4 20  1  0  0  0
  5  6  1  0  0  0
  5  8  1  0  0  0
  6  7  1  0  0  0
  7  9  1  0  0  0
  7 21  1  0  0  0
  8  9  2  0  0  0
  8 13  1  0  0  0
  9 10  1  0  0  0
 10 11  2  0  0  0
 10 16  1  0  0  0
 11 12  1  0  0  0
 11 17  1  0  0  0
 12 13  2  0  0  0
 12 22  1  0  0  0
 13 23  1  0  0  0
 14 15  1  0  0  0
 15 24  1  0  0  0
 15 25  1  0  0  0
 15 26  1  0  0  0
 16 27  1  0  0  0
 16 28  1  0  0  0
 16 29  1  0  0  0
 17 30  1  0  0  0
 17 31  1  0  0  0
 17 32  1  0  0  0
M  CHG  1  11   1
M  END
> <s_m_entry_id>
8600

> <s_m_entry_name>
dock_pv.110

> <s_m_Source_Path>
/home/csk/Desktop/cluster/DUD-E-result/aces

> <s_m_Source_File>
dock_pv.maegz

> <i_m_Source_File_Index>
110

> <chembl_id>
CHEMBL374729

> <chembl_pref_name>
None

> <i_lp_mmshare_version>
53161

> <i_f3d_flags>
0

> <r_lp_tautomer_probability>
1

> <s_lp_Force_Field>
OPLS_2005

> <r_lp_Energy>
22.214561

> <b_lp_Chiralities_Consistent>
1

> <s_lp_Variant>
CHEMBL220_lig1037-1

> <s_i_glide_gridfile>
glide-grid_1e66

> <i_i_glide_lignum>
1436

> <i_i_glide_rotatable_bonds>
1

> <r_i_docking_score>
-7.83244461991289

> <r_i_glide_ligand_efficiency>
-0.460732036465464

> <r_i_glide_ligand_efficiency_sa>
-1.18467180247132

> <r_i_glide_ligand_efficiency_ln>
-2.04331038136917

> <r_i_glide_gscore>
-7.83244461991289

> <r_i_glide_lipo>
-3.22682999026896

> <r_i_glide_hbond>
-0.0664718526707903

> <r_i_glide_metal>
0

> <r_i_glide_rewards>
-2.32069920066142

> <r_i_glide_evdw>
-31.8384227752686

> <r_i_glide_ecoul>
-4.06323575973511

> <r_i_glide_erotb>
0

> <r_i_glide_esite>
-0.017037073588033

> <r_i_glide_emodel>
-55.7656914265556

> <r_i_glide_energy>
-35.9016585350037

> <r_i_glide_einternal>
0.277618736028671

> <i_i_glide_confnum>
1

> <i_i_glide_posenum>
62

> <r_i_glide_eff_state_penalty>
0

> <s_user_duplicate_titles>
CHEMBL220_lig1037,368220

> <s_m_subgroup_title>
dock_pv

> <s_m_subgroupid>
dock_pv

> <b_m_subgroup_collapsed>
0

$$$$
CHEMBL220_lig845
                    3D
 Schrodinger Suite 2021-1.
 49 51  0  0  1  0            999 V2000
    1.8216   68.8226   62.4277 S   0  0  0  0  0  0
    0.9261   68.3282   63.8745 C   0  0  0  0  0  0
    4.5554   70.2889   67.7180 N   0  3  0  0  0  0
    1.6341   67.4599   64.7111 C   0  0  0  0  0  0
    3.1437   67.6252   62.7669 C   0  0  2  0  0  0
   -0.3289   68.7961   64.2602 C   0  0  0  0  0  0
    2.9561   66.9800   64.1543 C   0  0  0  0  0  0
   -0.8359   68.5083   65.5343 C   0  0  0  0  0  0
    1.1133   67.1410   65.9658 C   0  0  0  0  0  0
   -0.0999   67.6792   66.3995 C   0  0  0  0  0  0
    4.5649   68.1328   62.4976 C   0  0  0  0  0  0
    5.4602   67.2984   62.3681 O   0  0  0  0  0  0
    4.9101   69.6266   62.5647 C   0  0  0  0  0  0
    5.8632   70.5083   67.4406 C   0  0  0  0  0  0
    3.7015   69.8263   66.7701 C   0  0  0  0  0  0
    5.4601   69.9735   65.1168 C   0  0  0  0  0  0
    5.9428   69.9549   63.6670 C   0  0  0  0  0  0
   -1.9694   69.1449   65.9805 O   0  0  0  0  0  0
   -0.4645   67.4301   67.7041 O   0  0  0  0  0  0
    4.0910   70.6640   69.0756 C   0  0  0  0  0  0
    4.1313   69.7097   65.4547 C   0  0  0  0  0  0
    6.3429   70.3282   66.1444 C   0  0  0  0  0  0
   -1.7686   66.9089   67.9328 C   0  0  0  0  0  0
   -3.1854   68.7512   65.3598 C   0  0  0  0  0  0
    2.5932   70.4821   69.3617 C   0  0  0  0  0  0
    3.0294   66.9079   61.9686 H   0  0  0  0  0  0
   -0.8579   69.4828   63.6192 H   0  0  0  0  0  0
    3.7707   67.2263   64.8348 H   0  0  0  0  0  0
    2.9742   65.8953   64.0566 H   0  0  0  0  0  0
    1.6638   66.5076   66.6438 H   0  0  0  0  0  0
    5.3497   69.8555   61.5924 H   0  0  0  0  0  0
    4.0336   70.2650   62.6509 H   0  0  0  0  0  0
    6.4871   70.8474   68.2567 H   0  0  0  0  0  0
    2.6690   69.6650   67.0382 H   0  0  0  0  0  0
    6.7430   69.2243   63.5886 H   0  0  0  0  0  0
    6.3704   70.9350   63.4585 H   0  0  0  0  0  0
    4.6996   70.1081   69.7899 H   0  0  0  0  0  0
    4.3402   71.7137   69.1678 H   0  0  0  0  0  0
    3.3944   69.5047   64.7017 H   0  0  0  0  0  0
    7.3881   70.5199   65.9531 H   0  0  0  0  0  0
   -1.8069   66.5066   68.9438 H   0  0  0  0  0  0
   -2.0328   66.1147   67.2329 H   0  0  0  0  0  0
   -2.5295   67.6872   67.8909 H   0  0  0  0  0  0
   -4.0186   69.3080   65.7803 H   0  0  0  0  0  0
   -3.1764   68.9091   64.2802 H   0  0  0  0  0  0
   -3.4019   67.7080   65.5681 H   0  0  0  0  0  0
    2.3467   70.9079   70.3325 H   0  0  0  0  0  0
    1.9487   70.9951   68.6473 H   0  0  0  0  0  0
    2.3173   69.4271   69.3937 H   0  0  0  0  0  0
  1  2  1  0  0  0
  1  5  1  0  0  0
  2  4  2  0  0  0
  2  6  1  0  0  0
  3 14  2  0  0  0
  3 20  1  0  0  0
  3 15  1  0  0  0
  4  9  1  0  0  0
  4  7  1  0  0  0
  5  7  1  0  0  0
  5 11  1  0  0  0
  5 26  1  0  0  0
  6  8  2  0  0  0
  6 27  1  0  0  0
  7 28  1  0  0  0
  7 29  1  0  0  0
  8 10  1  0  0  0
  8 18  1  0  0  0
  9 10  2  0  0  0
  9 30  1  0  0  0
 10 19  1  0  0  0
 11 12  2  0  0  0
 11 13  1  0  0  0
 13 17  1  0  0  0
 13 31  1  0  0  0
 13 32  1  0  0  0
 14 22  1  0  0  0
 14 33  1  0  0  0
 15 21  2  0  0  0
 15 34  1  0  0  0
 16 17  1  0  0  0
 16 21  1  0  0  0
 16 22  2  0  0  0
 17 35  1  0  0  0
 17 36  1  0  0  0
 18 24  1  0  0  0
 19 23  1  0  0  0
 20 25  1  0  0  0
 20 37  1  0  0  0
 20 38  1  0  0  0
 21 39  1  0  0  0
 22 40  1  0  0  0
 23 41  1  0  0  0
 23 42  1  0  0  0
 23 43  1  0  0  0
 24 44  1  0  0  0
 24 45  1  0  0  0
 24 46  1  0  0  0
 25 47  1  0  0  0
 25 48  1  0  0  0
 25 49  1  0  0  0
M  CHG  1   3   1
M  END
> <s_m_entry_id>
8601

> <s_m_entry_name>
dock_pv.111

> <s_m_Source_Path>
/home/csk/Desktop/cluster/DUD-E-result/aces

> <s_m_Source_File>
dock_pv.maegz

> <i_m_Source_File_Index>
111

> <chembl_id>
CHEMBL188753

> <chembl_pref_name>
None

> <i_lp_mmshare_version>
53161

> <i_f3d_flags>
0

> <r_lp_tautomer_probability>
0.999999960000001

> <s_lp_Force_Field>
OPLS_2005

> <r_lp_Energy>
36.09423

> <b_lp_Chiralities_Consistent>
1

> <s_lp_Variant>
CHEMBL220_lig845-1

> <s_i_glide_gridfile>
glide-grid_1e66

> <i_i_glide_lignum>
1094

> <i_i_glide_rotatable_bonds>
7

> <r_i_docking_score>
-7.81352329841476

> <r_i_glide_ligand_efficiency>
-0.31254093193659

> <r_i_glide_ligand_efficiency_sa>
-0.91387522791962

> <r_i_glide_ligand_efficiency_ln>
-1.85203917412261

> <r_i_glide_gscore>
-7.81352329841476

> <r_i_glide_lipo>
-3.32436589194269

> <r_i_glide_hbond>
0

> <r_i_glide_metal>
0

> <r_i_glide_rewards>
-2.51710290317162

> <r_i_glide_evdw>
-40.7802619934082

> <r_i_glide_ecoul>
-3.52881217002869

> <r_i_glide_erotb>
0.596280421874262

> <r_i_glide_esite>
0

> <r_i_glide_emodel>
-46.480092301346

> <r_i_glide_energy>
-44.3090741634369

> <r_i_glide_einternal>
25.0288143157959

> <i_i_glide_confnum>
82

> <i_i_glide_posenum>
389

> <r_i_glide_eff_state_penalty>
0

> <s_user_duplicate_titles>
CHEMBL220_lig845

> <s_m_subgroup_title>
dock_pv

> <s_m_subgroupid>
dock_pv

> <b_m_subgroup_collapsed>
0

$$$$
CHEMBL220_lig884
                    3D
 Schrodinger Suite 2021-1.
 46 48  0  0  1  0            999 V2000
    2.0546   69.1128   66.7543 C   0  0  0  0  0  0
    2.7183   69.8072   67.7099 N   0  0  0  0  0  0
    2.6345   68.7966   65.5054 C   0  0  0  0  0  0
    3.9996   69.1092   65.2927 C   0  0  0  0  0  0
    0.7643   68.7514   67.1305 N   0  0  0  0  0  0
    4.0263   70.1074   67.5349 C   0  0  0  0  0  0
    4.7409   69.7128   66.3626 C   0  0  0  0  0  0
    4.6625   68.8417   63.9783 C   0  0  0  0  0  0
   -2.1486   68.5206   66.8813 N   0  0  0  0  0  0
   -0.1799   69.6675   67.7785 C   0  0  0  0  0  0
    0.1207   67.4381   66.9375 C   0  0  0  0  0  0
    5.5424   67.9951   63.8144 O   0  0  0  0  0  0
   -1.4402   69.8015   66.9113 C   0  0  0  0  0  0
   -1.2774   67.5162   66.2643 C   0  0  0  0  0  0
    4.2338   69.7055   63.0310 O   0  0  0  0  0  0
    1.7759   68.1786   64.3896 C   0  0  0  0  0  0
   -3.3818   68.6572   66.1101 C   0  0  0  0  0  0
    6.1468   69.9424   66.3382 C   0  0  0  0  0  0
    4.6958   70.7774   68.5868 C   0  0  0  0  0  0
    4.6451   69.6032   61.6722 C   0  0  0  0  0  0
    6.7918   70.5088   67.4281 C   0  0  0  0  0  0
    3.5424   68.9213   60.8492 C   0  0  0  0  0  0
    6.0739   70.9547   68.5284 C   0  0  0  0  0  0
   -0.4257   69.3054   68.7680 H   0  0  0  0  0  0
    0.2674   70.6408   67.9687 H   0  0  0  0  0  0
    0.7664   66.7682   66.3722 H   0  0  0  0  0  0
    0.0326   66.9618   67.9152 H   0  0  0  0  0  0
   -2.0567   70.5995   67.3094 H   0  0  0  0  0  0
   -1.1673   70.1054   65.9020 H   0  0  0  0  0  0
   -1.1745   67.7077   65.1946 H   0  0  0  0  0  0
   -1.7604   66.5432   66.3639 H   0  0  0  0  0  0
    0.7428   68.5078   64.4649 H   0  0  0  0  0  0
    2.0720   68.4935   63.3928 H   0  0  0  0  0  0
    1.8106   67.0892   64.4247 H   0  0  0  0  0  0
   -3.8748   67.6967   65.9735 H   0  0  0  0  0  0
   -4.0850   69.3075   66.6297 H   0  0  0  0  0  0
   -3.1979   69.0747   65.1183 H   0  0  0  0  0  0
    6.7379   69.6428   65.4861 H   0  0  0  0  0  0
    4.1382   71.0789   69.4625 H   0  0  0  0  0  0
    5.5918   69.0706   61.5688 H   0  0  0  0  0  0
    4.8220   70.6068   61.2860 H   0  0  0  0  0  0
    7.8620   70.6321   67.4002 H   0  0  0  0  0  0
    3.8211   68.8884   59.7964 H   0  0  0  0  0  0
    2.5941   69.4548   60.9280 H   0  0  0  0  0  0
    3.3807   67.8967   61.1844 H   0  0  0  0  0  0
    6.5961   71.4194   69.3517 H   0  0  0  0  0  0
  1  2  2  0  0  0
  1  3  1  0  0  0
  1  5  1  0  0  0
  2  6  1  0  0  0
  3  4  2  0  0  0
  3 16  1  0  0  0
  4  7  1  0  0  0
  4  8  1  0  0  0
  5 10  1  0  0  0
  5 11  1  0  0  0
  6 19  2  0  0  0
  6  7  1  0  0  0
  7 18  2  0  0  0
  8 12  2  0  0  0
  8 15  1  0  0  0
  9 14  1  0  0  0
  9 17  1  0  0  0
  9 13  1  0  0  0
 10 13  1  0  0  0
 10 24  1  0  0  0
 10 25  1  0  0  0
 11 14  1  0  0  0
 11 26  1  0  0  0
 11 27  1  0  0  0
 13 28  1  0  0  0
 13 29  1  0  0  0
 14 30  1  0  0  0
 14 31  1  0  0  0
 15 20  1  0  0  0
 16 32  1  0  0  0
 16 33  1  0  0  0
 16 34  1  0  0  0
 17 35  1  0  0  0
 17 36  1  0  0  0
 17 37  1  0  0  0
 18 21  1  0  0  0
 18 38  1  0  0  0
 19 23  1  0  0  0
 19 39  1  0  0  0
 20 22  1  0  0  0
 20 40  1  0  0  0
 20 41  1  0  0  0
 21 23  2  0  0  0
 21 42  1  0  0  0
 22 43  1  0  0  0
 22 44  1  0  0  0
 22 45  1  0  0  0
 23 46  1  0  0  0
M  END
> <s_m_entry_id>
8602

> <s_m_entry_name>
dock_pv.112

> <s_m_Source_Path>
/home/csk/Desktop/cluster/DUD-E-result/aces

> <s_m_Source_File>
dock_pv.maegz

> <i_m_Source_File_Index>
112

> <chembl_id>
CHEMBL372262

> <chembl_pref_name>
None

> <i_lp_mmshare_version>
53161

> <i_f3d_flags>
0

> <r_lp_tautomer_probability>
1

> <s_lp_Force_Field>
OPLS_2005

> <r_lp_Energy>
45.876693

> <b_lp_Chiralities_Consistent>
1

> <s_lp_Variant>
CHEMBL220_lig884-1

> <s_i_glide_gridfile>
glide-grid_1e66

> <i_i_glide_lignum>
1191

> <i_i_glide_rotatable_bonds>
4

> <r_i_docking_score>
-7.80838452131601

> <r_i_glide_ligand_efficiency>
-0.339494979187652

> <r_i_glide_ligand_efficiency_sa>
-0.965478560128075

> <r_i_glide_ligand_efficiency_ln>
-1.88813817977053

> <r_i_glide_gscore>
-7.80838452131601

> <r_i_glide_lipo>
-3.55341212529206

> <r_i_glide_hbond>
0

> <r_i_glide_metal>
0

> <r_i_glide_rewards>
-2.50549135986443

> <r_i_glide_evdw>
-40.5517425537109

> <r_i_glide_ecoul>
-1.92812848091125

> <r_i_glide_erotb>
0.567325363662719

> <r_i_glide_esite>
0

> <r_i_glide_emodel>
-58.5174079151452

> <r_i_glide_energy>
-42.4798710346222

> <r_i_glide_einternal>
2.20616269111633

> <i_i_glide_confnum>
27

> <i_i_glide_posenum>
73

> <r_i_glide_eff_state_penalty>
0

> <s_user_duplicate_titles>
CHEMBL220_lig884

> <s_m_subgroup_title>
dock_pv

> <s_m_subgroupid>
dock_pv

> <b_m_subgroup_collapsed>
0

$$$$
CHEMBL220_lig26
                    3D
 Schrodinger Suite 2021-1.
 33 35  0  0  1  0            999 V2000
    2.7207   68.0309   64.2073 C   0  0  2  0  0  0
    4.5239   67.7332   62.4429 C   0  0  2  0  0  0
    4.7204   66.3239   63.0037 C   0  0  0  0  0  0
    3.9642   65.7571   63.9674 C   0  0  0  0  0  0
    2.8140   66.5265   64.6232 C   0  0  0  0  0  0
    5.4691   68.7484   63.1235 C   0  0  0  0  0  0
    3.0823   68.1701   62.7098 C   0  0  0  0  0  0
    5.0060   69.1434   64.5285 C   0  0  0  0  0  0
    3.7576   68.8540   65.0107 C   0  0  0  0  0  0
    3.4810   69.3780   66.3540 C   0  0  0  0  0  0
    4.4283   70.0501   67.0491 C   0  0  0  0  0  0
    5.7891   70.1856   66.5636 C   0  0  0  0  0  0
    5.9430   69.8252   65.2660 N   0  0  0  0  0  0
    6.7434   70.5080   67.2630 O   0  0  0  0  0  0
    2.2822   68.6407   61.7298 C   0  0  0  0  0  0
    4.1621   64.3104   64.3934 C   0  0  0  0  0  0
    1.3768   68.5080   64.4867 N   0  0  0  0  0  0
    4.7268   67.7069   61.3705 H   0  0  0  0  0  0
    5.5317   65.7439   62.5921 H   0  0  0  0  0  0
    1.8909   66.0029   64.3731 H   0  0  0  0  0  0
    2.8709   66.4231   65.7075 H   0  0  0  0  0  0
    6.4735   68.3245   63.1713 H   0  0  0  0  0  0
    5.5966   69.6526   62.5261 H   0  0  0  0  0  0
    2.4912   69.2760   66.7761 H   0  0  0  0  0  0
    4.2019   70.4552   68.0232 H   0  0  0  0  0  0
    6.8800   69.9703   64.9062 H   0  0  0  0  0  0
    1.2679   68.9606   61.9148 H   0  0  0  0  0  0
    2.6362   68.7131   60.7118 H   0  0  0  0  0  0
    4.3402   64.2270   65.4649 H   0  0  0  0  0  0
    5.0051   63.8456   63.8810 H   0  0  0  0  0  0
    3.2712   63.7288   64.1533 H   0  0  0  0  0  0
    1.2797   69.4348   64.1015 H   0  0  0  0  0  0
    0.6970   67.9201   64.0263 H   0  0  0  0  0  0
  1  5  1  0  0  0
  1  7  1  0  0  0
  1  9  1  0  0  0
  1 17  1  0  0  0
  2  3  1  0  0  0
  2  6  1  0  0  0
  2  7  1  0  0  0
  2 18  1  0  0  0
  3  4  2  0  0  0
  3 19  1  0  0  0
  4  5  1  0  0  0
  4 16  1  0  0  0
  5 20  1  0  0  0
  5 21  1  0  0  0
  6  8  1  0  0  0
  6 22  1  0  0  0
  6 23  1  0  0  0
  7 15  2  0  0  0
  8  9  2  0  0  0
  8 13  1  0  0  0
  9 10  1  0  0  0
 10 11  2  0  0  0
 10 24  1  0  0  0
 11 12  1  0  0  0
 11 25  1  0  0  0
 12 13  1  0  0  0
 12 14  2  0  0  0
 13 26  1  0  0  0
 15 27  1  0  0  0
 15 28  1  0  0  0
 16 29  1  0  0  0
 16 30  1  0  0  0
 16 31  1  0  0  0
 17 32  1  0  0  0
 17 33  1  0  0  0
M  END
> <s_m_entry_id>
8603

> <s_m_entry_name>
dock_pv.113

> <s_m_Source_Path>
/home/csk/Desktop/cluster/DUD-E-result/aces

> <s_m_Source_File>
dock_pv.maegz

> <i_m_Source_File_Index>
113

> <chembl_id>
CHEMBL2333848

> <chembl_pref_name>
None

> <i_lp_mmshare_version>
53161

> <i_f3d_flags>
0

> <r_lp_tautomer_probability>
0.999

> <s_lp_Force_Field>
OPLS_2005

> <r_lp_Energy>
21.309399

> <b_lp_Chiralities_Consistent>
1

> <s_lp_Variant>
CHEMBL220_lig26-1

> <s_i_glide_gridfile>
glide-grid_1e66

> <i_i_glide_lignum>
28

> <i_i_glide_rotatable_bonds>
0

> <r_i_docking_score>
-7.80721556838016

> <r_i_glide_ligand_efficiency>
-0.459247974610598

> <r_i_glide_ligand_efficiency_sa>
-1.1808558615481

> <r_i_glide_ligand_efficiency_ln>
-2.03672868364763

> <r_i_glide_gscore>
-7.80721556838016

> <r_i_glide_lipo>
-2.58628673749339

> <r_i_glide_hbond>
-0.32

> <r_i_glide_metal>
0

> <r_i_glide_rewards>
-2.8749560711631

> <r_i_glide_evdw>
-31.4379768371582

> <r_i_glide_ecoul>
-3.02715945243835

> <r_i_glide_erotb>
0

> <r_i_glide_esite>
0

> <r_i_glide_emodel>
-49.6592523431498

> <r_i_glide_energy>
-34.4651362895966

> <r_i_glide_einternal>
0

> <i_i_glide_confnum>
1

> <i_i_glide_posenum>
12

> <r_i_glide_eff_state_penalty>
0

> <s_user_duplicate_titles>
CHEMBL220_lig26

> <s_m_subgroup_title>
dock_pv

> <s_m_subgroupid>
dock_pv

> <b_m_subgroup_collapsed>
0

$$$$
CHEMBL220_lig891
                    3D
 Schrodinger Suite 2021-1.
 66 69  0  0  1  0            999 V2000
    3.4502   69.1705   65.8837 C   0  0  0  0  0  0
    2.3008   69.8621   68.3386 N   0  0  0  0  0  0
    4.2466   69.7155   66.9028 C   0  0  0  0  0  0
    2.0705   68.9039   66.1179 C   0  0  0  0  0  0
    3.6072   70.1092   68.0935 C   0  0  0  0  0  0
    1.5386   69.2784   67.3840 C   0  0  0  0  0  0
    3.9429   61.7220   69.1684 S   0  0  0  0  0  0
    4.3440   62.3617   71.0634 S   0  0  0  0  0  0
    4.4498   65.6023   63.1106 C   0  0  0  0  0  0
    4.0297   68.8982   64.6432 N   0  0  0  0  0  0
    3.9431   64.9081   62.2542 O   0  0  0  0  0  0
    4.8970   66.8344   62.8999 N   0  0  0  0  0  0
    3.2009   63.2724   68.5809 C   0  0  1  0  0  0
    5.7759   69.8299   66.7864 C   0  0  0  0  0  0
    3.0759   64.2650   69.7501 C   0  0  0  0  0  0
    1.1938   68.3146   65.1610 C   0  0  0  0  0  0
    2.9262   63.4727   71.0438 C   0  0  0  0  0  0
    4.3381   70.9082   69.1738 C   0  0  0  0  0  0
    0.1682   69.0783   67.6563 C   0  0  0  0  0  0
    4.6578   65.0662   64.4880 C   0  0  0  0  0  0
    4.2488   70.1080   63.8637 C   0  0  0  0  0  0
    4.9849   67.5076   61.6262 C   0  0  0  0  0  0
    3.8727   63.9121   67.3217 C   0  0  0  0  0  0
    4.4411   63.5654   64.7153 C   0  0  0  0  0  0
    5.0113   69.8911   62.5574 C   0  0  0  0  0  0
    4.3210   68.8925   61.6065 C   0  0  0  0  0  0
    3.5432   63.3052   65.9233 C   0  0  0  0  0  0
    6.3185   71.0163   67.5764 C   0  0  0  0  0  0
   -0.1555   68.1394   65.4601 C   0  0  0  0  0  0
    5.8779   70.9442   69.0300 C   0  0  0  0  0  0
   -0.6660   68.5146   66.6969 C   0  0  0  0  0  0
    3.5005   68.2237   64.1093 H   0  0  0  0  0  0
    5.2212   67.3757   63.6909 H   0  0  0  0  0  0
    2.1995   62.9081   68.3682 H   0  0  0  0  0  0
    6.2132   68.9095   67.1674 H   0  0  0  0  0  0
    6.1329   69.8988   65.7609 H   0  0  0  0  0  0
    2.2244   64.9320   69.6040 H   0  0  0  0  0  0
    3.9641   64.8985   69.8170 H   0  0  0  0  0  0
    1.5683   68.0221   64.1911 H   0  0  0  0  0  0
    2.0032   62.8891   71.0669 H   0  0  0  0  0  0
    2.9479   64.1221   71.9150 H   0  0  0  0  0  0
    4.0604   70.5547   70.1679 H   0  0  0  0  0  0
    3.9461   71.9224   69.0935 H   0  0  0  0  0  0
   -0.2201   69.3891   68.6150 H   0  0  0  0  0  0
    3.9430   65.6420   65.0789 H   0  0  0  0  0  0
    5.6768   65.3170   64.7681 H   0  0  0  0  0  0
    4.7349   70.8938   64.4458 H   0  0  0  0  0  0
    3.2592   70.5043   63.6436 H   0  0  0  0  0  0
    6.0654   67.6373   61.5680 H   0  0  0  0  0  0
    4.6734   66.9079   60.7713 H   0  0  0  0  0  0
    3.4882   64.9171   67.2657 H   0  0  0  0  0  0
    4.9302   64.1081   67.4958 H   0  0  0  0  0  0
    5.3825   63.0246   64.7680 H   0  0  0  0  0  0
    3.9489   63.0921   63.8616 H   0  0  0  0  0  0
    6.0277   69.5710   62.7908 H   0  0  0  0  0  0
    5.1367   70.8513   62.0556 H   0  0  0  0  0  0
    4.3431   69.2935   60.5935 H   0  0  0  0  0  0
    3.2558   68.7987   61.8250 H   0  0  0  0  0  0
    3.4821   62.2381   65.9682 H   0  0  0  0  0  0
    2.6014   63.7081   65.5677 H   0  0  0  0  0  0
    7.4080   71.0219   67.5331 H   0  0  0  0  0  0
    5.9428   71.9429   67.1395 H   0  0  0  0  0  0
   -0.8169   67.7084   64.7236 H   0  0  0  0  0  0
    6.3323   70.1081   69.5230 H   0  0  0  0  0  0
    6.3424   71.7591   69.5673 H   0  0  0  0  0  0
   -1.7157   68.3743   66.9102 H   0  0  0  0  0  0
  1  3  2  0  0  0
  1  4  1  0  0  0
  1 10  1  0  0  0
  2  6  1  0  0  0
  2  5  2  0  0  0
  3  5  1  0  0  0
  3 14  1  0  0  0
  4  6  1  0  0  0
  4 16  2  0  0  0
  5 18  1  0  0  0
  6 19  2  0  0  0
  7 13  1  0  0  0
  7  8  1  0  0  0
  8 17  1  0  0  0
  9 12  1  0  0  0
  9 11  2  0  0  0
  9 20  1  0  0  0
 10 21  1  0  0  0
 10 32  1  0  0  0
 12 22  1  0  0  0
 12 33  1  0  0  0
 13 23  1  0  0  0
 13 15  1  0  0  0
 13 34  1  0  0  0
 14 28  1  0  0  0
 14 35  1  0  0  0
 14 36  1  0  0  0
 15 17  1  0  0  0
 15 37  1  0  0  0
 15 38  1  0  0  0
 16 29  1  0  0  0
 16 39  1  0  0  0
 17 40  1  0  0  0
 17 41  1  0  0  0
 18 30  1  0  0  0
 18 42  1  0  0  0
 18 43  1  0  0  0
 19 31  1  0  0  0
 19 44  1  0  0  0
 20 24  1  0  0  0
 20 45  1  0  0  0
 20 46  1  0  0  0
 21 25  1  0  0  0
 21 47  1  0  0  0
 21 48  1  0  0  0
 22 26  1  0  0  0
 22 49  1  0  0  0
 22 50  1  0  0  0
 23 27  1  0  0  0
 23 51  1  0  0  0
 23 52  1  0  0  0
 24 27  1  0  0  0
 24 53  1  0  0  0
 24 54  1  0  0  0
 25 26  1  0  0  0
 25 55  1  0  0  0
 25 56  1  0  0  0
 26 57  1  0  0  0
 26 58  1  0  0  0
 27 59  1  0  0  0
 27 60  1  0  0  0
 28 30  1  0  0  0
 28 61  1  0  0  0
 28 62  1  0  0  0
 29 31  2  0  0  0
 29 63  1  0  0  0
 30 64  1  0  0  0
 30 65  1  0  0  0
 31 66  1  0  0  0
M  END
> <s_m_entry_id>
8604

> <s_m_entry_name>
dock_pv.114

> <s_m_Source_Path>
/home/csk/Desktop/cluster/DUD-E-result/aces

> <s_m_Source_File>
dock_pv.maegz

> <i_m_Source_File_Index>
114

> <chembl_id>
CHEMBL424833

> <chembl_pref_name>
None

> <i_lp_mmshare_version>
53161

> <i_f3d_flags>
0

> <r_lp_tautomer_probability>
1

> <s_lp_Force_Field>
OPLS_2005

> <r_lp_Energy>
26.323663

> <b_lp_Chiralities_Consistent>
1

> <s_lp_Variant>
CHEMBL220_lig891-1

> <s_i_glide_gridfile>
glide-grid_1e66

> <i_i_glide_lignum>
1200

> <i_i_glide_rotatable_bonds>
12

> <r_i_docking_score>
-7.80361512591384

> <r_i_glide_ligand_efficiency>
-0.251729520190769

> <r_i_glide_ligand_efficiency_sa>
-0.790778243457876

> <r_i_glide_ligand_efficiency_ln>
-1.7599543629761

> <r_i_glide_gscore>
-7.80361512591384

> <r_i_glide_lipo>
-4.1950662292383

> <r_i_glide_hbond>
-0.469575705943496

> <r_i_glide_metal>
0

> <r_i_glide_rewards>
-1.18762711533124

> <r_i_glide_evdw>
-21.0967483520508

> <r_i_glide_ecoul>
-11.648042678833

> <r_i_glide_erotb>
0.95982019402778

> <r_i_glide_esite>
-0.109122450001097

> <r_i_glide_emodel>
-31.9885300142114

> <r_i_glide_energy>
-32.7447910308838

> <r_i_glide_einternal>
13.0818758010864

> <i_i_glide_confnum>
100

> <i_i_glide_posenum>
254

> <r_i_glide_eff_state_penalty>
0

> <s_user_duplicate_titles>
CHEMBL220_lig891,323508

> <s_m_subgroup_title>
dock_pv

> <s_m_subgroupid>
dock_pv

> <b_m_subgroup_collapsed>
0

$$$$
CHEMBL220_lig832
                    3D
 Schrodinger Suite 2021-1.
 61 64  0  0  1  0            999 V2000
    0.2241   66.9806   67.5117 C   0  0  0  0  0  0
   -1.0509   67.9424   66.7456 S   0  0  0  0  0  0
   -0.0869   66.3185   68.8104 C   0  0  0  0  0  0
    1.3223   66.9081   66.6578 C   0  0  0  0  0  0
   -0.0750   68.2190   65.3045 C   0  0  0  0  0  0
    0.9546   65.9843   69.9296 C   0  0  2  0  0  0
    1.2074   67.6474   65.4577 C   0  0  0  0  0  0
    1.7931   62.6375   70.9066 N   0  3  2  0  0  0
   -0.4312   68.8936   64.1249 C   0  0  0  0  0  0
    0.5374   69.0677   63.1328 C   0  0  0  0  0  0
    2.1638   67.8353   64.4495 C   0  0  0  0  0  0
    1.8447   68.5809   63.3062 C   0  0  0  0  0  0
    2.0505   64.9261   69.5693 C   0  0  0  0  0  0
    0.3562   65.6962   71.3669 C   0  0  2  0  0  0
    0.0693   64.2758   71.8909 C   0  0  0  0  0  0
   -1.2570   66.1080   69.0806 O   0  0  0  0  0  0
    1.6308   63.4250   69.5679 C   0  0  0  0  0  0
    1.3408   63.4576   72.1317 C   0  0  0  0  0  0
    3.2898   62.2013   71.1343 C   0  0  0  0  0  0
    0.1788   69.8213   62.0361 O   0  0  0  0  0  0
    2.7769   68.8816   62.3286 O   0  0  0  0  0  0
    0.8413   61.4055   70.8319 C   0  0  0  0  0  0
   -0.6137   66.5080   71.9650 O   0  0  0  0  0  0
    3.5808   60.7292   70.8842 C   0  0  0  0  0  0
    4.1502   68.5567   62.5159 C   0  0  0  0  0  0
    0.3429   69.2033   60.7652 C   0  0  0  0  0  0
    3.5401   59.8239   71.9482 C   0  0  0  0  0  0
    3.7352   60.2798   69.5759 C   0  0  0  0  0  0
    3.5427   58.4582   71.6867 C   0  0  0  0  0  0
    3.7145   58.9159   69.3145 C   0  0  0  0  0  0
    3.5979   58.0136   70.3689 C   0  0  0  0  0  0
    2.1981   66.3007   66.7790 H   0  0  0  0  0  0
    1.4787   66.9376   70.0185 H   0  0  0  0  0  0
   -1.4204   69.3077   63.9988 H   0  0  0  0  0  0
    3.1504   67.4256   64.5860 H   0  0  0  0  0  0
    2.4719   65.1569   68.5975 H   0  0  0  0  0  0
    2.8929   65.0606   70.2495 H   0  0  0  0  0  0
    1.1430   66.0710   71.9680 H   0  0  0  0  0  0
   -0.4599   64.3122   72.8455 H   0  0  0  0  0  0
   -0.6358   63.7758   71.2299 H   0  0  0  0  0  0
    2.2144   62.8504   68.8481 H   0  0  0  0  0  0
    0.5854   63.3393   69.2660 H   0  0  0  0  0  0
    2.1789   64.1080   72.3679 H   0  0  0  0  0  0
    1.2270   62.7498   72.9552 H   0  0  0  0  0  0
    3.9121   62.8457   70.5113 H   0  0  0  0  0  0
    3.5531   62.4255   72.1697 H   0  0  0  0  0  0
    1.1397   60.8133   69.9683 H   0  0  0  0  0  0
    0.9489   60.8236   71.7480 H   0  0  0  0  0  0
   -0.1910   61.7321   70.7214 H   0  0  0  0  0  0
   -0.3340   67.4328   72.0044 H   0  0  0  0  0  0
    4.7228   68.9056   61.6556 H   0  0  0  0  0  0
    4.3052   67.4812   62.5975 H   0  0  0  0  0  0
    4.5579   69.0466   63.4016 H   0  0  0  0  0  0
   -0.2040   69.7729   60.0142 H   0  0  0  0  0  0
    1.3791   69.1675   60.4360 H   0  0  0  0  0  0
   -0.0544   68.1889   60.7711 H   0  0  0  0  0  0
    3.4311   60.1678   72.9671 H   0  0  0  0  0  0
    3.7788   60.9907   68.7682 H   0  0  0  0  0  0
    3.4756   57.7458   72.4978 H   0  0  0  0  0  0
    3.7457   58.5599   68.2957 H   0  0  0  0  0  0
    3.5570   56.9552   70.1636 H   0  0  0  0  0  0
  1  2  1  0  0  0
  1  3  1  0  0  0
  1  4  2  0  0  0
  2  5  1  0  0  0
  3  6  1  0  0  0
  3 16  2  0  0  0
  4  7  1  0  0  0
  4 32  1  0  0  0
  5  9  1  0  0  0
  5  7  2  0  0  0
  6 13  1  0  0  0
  6 14  1  0  0  0
  6 33  1  0  0  0
  7 11  1  0  0  0
  8 17  1  0  0  0
  8 19  1  0  0  0
  8 22  1  0  0  0
  8 18  1  0  0  0
  9 10  2  0  0  0
  9 34  1  0  0  0
 10 20  1  0  0  0
 10 12  1  0  0  0
 11 12  2  0  0  0
 11 35  1  0  0  0
 12 21  1  0  0  0
 13 17  1  0  0  0
 13 36  1  0  0  0
 13 37  1  0  0  0
 14 15  1  0  0  0
 14 23  1  0  0  0
 14 38  1  0  0  0
 15 18  1  0  0  0
 15 39  1  0  0  0
 15 40  1  0  0  0
 17 41  1  0  0  0
 17 42  1  0  0  0
 18 43  1  0  0  0
 18 44  1  0  0  0
 19 24  1  0  0  0
 19 45  1  0  0  0
 19 46  1  0  0  0
 20 26  1  0  0  0
 21 25  1  0  0  0
 22 47  1  0  0  0
 22 48  1  0  0  0
 22 49  1  0  0  0
 23 50  1  0  0  0
 24 27  2  0  0  0
 24 28  1  0  0  0
 25 51  1  0  0  0
 25 52  1  0  0  0
 25 53  1  0  0  0
 26 54  1  0  0  0
 26 55  1  0  0  0
 26 56  1  0  0  0
 27 29  1  0  0  0
 27 57  1  0  0  0
 28 30  2  0  0  0
 28 58  1  0  0  0
 29 31  2  0  0  0
 29 59  1  0  0  0
 30 31  1  0  0  0
 30 60  1  0  0  0
 31 61  1  0  0  0
M  CHG  1   8   1
M  END
> <s_m_entry_id>
8605

> <s_m_entry_name>
dock_pv.115

> <s_m_Source_Path>
/home/csk/Desktop/cluster/DUD-E-result/aces

> <s_m_Source_File>
dock_pv.maegz

> <i_m_Source_File_Index>
115

> <chembl_id>
CHEMBL361869

> <chembl_pref_name>
None

> <i_lp_mmshare_version>
53161

> <i_f3d_flags>
0

> <r_lp_tautomer_probability>
0.99990000499975

> <s_lp_Force_Field>
OPLS_2005

> <r_lp_Energy>
58.337062

> <b_lp_Chiralities_Consistent>
1

> <s_lp_Variant>
CHEMBL220_lig832-1

> <s_i_glide_gridfile>
glide-grid_1e66

> <i_i_glide_lignum>
1032

> <i_i_glide_rotatable_bonds>
7

> <r_i_docking_score>
-7.8014811458703

> <r_i_glide_ligand_efficiency>
-0.251660682124848

> <r_i_glide_ligand_efficiency_sa>
-0.790561996889693

> <r_i_glide_ligand_efficiency_ln>
-1.75947308507765

> <r_i_glide_gscore>
-7.8014811458703

> <r_i_glide_lipo>
-3.8934017627107

> <r_i_glide_hbond>
0

> <r_i_glide_metal>
0

> <r_i_glide_rewards>
-2.04001460066099

> <r_i_glide_evdw>
-32.0208473205566

> <r_i_glide_ecoul>
-4.52334785461426

> <r_i_glide_erotb>
0.411479761721355

> <r_i_glide_esite>
0

> <r_i_glide_emodel>
-34.186694933319

> <r_i_glide_energy>
-36.5441951751709

> <r_i_glide_einternal>
32.4328079223633

> <i_i_glide_confnum>
4

> <i_i_glide_posenum>
29

> <r_i_glide_eff_state_penalty>
0

> <s_user_duplicate_titles>
CHEMBL220_lig832

> <s_m_subgroup_title>
dock_pv

> <s_m_subgroupid>
dock_pv

> <b_m_subgroup_collapsed>
0

$$$$
CHEMBL220_lig910
                    3D
 Schrodinger Suite 2021-1.
 45 47  0  0  1  0            999 V2000
    2.6032   68.1108   65.2193 C   0  0  0  0  0  0
    0.5913   67.9680   67.2990 C   0  0  2  0  0  0
    2.8014   68.9242   66.3680 C   0  0  0  0  0  0
    1.8145   68.9372   67.3957 C   0  0  0  0  0  0
    3.6048   68.1047   64.2375 C   0  0  0  0  0  0
    0.8252   66.9103   66.3968 O   0  0  0  0  0  0
    3.9795   69.7080   66.5352 C   0  0  0  0  0  0
   -0.6718   68.7400   66.8633 C   0  0  0  0  0  0
    1.3083   67.3085   65.1117 C   0  0  0  0  0  0
    4.7468   68.9184   64.3715 C   0  0  0  0  0  0
    4.9488   69.6897   65.5128 C   0  0  0  0  0  0
    1.9448   69.7436   68.4775 N   0  0  0  0  0  0
    0.3124   67.4218   68.5631 O   0  0  0  0  0  0
    3.3963   67.3080   63.1311 O   0  0  0  0  0  0
    5.6822   68.9964   63.3732 O   0  0  0  0  0  0
    3.0809   70.4619   68.6464 C   0  0  0  0  0  0
   -1.9149   67.8527   66.5705 C   0  0  1  0  0  0
    4.1273   70.4679   67.7254 C   0  0  0  0  0  0
   -2.4570   67.3213   67.7656 O   0  0  0  0  0  0
   -2.6776   68.9080   64.4953 O   0  0  0  0  0  0
   -3.0244   68.6425   65.8420 C   0  0  0  0  0  0
    1.2871   66.6254   69.2227 C   0  0  0  0  0  0
    4.4823   66.5117   62.6680 C   0  0  0  0  0  0
    5.3041   69.8716   62.3180 C   0  0  0  0  0  0
   -0.4218   69.3185   65.9759 H   0  0  0  0  0  0
   -0.9108   69.4733   67.6364 H   0  0  0  0  0  0
    0.5571   67.8825   64.5685 H   0  0  0  0  0  0
    1.4660   66.3993   64.5342 H   0  0  0  0  0  0
    5.8377   70.2965   65.6070 H   0  0  0  0  0  0
    3.1430   71.0348   69.5592 H   0  0  0  0  0  0
   -1.6231   66.9964   65.9680 H   0  0  0  0  0  0
    5.0160   71.0594   67.8882 H   0  0  0  0  0  0
   -3.3163   66.9269   67.5680 H   0  0  0  0  0  0
   -2.4570   69.8501   64.3830 H   0  0  0  0  0  0
   -3.9626   68.0859   65.8397 H   0  0  0  0  0  0
   -3.2333   69.5716   66.3680 H   0  0  0  0  0  0
    0.8328   66.1741   70.1044 H   0  0  0  0  0  0
    1.6504   65.8146   68.5924 H   0  0  0  0  0  0
    2.1294   67.2231   69.5680 H   0  0  0  0  0  0
    4.0821   65.6163   62.1948 H   0  0  0  0  0  0
    5.0701   67.0385   61.9158 H   0  0  0  0  0  0
    5.1430   66.1873   63.4740 H   0  0  0  0  0  0
    5.9430   69.7080   61.4547 H   0  0  0  0  0  0
    4.2748   69.7223   61.9858 H   0  0  0  0  0  0
    5.4227   70.9080   62.6300 H   0  0  0  0  0  0
  1  3  2  0  0  0
  1  5  1  0  0  0
  1  9  1  0  0  0
  2  6  1  0  0  0
  2  8  1  0  0  0
  2 13  1  0  0  0
  2  4  1  0  0  0
  3  4  1  0  0  0
  3  7  1  0  0  0
  4 12  2  0  0  0
  5 10  2  0  0  0
  5 14  1  0  0  0
  6  9  1  0  0  0
  7 18  1  0  0  0
  7 11  2  0  0  0
  8 17  1  0  0  0
  8 25  1  0  0  0
  8 26  1  0  0  0
  9 27  1  0  0  0
  9 28  1  0  0  0
 10 11  1  0  0  0
 10 15  1  0  0  0
 11 29  1  0  0  0
 12 16  1  0  0  0
 13 22  1  0  0  0
 14 23  1  0  0  0
 15 24  1  0  0  0
 16 18  2  0  0  0
 16 30  1  0  0  0
 17 19  1  0  0  0
 17 21  1  0  0  0
 17 31  1  0  0  0
 18 32  1  0  0  0
 19 33  1  0  0  0
 20 21  1  0  0  0
 20 34  1  0  0  0
 21 35  1  0  0  0
 21 36  1  0  0  0
 22 37  1  0  0  0
 22 38  1  0  0  0
 22 39  1  0  0  0
 23 40  1  0  0  0
 23 41  1  0  0  0
 23 42  1  0  0  0
 24 43  1  0  0  0
 24 44  1  0  0  0
 24 45  1  0  0  0
M  END
> <s_m_entry_id>
8606

> <s_m_entry_name>
dock_pv.116

> <s_m_Source_Path>
/home/csk/Desktop/cluster/DUD-E-result/aces

> <s_m_Source_File>
dock_pv.maegz

> <i_m_Source_File_Index>
116

> <chembl_id>
CHEMBL371006

> <chembl_pref_name>
None

> <i_lp_mmshare_version>
53161

> <i_f3d_flags>
0

> <r_lp_tautomer_probability>
1

> <s_lp_Force_Field>
OPLS_2005

> <r_lp_Energy>
39.190256

> <b_lp_Chiralities_Consistent>
1

> <s_lp_Variant>
CHEMBL220_lig910-3

> <s_i_glide_gridfile>
glide-grid_1e66

> <i_i_glide_lignum>
1238

> <i_i_glide_rotatable_bonds>
8

> <r_i_docking_score>
-7.79923508341262

> <r_i_glide_ligand_efficiency>
-0.324968128475526

> <r_i_glide_ligand_efficiency_sa>
-0.937370286321855

> <r_i_glide_ligand_efficiency_ln>
-1.86671483903861

> <r_i_glide_gscore>
-7.79923508341262

> <r_i_glide_lipo>
-3.59146918532366

> <r_i_glide_hbond>
-0.304

> <r_i_glide_metal>
0

> <r_i_glide_rewards>
-1.70547894362365

> <r_i_glide_evdw>
-35.194465637207

> <r_i_glide_ecoul>
-6.28001499176025

> <r_i_glide_erotb>
0.503438576159085

> <r_i_glide_esite>
0

> <r_i_glide_emodel>
-52.2840572252877

> <r_i_glide_energy>
-41.4744806289673

> <r_i_glide_einternal>
10.6254844665527

> <i_i_glide_confnum>
7

> <i_i_glide_posenum>
102

> <r_i_glide_eff_state_penalty>
0

> <s_user_duplicate_titles>
CHEMBL220_lig910

> <s_m_subgroup_title>
dock_pv

> <s_m_subgroupid>
dock_pv

> <b_m_subgroup_collapsed>
0

$$$$
CHEMBL220_lig821
                    3D
 Schrodinger Suite 2021-1.
 30 32  0  0  1  0            999 V2000
    3.0037   69.0099   65.4667 N   0  0  0  0  0  0
    1.9674   68.7572   63.2833 C   0  0  0  0  0  0
    0.7171   68.5080   63.9163 C   0  0  0  0  0  0
    0.6308   68.5078   65.3198 C   0  0  0  0  0  0
    1.7929   68.8347   66.0518 C   0  0  0  0  0  0
    3.1037   68.9784   64.1150 C   0  0  0  0  0  0
    2.1450   68.7707   61.8742 C   0  0  0  0  0  0
    4.3752   69.1823   63.5249 C   0  0  0  0  0  0
   -0.4285   68.2447   63.1563 N   0  0  0  0  0  0
    3.4048   68.9535   61.3251 C   0  0  0  0  0  0
    4.5130   69.1596   62.1391 C   0  0  0  0  0  0
   -0.6707   68.1127   66.0421 C   0  0  0  0  0  0
    3.5430   68.9081   59.9688 O   0  0  0  0  0  0
    1.7308   68.9987   67.5659 C   0  0  0  0  0  0
   -0.6484   68.2899   67.5680 C   0  0  0  0  0  0
    0.7337   68.0042   68.1734 C   0  0  0  0  0  0
    1.3033   68.6071   61.2182 H   0  0  0  0  0  0
    5.2365   69.3535   64.1558 H   0  0  0  0  0  0
   -1.1936   67.7900   63.6386 H   0  0  0  0  0  0
   -0.3236   68.1048   62.1636 H   0  0  0  0  0  0
    5.4891   69.3065   61.6975 H   0  0  0  0  0  0
   -1.5259   68.6459   65.6252 H   0  0  0  0  0  0
   -0.8466   67.0544   65.8477 H   0  0  0  0  0  0
    4.4816   68.7897   59.7190 H   0  0  0  0  0  0
    2.7171   68.9080   68.0212 H   0  0  0  0  0  0
    1.4086   70.0167   67.7900 H   0  0  0  0  0  0
   -0.9510   69.3084   67.8214 H   0  0  0  0  0  0
   -1.4035   67.6367   68.0059 H   0  0  0  0  0  0
    0.7032   68.1079   69.2580 H   0  0  0  0  0  0
    1.0395   66.9756   67.9730 H   0  0  0  0  0  0
  1  5  2  0  0  0
  1  6  1  0  0  0
  2  6  1  0  0  0
  2  3  1  0  0  0
  2  7  2  0  0  0
  3  9  1  0  0  0
  3  4  2  0  0  0
  4  5  1  0  0  0
  4 12  1  0  0  0
  5 14  1  0  0  0
  6  8  2  0  0  0
  7 10  1  0  0  0
  7 17  1  0  0  0
  8 11  1  0  0  0
  8 18  1  0  0  0
  9 19  1  0  0  0
  9 20  1  0  0  0
 10 11  2  0  0  0
 10 13  1  0  0  0
 11 21  1  0  0  0
 12 15  1  0  0  0
 12 22  1  0  0  0
 12 23  1  0  0  0
 13 24  1  0  0  0
 14 16  1  0  0  0
 14 25  1  0  0  0
 14 26  1  0  0  0
 15 16  1  0  0  0
 15 27  1  0  0  0
 15 28  1  0  0  0
 16 29  1  0  0  0
 16 30  1  0  0  0
M  END
> <s_m_entry_id>
8607

> <s_m_entry_name>
dock_pv.117

> <s_m_Source_Path>
/home/csk/Desktop/cluster/DUD-E-result/aces

> <s_m_Source_File>
dock_pv.maegz

> <i_m_Source_File_Index>
117

> <chembl_id>
CHEMBL1161715

> <chembl_pref_name>
None

> <i_lp_mmshare_version>
53161

> <i_f3d_flags>
0

> <r_lp_tautomer_probability>
1

> <s_lp_Force_Field>
OPLS_2005

> <r_lp_Energy>
14.248193

> <b_lp_Chiralities_Consistent>
1

> <s_lp_Variant>
CHEMBL220_lig821-1

> <s_i_glide_gridfile>
glide-grid_1e66

> <i_i_glide_lignum>
1016

> <i_i_glide_rotatable_bonds>
1

> <r_i_docking_score>
-7.7971602485333

> <r_i_glide_ligand_efficiency>
-0.487322515533332

> <r_i_glide_ligand_efficiency_sa>
-1.22797578968144

> <r_i_glide_ligand_efficiency_ln>
-2.06679307568521

> <r_i_glide_gscore>
-7.7971602485333

> <r_i_glide_lipo>
-2.69254738204622

> <r_i_glide_hbond>
-0.337595390450784

> <r_i_glide_metal>
0

> <r_i_glide_rewards>
-2.15653974242424

> <r_i_glide_evdw>
-26.0153789520264

> <r_i_glide_ecoul>
-8.73139190673828

> <r_i_glide_erotb>
0

> <r_i_glide_esite>
0

> <r_i_glide_emodel>
-49.7170081714595

> <r_i_glide_energy>
-34.7467708587646

> <r_i_glide_einternal>
1.65168392658234

> <i_i_glide_confnum>
1

> <i_i_glide_posenum>
326

> <r_i_glide_eff_state_penalty>
0

> <s_user_duplicate_titles>
CHEMBL220_lig821

> <s_m_subgroup_title>
dock_pv

> <s_m_subgroupid>
dock_pv

> <b_m_subgroup_collapsed>
0

$$$$
CHEMBL220_lig945
                    3D
 Schrodinger Suite 2021-1.
 52 54  0  0  1  0            999 V2000
    5.3912   70.5790   67.5124 C   0  0  0  0  0  0
    5.2517   70.2563   66.1619 C   0  0  0  0  0  0
    4.0469   69.7075   65.6940 C   0  0  0  0  0  0
    4.2624   70.5092   68.3314 C   0  0  0  0  0  0
    3.0712   69.9385   67.8680 C   0  0  0  0  0  0
    2.9453   69.4923   66.5345 C   0  0  0  0  0  0
    1.6476   68.9081   66.0808 C   0  0  0  0  0  0
    0.5761   69.0083   66.8836 N   0  3  0  0  0  0
    0.5420   69.7600   68.1664 C   0  0  0  0  0  0
    1.9327   69.7365   68.8365 C   0  0  0  0  0  0
    1.5402   68.3339   64.6862 C   0  0  0  0  0  0
    2.4643   67.1750   64.4355 C   0  0  0  0  0  0
    2.3352   65.9769   65.1405 C   0  0  0  0  0  0
    3.1675   64.8952   64.8443 C   0  0  0  0  0  0
    4.1988   65.0461   63.9027 C   0  0  0  0  0  0
    4.3430   66.2679   63.2541 C   0  0  0  0  0  0
    3.4551   67.3097   63.4852 C   0  0  0  0  0  0
   -0.7799   68.5304   66.4461 C   0  0  0  0  0  0
    5.3594   66.3821   62.3621 O   0  0  0  0  0  0
    5.9257   67.6602   62.2265 C   0  0  0  0  0  0
    6.6371   71.0017   67.9343 O   0  0  0  0  0  0
    7.0263   70.9591   69.3046 C   0  0  0  0  0  0
    6.3207   70.5471   65.3450 O   0  0  0  0  0  0
    6.0910   70.8813   63.9776 C   0  0  0  0  0  0
    5.1282   64.0843   63.5674 O   0  0  0  0  0  0
    4.7987   62.7287   63.7592 C   0  0  0  0  0  0
    3.9768   69.4815   64.6479 H   0  0  0  0  0  0
    4.2982   70.8301   69.3606 H   0  0  0  0  0  0
   -0.2210   69.2943   68.7684 H   0  0  0  0  0  0
    0.2157   70.7777   67.9702 H   0  0  0  0  0  0
    1.9657   70.5356   69.5697 H   0  0  0  0  0  0
    2.0726   68.7923   69.3645 H   0  0  0  0  0  0
    1.7211   69.1492   63.9839 H   0  0  0  0  0  0
    0.5377   67.9824   64.4439 H   0  0  0  0  0  0
    1.5584   65.8795   65.8822 H   0  0  0  0  0  0
    3.0417   63.9668   65.3712 H   0  0  0  0  0  0
    3.5164   68.2262   62.9227 H   0  0  0  0  0  0
   -1.5092   68.7015   67.2367 H   0  0  0  0  0  0
   -1.0736   69.0956   65.5590 H   0  0  0  0  0  0
   -0.7240   67.4612   66.2303 H   0  0  0  0  0  0
    6.7431   67.5079   61.5681 H   0  0  0  0  0  0
    5.2737   68.4008   61.7644 H   0  0  0  0  0  0
    6.3267   68.0104   63.1753 H   0  0  0  0  0  0
    7.6212   71.8430   69.5315 H   0  0  0  0  0  0
    6.2250   70.9078   70.0363 H   0  0  0  0  0  0
    7.6812   70.1053   69.4690 H   0  0  0  0  0  0
    6.7412   71.7101   63.6939 H   0  0  0  0  0  0
    6.3426   70.0616   63.3256 H   0  0  0  0  0  0
    5.0674   71.1400   63.7321 H   0  0  0  0  0  0
    5.6387   62.1100   63.4464 H   0  0  0  0  0  0
    4.5777   62.5186   64.8007 H   0  0  0  0  0  0
    3.9426   62.4513   63.1542 H   0  0  0  0  0  0
  1  2  2  0  0  0
  1  4  1  0  0  0
  1 21  1  0  0  0
  2  3  1  0  0  0
  2 23  1  0  0  0
  3  6  2  0  0  0
  3 27  1  0  0  0
  4  5  2  0  0  0
  4 28  1  0  0  0
  5 10  1  0  0  0
  5  6  1  0  0  0
  6  7  1  0  0  0
  7  8  2  0  0  0
  7 11  1  0  0  0
  8 18  1  0  0  0
  8  9  1  0  0  0
  9 10  1  0  0  0
  9 29  1  0  0  0
  9 30  1  0  0  0
 10 31  1  0  0  0
 10 32  1  0  0  0
 11 12  1  0  0  0
 11 33  1  0  0  0
 11 34  1  0  0  0
 12 13  2  0  0  0
 12 17  1  0  0  0
 13 14  1  0  0  0
 13 35  1  0  0  0
 14 15  2  0  0  0
 14 36  1  0  0  0
 15 16  1  0  0  0
 15 25  1  0  0  0
 16 17  2  0  0  0
 16 19  1  0  0  0
 17 37  1  0  0  0
 18 38  1  0  0  0
 18 39  1  0  0  0
 18 40  1  0  0  0
 19 20  1  0  0  0
 20 41  1  0  0  0
 20 42  1  0  0  0
 20 43  1  0  0  0
 21 22  1  0  0  0
 22 44  1  0  0  0
 22 45  1  0  0  0
 22 46  1  0  0  0
 23 24  1  0  0  0
 24 47  1  0  0  0
 24 48  1  0  0  0
 24 49  1  0  0  0
 25 26  1  0  0  0
 26 50  1  0  0  0
 26 51  1  0  0  0
 26 52  1  0  0  0
M  CHG  1   8   1
M  END
> <s_m_entry_id>
8608

> <s_m_entry_name>
dock_pv.118

> <s_m_Source_Path>
/home/csk/Desktop/cluster/DUD-E-result/aces

> <s_m_Source_File>
dock_pv.maegz

> <i_m_Source_File_Index>
118

> <chembl_id>
CHEMBL383242

> <chembl_pref_name>
None

> <i_lp_mmshare_version>
53161

> <i_f3d_flags>
0

> <r_lp_tautomer_probability>
1

> <s_lp_Force_Field>
OPLS_2005

> <r_lp_Energy>
40.833639

> <b_lp_Chiralities_Consistent>
1

> <s_lp_Variant>
CHEMBL220_lig945-1

> <s_i_glide_gridfile>
glide-grid_1e66

> <i_i_glide_lignum>
1280

> <i_i_glide_rotatable_bonds>
6

> <r_i_docking_score>
-7.79688591401089

> <r_i_glide_ligand_efficiency>
-0.299880227461957

> <r_i_glide_ligand_efficiency_sa>
-0.888393993884332

> <r_i_glide_ligand_efficiency_ln>
-1.83107307323608

> <r_i_glide_gscore>
-7.79688591401089

> <r_i_glide_lipo>
-3.20507499586944

> <r_i_glide_hbond>
-0.275231290745292

> <r_i_glide_metal>
0

> <r_i_glide_rewards>
-2.06535514173983

> <r_i_glide_evdw>
-27.9988079071045

> <r_i_glide_ecoul>
-7.68313884735107

> <r_i_glide_erotb>
0.301186736801552

> <r_i_glide_esite>
0

> <r_i_glide_emodel>
-46.4273189220232

> <r_i_glide_energy>
-35.6819467544556

> <r_i_glide_einternal>
3.04752469062805

> <i_i_glide_confnum>
1

> <i_i_glide_posenum>
130

> <r_i_glide_eff_state_penalty>
0

> <s_user_duplicate_titles>
CHEMBL220_lig945

> <s_m_subgroup_title>
dock_pv

> <s_m_subgroupid>
dock_pv

> <b_m_subgroup_collapsed>
0

$$$$
CHEMBL220_lig253
                    3D
 Schrodinger Suite 2021-1.
 58 61  0  0  1  0            999 V2000
    1.5100   68.7603   67.7423 S   0  0  0  0  0  0
    0.2617   67.6196   67.2308 C   0  0  0  0  0  0
    2.1899   68.8132   66.1268 C   0  0  0  0  0  0
    1.5713   63.8869   70.9134 N   0  3  1  0  0  0
    1.2532   68.3025   65.2044 C   0  0  0  0  0  0
    0.1453   67.7223   65.8578 C   0  0  0  0  0  0
    3.4301   69.3112   65.7091 C   0  0  0  0  0  0
    3.7165   69.3101   64.3445 C   0  0  0  0  0  0
    1.5213   68.4074   63.8359 C   0  0  0  0  0  0
    2.7563   68.9119   63.4025 C   0  0  0  0  0  0
    2.4974   63.2447   69.8129 C   0  0  0  0  0  0
   -0.6603   66.7953   68.1379 C   0  0  0  0  0  0
    1.8031   65.4157   70.9650 C   0  0  0  0  0  0
    0.0428   63.6805   70.7388 C   0  0  0  0  0  0
    4.9383   69.7917   63.9468 O   0  0  0  0  0  0
    3.0906   69.0401   62.0680 O   0  0  0  0  0  0
   -0.1266   66.0224   69.4277 C   0  0  2  0  0  0
    1.9195   63.3090   72.3037 C   0  0  0  0  0  0
    3.0699   61.8524   70.0831 C   0  0  0  0  0  0
    1.3847   66.1223   69.6754 C   0  0  0  0  0  0
   -0.4731   64.4900   69.5371 C   0  0  0  0  0  0
    5.8368   68.8024   63.4642 C   0  0  0  0  0  0
    2.0802   68.9082   61.0785 C   0  0  0  0  0  0
    4.2554   61.7020   70.8130 C   0  0  0  0  0  0
    2.4133   60.7270   69.5926 C   0  0  0  0  0  0
    2.8718   59.4530   69.9100 C   0  0  0  0  0  0
    4.7167   60.4300   71.1376 C   0  0  0  0  0  0
    4.0068   59.3128   70.7000 C   0  0  0  0  0  0
   -0.6775   67.3081   65.3026 H   0  0  0  0  0  0
    4.1502   69.6940   66.4188 H   0  0  0  0  0  0
    0.7716   68.0609   63.1443 H   0  0  0  0  0  0
    1.9456   63.2512   68.8812 H   0  0  0  0  0  0
    3.3384   63.9281   69.6878 H   0  0  0  0  0  0
   -1.4971   67.4455   68.3680 H   0  0  0  0  0  0
   -1.1703   66.1077   67.4803 H   0  0  0  0  0  0
    1.1438   65.7843   71.7601 H   0  0  0  0  0  0
    2.8605   65.5837   71.1680 H   0  0  0  0  0  0
   -0.4514   64.0084   71.6557 H   0  0  0  0  0  0
   -0.1236   62.6080   70.6196 H   0  0  0  0  0  0
   -0.6026   66.5045   70.2833 H   0  0  0  0  0  0
    2.9985   63.4107   72.3677 H   0  0  0  0  0  0
    1.3965   63.8555   73.0871 H   0  0  0  0  0  0
    1.6336   62.2557   72.3167 H   0  0  0  0  0  0
    1.9364   65.7438   68.8154 H   0  0  0  0  0  0
    1.6761   67.1599   69.8043 H   0  0  0  0  0  0
   -1.5095   64.2811   69.3515 H   0  0  0  0  0  0
   -0.0558   63.9172   68.7680 H   0  0  0  0  0  0
    6.7423   69.2857   63.1084 H   0  0  0  0  0  0
    6.1148   68.1117   64.2606 H   0  0  0  0  0  0
    5.4307   68.2296   62.6298 H   0  0  0  0  0  0
    2.5456   68.9103   60.0936 H   0  0  0  0  0  0
    1.3788   69.7416   61.1321 H   0  0  0  0  0  0
    1.5234   67.9799   61.1679 H   0  0  0  0  0  0
    4.8001   62.5661   71.1656 H   0  0  0  0  0  0
    1.5430   60.8434   68.9741 H   0  0  0  0  0  0
    2.3449   58.5782   69.5552 H   0  0  0  0  0  0
    5.6070   60.3148   71.7394 H   0  0  0  0  0  0
    4.3446   58.3214   70.9637 H   0  0  0  0  0  0
  1  2  1  0  0  0
  1  3  1  0  0  0
  2  6  2  0  0  0
  2 12  1  0  0  0
  3  5  1  0  0  0
  3  7  2  0  0  0
  4 13  1  0  0  0
  4 11  1  0  0  0
  4 18  1  0  0  0
  4 14  1  0  0  0
  5  9  2  0  0  0
  5  6  1  0  0  0
  6 29  1  0  0  0
  7  8  1  0  0  0
  7 30  1  0  0  0
  8 10  2  0  0  0
  8 15  1  0  0  0
  9 10  1  0  0  0
  9 31  1  0  0  0
 10 16  1  0  0  0
 11 19  1  0  0  0
 11 32  1  0  0  0
 11 33  1  0  0  0
 12 17  1  0  0  0
 12 34  1  0  0  0
 12 35  1  0  0  0
 13 20  1  0  0  0
 13 36  1  0  0  0
 13 37  1  0  0  0
 14 21  1  0  0  0
 14 38  1  0  0  0
 14 39  1  0  0  0
 15 22  1  0  0  0
 16 23  1  0  0  0
 17 20  1  0  0  0
 17 21  1  0  0  0
 17 40  1  0  0  0
 18 41  1  0  0  0
 18 42  1  0  0  0
 18 43  1  0  0  0
 19 24  2  0  0  0
 19 25  1  0  0  0
 20 44  1  0  0  0
 20 45  1  0  0  0
 21 46  1  0  0  0
 21 47  1  0  0  0
 22 48  1  0  0  0
 22 49  1  0  0  0
 22 50  1  0  0  0
 23 51  1  0  0  0
 23 52  1  0  0  0
 23 53  1  0  0  0
 24 27  1  0  0  0
 24 54  1  0  0  0
 25 26  2  0  0  0
 25 55  1  0  0  0
 26 28  1  0  0  0
 26 56  1  0  0  0
 27 28  2  0  0  0
 27 57  1  0  0  0
 28 58  1  0  0  0
M  CHG  1   4   1
M  END
> <s_m_entry_id>
8609

> <s_m_entry_name>
dock_pv.119

> <s_m_Source_Path>
/home/csk/Desktop/cluster/DUD-E-result/aces

> <s_m_Source_File>
dock_pv.maegz

> <i_m_Source_File_Index>
119

> <chembl_id>
CHEMBL86233

> <chembl_pref_name>
None

> <i_lp_mmshare_version>
53161

> <i_f3d_flags>
0

> <r_lp_tautomer_probability>
1

> <s_lp_Force_Field>
OPLS_2005

> <r_lp_Energy>
35.314319

> <b_lp_Chiralities_Consistent>
1

> <s_lp_Variant>
CHEMBL220_lig253-1

> <s_i_glide_gridfile>
glide-grid_1e66

> <i_i_glide_lignum>
298

> <i_i_glide_rotatable_bonds>
6

> <r_i_docking_score>
-7.77992229545519

> <r_i_glide_ligand_efficiency>
-0.277854367694828

> <r_i_glide_ligand_efficiency_sa>
-0.843729507792441

> <r_i_glide_ligand_efficiency_ln>
-1.79583449423549

> <r_i_glide_gscore>
-7.77992229545519

> <r_i_glide_lipo>
-4.4311483356943

> <r_i_glide_hbond>
0

> <r_i_glide_metal>
0

> <r_i_glide_rewards>
-1.74766576456567

> <r_i_glide_evdw>
-34.6940689086914

> <r_i_glide_ecoul>
-2.42709755897522

> <r_i_glide_erotb>
0.497659884085633

> <r_i_glide_esite>
0

> <r_i_glide_emodel>
-27.4267282022094

> <r_i_glide_energy>
-37.1211664676666

> <r_i_glide_einternal>
20.9792213439941

> <i_i_glide_confnum>
15

> <i_i_glide_posenum>
132

> <r_i_glide_eff_state_penalty>
0

> <s_user_duplicate_titles>
CHEMBL220_lig253

> <s_m_subgroup_title>
dock_pv

> <s_m_subgroupid>
dock_pv

> <b_m_subgroup_collapsed>
0

$$$$
CHEMBL220_lig665
                    3D
 Schrodinger Suite 2021-1.
 40 43  0  0  1  0            999 V2000
    2.9331   68.5055   65.4846 C   0  0  0  0  0  0
    4.2676   68.9357   65.3672 C   0  0  0  0  0  0
    2.1917   68.9284   66.6096 C   0  0  0  0  0  0
    2.7118   69.7348   67.5652 N   0  0  0  0  0  0
    2.2664   67.6016   64.4412 C   0  0  2  0  0  0
    4.8490   69.7076   66.4131 C   0  0  0  0  0  0
    1.6170   68.4480   63.3633 C   0  0  0  0  0  0
    4.0125   70.1080   67.4962 C   0  0  0  0  0  0
    0.3516   68.9080   63.4463 C   0  0  0  0  0  0
    0.1110   67.6442   65.7120 C   0  0  2  0  0  0
    0.7536   68.4629   66.8624 C   0  0  0  0  0  0
    1.1800   66.7274   65.0969 C   0  0  0  0  0  0
    5.0192   68.5734   64.2400 N   0  0  0  0  0  0
   -0.5490   68.5630   64.6405 C   0  0  0  0  0  0
    6.2269   70.0447   66.4661 C   0  0  0  0  0  0
   -0.2708   69.8177   62.3959 C   0  0  0  0  0  0
    4.5516   70.8747   68.5587 C   0  0  0  0  0  0
    0.3426   69.7624   60.9878 C   0  0  0  0  0  0
    6.7428   70.7117   67.5678 C   0  0  0  0  0  0
    5.9142   71.1556   68.5856 C   0  0  0  0  0  0
    2.9909   66.9291   63.9807 H   0  0  0  0  0  0
    2.2337   68.7538   62.5321 H   0  0  0  0  0  0
   -0.6822   67.0360   66.1517 H   0  0  0  0  0  0
    0.1231   69.3071   67.1474 H   0  0  0  0  0  0
    0.7850   67.8243   67.7462 H   0  0  0  0  0  0
    1.6275   66.1077   65.8726 H   0  0  0  0  0  0
    0.7430   66.0447   64.3696 H   0  0  0  0  0  0
    5.9042   69.0440   64.1068 H   0  0  0  0  0  0
    4.5194   68.2311   63.4336 H   0  0  0  0  0  0
   -1.4510   68.1054   64.2403 H   0  0  0  0  0  0
   -0.9264   69.4784   65.0937 H   0  0  0  0  0  0
    6.8888   69.7286   65.6770 H   0  0  0  0  0  0
   -0.2074   70.8401   62.7668 H   0  0  0  0  0  0
   -1.3359   69.5914   62.3632 H   0  0  0  0  0  0
    3.9096   71.1867   69.3694 H   0  0  0  0  0  0
   -0.2104   70.3971   60.2954 H   0  0  0  0  0  0
    1.3726   70.1141   60.9973 H   0  0  0  0  0  0
    0.3403   68.7480   60.5890 H   0  0  0  0  0  0
    7.7993   70.9114   67.6069 H   0  0  0  0  0  0
    6.3437   71.7068   69.4078 H   0  0  0  0  0  0
  1  2  1  0  0  0
  1  3  2  0  0  0
  1  5  1  0  0  0
  2  6  2  0  0  0
  2 13  1  0  0  0
  3  4  1  0  0  0
  3 11  1  0  0  0
  4  8  2  0  0  0
  5  7  1  0  0  0
  5 12  1  0  0  0
  5 21  1  0  0  0
  6  8  1  0  0  0
  6 15  1  0  0  0
  7  9  2  0  0  0
  7 22  1  0  0  0
  8 17  1  0  0  0
  9 14  1  0  0  0
  9 16  1  0  0  0
 10 11  1  0  0  0
 10 12  1  0  0  0
 10 14  1  0  0  0
 10 23  1  0  0  0
 11 24  1  0  0  0
 11 25  1  0  0  0
 12 26  1  0  0  0
 12 27  1  0  0  0
 13 28  1  0  0  0
 13 29  1  0  0  0
 14 30  1  0  0  0
 14 31  1  0  0  0
 15 19  2  0  0  0
 15 32  1  0  0  0
 16 18  1  0  0  0
 16 33  1  0  0  0
 16 34  1  0  0  0
 17 20  2  0  0  0
 17 35  1  0  0  0
 18 36  1  0  0  0
 18 37  1  0  0  0
 18 38  1  0  0  0
 19 20  1  0  0  0
 19 39  1  0  0  0
 20 40  1  0  0  0
M  END
> <s_m_entry_id>
8610

> <s_m_entry_name>
dock_pv.120

> <s_m_Source_Path>
/home/csk/Desktop/cluster/DUD-E-result/aces

> <s_m_Source_File>
dock_pv.maegz

> <i_m_Source_File_Index>
120

> <chembl_id>
CHEMBL542497

> <chembl_pref_name>
None

> <i_lp_mmshare_version>
53161

> <i_f3d_flags>
0

> <r_lp_tautomer_probability>
1

> <s_lp_Force_Field>
OPLS_2005

> <r_lp_Energy>
28.184269

> <b_lp_Chiralities_Consistent>
1

> <s_lp_Variant>
CHEMBL220_lig665-1

> <s_i_glide_gridfile>
glide-grid_1e66

> <i_i_glide_lignum>
782

> <i_i_glide_rotatable_bonds>
1

> <r_i_docking_score>
-7.77652568771815

> <r_i_glide_ligand_efficiency>
-0.388826284385908

> <r_i_glide_ligand_efficiency_sa>
-1.05543691507831

> <r_i_glide_ligand_efficiency_ln>
-1.94620789265276

> <r_i_glide_gscore>
-7.77652568771815

> <r_i_glide_lipo>
-3.75215895002097

> <r_i_glide_hbond>
0

> <r_i_glide_metal>
0

> <r_i_glide_rewards>
-2.32832170257336

> <r_i_glide_evdw>
-31.4332866668701

> <r_i_glide_ecoul>
-0.829204678535461

> <r_i_glide_erotb>
0

> <r_i_glide_esite>
0

> <r_i_glide_emodel>
-44.2654604269846

> <r_i_glide_energy>
-32.2624913454056

> <r_i_glide_einternal>
1.15980362892151

> <i_i_glide_confnum>
1

> <i_i_glide_posenum>
107

> <r_i_glide_eff_state_penalty>
0

> <s_user_duplicate_titles>
CHEMBL220_lig665,CHEMBL220_lig660,547688,643445,552261

> <s_m_subgroup_title>
dock_pv

> <s_m_subgroupid>
dock_pv

> <b_m_subgroup_collapsed>
0

$$$$
CHEMBL220_lig124
                    3D
 Schrodinger Suite 2021-1.
 51 53  0  0  1  0            999 V2000
    3.7459   60.7948   72.4611 C   0  0  0  0  0  0
    4.5754   61.0918   71.2881 C   0  0  0  0  0  0
    4.2333   62.2097   70.5428 O   0  0  0  0  0  0
    2.6561   61.5265   72.7749 C   0  0  0  0  0  0
    2.2576   62.6583   71.9071 C   0  0  0  0  0  0
    3.0971   62.9543   70.8233 C   0  0  0  0  0  0
    2.8163   64.0272   69.9800 C   0  0  0  0  0  0
    1.6909   64.8208   70.1916 C   0  0  0  0  0  0
    0.8280   64.5081   71.2572 C   0  0  0  0  0  0
    1.1097   63.4342   72.1073 C   0  0  0  0  0  0
    5.5442   60.4497   70.8916 O   0  0  0  0  0  0
    1.8029   61.2101   73.9924 C   0  0  0  0  0  0
    1.5066   65.8727   69.3183 O   0  0  0  0  0  0
    0.5277   66.8662   69.6068 C   0  0  0  0  0  0
    0.5152   67.8729   68.4425 C   0  0  0  0  0  0
   -0.2080   67.3282   67.1908 C   0  0  0  0  0  0
    0.0513   68.1161   65.8949 C   0  0  0  0  0  0
    1.7856   68.0052   65.3153 S   0  0  0  0  0  0
    1.7593   68.4329   63.5688 C   0  0  0  0  0  0
    3.0115   68.3118   62.9782 N   0  0  0  0  0  0
    0.3596   68.9077   62.7675 S   0  0  0  0  0  0
    3.2115   68.3314   61.5049 C   0  0  0  0  0  0
    3.8633   69.6843   61.1352 C   0  0  0  0  0  0
    5.1621   69.9240   61.9271 C   0  0  0  0  0  0
    4.9524   69.7058   63.4349 C   0  0  0  0  0  0
    4.2973   68.3384   63.7265 C   0  0  0  0  0  0
    4.0184   59.9652   73.0954 H   0  0  0  0  0  0
    3.4835   64.2599   69.1610 H   0  0  0  0  0  0
   -0.0561   65.0952   71.4505 H   0  0  0  0  0  0
    0.4333   63.2301   72.9239 H   0  0  0  0  0  0
    2.1939   60.3578   74.5507 H   0  0  0  0  0  0
    1.7817   62.0628   74.6733 H   0  0  0  0  0  0
    0.7831   60.9652   73.6925 H   0  0  0  0  0  0
    0.7901   67.3672   70.5408 H   0  0  0  0  0  0
   -0.4672   66.4351   69.7297 H   0  0  0  0  0  0
    1.5441   68.1483   68.2063 H   0  0  0  0  0  0
    0.0363   68.7979   68.7678 H   0  0  0  0  0  0
   -1.2823   67.2930   67.3826 H   0  0  0  0  0  0
    0.0887   66.2929   67.0211 H   0  0  0  0  0  0
   -0.2226   69.1643   66.0200 H   0  0  0  0  0  0
   -0.6175   67.7071   65.1390 H   0  0  0  0  0  0
    2.3123   68.1234   60.9251 H   0  0  0  0  0  0
    3.9067   67.5297   61.2576 H   0  0  0  0  0  0
    3.1589   70.5053   61.2865 H   0  0  0  0  0  0
    4.0915   69.6988   60.0684 H   0  0  0  0  0  0
    5.9373   69.2453   61.5716 H   0  0  0  0  0  0
    5.5427   70.9215   61.7347 H   0  0  0  0  0  0
    5.9143   69.7668   63.9454 H   0  0  0  0  0  0
    4.3435   70.5077   63.8553 H   0  0  0  0  0  0
    4.2424   68.1744   64.8017 H   0  0  0  0  0  0
    4.9264   67.5375   63.3343 H   0  0  0  0  0  0
  1  2  1  0  0  0
  1  4  2  0  0  0
  1 27  1  0  0  0
  2  3  1  0  0  0
  2 11  2  0  0  0
  3  6  1  0  0  0
  4  5  1  0  0  0
  4 12  1  0  0  0
  5  6  2  0  0  0
  5 10  1  0  0  0
  6  7  1  0  0  0
  7  8  2  0  0  0
  7 28  1  0  0  0
  8  9  1  0  0  0
  8 13  1  0  0  0
  9 10  2  0  0  0
  9 29  1  0  0  0
 10 30  1  0  0  0
 12 31  1  0  0  0
 12 32  1  0  0  0
 12 33  1  0  0  0
 13 14  1  0  0  0
 14 15  1  0  0  0
 14 34  1  0  0  0
 14 35  1  0  0  0
 15 16  1  0  0  0
 15 36  1  0  0  0
 15 37  1  0  0  0
 16 17  1  0  0  0
 16 38  1  0  0  0
 16 39  1  0  0  0
 17 18  1  0  0  0
 17 40  1  0  0  0
 17 41  1  0  0  0
 18 19  1  0  0  0
 19 20  1  0  0  0
 19 21  2  0  0  0
 20 22  1  0  0  0
 20 26  1  0  0  0
 22 23  1  0  0  0
 22 42  1  0  0  0
 22 43  1  0  0  0
 23 24  1  0  0  0
 23 44  1  0  0  0
 23 45  1  0  0  0
 24 25  1  0  0  0
 24 46  1  0  0  0
 24 47  1  0  0  0
 25 26  1  0  0  0
 25 48  1  0  0  0
 25 49  1  0  0  0
 26 50  1  0  0  0
 26 51  1  0  0  0
M  END
> <s_m_entry_id>
8611

> <s_m_entry_name>
dock_pv.121

> <s_m_Source_Path>
/home/csk/Desktop/cluster/DUD-E-result/aces

> <s_m_Source_File>
dock_pv.maegz

> <i_m_Source_File_Index>
121

> <chembl_id>
CHEMBL4167524

> <chembl_pref_name>
None

> <i_lp_mmshare_version>
53161

> <i_f3d_flags>
0

> <r_lp_tautomer_probability>
1

> <s_lp_Force_Field>
OPLS_2005

> <r_lp_Energy>
40.550668

> <b_lp_Chiralities_Consistent>
1

> <s_lp_Variant>
CHEMBL220_lig124-1

> <s_i_glide_gridfile>
glide-grid_1e66

> <i_i_glide_lignum>
138

> <i_i_glide_rotatable_bonds>
8

> <r_i_docking_score>
-7.77421008830375

> <r_i_glide_ligand_efficiency>
-0.299008080319375

> <r_i_glide_ligand_efficiency_sa>
-0.885810261406165

> <r_i_glide_ligand_efficiency_ln>
-1.82574772997421

> <r_i_glide_gscore>
-7.77421008830375

> <r_i_glide_lipo>
-3.22593711711624

> <r_i_glide_hbond>
-0.276742251870396

> <r_i_glide_metal>
0

> <r_i_glide_rewards>
-2.3901216701948

> <r_i_glide_evdw>
-49.0304489135742

> <r_i_glide_ecoul>
-2.13969111442566

> <r_i_glide_erotb>
0.891067063720243

> <r_i_glide_esite>
0

> <r_i_glide_emodel>
-71.7681974371359

> <r_i_glide_energy>
-51.1701400279999

> <r_i_glide_einternal>
7.59870767593384

> <i_i_glide_confnum>
42

> <i_i_glide_posenum>
138

> <r_i_glide_eff_state_penalty>
0

> <s_user_duplicate_titles>
CHEMBL220_lig124

> <s_m_subgroup_title>
dock_pv

> <s_m_subgroupid>
dock_pv

> <b_m_subgroup_collapsed>
0

$$$$
CHEMBL220_lig986
                    3D
 Schrodinger Suite 2021-1.
 53 55  0  0  1  0            999 V2000
    4.1145   67.8304   62.0871 C   0  0  0  0  0  0
    3.3714   68.3394   63.3399 C   0  0  2  0  0  0
    4.3430   68.8068   61.1680 O   0  0  0  0  0  0
    4.4930   66.6648   61.9680 O   0  0  0  0  0  0
    2.2867   69.4596   63.0975 C   0  0  0  0  0  0
    4.3677   68.7424   64.4634 C   0  0  0  0  0  0
    5.3017   69.9286   64.1394 C   0  0  0  0  0  0
    5.9934   70.4936   65.3866 C   0  0  0  0  0  0
    0.7740   69.1016   62.8415 C   0  0  0  0  0  0
    0.1903   68.3876   64.0971 C   0  0  0  0  0  0
   -0.9058   68.9080   64.6832 N   0  0  0  0  0  0
    0.7425   67.3739   64.5289 O   0  0  0  0  0  0
    0.6063   69.0343   60.3725 C   0  0  0  0  0  0
    0.2804   70.4513   60.8496 C   0  0  0  0  0  0
   -0.0845   70.2932   62.3240 C   0  0  0  0  0  0
    0.6051   68.1751   61.6335 C   0  0  0  0  0  0
   -1.6033   68.3909   65.8650 C   0  0  0  0  0  0
   -0.7225   68.0483   67.0610 C   0  0  0  0  0  0
   -0.9753   66.8761   67.7890 C   0  0  0  0  0  0
    1.2983   68.4611   68.3687 C   0  0  0  0  0  0
    0.4057   68.8349   67.3640 C   0  0  0  0  0  0
    1.0246   67.2871   69.0619 C   0  0  0  0  0  0
   -0.0711   66.5211   68.7831 C   0  0  0  0  0  0
   -0.0582   65.4143   69.5706 O   0  0  0  0  0  0
    0.9525   65.6440   70.5137 C   0  0  0  0  0  0
    1.7641   66.6729   70.0192 O   0  0  0  0  0  0
    2.8978   67.4405   63.7176 H   0  0  0  0  0  0
    4.9766   68.5080   60.4835 H   0  0  0  0  0  0
    2.2993   70.1082   63.9688 H   0  0  0  0  0  0
    2.6318   70.1080   62.2976 H   0  0  0  0  0  0
    4.9734   67.8804   64.7506 H   0  0  0  0  0  0
    3.7900   68.9766   65.3602 H   0  0  0  0  0  0
    4.7434   70.7300   63.6568 H   0  0  0  0  0  0
    6.0586   69.6176   63.4179 H   0  0  0  0  0  0
    6.6661   71.3078   65.1163 H   0  0  0  0  0  0
    6.5866   69.7309   65.8925 H   0  0  0  0  0  0
    5.2684   70.8859   66.1007 H   0  0  0  0  0  0
   -1.3017   69.7554   64.2871 H   0  0  0  0  0  0
   -0.1293   68.7182   59.6366 H   0  0  0  0  0  0
    1.5825   68.9080   59.9028 H   0  0  0  0  0  0
   -0.5162   70.9072   60.2620 H   0  0  0  0  0  0
    1.1431   71.1052   60.7680 H   0  0  0  0  0  0
   -1.1469   70.0390   62.3523 H   0  0  0  0  0  0
   -0.0134   71.2184   62.8817 H   0  0  0  0  0  0
    1.3823   67.4306   61.6107 H   0  0  0  0  0  0
   -0.3710   67.6902   61.6674 H   0  0  0  0  0  0
   -2.3299   69.1399   66.1839 H   0  0  0  0  0  0
   -2.1845   67.5198   65.5680 H   0  0  0  0  0  0
   -1.8223   66.2498   67.5531 H   0  0  0  0  0  0
    2.1729   69.0563   68.5836 H   0  0  0  0  0  0
    0.6231   69.7081   66.7763 H   0  0  0  0  0  0
    1.5369   64.7399   70.6865 H   0  0  0  0  0  0
    0.5031   65.9656   71.4557 H   0  0  0  0  0  0
  1  4  2  0  0  0
  1  3  1  0  0  0
  1  2  1  0  0  0
  2  5  1  0  0  0
  2  6  1  0  0  0
  2 27  1  0  0  0
  3 28  1  0  0  0
  5  9  1  0  0  0
  5 29  1  0  0  0
  5 30  1  0  0  0
  6  7  1  0  0  0
  6 31  1  0  0  0
  6 32  1  0  0  0
  7  8  1  0  0  0
  7 33  1  0  0  0
  7 34  1  0  0  0
  8 35  1  0  0  0
  8 36  1  0  0  0
  8 37  1  0  0  0
  9 15  1  0  0  0
  9 16  1  0  0  0
  9 10  1  0  0  0
 10 11  1  0  0  0
 10 12  2  0  0  0
 11 17  1  0  0  0
 11 38  1  0  0  0
 13 16  1  0  0  0
 13 14  1  0  0  0
 13 39  1  0  0  0
 13 40  1  0  0  0
 14 15  1  0  0  0
 14 41  1  0  0  0
 14 42  1  0  0  0
 15 43  1  0  0  0
 15 44  1  0  0  0
 16 45  1  0  0  0
 16 46  1  0  0  0
 17 18  1  0  0  0
 17 47  1  0  0  0
 17 48  1  0  0  0
 18 19  2  0  0  0
 18 21  1  0  0  0
 19 23  1  0  0  0
 19 49  1  0  0  0
 20 22  1  0  0  0
 20 21  2  0  0  0
 20 50  1  0  0  0
 21 51  1  0  0  0
 22 23  2  0  0  0
 22 26  1  0  0  0
 23 24  1  0  0  0
 24 25  1  0  0  0
 25 26  1  0  0  0
 25 52  1  0  0  0
 25 53  1  0  0  0
M  END
> <s_m_entry_id>
8612

> <s_m_entry_name>
dock_pv.122

> <s_m_Source_Path>
/home/csk/Desktop/cluster/DUD-E-result/aces

> <s_m_Source_File>
dock_pv.maegz

> <i_m_Source_File_Index>
122

> <chembl_id>
CHEMBL386053

> <chembl_pref_name>
None

> <i_lp_mmshare_version>
53161

> <i_f3d_flags>
0

> <r_lp_tautomer_probability>
1

> <s_lp_Force_Field>
OPLS_2005

> <r_lp_Energy>
46.468394

> <b_lp_Chiralities_Consistent>
1

> <s_lp_Variant>
CHEMBL220_lig986-1

> <s_i_glide_gridfile>
glide-grid_1e66

> <i_i_glide_lignum>
1360

> <i_i_glide_rotatable_bonds>
10

> <r_i_docking_score>
-7.74265151242959

> <r_i_glide_ligand_efficiency>
-0.2977942889396

> <r_i_glide_ligand_efficiency_sa>
-0.88221440921962

> <r_i_glide_ligand_efficiency_ln>
-1.8183363019823

> <r_i_glide_gscore>
-7.74265151242959

> <r_i_glide_lipo>
-3.23864761899051

> <r_i_glide_hbond>
-0.316292676286424

> <r_i_glide_metal>
0

> <r_i_glide_rewards>
-1.85623232363593

> <r_i_glide_evdw>
-31.7879199981689

> <r_i_glide_ecoul>
-11.5366697311401

> <r_i_glide_erotb>
1.02832322067308

> <r_i_glide_esite>
-0.0399056546103455

> <r_i_glide_emodel>
-58.952995862293

> <r_i_glide_energy>
-43.3245897293091

> <r_i_glide_einternal>
7.15188789367676

> <i_i_glide_confnum>
71

> <i_i_glide_posenum>
265

> <r_i_glide_eff_state_penalty>
0

> <s_user_duplicate_titles>
CHEMBL220_lig986

> <s_m_subgroup_title>
dock_pv

> <s_m_subgroupid>
dock_pv

> <b_m_subgroup_collapsed>
0

$$$$
CHEMBL220_lig652
                    3D
 Schrodinger Suite 2021-1.
 31 33  0  0  1  0            999 V2000
    1.8068   68.4668   65.6341 N   0  0  0  0  0  0
    3.0447   68.7773   65.0020 C   0  0  0  0  0  0
    4.0386   69.4787   65.8666 C   0  0  0  0  0  0
    2.3481   69.5653   67.6675 N   0  0  0  0  0  0
    1.5176   68.9080   66.9500 C   0  0  0  0  0  0
    3.6288   69.8421   67.1659 C   0  0  0  0  0  0
    5.3545   69.7728   65.4682 C   0  0  0  0  0  0
    4.5056   70.5081   68.0257 C   0  0  0  0  0  0
    3.3202   68.4687   63.8018 N   0  0  0  0  0  0
    5.8134   70.7713   67.6255 C   0  0  0  0  0  0
    0.8349   67.6437   64.8855 C   0  0  0  0  0  0
    6.2337   70.4082   66.3470 C   0  0  0  0  0  0
    0.1499   68.6039   67.5690 C   0  0  0  0  0  0
    6.9166   71.5155   68.7244 Cl  0  0  0  0  0  0
   -0.4549   68.3755   64.4673 C   0  0  0  0  0  0
   -1.0795   69.2089   66.8611 C   0  0  0  0  0  0
   -1.5198   68.5074   65.5709 C   0  0  0  0  0  0
    5.7187   69.5091   64.4856 H   0  0  0  0  0  0
    4.1804   70.7849   69.0174 H   0  0  0  0  0  0
    4.2373   68.7809   63.5206 H   0  0  0  0  0  0
    1.2573   67.1501   64.0101 H   0  0  0  0  0  0
    0.5619   66.7978   65.5191 H   0  0  0  0  0  0
    7.2495   70.6025   66.0336 H   0  0  0  0  0  0
    0.0300   67.5267   67.6952 H   0  0  0  0  0  0
    0.1406   68.9859   68.5923 H   0  0  0  0  0  0
   -0.2101   69.3212   64.0028 H   0  0  0  0  0  0
   -0.9001   67.8122   63.6476 H   0  0  0  0  0  0
   -0.9077   70.2623   66.6624 H   0  0  0  0  0  0
   -1.9198   69.1965   67.5568 H   0  0  0  0  0  0
   -2.3883   69.0308   65.1656 H   0  0  0  0  0  0
   -1.8796   67.5099   65.8314 H   0  0  0  0  0  0
  1  2  1  0  0  0
  1  5  1  0  0  0
  1 11  1  0  0  0
  2  3  1  0  0  0
  2  9  2  0  0  0
  3  7  2  0  0  0
  3  6  1  0  0  0
  4  5  2  0  0  0
  4  6  1  0  0  0
  5 13  1  0  0  0
  6  8  2  0  0  0
  7 12  1  0  0  0
  7 18  1  0  0  0
  8 10  1  0  0  0
  8 19  1  0  0  0
  9 20  1  0  0  0
 10 14  1  0  0  0
 10 12  2  0  0  0
 11 15  1  0  0  0
 11 21  1  0  0  0
 11 22  1  0  0  0
 12 23  1  0  0  0
 13 16  1  0  0  0
 13 24  1  0  0  0
 13 25  1  0  0  0
 15 17  1  0  0  0
 15 26  1  0  0  0
 15 27  1  0  0  0
 16 17  1  0  0  0
 16 28  1  0  0  0
 16 29  1  0  0  0
 17 30  1  0  0  0
 17 31  1  0  0  0
M  END
> <s_m_entry_id>
8613

> <s_m_entry_name>
dock_pv.123

> <s_m_Source_Path>
/home/csk/Desktop/cluster/DUD-E-result/aces

> <s_m_Source_File>
dock_pv.maegz

> <i_m_Source_File_Index>
123

> <chembl_id>
CHEMBL166194

> <chembl_pref_name>
None

> <i_lp_mmshare_version>
53161

> <i_f3d_flags>
0

> <r_lp_tautomer_probability>
0.5

> <s_lp_Force_Field>
OPLS_2005

> <r_lp_Energy>
26.032297

> <b_lp_Chiralities_Consistent>
1

> <s_lp_Variant>
CHEMBL220_lig652-1

> <s_i_glide_gridfile>
glide-grid_1e66

> <i_i_glide_lignum>
761

> <i_i_glide_rotatable_bonds>
0

> <r_i_docking_score>
-7.73976117005511

> <r_i_glide_ligand_efficiency>
-0.455280068826771

> <r_i_glide_ligand_efficiency_sa>
-1.17065325846232

> <r_i_glide_ligand_efficiency_ln>
-2.01913133326022

> <r_i_glide_gscore>
-7.73976117005511

> <r_i_glide_lipo>
-2.96445806150199

> <r_i_glide_hbond>
0

> <r_i_glide_metal>
0

> <r_i_glide_rewards>
-2.84441719756526

> <r_i_glide_evdw>
-32.1948776245117

> <r_i_glide_ecoul>
-2.14094686508179

> <r_i_glide_erotb>
0

> <r_i_glide_esite>
0

> <r_i_glide_emodel>
-49.2760017095637

> <r_i_glide_energy>
-34.3358244895935

> <r_i_glide_einternal>
0

> <i_i_glide_confnum>
1

> <i_i_glide_posenum>
247

> <r_i_glide_eff_state_penalty>
0

> <s_user_duplicate_titles>
CHEMBL220_lig652

> <s_m_subgroup_title>
dock_pv

> <s_m_subgroupid>
dock_pv

> <b_m_subgroup_collapsed>
0

$$$$
CHEMBL220_lig849
                    3D
 Schrodinger Suite 2021-1.
 56 58  0  0  1  0            999 V2000
    1.4019   68.6250   67.6587 S   0  0  0  0  0  0
    1.6776   68.4317   65.9230 C   0  0  0  0  0  0
    2.6153   63.1013   70.3283 N   0  3  0  0  0  0
    0.5000   68.5080   65.1837 C   0  0  0  0  0  0
   -0.3944   68.4634   67.4762 C   0  0  1  0  0  0
    2.9035   68.2921   65.2766 C   0  0  0  0  0  0
   -0.7058   68.8662   66.0249 C   0  0  0  0  0  0
    2.9648   68.3043   63.8812 C   0  0  0  0  0  0
    0.5554   68.5085   63.7916 C   0  0  0  0  0  0
    1.7898   68.4439   63.1227 C   0  0  0  0  0  0
   -0.7425   66.9852   67.7232 C   0  0  0  0  0  0
   -0.8565   66.2349   66.7680 O   0  0  0  0  0  0
   -1.0975   66.4486   69.1134 C   0  0  0  0  0  0
    1.2776   62.9067   70.2241 C   0  0  0  0  0  0
    3.1499   64.3473   70.3691 C   0  0  0  0  0  0
    0.9289   65.2997   70.2222 C   0  0  0  0  0  0
    0.0056   66.5139   70.1977 C   0  0  0  0  0  0
    4.1932   68.1779   63.2795 O   0  0  0  0  0  0
    3.4972   61.9145   70.4207 C   0  0  0  0  0  0
    1.9166   68.5184   61.7477 O   0  0  0  0  0  0
    2.3147   65.4656   70.3187 C   0  0  0  0  0  0
    0.4105   63.9975   70.1906 C   0  0  0  0  0  0
    4.0599   59.9616   71.7043 O   0  0  0  0  0  0
    3.2141   61.1022   71.6961 C   0  0  0  0  0  0
    3.6041   58.8847   72.5209 C   0  0  0  0  0  0
    4.7499   69.4013   62.8115 C   0  0  0  0  0  0
    0.7868   68.9075   60.9750 C   0  0  0  0  0  0
    3.4389   59.2506   74.0038 C   0  0  0  0  0  0
   -0.8982   69.1031   68.1994 H   0  0  0  0  0  0
    3.8180   68.2259   65.8465 H   0  0  0  0  0  0
   -0.8679   69.9412   65.9807 H   0  0  0  0  0  0
   -1.6276   68.4278   65.6375 H   0  0  0  0  0  0
   -0.3667   68.6372   63.2460 H   0  0  0  0  0  0
   -2.0309   66.9080   69.4289 H   0  0  0  0  0  0
   -1.3534   65.4073   68.9536 H   0  0  0  0  0  0
    0.9280   61.8842   70.1857 H   0  0  0  0  0  0
    4.2251   64.4277   70.4572 H   0  0  0  0  0  0
    0.5920   67.4267   70.1010 H   0  0  0  0  0  0
   -0.4572   66.5790   71.1832 H   0  0  0  0  0  0
    3.3188   61.3299   69.5165 H   0  0  0  0  0  0
    4.5372   62.2458   70.3916 H   0  0  0  0  0  0
    2.7428   66.4579   70.3667 H   0  0  0  0  0  0
   -0.6526   63.8154   70.1349 H   0  0  0  0  0  0
    3.4029   61.7058   72.5860 H   0  0  0  0  0  0
    2.1665   60.7952   71.7209 H   0  0  0  0  0  0
    2.6744   58.4767   72.1202 H   0  0  0  0  0  0
    4.3427   58.0957   72.4316 H   0  0  0  0  0  0
    5.7417   69.2155   62.3972 H   0  0  0  0  0  0
    4.1454   69.8494   62.0217 H   0  0  0  0  0  0
    4.8596   70.1298   63.6171 H   0  0  0  0  0  0
    1.0554   68.9082   59.9199 H   0  0  0  0  0  0
    0.4482   69.9109   61.2349 H   0  0  0  0  0  0
   -0.0390   68.2063   61.0999 H   0  0  0  0  0  0
    3.2326   58.3607   74.5988 H   0  0  0  0  0  0
    4.3430   59.7076   74.3943 H   0  0  0  0  0  0
    2.6148   59.9469   74.1607 H   0  0  0  0  0  0
  1  2  1  0  0  0
  1  5  1  0  0  0
  2  4  2  0  0  0
  2  6  1  0  0  0
  3 14  2  0  0  0
  3 19  1  0  0  0
  3 15  1  0  0  0
  4  9  1  0  0  0
  4  7  1  0  0  0
  5  7  1  0  0  0
  5 11  1  0  0  0
  5 29  1  0  0  0
  6  8  2  0  0  0
  6 30  1  0  0  0
  7 31  1  0  0  0
  7 32  1  0  0  0
  8 10  1  0  0  0
  8 18  1  0  0  0
  9 10  2  0  0  0
  9 33  1  0  0  0
 10 20  1  0  0  0
 11 12  2  0  0  0
 11 13  1  0  0  0
 13 17  1  0  0  0
 13 34  1  0  0  0
 13 35  1  0  0  0
 14 22  1  0  0  0
 14 36  1  0  0  0
 15 21  2  0  0  0
 15 37  1  0  0  0
 16 17  1  0  0  0
 16 21  1  0  0  0
 16 22  2  0  0  0
 17 38  1  0  0  0
 17 39  1  0  0  0
 18 26  1  0  0  0
 19 24  1  0  0  0
 19 40  1  0  0  0
 19 41  1  0  0  0
 20 27  1  0  0  0
 21 42  1  0  0  0
 22 43  1  0  0  0
 23 24  1  0  0  0
 23 25  1  0  0  0
 24 44  1  0  0  0
 24 45  1  0  0  0
 25 28  1  0  0  0
 25 46  1  0  0  0
 25 47  1  0  0  0
 26 48  1  0  0  0
 26 49  1  0  0  0
 26 50  1  0  0  0
 27 51  1  0  0  0
 27 52  1  0  0  0
 27 53  1  0  0  0
 28 54  1  0  0  0
 28 55  1  0  0  0
 28 56  1  0  0  0
M  CHG  1   3   1
M  END
> <s_m_entry_id>
8614

> <s_m_entry_name>
dock_pv.124

> <s_m_Source_Path>
/home/csk/Desktop/cluster/DUD-E-result/aces

> <s_m_Source_File>
dock_pv.maegz

> <i_m_Source_File_Index>
124

> <chembl_id>
CHEMBL186264

> <chembl_pref_name>
None

> <i_lp_mmshare_version>
53161

> <i_f3d_flags>
0

> <r_lp_tautomer_probability>
0.999999960000001

> <s_lp_Force_Field>
OPLS_2005

> <r_lp_Energy>
34.483928

> <b_lp_Chiralities_Consistent>
1

> <s_lp_Variant>
CHEMBL220_lig849-2

> <s_i_glide_gridfile>
glide-grid_1e66

> <i_i_glide_lignum>
1103

> <i_i_glide_rotatable_bonds>
10

> <r_i_docking_score>
-7.73896983491131

> <r_i_glide_ligand_efficiency>
-0.276391779818261

> <r_i_glide_ligand_efficiency_sa>
-0.839288229580991

> <r_i_glide_ligand_efficiency_ln>
-1.78638146392547

> <r_i_glide_gscore>
-7.73896983491131

> <r_i_glide_lipo>
-4.18771748818983

> <r_i_glide_hbond>
0

> <r_i_glide_metal>
0

> <r_i_glide_rewards>
-2.01548418948021

> <r_i_glide_evdw>
-38.1766510009766

> <r_i_glide_ecoul>
-3.16509032249451

> <r_i_glide_erotb>
0.847827941181732

> <r_i_glide_esite>
0

> <r_i_glide_emodel>
-54.1812594407794

> <r_i_glide_energy>
-41.3417413234711

> <r_i_glide_einternal>
11.1591167449951

> <i_i_glide_confnum>
15

> <i_i_glide_posenum>
343

> <r_i_glide_eff_state_penalty>
0

> <s_user_duplicate_titles>
CHEMBL220_lig849,313445

> <s_m_subgroup_title>
dock_pv

> <s_m_subgroupid>
dock_pv

> <b_m_subgroup_collapsed>
0

$$$$
CHEMBL220_lig1091
                    3D
 Schrodinger Suite 2021-1.
 52 55  0  0  1  0            999 V2000
    3.1354   69.2808   60.9726 C   0  0  0  0  0  0
    1.8112   68.9080   60.7463 C   0  0  0  0  0  0
    0.9687   68.5145   61.7668 C   0  0  0  0  0  0
    3.6065   69.3080   62.2914 C   0  0  0  0  0  0
    2.7556   68.9470   63.3407 C   0  0  0  0  0  0
    1.4578   68.5163   63.0567 C   0  0  0  0  0  0
    0.6029   68.1728   64.1582 C   0  0  0  0  0  0
    0.9766   68.3540   65.4336 C   0  0  0  0  0  0
    2.3245   68.9080   65.7392 C   0  0  0  0  0  0
    3.1989   69.0661   64.6537 O   0  0  0  0  0  0
    2.7649   69.2469   66.8348 O   0  0  0  0  0  0
   -0.0086   68.0157   66.4650 C   0  0  0  0  0  0
   -1.3310   68.4745   66.3686 C   0  0  0  0  0  0
   -2.3250   67.9202   67.1676 C   0  0  0  0  0  0
   -1.9994   66.9094   68.0665 C   0  0  0  0  0  0
   -0.6709   66.5080   68.2317 C   0  0  0  0  0  0
    0.3189   67.0690   67.4316 C   0  0  0  0  0  0
   -0.3188   65.4168   69.2263 C   0  0  0  0  0  0
    0.5488   65.8955   70.3023 N   0  0  2  0  0  0
    1.9687   65.5295   70.1820 C   0  0  0  0  0  0
    2.3899   64.0941   70.5331 C   0  0  0  0  0  0
    1.4923   63.0172   70.5853 C   0  0  0  0  0  0
    1.9545   61.7270   70.8333 C   0  0  0  0  0  0
    3.3170   61.5037   71.0144 C   0  0  0  0  0  0
    4.2223   62.5588   70.9405 C   0  0  0  0  0  0
    3.7586   63.8479   70.6893 C   0  0  0  0  0  0
   -0.0117   65.8151   71.6428 C   0  0  0  0  0  0
    3.9430   69.7690   59.9681 O   0  0  0  0  0  0
    3.9430   69.3080   58.5852 C   0  0  0  0  0  0
    1.4120   68.9080   59.7444 H   0  0  0  0  0  0
   -0.0467   68.2145   61.5484 H   0  0  0  0  0  0
    4.6087   69.6552   62.4959 H   0  0  0  0  0  0
   -0.3752   67.7596   63.9443 H   0  0  0  0  0  0
   -1.6041   69.2150   65.6294 H   0  0  0  0  0  0
   -3.3485   68.2541   67.0744 H   0  0  0  0  0  0
   -2.7841   66.5084   68.6833 H   0  0  0  0  0  0
    1.3294   66.6991   67.4962 H   0  0  0  0  0  0
    0.1191   64.5452   68.7680 H   0  0  0  0  0  0
   -1.2570   65.0143   69.5680 H   0  0  0  0  0  0
    2.5660   66.2274   70.7680 H   0  0  0  0  0  0
    2.2724   65.7023   69.1527 H   0  0  0  0  0  0
    0.4331   63.1609   70.4448 H   0  0  0  0  0  0
    1.2572   60.9029   70.8831 H   0  0  0  0  0  0
    3.6731   60.5032   71.2120 H   0  0  0  0  0  0
    5.2783   62.3781   71.0761 H   0  0  0  0  0  0
    4.4681   64.6614   70.6215 H   0  0  0  0  0  0
    0.7383   66.1080   72.3680 H   0  0  0  0  0  0
   -0.8474   66.5079   71.7455 H   0  0  0  0  0  0
   -0.3404   64.8065   71.8952 H   0  0  0  0  0  0
    4.5699   69.9936   58.0314 H   0  0  0  0  0  0
    4.3430   68.3278   58.3689 H   0  0  0  0  0  0
    3.0278   69.3080   58.0156 H   0  0  0  0  0  0
  1  2  2  0  0  0
  1  4  1  0  0  0
  1 28  1  0  0  0
  2  3  1  0  0  0
  2 30  1  0  0  0
  3  6  2  0  0  0
  3 31  1  0  0  0
  4  5  2  0  0  0
  4 32  1  0  0  0
  5 10  1  0  0  0
  5  6  1  0  0  0
  6  7  1  0  0  0
  7  8  2  0  0  0
  7 33  1  0  0  0
  8 12  1  0  0  0
  8  9  1  0  0  0
  9 10  1  0  0  0
  9 11  2  0  0  0
 12 17  1  0  0  0
 12 13  2  0  0  0
 13 14  1  0  0  0
 13 34  1  0  0  0
 14 15  2  0  0  0
 14 35  1  0  0  0
 15 16  1  0  0  0
 15 36  1  0  0  0
 16 17  2  0  0  0
 16 18  1  0  0  0
 17 37  1  0  0  0
 18 19  1  0  0  0
 18 38  1  0  0  0
 18 39  1  0  0  0
 19 20  1  0  0  0
 19 27  1  0  0  0
 20 21  1  0  0  0
 20 40  1  0  0  0
 20 41  1  0  0  0
 21 22  2  0  0  0
 21 26  1  0  0  0
 22 23  1  0  0  0
 22 42  1  0  0  0
 23 24  2  0  0  0
 23 43  1  0  0  0
 24 25  1  0  0  0
 24 44  1  0  0  0
 25 26  2  0  0  0
 25 45  1  0  0  0
 26 46  1  0  0  0
 27 47  1  0  0  0
 27 48  1  0  0  0
 27 49  1  0  0  0
 28 29  1  0  0  0
 29 50  1  0  0  0
 29 51  1  0  0  0
 29 52  1  0  0  0
M  END
> <s_m_entry_id>
8615

> <s_m_entry_name>
dock_pv.125

> <s_m_Source_Path>
/home/csk/Desktop/cluster/DUD-E-result/aces

> <s_m_Source_File>
dock_pv.maegz

> <i_m_Source_File_Index>
125

> <chembl_id>
CHEMBL243311

> <chembl_pref_name>
None

> <i_lp_mmshare_version>
53161

> <i_f3d_flags>
0

> <r_lp_tautomer_probability>
1

> <s_lp_Force_Field>
OPLS_2005

> <r_lp_Energy>
33.581503

> <b_lp_Chiralities_Consistent>
1

> <s_lp_Variant>
CHEMBL220_lig1091-1

> <s_i_glide_gridfile>
glide-grid_1e66

> <i_i_glide_lignum>
1496

> <i_i_glide_rotatable_bonds>
6

> <r_i_docking_score>
-7.7385910584587

> <r_i_glide_ligand_efficiency>
-0.266847967533059

> <r_i_glide_ligand_efficiency_sa>
-0.819841499631671

> <r_i_glide_ligand_efficiency_ln>
-1.77194111864931

> <r_i_glide_gscore>
-7.7385910584587

> <r_i_glide_lipo>
-5.00356608777984

> <r_i_glide_hbond>
-0.22881305373524

> <r_i_glide_metal>
0

> <r_i_glide_rewards>
-1.47365457371389

> <r_i_glide_evdw>
-25.0002555847168

> <r_i_glide_ecoul>
-2.04179763793945

> <r_i_glide_erotb>
0.523725081697023

> <r_i_glide_esite>
0

> <r_i_glide_emodel>
-26.0983623977216

> <r_i_glide_energy>
-27.0420532226562

> <r_i_glide_einternal>
10.9697208404541

> <i_i_glide_confnum>
28

> <i_i_glide_posenum>
370

> <r_i_glide_eff_state_penalty>
0

> <s_user_duplicate_titles>
CHEMBL220_lig1091

> <s_m_subgroup_title>
dock_pv

> <s_m_subgroupid>
dock_pv

> <b_m_subgroup_collapsed>
0

$$$$
CHEMBL220_lig248
                    3D
 Schrodinger Suite 2021-1.
 51 54  0  0  1  0            999 V2000
    0.9939   64.7766   70.0831 C   0  0  0  0  0  0
   -0.0570   63.3850   70.2867 S   0  0  0  0  0  0
    1.2741   62.4012   70.8477 C   0  0  0  0  0  0
    2.3035   64.4814   70.4341 C   0  0  0  0  0  0
    1.7196   68.5080   64.5647 N   0  3  0  0  0  0
    2.4844   63.1389   70.8655 C   0  0  0  0  0  0
    1.2174   61.0590   71.2414 C   0  0  0  0  0  0
    3.3989   68.4288   62.7633 C   0  0  0  0  0  0
    0.4333   66.0319   69.5679 C   0  0  0  0  0  0
    2.3948   60.4337   71.6745 C   0  0  0  0  0  0
    3.6503   62.4896   71.2835 C   0  0  0  0  0  0
    3.6001   61.1469   71.6966 C   0  0  0  0  0  0
    5.9430   68.9080   62.7680 S   0  0  0  0  0  0
    1.9350   68.6125   63.0971 C   0  0  0  0  0  0
    4.3248   69.4624   62.7753 C   0  0  0  0  0  0
    4.0360   67.2147   62.4741 C   0  0  0  0  0  0
    5.4035   67.3293   62.3680 C   0  0  0  0  0  0
   -0.6932   66.1089   69.0761 O   0  0  0  0  0  0
    1.3104   67.2877   69.6698 C   0  0  0  0  0  0
    2.5428   69.1830   65.4123 C   0  0  0  0  0  0
    0.6750   67.7837   65.0371 C   0  0  0  0  0  0
    1.2701   68.4095   67.2904 C   0  0  0  0  0  0
    0.9774   68.5027   68.7680 C   0  0  0  0  0  0
    2.4425   59.1174   72.1027 O   0  0  0  0  0  0
    4.7101   60.4611   72.1494 O   0  0  0  0  0  0
    2.3409   69.1400   66.7819 C   0  0  0  0  0  0
    0.4303   67.7178   66.4112 C   0  0  0  0  0  0
    1.2498   58.3437   72.1587 C   0  0  0  0  0  0
    5.9430   61.1472   72.2651 C   0  0  0  0  0  0
    3.1216   65.1844   70.3896 H   0  0  0  0  0  0
    0.2749   60.5323   71.2090 H   0  0  0  0  0  0
    4.5732   63.0453   71.2913 H   0  0  0  0  0  0
    1.3062   67.8725   62.5990 H   0  0  0  0  0  0
    1.5564   69.5979   62.8188 H   0  0  0  0  0  0
    4.1387   70.5080   62.9532 H   0  0  0  0  0  0
    3.5430   66.2662   62.3679 H   0  0  0  0  0  0
    6.1205   66.5721   62.1085 H   0  0  0  0  0  0
    1.1909   67.6120   70.7030 H   0  0  0  0  0  0
    2.3542   67.0287   69.5680 H   0  0  0  0  0  0
    3.3255   69.7927   64.9958 H   0  0  0  0  0  0
    0.0345   67.3080   64.3084 H   0  0  0  0  0  0
   -0.0570   68.8039   68.8428 H   0  0  0  0  0  0
    1.5358   69.3524   69.1680 H   0  0  0  0  0  0
    2.9880   69.7080   67.4360 H   0  0  0  0  0  0
   -0.4251   67.1685   66.7795 H   0  0  0  0  0  0
    1.4819   57.3538   72.5516 H   0  0  0  0  0  0
    0.5063   58.7943   72.8179 H   0  0  0  0  0  0
    0.8187   58.2098   71.1680 H   0  0  0  0  0  0
    6.6613   60.5080   72.7680 H   0  0  0  0  0  0
    5.8563   62.0541   72.8658 H   0  0  0  0  0  0
    6.3430   61.3935   71.2817 H   0  0  0  0  0  0
  1  2  1  0  0  0
  1  4  2  0  0  0
  1  9  1  0  0  0
  2  3  1  0  0  0
  3  7  2  0  0  0
  3  6  1  0  0  0
  4  6  1  0  0  0
  4 30  1  0  0  0
  5 21  1  0  0  0
  5 14  1  0  0  0
  5 20  2  0  0  0
  6 11  2  0  0  0
  7 10  1  0  0  0
  7 31  1  0  0  0
  8 14  1  0  0  0
  8 15  2  0  0  0
  8 16  1  0  0  0
  9 18  2  0  0  0
  9 19  1  0  0  0
 10 24  1  0  0  0
 10 12  2  0  0  0
 11 12  1  0  0  0
 11 32  1  0  0  0
 12 25  1  0  0  0
 13 15  1  0  0  0
 13 17  1  0  0  0
 14 33  1  0  0  0
 14 34  1  0  0  0
 15 35  1  0  0  0
 16 17  2  0  0  0
 16 36  1  0  0  0
 17 37  1  0  0  0
 19 23  1  0  0  0
 19 38  1  0  0  0
 19 39  1  0  0  0
 20 26  1  0  0  0
 20 40  1  0  0  0
 21 27  2  0  0  0
 21 41  1  0  0  0
 22 23  1  0  0  0
 22 26  2  0  0  0
 22 27  1  0  0  0
 23 42  1  0  0  0
 23 43  1  0  0  0
 24 28  1  0  0  0
 25 29  1  0  0  0
 26 44  1  0  0  0
 27 45  1  0  0  0
 28 46  1  0  0  0
 28 47  1  0  0  0
 28 48  1  0  0  0
 29 49  1  0  0  0
 29 50  1  0  0  0
 29 51  1  0  0  0
M  CHG  1   5   1
M  END
> <s_m_entry_id>
8616

> <s_m_entry_name>
dock_pv.126

> <s_m_Source_Path>
/home/csk/Desktop/cluster/DUD-E-result/aces

> <s_m_Source_File>
dock_pv.maegz

> <i_m_Source_File_Index>
126

> <chembl_id>
CHEMBL87649

> <chembl_pref_name>
None

> <i_lp_mmshare_version>
53161

> <i_f3d_flags>
0

> <r_lp_tautomer_probability>
0.99990000499975

> <s_lp_Force_Field>
OPLS_2005

> <r_lp_Energy>
28.707948

> <b_lp_Chiralities_Consistent>
1

> <s_lp_Variant>
CHEMBL220_lig248-1

> <s_i_glide_gridfile>
glide-grid_1e66

> <i_i_glide_lignum>
291

> <i_i_glide_rotatable_bonds>
8

> <r_i_docking_score>
-7.72176369894706

> <r_i_glide_ligand_efficiency>
-0.266267713756795

> <r_i_glide_ligand_efficiency_sa>
-0.81805877619369

> <r_i_glide_ligand_efficiency_ln>
-1.76808808002617

> <r_i_glide_gscore>
-7.72176369894706

> <r_i_glide_lipo>
-3.65031312192311

> <r_i_glide_hbond>
0

> <r_i_glide_metal>
0

> <r_i_glide_rewards>
-1.91874166407635

> <r_i_glide_evdw>
-42.271728515625

> <r_i_glide_ecoul>
-4.66125679016113

> <r_i_glide_erotb>
0.660066031357819

> <r_i_glide_esite>
0

> <r_i_glide_emodel>
-69.0873530364617

> <r_i_glide_energy>
-46.9329853057861

> <r_i_glide_einternal>
5.62620639801025

> <i_i_glide_confnum>
17

> <i_i_glide_posenum>
121

> <r_i_glide_eff_state_penalty>
0

> <s_user_duplicate_titles>
CHEMBL220_lig248,139094

> <s_m_subgroup_title>
dock_pv

> <s_m_subgroupid>
dock_pv

> <b_m_subgroup_collapsed>
0

$$$$
CHEMBL220_lig45
                    3D
 Schrodinger Suite 2021-1.
 39 41  0  0  1  0            999 V2000
    5.4271   68.6701   64.4347 O   0  0  0  0  0  0
    4.3141   68.2353   63.7074 C   0  0  0  0  0  0
    4.5727   67.5212   62.7376 O   0  0  0  0  0  0
    2.9681   68.6689   64.1883 C   0  0  0  0  0  0
    2.8892   69.3077   65.3755 C   0  0  0  0  0  0
    4.0475   69.6000   66.1969 C   0  0  0  0  0  0
    3.9345   70.1199   67.4816 C   0  0  0  0  0  0
    5.0837   70.5081   68.1677 C   0  0  0  0  0  0
    6.3540   70.2654   67.6186 C   0  0  0  0  0  0
    6.4475   69.6645   66.3652 C   0  0  0  0  0  0
    5.2986   69.3219   65.6539 C   0  0  0  0  0  0
    1.7390   68.4962   63.3792 C   0  0  0  0  0  0
    0.3183   68.2402   63.9588 C   0  0  0  0  0  0
    1.8041   68.5089   62.1493 O   0  0  0  0  0  0
    7.5429   70.5081   68.2711 O   0  0  0  0  0  0
    7.5218   71.0905   69.5661 C   0  0  0  0  0  0
    0.1166   68.2155   65.4169 N   0  0  0  0  0  0
    0.6128   66.9906   66.0674 C   0  0  0  0  0  0
    0.3285   67.0274   67.5870 C   0  0  0  0  0  0
   -1.0692   67.1765   67.8109 O   0  0  0  0  0  0
   -1.5690   68.3919   67.2599 C   0  0  0  0  0  0
   -1.3020   68.4407   65.7395 C   0  0  0  0  0  0
    1.9543   69.7080   65.7319 H   0  0  0  0  0  0
    2.9637   70.3027   67.9210 H   0  0  0  0  0  0
    4.9679   70.9490   69.1452 H   0  0  0  0  0  0
    7.4229   69.4357   65.9680 H   0  0  0  0  0  0
   -0.0566   67.3102   63.5286 H   0  0  0  0  0  0
   -0.3166   69.0178   63.5307 H   0  0  0  0  0  0
    8.5321   71.1431   69.9678 H   0  0  0  0  0  0
    7.1431   72.1068   69.4943 H   0  0  0  0  0  0
    6.9177   70.5188   70.2716 H   0  0  0  0  0  0
    1.6826   66.8774   65.8971 H   0  0  0  0  0  0
    0.1539   66.1098   65.6199 H   0  0  0  0  0  0
    0.6606   66.1079   68.0638 H   0  0  0  0  0  0
    0.8828   67.8363   68.0676 H   0  0  0  0  0  0
   -2.6410   68.4481   67.4523 H   0  0  0  0  0  0
   -1.1199   69.2528   67.7601 H   0  0  0  0  0  0
   -1.9255   67.7079   65.2294 H   0  0  0  0  0  0
   -1.6129   69.4090   65.3499 H   0  0  0  0  0  0
  1  2  1  0  0  0
  1 11  1  0  0  0
  2  3  2  0  0  0
  2  4  1  0  0  0
  4  5  2  0  0  0
  4 12  1  0  0  0
  5  6  1  0  0  0
  5 23  1  0  0  0
  6  7  1  0  0  0
  6 11  2  0  0  0
  7  8  2  0  0  0
  7 24  1  0  0  0
  8  9  1  0  0  0
  8 25  1  0  0  0
  9 10  2  0  0  0
  9 15  1  0  0  0
 10 11  1  0  0  0
 10 26  1  0  0  0
 12 13  1  0  0  0
 12 14  2  0  0  0
 13 17  1  0  0  0
 13 27  1  0  0  0
 13 28  1  0  0  0
 15 16  1  0  0  0
 16 29  1  0  0  0
 16 30  1  0  0  0
 16 31  1  0  0  0
 17 18  1  0  0  0
 17 22  1  0  0  0
 18 19  1  0  0  0
 18 32  1  0  0  0
 18 33  1  0  0  0
 19 20  1  0  0  0
 19 34  1  0  0  0
 19 35  1  0  0  0
 20 21  1  0  0  0
 21 22  1  0  0  0
 21 36  1  0  0  0
 21 37  1  0  0  0
 22 38  1  0  0  0
 22 39  1  0  0  0
M  END
> <s_m_entry_id>
8617

> <s_m_entry_name>
dock_pv.127

> <s_m_Source_Path>
/home/csk/Desktop/cluster/DUD-E-result/aces

> <s_m_Source_File>
dock_pv.maegz

> <i_m_Source_File_Index>
127

> <chembl_id>
CHEMBL2381385

> <chembl_pref_name>
None

> <i_lp_mmshare_version>
53161

> <i_f3d_flags>
0

> <r_lp_tautomer_probability>
0.99990000499975

> <s_lp_Force_Field>
OPLS_2005

> <r_lp_Energy>
35.886328

> <b_lp_Chiralities_Consistent>
1

> <s_lp_Variant>
CHEMBL220_lig45-1

> <s_i_glide_gridfile>
glide-grid_1e66

> <i_i_glide_lignum>
48

> <i_i_glide_rotatable_bonds>
4

> <r_i_docking_score>
-7.71897642006202

> <r_i_glide_ligand_efficiency>
-0.350862564548273

> <r_i_glide_ligand_efficiency_sa>
-0.98313070450591

> <r_i_glide_ligand_efficiency_ln>
-1.88679939356912

> <r_i_glide_gscore>
-7.71897642006202

> <r_i_glide_lipo>
-3.65052403882507

> <r_i_glide_hbond>
0

> <r_i_glide_metal>
0

> <r_i_glide_rewards>
-2.30743007734216

> <r_i_glide_evdw>
-35.2100143432617

> <r_i_glide_ecoul>
-4.00910568237305

> <r_i_glide_erotb>
0.600844265624252

> <r_i_glide_esite>
0

> <r_i_glide_emodel>
-54.932160734953

> <r_i_glide_energy>
-39.2191200256348

> <r_i_glide_einternal>
6.30525159835815

> <i_i_glide_confnum>
18

> <i_i_glide_posenum>
294

> <r_i_glide_eff_state_penalty>
0

> <s_user_duplicate_titles>
CHEMBL220_lig45

> <s_m_subgroup_title>
dock_pv

> <s_m_subgroupid>
dock_pv

> <b_m_subgroup_collapsed>
0

$$$$
CHEMBL220_lig320
                    3D
 Schrodinger Suite 2021-1.
 50 51  0  0  1  0            999 V2000
    1.4531   61.7826   71.3499 N   0  3  0  0  0  0
    1.4175   67.9543   66.0604 C   0  0  0  0  0  0
    2.3439   68.8551   66.5991 C   0  0  0  0  0  0
    3.4399   69.3086   65.8391 C   0  0  0  0  0  0
    0.3201   67.3209   66.8673 C   0  0  0  0  0  0
    1.3494   63.1787   70.7549 C   0  0  0  0  0  0
    3.5507   68.9442   64.4887 C   0  0  0  0  0  0
    1.5354   67.6127   64.7075 C   0  0  0  0  0  0
   -0.4561   66.5083   66.3789 O   0  0  0  0  0  0
    2.5755   68.1093   63.9277 C   0  0  0  0  0  0
    0.0610   67.7249   68.3258 C   0  0  0  0  0  0
    0.1514   63.6345   70.1818 C   0  0  0  0  0  0
    2.4784   64.0077   70.7676 C   0  0  0  0  0  0
    1.1767   65.7868   69.7626 C   0  0  0  0  0  0
    1.0672   67.2701   69.4160 C   0  0  0  0  0  0
    4.4486   70.1079   66.3447 O   0  0  0  0  0  0
    0.0731   64.9360   69.6876 C   0  0  0  0  0  0
    2.3780   65.3083   70.2894 C   0  0  0  0  0  0
    4.6331   69.4393   63.7799 O   0  0  0  0  0  0
    0.0863   61.1371   71.6999 C   0  0  0  0  0  0
    2.1555   60.8285   70.3581 C   0  0  0  0  0  0
    2.2549   61.7517   72.6805 C   0  0  0  0  0  0
    4.4177   70.5263   67.7030 C   0  0  0  0  0  0
    4.7775   69.1351   62.3957 C   0  0  0  0  0  0
    2.2501   69.1562   67.6288 H   0  0  0  0  0  0
    0.8202   66.9446   64.2455 H   0  0  0  0  0  0
    2.6210   67.8159   62.8908 H   0  0  0  0  0  0
   -0.0168   68.8127   68.3459 H   0  0  0  0  0  0
   -0.9284   67.3476   68.5835 H   0  0  0  0  0  0
   -0.7359   63.0241   70.1191 H   0  0  0  0  0  0
    3.4285   63.6884   71.1671 H   0  0  0  0  0  0
    2.0449   67.7061   69.2376 H   0  0  0  0  0  0
    0.7453   67.7078   70.3564 H   0  0  0  0  0  0
   -0.8579   65.2873   69.2723 H   0  0  0  0  0  0
    3.2354   65.9611   70.3684 H   0  0  0  0  0  0
    0.2483   60.1716   72.1812 H   0  0  0  0  0  0
   -0.4460   61.8192   72.3641 H   0  0  0  0  0  0
   -0.4566   60.9879   70.7715 H   0  0  0  0  0  0
    2.2105   59.8341   70.8043 H   0  0  0  0  0  0
    1.5575   60.8180   69.4459 H   0  0  0  0  0  0
    3.1514   61.2262   70.1613 H   0  0  0  0  0  0
    2.2179   60.7448   73.0999 H   0  0  0  0  0  0
    3.2933   62.0178   72.4865 H   0  0  0  0  0  0
    1.7896   62.4698   73.3585 H   0  0  0  0  0  0
    5.1595   71.3103   67.8528 H   0  0  0  0  0  0
    3.4517   70.9274   68.0030 H   0  0  0  0  0  0
    4.6687   69.7085   68.3675 H   0  0  0  0  0  0
    5.6738   69.6213   62.0108 H   0  0  0  0  0  0
    3.9306   69.5033   61.8145 H   0  0  0  0  0  0
    4.8904   68.0634   62.2277 H   0  0  0  0  0  0
  1  6  1  0  0  0
  1 20  1  0  0  0
  1 21  1  0  0  0
  1 22  1  0  0  0
  2  5  1  0  0  0
  2  3  2  0  0  0
  2  8  1  0  0  0
  3  4  1  0  0  0
  3 25  1  0  0  0
  4 16  1  0  0  0
  4  7  2  0  0  0
  5 11  1  0  0  0
  5  9  2  0  0  0
  6 12  2  0  0  0
  6 13  1  0  0  0
  7 10  1  0  0  0
  7 19  1  0  0  0
  8 10  2  0  0  0
  8 26  1  0  0  0
 10 27  1  0  0  0
 11 15  1  0  0  0
 11 28  1  0  0  0
 11 29  1  0  0  0
 12 17  1  0  0  0
 12 30  1  0  0  0
 13 18  2  0  0  0
 13 31  1  0  0  0
 14 17  2  0  0  0
 14 15  1  0  0  0
 14 18  1  0  0  0
 15 32  1  0  0  0
 15 33  1  0  0  0
 16 23  1  0  0  0
 17 34  1  0  0  0
 18 35  1  0  0  0
 19 24  1  0  0  0
 20 36  1  0  0  0
 20 37  1  0  0  0
 20 38  1  0  0  0
 21 39  1  0  0  0
 21 40  1  0  0  0
 21 41  1  0  0  0
 22 42  1  0  0  0
 22 43  1  0  0  0
 22 44  1  0  0  0
 23 45  1  0  0  0
 23 46  1  0  0  0
 23 47  1  0  0  0
 24 48  1  0  0  0
 24 49  1  0  0  0
 24 50  1  0  0  0
M  CHG  1   1   1
M  END
> <s_m_entry_id>
8619

> <s_m_entry_name>
dock_pv.129

> <s_m_Source_Path>
/home/csk/Desktop/cluster/DUD-E-result/aces

> <s_m_Source_File>
dock_pv.maegz

> <i_m_Source_File_Index>
129

> <chembl_id>
CHEMBL59790

> <chembl_pref_name>
None

> <i_lp_mmshare_version>
53161

> <i_f3d_flags>
0

> <r_lp_tautomer_probability>
0.99990000499975

> <s_lp_Force_Field>
OPLS_2005

> <r_lp_Energy>
36.487949

> <b_lp_Chiralities_Consistent>
1

> <s_lp_Variant>
CHEMBL220_lig320-1

> <s_i_glide_gridfile>
glide-grid_1e66

> <i_i_glide_lignum>
374

> <i_i_glide_rotatable_bonds>
7

> <r_i_docking_score>
-7.70554585851896

> <r_i_glide_ligand_efficiency>
-0.321064410771623

> <r_i_glide_ligand_efficiency_sa>
-0.926110015971675

> <r_i_glide_ligand_efficiency_ln>
-1.84429070840316

> <r_i_glide_gscore>
-7.70554585851896

> <r_i_glide_lipo>
-3.40684478214633

> <r_i_glide_hbond>
0

> <r_i_glide_metal>
0

> <r_i_glide_rewards>
-3.40628661884386

> <r_i_glide_evdw>
-32.4518814086914

> <r_i_glide_ecoul>
0.224604025483131

> <r_i_glide_erotb>
0.696489009083325

> <r_i_glide_esite>
0

> <r_i_glide_emodel>
-43.7265743018408

> <r_i_glide_energy>
-32.2272773832083

> <r_i_glide_einternal>
5.4916672706604

> <i_i_glide_confnum>
52

> <i_i_glide_posenum>
346

> <r_i_glide_eff_state_penalty>
0

> <s_user_duplicate_titles>
CHEMBL220_lig320

> <s_m_subgroup_title>
dock_pv

> <s_m_subgroupid>
dock_pv

> <b_m_subgroup_collapsed>
0

$$$$
CHEMBL220_lig121
                    3D
 Schrodinger Suite 2021-1.
 48 51  0  0  1  0            999 V2000
    1.0082   66.2049   70.1777 C   0  0  1  0  0  0
    0.0646   65.5915   71.0501 O   0  0  0  0  0  0
   -0.0631   64.2123   70.7228 C   0  0  0  0  0  0
    1.9779   65.0650   69.8049 C   0  0  2  0  0  0
    1.3048   63.7871   70.2233 C   0  0  1  0  0  0
    2.1859   63.1623   71.3117 C   0  0  2  0  0  0
    3.2061   64.1085   71.5670 O   0  0  0  0  0  0
    3.3344   65.0432   70.5025 C   0  0  0  0  0  0
    0.4022   66.9024   68.9535 C   0  0  0  0  0  0
    1.1428   67.9027   68.3268 C   0  0  0  0  0  0
    0.7557   68.4312   67.0879 C   0  0  0  0  0  0
   -0.4647   68.0220   66.5325 C   0  0  0  0  0  0
   -1.2526   67.0764   67.1876 C   0  0  0  0  0  0
   -0.8115   66.5081   68.3813 C   0  0  0  0  0  0
   -0.8850   68.5080   65.3207 O   0  0  0  0  0  0
    1.5408   69.3079   66.3670 O   0  0  0  0  0  0
    2.9111   69.4735   66.7100 C   0  0  0  0  0  0
    1.1783   63.1110   69.3745 H   0  0  0  0  0  0
    2.1694   65.0736   68.7383 H   0  0  0  0  0  0
    2.7176   61.7983   70.9305 C   0  0  0  0  0  0
    2.0810   60.6485   71.4064 C   0  0  0  0  0  0
    2.4887   59.3800   70.9719 C   0  0  0  0  0  0
    3.5429   59.3060   70.0567 C   0  0  0  0  0  0
    4.1956   60.4406   69.6011 C   0  0  0  0  0  0
    3.7856   61.6886   70.0384 C   0  0  0  0  0  0
    3.9430   58.1072   69.5683 O   0  0  0  0  0  0
    1.8991   58.1932   71.3712 O   0  0  0  0  0  0
    0.8449   58.2305   72.3286 C   0  0  0  0  0  0
    1.5113   66.9774   70.7601 H   0  0  0  0  0  0
   -0.4119   63.6483   71.5892 H   0  0  0  0  0  0
   -0.8370   64.0606   69.9673 H   0  0  0  0  0  0
    1.6432   63.0573   72.2528 H   0  0  0  0  0  0
    4.1179   64.7105   69.8226 H   0  0  0  0  0  0
    3.6453   66.0233   70.8587 H   0  0  0  0  0  0
    2.0604   68.2226   68.7919 H   0  0  0  0  0  0
   -2.1910   66.7540   66.7591 H   0  0  0  0  0  0
   -1.4165   65.7553   68.8509 H   0  0  0  0  0  0
   -1.5877   67.9788   64.9374 H   0  0  0  0  0  0
    3.3955   70.1083   65.9695 H   0  0  0  0  0  0
    3.0304   69.9503   67.6834 H   0  0  0  0  0  0
    3.4302   68.5143   66.7012 H   0  0  0  0  0  0
    1.2530   60.7558   72.0897 H   0  0  0  0  0  0
    4.9963   60.3505   68.8839 H   0  0  0  0  0  0
    4.2842   62.5634   69.6530 H   0  0  0  0  0  0
    3.2747   57.4374   69.7612 H   0  0  0  0  0  0
    0.4898   57.2171   72.5164 H   0  0  0  0  0  0
    1.1837   58.6478   73.2783 H   0  0  0  0  0  0
   -0.0042   58.8144   71.9689 H   0  0  0  0  0  0
  1  9  1  0  0  0
  1  4  1  0  0  0
  1  2  1  0  0  0
  1 29  1  0  0  0
  2  3  1  0  0  0
  3  5  1  0  0  0
  3 30  1  0  0  0
  3 31  1  0  0  0
  4  8  1  0  0  0
  4  5  1  0  0  0
  4 19  1  0  0  0
  5  6  1  0  0  0
  5 18  1  0  0  0
  6  7  1  0  0  0
  6 20  1  0  0  0
  6 32  1  0  0  0
  7  8  1  0  0  0
  8 33  1  0  0  0
  8 34  1  0  0  0
  9 14  1  0  0  0
  9 10  2  0  0  0
 10 11  1  0  0  0
 10 35  1  0  0  0
 11 16  1  0  0  0
 11 12  2  0  0  0
 12 15  1  0  0  0
 12 13  1  0  0  0
 13 14  2  0  0  0
 13 36  1  0  0  0
 14 37  1  0  0  0
 15 38  1  0  0  0
 16 17  1  0  0  0
 17 39  1  0  0  0
 17 40  1  0  0  0
 17 41  1  0  0  0
 20 21  2  0  0  0
 20 25  1  0  0  0
 21 22  1  0  0  0
 21 42  1  0  0  0
 22 23  2  0  0  0
 22 27  1  0  0  0
 23 24  1  0  0  0
 23 26  1  0  0  0
 24 25  2  0  0  0
 24 43  1  0  0  0
 25 44  1  0  0  0
 26 45  1  0  0  0
 27 28  1  0  0  0
 28 46  1  0  0  0
 28 47  1  0  0  0
 28 48  1  0  0  0
M  END
> <s_m_entry_id>
8620

> <s_m_entry_name>
dock_pv.130

> <s_m_Source_Path>
/home/csk/Desktop/cluster/DUD-E-result/aces

> <s_m_Source_File>
dock_pv.maegz

> <i_m_Source_File_Index>
130

> <chembl_id>
CHEMBL260183

> <chembl_pref_name>
None

> <i_lp_mmshare_version>
53161

> <i_f3d_flags>
0

> <r_lp_tautomer_probability>
1

> <s_lp_Force_Field>
OPLS_2005

> <r_lp_Energy>
45.928703

> <b_lp_Chiralities_Consistent>
1

> <s_lp_Variant>
CHEMBL220_lig121-1

> <s_i_glide_gridfile>
glide-grid_1e66

> <i_i_glide_lignum>
135

> <i_i_glide_rotatable_bonds>
6

> <r_i_docking_score>
-7.70529035216341

> <r_i_glide_ligand_efficiency>
-0.296357321237054

> <r_i_glide_ligand_efficiency_sa>
-0.877957398055024

> <r_i_glide_ligand_efficiency_ln>
-1.80956215608575

> <r_i_glide_gscore>
-7.70529035216341

> <r_i_glide_lipo>
-3.52127837345822

> <r_i_glide_hbond>
0

> <r_i_glide_metal>
0

> <r_i_glide_rewards>
-1.86555627272727

> <r_i_glide_evdw>
-32.1778602600098

> <r_i_glide_ecoul>
-6.71891260147095

> <r_i_glide_erotb>
0.298274197243212

> <r_i_glide_esite>
0

> <r_i_glide_emodel>
-41.687309833229

> <r_i_glide_energy>
-38.8967728614807

> <r_i_glide_einternal>
6.11912775039673

> <i_i_glide_confnum>
21

> <i_i_glide_posenum>
64

> <r_i_glide_eff_state_penalty>
0

> <s_user_duplicate_titles>
CHEMBL220_lig121

> <s_m_subgroup_title>
dock_pv

> <s_m_subgroupid>
dock_pv

> <b_m_subgroup_collapsed>
0

$$$$
CHEMBL220_lig289
                    3D
 Schrodinger Suite 2021-1.
 55 58  0  0  1  0            999 V2000
   -0.0574   66.7153   68.9281 C   0  0  0  0  0  0
    0.2799   66.3831   70.3935 C   0  0  0  0  0  0
    0.9770   65.0237   70.6234 C   0  0  0  0  0  0
    0.1544   63.7840   70.2063 C   0  0  0  0  0  0
    0.9437   62.4753   70.3746 C   0  0  0  0  0  0
    2.2123   62.5368   69.6389 N   0  0  2  0  0  0
    2.8732   61.2400   69.4758 C   0  0  0  0  0  0
    3.2832   60.5809   70.7826 C   0  0  0  0  0  0
    4.4475   61.0064   71.4218 C   0  0  0  0  0  0
    4.7666   60.4995   72.6711 C   0  0  0  0  0  0
    3.9425   59.5505   73.2714 C   0  0  0  0  0  0
    2.7819   59.1156   72.6352 C   0  0  0  0  0  0
    2.4433   59.6441   71.3936 C   0  0  0  0  0  0
    3.0806   63.6199   70.1142 C   0  0  0  0  0  0
    2.3741   64.9795   69.9665 C   0  0  0  0  0  0
    0.6482   67.9166   68.6339 O   0  0  0  0  0  0
    1.1382   68.1509   67.3743 C   0  0  0  0  0  0
    2.1088   69.1361   67.2302 C   0  0  0  0  0  0
    2.6810   69.3076   65.9763 C   0  0  0  0  0  0
    2.2003   68.5287   64.9189 C   0  0  0  0  0  0
    1.2245   67.5962   65.1066 N   0  0  0  0  0  0
    0.7061   67.3961   66.3254 N   0  0  0  0  0  0
    2.6724   68.7289   63.5304 C   0  0  0  0  0  0
    1.7620   68.6954   62.4660 C   0  0  0  0  0  0
    2.1965   68.9080   61.1658 C   0  0  0  0  0  0
    3.5431   69.1514   60.9234 C   0  0  0  0  0  0
    4.4599   69.1911   61.9681 C   0  0  0  0  0  0
    4.0256   68.9836   63.2709 C   0  0  0  0  0  0
    0.2226   65.8926   68.2778 H   0  0  0  0  0  0
   -1.1275   66.8745   68.7836 H   0  0  0  0  0  0
   -0.6065   66.5067   71.0149 H   0  0  0  0  0  0
    0.9527   67.1512   70.7688 H   0  0  0  0  0  0
    1.1450   64.9020   71.6951 H   0  0  0  0  0  0
   -0.1743   63.8494   69.1688 H   0  0  0  0  0  0
   -0.7712   63.7240   70.7765 H   0  0  0  0  0  0
    0.3370   61.6705   69.9667 H   0  0  0  0  0  0
    1.1191   62.2296   71.4227 H   0  0  0  0  0  0
    3.7563   61.3692   68.8454 H   0  0  0  0  0  0
    2.1938   60.5770   68.9377 H   0  0  0  0  0  0
    5.0902   61.7460   70.9657 H   0  0  0  0  0  0
    5.6675   60.8402   73.1558 H   0  0  0  0  0  0
    4.2033   59.1468   74.2384 H   0  0  0  0  0  0
    2.1445   58.3841   73.1080 H   0  0  0  0  0  0
    1.5286   59.3330   70.9105 H   0  0  0  0  0  0
    3.3968   63.4423   71.1436 H   0  0  0  0  0  0
    3.9850   63.6366   69.5047 H   0  0  0  0  0  0
    3.0008   65.7712   70.3826 H   0  0  0  0  0  0
    2.3227   65.2208   68.9048 H   0  0  0  0  0  0
    2.4288   69.7249   68.0764 H   0  0  0  0  0  0
    3.4395   70.0616   65.8217 H   0  0  0  0  0  0
    0.7113   68.5189   62.6467 H   0  0  0  0  0  0
    1.4873   68.8916   60.3518 H   0  0  0  0  0  0
    3.8956   69.3019   59.9140 H   0  0  0  0  0  0
    5.5067   69.3708   61.7598 H   0  0  0  0  0  0
    4.7462   69.0145   64.0765 H   0  0  0  0  0  0
  1  2  1  0  0  0
  1 16  1  0  0  0
  1 29  1  0  0  0
  1 30  1  0  0  0
  2  3  1  0  0  0
  2 31  1  0  0  0
  2 32  1  0  0  0
  3  4  1  0  0  0
  3 15  1  0  0  0
  3 33  1  0  0  0
  4  5  1  0  0  0
  4 34  1  0  0  0
  4 35  1  0  0  0
  5  6  1  0  0  0
  5 36  1  0  0  0
  5 37  1  0  0  0
  6  7  1  0  0  0
  6 14  1  0  0  0
  7  8  1  0  0  0
  7 38  1  0  0  0
  7 39  1  0  0  0
  8  9  2  0  0  0
  8 13  1  0  0  0
  9 10  1  0  0  0
  9 40  1  0  0  0
 10 11  2  0  0  0
 10 41  1  0  0  0
 11 12  1  0  0  0
 11 42  1  0  0  0
 12 13  2  0  0  0
 12 43  1  0  0  0
 13 44  1  0  0  0
 14 15  1  0  0  0
 14 45  1  0  0  0
 14 46  1  0  0  0
 15 47  1  0  0  0
 15 48  1  0  0  0
 16 17  1  0  0  0
 17 18  2  0  0  0
 17 22  1  0  0  0
 18 19  1  0  0  0
 18 49  1  0  0  0
 19 20  2  0  0  0
 19 50  1  0  0  0
 20 21  1  0  0  0
 20 23  1  0  0  0
 21 22  2  0  0  0
 23 24  2  0  0  0
 23 28  1  0  0  0
 24 25  1  0  0  0
 24 51  1  0  0  0
 25 26  2  0  0  0
 25 52  1  0  0  0
 26 27  1  0  0  0
 26 53  1  0  0  0
 27 28  2  0  0  0
 27 54  1  0  0  0
 28 55  1  0  0  0
M  END
> <s_m_entry_id>
8621

> <s_m_entry_name>
dock_pv.131

> <s_m_Source_Path>
/home/csk/Desktop/cluster/DUD-E-result/aces

> <s_m_Source_File>
dock_pv.maegz

> <i_m_Source_File_Index>
131

> <chembl_id>
CHEMBL1202875

> <chembl_pref_name>
None

> <i_lp_mmshare_version>
53161

> <i_f3d_flags>
0

> <r_lp_tautomer_probability>
1

> <s_lp_Force_Field>
OPLS_2005

> <r_lp_Energy>
36.851748

> <b_lp_Chiralities_Consistent>
1

> <s_lp_Variant>
CHEMBL220_lig289-1

> <s_i_glide_gridfile>
glide-grid_1e66

> <i_i_glide_lignum>
343

> <i_i_glide_rotatable_bonds>
7

> <r_i_docking_score>
-7.69776333989825

> <r_i_glide_ligand_efficiency>
-0.27492011928208

> <r_i_glide_ligand_efficiency_sa>
-0.834819401431444

> <r_i_glide_ligand_efficiency_ln>
-1.77686979500119

> <r_i_glide_gscore>
-7.69776333989825

> <r_i_glide_lipo>
-4.64743884738418

> <r_i_glide_hbond>
0

> <r_i_glide_metal>
0

> <r_i_glide_rewards>
-1.55854049124457

> <r_i_glide_evdw>
-47.485912322998

> <r_i_glide_ecoul>
-0.581784725189209

> <r_i_glide_erotb>
0.969779323658786

> <r_i_glide_esite>
0

> <r_i_glide_emodel>
-57.9138578666436

> <r_i_glide_energy>
-48.0676970481873

> <r_i_glide_einternal>
18.8333702087402

> <i_i_glide_confnum>
28

> <i_i_glide_posenum>
40

> <r_i_glide_eff_state_penalty>
0

> <s_user_duplicate_titles>
CHEMBL220_lig289,676826

> <s_m_subgroup_title>
dock_pv

> <s_m_subgroupid>
dock_pv

> <b_m_subgroup_collapsed>
0

$$$$
CHEMBL220_lig896
                    3D
 Schrodinger Suite 2021-1.
 57 60  0  0  1  0            999 V2000
    0.2293   68.1823   65.2404 C   0  0  0  0  0  0
    1.2530   67.6248   66.0298 C   0  0  0  0  0  0
    2.5057   67.4183   65.5683 N   0  0  0  0  0  0
    2.8496   67.8524   64.3408 C   0  0  0  0  0  0
    0.5477   68.5080   63.9054 C   0  0  0  0  0  0
    1.8950   68.3993   63.4407 C   0  0  0  0  0  0
    4.2090   67.7751   63.9788 C   0  0  0  0  0  0
   -1.1794   68.3962   65.8383 C   0  0  0  0  0  0
    2.3490   68.8170   62.1521 C   0  0  0  0  0  0
    4.9394   60.1080   70.8425 S   0  0  0  0  0  0
    3.5430   58.9077   69.9668 S   0  0  0  0  0  0
    1.0842   64.8316   70.0490 C   0  0  0  0  0  0
    1.0077   67.1924   67.4702 C   0  0  0  0  0  0
   -0.1181   65.1670   69.5676 N   0  0  0  0  0  0
    1.9402   65.6535   70.3669 O   0  0  0  0  0  0
   -0.4568   68.9844   63.0590 N   0  0  0  0  0  0
    4.6257   68.2358   62.7392 C   0  0  0  0  0  0
    3.7031   68.7331   61.8237 C   0  0  0  0  0  0
   -1.2381   68.1899   67.3723 C   0  0  0  0  0  0
   -0.4658   66.9219   67.7823 C   0  0  2  0  0  0
    3.7981   60.9242   71.9914 C   0  0  2  0  0  0
   -0.6184   66.5056   69.2702 C   0  0  0  0  0  0
    6.3061   68.2062   62.3681 Cl  0  0  0  0  0  0
    2.3942   60.2924   71.9118 C   0  0  0  0  0  0
    2.5460   58.8379   71.4668 C   0  0  0  0  0  0
    1.3389   63.3228   70.1610 C   0  0  0  0  0  0
    3.8904   62.4663   71.8858 C   0  0  0  0  0  0
    2.6964   62.8573   69.5836 C   0  0  0  0  0  0
    3.9157   63.1236   70.4854 C   0  0  0  0  0  0
    4.9255   67.3886   64.6906 H   0  0  0  0  0  0
   -1.8717   67.7081   65.3574 H   0  0  0  0  0  0
   -1.5405   69.3964   65.5976 H   0  0  0  0  0  0
    1.6519   69.2251   61.4378 H   0  0  0  0  0  0
    1.4120   67.9462   68.1496 H   0  0  0  0  0  0
    1.5454   66.2719   67.6630 H   0  0  0  0  0  0
   -0.7413   64.4082   69.3380 H   0  0  0  0  0  0
   -0.2028   69.3442   62.1531 H   0  0  0  0  0  0
   -1.3376   69.2486   63.4775 H   0  0  0  0  0  0
    4.0496   69.0730   60.8564 H   0  0  0  0  0  0
   -2.2810   68.1018   67.6787 H   0  0  0  0  0  0
   -0.8701   69.0604   67.9200 H   0  0  0  0  0  0
   -0.8263   66.1080   67.1564 H   0  0  0  0  0  0
    4.1922   60.6568   72.9747 H   0  0  0  0  0  0
   -1.6702   66.5204   69.5530 H   0  0  0  0  0  0
   -0.1189   67.2386   69.9124 H   0  0  0  0  0  0
    1.7570   60.8060   71.1948 H   0  0  0  0  0  0
    1.8861   60.3550   72.8765 H   0  0  0  0  0  0
    1.5842   58.3714   71.2478 H   0  0  0  0  0  0
    3.0613   58.2296   72.2144 H   0  0  0  0  0  0
    0.5526   62.7959   69.6169 H   0  0  0  0  0  0
    1.2181   63.0343   71.2034 H   0  0  0  0  0  0
    3.0909   62.9074   72.4772 H   0  0  0  0  0  0
    4.8169   62.7662   72.3702 H   0  0  0  0  0  0
    2.8660   63.3258   68.6151 H   0  0  0  0  0  0
    2.6476   61.7896   69.3670 H   0  0  0  0  0  0
    4.0392   64.2009   70.6107 H   0  0  0  0  0  0
    4.8153   62.8108   69.9576 H   0  0  0  0  0  0
  1  2  1  0  0  0
  1  5  2  0  0  0
  1  8  1  0  0  0
  2  3  2  0  0  0
  2 13  1  0  0  0
  3  4  1  0  0  0
  4  6  1  0  0  0
  4  7  2  0  0  0
  5  6  1  0  0  0
  5 16  1  0  0  0
  6  9  2  0  0  0
  7 17  1  0  0  0
  7 30  1  0  0  0
  8 19  1  0  0  0
  8 31  1  0  0  0
  8 32  1  0  0  0
  9 18  1  0  0  0
  9 33  1  0  0  0
 10 21  1  0  0  0
 10 11  1  0  0  0
 11 25  1  0  0  0
 12 14  1  0  0  0
 12 15  2  0  0  0
 12 26  1  0  0  0
 13 20  1  0  0  0
 13 34  1  0  0  0
 13 35  1  0  0  0
 14 22  1  0  0  0
 14 36  1  0  0  0
 16 37  1  0  0  0
 16 38  1  0  0  0
 17 18  2  0  0  0
 17 23  1  0  0  0
 18 39  1  0  0  0
 19 20  1  0  0  0
 19 40  1  0  0  0
 19 41  1  0  0  0
 20 22  1  0  0  0
 20 42  1  0  0  0
 21 27  1  0  0  0
 21 24  1  0  0  0
 21 43  1  0  0  0
 22 44  1  0  0  0
 22 45  1  0  0  0
 24 25  1  0  0  0
 24 46  1  0  0  0
 24 47  1  0  0  0
 25 48  1  0  0  0
 25 49  1  0  0  0
 26 28  1  0  0  0
 26 50  1  0  0  0
 26 51  1  0  0  0
 27 29  1  0  0  0
 27 52  1  0  0  0
 27 53  1  0  0  0
 28 29  1  0  0  0
 28 54  1  0  0  0
 28 55  1  0  0  0
 29 56  1  0  0  0
 29 57  1  0  0  0
M  END
> <s_m_entry_id>
8622

> <s_m_entry_name>
dock_pv.132

> <s_m_Source_Path>
/home/csk/Desktop/cluster/DUD-E-result/aces

> <s_m_Source_File>
dock_pv.maegz

> <i_m_Source_File_Index>
132

> <chembl_id>
CHEMBL363391

> <chembl_pref_name>
None

> <i_lp_mmshare_version>
53161

> <i_f3d_flags>
0

> <r_lp_tautomer_probability>
1

> <s_lp_Force_Field>
OPLS_2005

> <r_lp_Energy>
26.428182

> <b_lp_Chiralities_Consistent>
1

> <s_lp_Variant>
CHEMBL220_lig896-3

> <s_i_glide_gridfile>
glide-grid_1e66

> <i_i_glide_lignum>
1212

> <i_i_glide_rotatable_bonds>
8

> <r_i_docking_score>
-7.69626164582132

> <r_i_glide_ligand_efficiency>
-0.265388332614528

> <r_i_glide_ligand_efficiency_sa>
-0.815357038717144

> <r_i_glide_ligand_efficiency_ln>
-1.76224875653664

> <r_i_glide_gscore>
-7.69626164582132

> <r_i_glide_lipo>
-4.14216658262044

> <r_i_glide_hbond>
-0.0688479145155608

> <r_i_glide_metal>
0

> <r_i_glide_rewards>
-1.25748226263762

> <r_i_glide_evdw>
-49.922477722168

> <r_i_glide_ecoul>
-2.73856329917908

> <r_i_glide_erotb>
0.692755967250188

> <r_i_glide_esite>
-0.0136124723126238

> <r_i_glide_emodel>
-71.3620170226248

> <r_i_glide_energy>
-52.661041021347

> <r_i_glide_einternal>
4.63569021224976

> <i_i_glide_confnum>
62

> <i_i_glide_posenum>
356

> <r_i_glide_eff_state_penalty>
0

> <s_user_duplicate_titles>
CHEMBL220_lig896

> <s_m_subgroup_title>
dock_pv

> <s_m_subgroupid>
dock_pv

> <b_m_subgroup_collapsed>
0

$$$$
CHEMBL220_lig310
                    3D
 Schrodinger Suite 2021-1.
 62 65  0  0  1  0            999 V2000
    4.9427   63.8630   69.4750 C   0  0  0  0  0  0
    4.2330   64.1201   70.7994 C   0  0  0  0  0  0
    3.6162   69.3643   60.9007 C   0  0  0  0  0  0
    3.5930   58.9095   71.2009 C   0  0  0  0  0  0
    2.3996   69.1167   61.5211 C   0  0  0  0  0  0
    4.7444   69.6935   61.6501 C   0  0  0  0  0  0
    3.6815   59.8588   72.2172 C   0  0  0  0  0  0
    3.0453   59.2449   69.9656 C   0  0  0  0  0  0
    2.3329   69.1462   62.9062 C   0  0  0  0  0  0
    4.6949   69.6603   63.0350 C   0  0  0  0  0  0
    3.1915   61.1458   72.0050 C   0  0  0  0  0  0
    2.5517   60.5299   69.7584 C   0  0  0  0  0  0
   -1.0927   66.8907   67.7265 C   0  0  0  0  0  0
    0.5854   67.0812   65.8203 C   0  0  0  0  0  0
    0.6058   68.8113   67.6272 C   0  0  0  0  0  0
   -1.2599   66.3766   69.1679 C   0  0  0  0  0  0
    2.0406   67.4217   65.5052 C   0  0  0  0  0  0
    2.0065   69.2620   67.1591 C   0  0  0  0  0  0
    2.0258   65.2280   70.3745 C   0  0  0  0  0  0
    3.4775   69.3714   65.2002 C   0  0  0  0  0  0
    0.3248   67.3269   67.3080 C   0  0  0  0  0  0
    3.4962   69.3497   63.6726 C   0  0  0  0  0  0
    2.7294   64.0457   70.6058 C   0  0  0  0  0  0
    2.6099   61.4885   70.7779 C   0  0  0  0  0  0
    0.6565   65.1556   70.1564 C   0  0  0  0  0  0
    2.0143   62.8350   70.5666 C   0  0  0  0  0  0
   -0.0572   66.3505   69.9985 N   0  0  0  0  0  0
    0.0077   63.9591   70.1128 N   0  0  0  0  0  0
    0.6783   62.8162   70.3145 N   0  0  0  0  0  0
    2.2354   68.8555   65.7639 N   0  0  1  0  0  0
    6.0163   64.0225   69.5676 H   0  0  0  0  0  0
    4.7430   62.8480   69.1306 H   0  0  0  0  0  0
    4.5785   64.5344   68.7006 H   0  0  0  0  0  0
    4.5091   65.1098   71.1662 H   0  0  0  0  0  0
    4.5655   63.4212   71.5663 H   0  0  0  0  0  0
    3.6943   69.3078   59.8251 H   0  0  0  0  0  0
    3.9429   57.9009   71.3765 H   0  0  0  0  0  0
    1.5182   68.9075   60.9332 H   0  0  0  0  0  0
    5.6838   69.9141   61.1678 H   0  0  0  0  0  0
    4.1078   59.5902   73.1735 H   0  0  0  0  0  0
    2.9732   58.5076   69.1808 H   0  0  0  0  0  0
    1.3751   68.9796   63.3760 H   0  0  0  0  0  0
    5.5874   69.8781   63.6045 H   0  0  0  0  0  0
    3.2327   61.8705   72.8064 H   0  0  0  0  0  0
    2.0987   60.7791   68.8101 H   0  0  0  0  0  0
   -1.4428   66.1089   67.0543 H   0  0  0  0  0  0
   -1.7981   67.7044   67.5579 H   0  0  0  0  0  0
    0.3963   66.0350   65.5758 H   0  0  0  0  0  0
   -0.1094   67.6366   65.1862 H   0  0  0  0  0  0
   -0.1456   69.4632   67.1773 H   0  0  0  0  0  0
    0.4931   68.9882   68.6975 H   0  0  0  0  0  0
   -1.6569   65.3755   69.1028 H   0  0  0  0  0  0
   -2.0675   66.9080   69.6712 H   0  0  0  0  0  0
    2.7520   66.8247   66.0718 H   0  0  0  0  0  0
    2.2163   67.1691   64.4617 H   0  0  0  0  0  0
    2.8016   68.9063   67.8142 H   0  0  0  0  0  0
    2.0530   70.3505   67.2051 H   0  0  0  0  0  0
    2.5322   66.1815   70.3858 H   0  0  0  0  0  0
    3.5857   70.4153   65.4989 H   0  0  0  0  0  0
    4.3419   68.8379   65.5996 H   0  0  0  0  0  0
    1.0751   66.7213   67.8172 H   0  0  0  0  0  0
    0.4393   67.2214   70.1037 H   0  0  0  0  0  0
  1  2  1  0  0  0
  1 31  1  0  0  0
  1 32  1  0  0  0
  1 33  1  0  0  0
  2 34  1  0  0  0
  2 35  1  0  0  0
  2 23  1  0  0  0
  3  5  2  0  0  0
  3  6  1  0  0  0
  3 36  1  0  0  0
  4  7  2  0  0  0
  4  8  1  0  0  0
  4 37  1  0  0  0
  5  9  1  0  0  0
  5 38  1  0  0  0
  6 10  2  0  0  0
  6 39  1  0  0  0
  7 11  1  0  0  0
  7 40  1  0  0  0
  8 12  2  0  0  0
  8 41  1  0  0  0
  9 22  2  0  0  0
  9 42  1  0  0  0
 10 22  1  0  0  0
 10 43  1  0  0  0
 11 24  2  0  0  0
 11 44  1  0  0  0
 12 24  1  0  0  0
 12 45  1  0  0  0
 13 16  1  0  0  0
 13 21  1  0  0  0
 13 46  1  0  0  0
 13 47  1  0  0  0
 14 17  1  0  0  0
 14 21  1  0  0  0
 14 48  1  0  0  0
 14 49  1  0  0  0
 15 18  1  0  0  0
 15 21  1  0  0  0
 15 50  1  0  0  0
 15 51  1  0  0  0
 16 52  1  0  0  0
 16 53  1  0  0  0
 16 27  1  0  0  0
 17 30  1  0  0  0
 17 54  1  0  0  0
 17 55  1  0  0  0
 18 30  1  0  0  0
 18 56  1  0  0  0
 18 57  1  0  0  0
 19 23  2  0  0  0
 19 25  1  0  0  0
 19 58  1  0  0  0
 20 22  1  0  0  0
 20 30  1  0  0  0
 20 59  1  0  0  0
 20 60  1  0  0  0
 21 61  1  0  0  0
 23 26  1  0  0  0
 24 26  1  0  0  0
 25 27  1  0  0  0
 25 28  2  0  0  0
 26 29  2  0  0  0
 27 62  1  0  0  0
 28 29  1  0  0  0
M  END
> <s_m_entry_id>
8623

> <s_m_entry_name>
dock_pv.133

> <s_m_Source_Path>
/home/csk/Desktop/cluster/DUD-E-result/aces

> <s_m_Source_File>
dock_pv.maegz

> <i_m_Source_File_Index>
133

> <chembl_id>
CHEMBL1204296

> <chembl_pref_name>
None

> <i_lp_mmshare_version>
53161

> <i_f3d_flags>
0

> <r_lp_tautomer_probability>
0.999978240473126

> <s_lp_Force_Field>
OPLS_2005

> <r_lp_Energy>
36.711772

> <b_lp_Chiralities_Consistent>
1

> <s_lp_Variant>
CHEMBL220_lig310-1

> <s_i_glide_gridfile>
glide-grid_1e66

> <i_i_glide_lignum>
364

> <i_i_glide_rotatable_bonds>
8

> <r_i_docking_score>
-7.69362880266471

> <r_i_glide_ligand_efficiency>
-0.256454293422157

> <r_i_glide_ligand_efficiency_sa>
-0.796863115909325

> <r_i_glide_ligand_efficiency_ln>
-1.74807629276539

> <r_i_glide_gscore>
-7.69362880266471

> <r_i_glide_lipo>
-4.71193336887117

> <r_i_glide_hbond>
0

> <r_i_glide_metal>
0

> <r_i_glide_rewards>
-1.34447701531853

> <r_i_glide_evdw>
-45.1071243286133

> <r_i_glide_ecoul>
-1.58139288425446

> <r_i_glide_erotb>
0.85534673059382

> <r_i_glide_esite>
0

> <r_i_glide_emodel>
-59.4731572868294

> <r_i_glide_energy>
-46.6885172128677

> <r_i_glide_einternal>
13.2302942276001

> <i_i_glide_confnum>
4

> <i_i_glide_posenum>
241

> <r_i_glide_eff_state_penalty>
0

> <s_user_duplicate_titles>
CHEMBL220_lig310,678247

> <s_m_subgroup_title>
dock_pv

> <s_m_subgroupid>
dock_pv

> <b_m_subgroup_collapsed>
0

$$$$
CHEMBL220_lig784
                    3D
 Schrodinger Suite 2021-1.
 76 78  0  0  1  0            999 V2000
    1.3837   69.1813   62.3174 C   0  0  0  0  0  0
    3.6160   68.3422   62.6584 C   0  0  0  0  0  0
    0.3539   69.7276   61.4363 N   0  3  0  0  0  0
    4.9281   67.9900   62.1371 N   0  3  0  0  0  0
    2.6665   68.9261   61.8280 C   0  0  0  0  0  0
    1.0505   68.8231   63.6263 C   0  0  0  0  0  0
    3.2822   68.0220   63.9728 C   0  0  0  0  0  0
    2.0190   68.2961   64.4729 C   0  0  0  0  0  0
    3.3620   61.2501   69.9074 C   0  0  0  0  0  0
    0.2105   65.5234   70.2119 C   0  0  0  0  0  0
    3.8807   61.7780   68.7682 O   0  0  0  0  0  0
   -0.7558   65.4277   69.2685 O   0  0  0  0  0  0
    3.5436   63.0922   68.7396 C   0  0  0  0  0  0
   -0.5859   66.4142   68.3691 C   0  0  0  0  0  0
    2.7268   62.2397   70.6282 C   0  0  0  0  0  0
    1.1060   66.5095   69.8253 C   0  0  0  0  0  0
    0.3422   69.3203   60.2835 O   0  5  0  0  0  0
    4.9992   66.9088   61.5677 O   0  5  0  0  0  0
    2.9062   63.4147   69.9163 C   0  0  0  0  0  0
    0.6046   67.0730   68.6473 C   0  0  0  0  0  0
   -0.4573   70.5081   61.9388 O   0  0  0  0  0  0
    5.8611   68.7495   62.3706 O   0  0  0  0  0  0
    3.5880   59.7812   70.1653 C   0  0  0  0  0  0
    0.0359   64.5918   71.4121 C   0  0  0  0  0  0
    4.1532   67.2900   64.7669 N   0  0  0  0  0  0
   -0.2943   68.9075   63.9985 N   0  0  0  0  0  0
    3.7968   59.5456   71.5944 N   0  0  0  0  0  0
   -0.0578   65.2791   72.7011 N   0  0  0  0  0  0
    3.5430   63.5220   65.8765 S   0  0  0  0  0  0
   -2.4568   68.1464   67.2614 S   0  0  0  0  0  0
    4.0056   63.9573   67.5931 C   0  0  0  0  0  0
   -1.6933   66.5083   67.3499 C   0  0  0  0  0  0
   -0.8772   68.2002   65.0870 C   0  0  0  0  0  0
    4.1104   65.8689   64.3937 C   0  0  0  0  0  0
    3.0185   65.0971   65.1574 C   0  0  0  0  0  0
   -1.2061   69.0323   66.3130 C   0  0  0  0  0  0
    3.6637   58.1295   71.9255 C   0  0  0  0  0  0
    5.0428   60.1388   72.0842 C   0  0  0  0  0  0
   -1.0083   66.3806   72.7938 C   0  0  0  0  0  0
   -0.1532   64.3481   73.8220 C   0  0  0  0  0  0
    2.9220   69.1582   60.8026 H   0  0  0  0  0  0
    1.7749   68.0230   65.4871 H   0  0  0  0  0  0
    2.2522   62.1186   71.5922 H   0  0  0  0  0  0
    1.9888   66.8218   70.3639 H   0  0  0  0  0  0
    2.6144   64.4041   70.2177 H   0  0  0  0  0  0
    1.0353   67.8976   68.1008 H   0  0  0  0  0  0
    2.7137   59.2230   69.8259 H   0  0  0  0  0  0
    4.4351   59.4005   69.5942 H   0  0  0  0  0  0
    0.8785   63.9154   71.4893 H   0  0  0  0  0  0
   -0.8254   63.9346   71.2874 H   0  0  0  0  0  0
    4.0129   67.4066   65.7602 H   0  0  0  0  0  0
   -0.9102   69.4827   63.4326 H   0  0  0  0  0  0
    5.0787   64.1081   67.6640 H   0  0  0  0  0  0
    3.5403   64.9079   67.7885 H   0  0  0  0  0  0
   -1.3895   66.1109   66.3895 H   0  0  0  0  0  0
   -2.5207   65.8534   67.5676 H   0  0  0  0  0  0
   -0.2506   67.3462   65.3243 H   0  0  0  0  0  0
   -1.8107   67.8116   64.6870 H   0  0  0  0  0  0
    3.9512   65.7078   63.3289 H   0  0  0  0  0  0
    5.0933   65.4367   64.5871 H   0  0  0  0  0  0
    2.5975   65.7046   65.9593 H   0  0  0  0  0  0
    2.1806   64.9002   64.4885 H   0  0  0  0  0  0
   -1.6390   69.9894   66.0245 H   0  0  0  0  0  0
   -0.3269   69.2405   66.9171 H   0  0  0  0  0  0
    3.8489   57.9607   72.9887 H   0  0  0  0  0  0
    2.6476   57.7934   71.7194 H   0  0  0  0  0  0
    4.3429   57.4976   71.3493 H   0  0  0  0  0  0
    5.1152   60.0546   73.1658 H   0  0  0  0  0  0
    5.9324   59.7075   71.6294 H   0  0  0  0  0  0
    5.0698   61.2075   71.8759 H   0  0  0  0  0  0
   -0.8357   67.0697   71.9759 H   0  0  0  0  0  0
   -0.8468   66.9118   73.7242 H   0  0  0  0  0  0
   -2.0530   66.1090   72.7677 H   0  0  0  0  0  0
    0.7254   63.7008   73.8529 H   0  0  0  0  0  0
   -0.1815   64.8811   74.7720 H   0  0  0  0  0  0
   -1.0315   63.7083   73.7597 H   0  0  0  0  0  0
  1  3  1  0  0  0
  1  5  1  0  0  0
  1  6  2  0  0  0
  2  5  2  0  0  0
  2  4  1  0  0  0
  2  7  1  0  0  0
  3 17  1  0  0  0
  3 21  2  0  0  0
  4 18  1  0  0  0
  4 22  2  0  0  0
  5 41  1  0  0  0
  6  8  1  0  0  0
  6 26  1  0  0  0
  7  8  2  0  0  0
  7 25  1  0  0  0
  8 42  1  0  0  0
  9 11  1  0  0  0
  9 23  1  0  0  0
  9 15  2  0  0  0
 10 12  1  0  0  0
 10 24  1  0  0  0
 10 16  2  0  0  0
 11 13  1  0  0  0
 12 14  1  0  0  0
 13 31  1  0  0  0
 13 19  2  0  0  0
 14 32  1  0  0  0
 14 20  2  0  0  0
 15 19  1  0  0  0
 15 43  1  0  0  0
 16 20  1  0  0  0
 16 44  1  0  0  0
 19 45  1  0  0  0
 20 46  1  0  0  0
 23 27  1  0  0  0
 23 47  1  0  0  0
 23 48  1  0  0  0
 24 28  1  0  0  0
 24 49  1  0  0  0
 24 50  1  0  0  0
 25 34  1  0  0  0
 25 51  1  0  0  0
 26 33  1  0  0  0
 26 52  1  0  0  0
 27 37  1  0  0  0
 27 38  1  0  0  0
 28 39  1  0  0  0
 28 40  1  0  0  0
 29 35  1  0  0  0
 29 31  1  0  0  0
 30 36  1  0  0  0
 30 32  1  0  0  0
 31 53  1  0  0  0
 31 54  1  0  0  0
 32 55  1  0  0  0
 32 56  1  0  0  0
 33 36  1  0  0  0
 33 57  1  0  0  0
 33 58  1  0  0  0
 34 35  1  0  0  0
 34 59  1  0  0  0
 34 60  1  0  0  0
 35 61  1  0  0  0
 35 62  1  0  0  0
 36 63  1  0  0  0
 36 64  1  0  0  0
 37 65  1  0  0  0
 37 66  1  0  0  0
 37 67  1  0  0  0
 38 68  1  0  0  0
 38 69  1  0  0  0
 38 70  1  0  0  0
 39 71  1  0  0  0
 39 72  1  0  0  0
 39 73  1  0  0  0
 40 74  1  0  0  0
 40 75  1  0  0  0
 40 76  1  0  0  0
M  CHG  4   3   1   4   1  17  -1  18  -1
M  END
> <s_m_entry_id>
8624

> <s_m_entry_name>
dock_pv.134

> <s_m_Source_Path>
/home/csk/Desktop/cluster/DUD-E-result/aces

> <s_m_Source_File>
dock_pv.maegz

> <i_m_Source_File_Index>
134

> <chembl_id>
CHEMBL13122

> <chembl_pref_name>
None

> <i_lp_mmshare_version>
53161

> <i_f3d_flags>
0

> <r_lp_tautomer_probability>
1

> <s_lp_Force_Field>
OPLS_2005

> <r_lp_Energy>
22.686719

> <b_lp_Chiralities_Consistent>
1

> <s_lp_Variant>
CHEMBL220_lig784-1

> <s_i_glide_gridfile>
glide-grid_1e66

> <i_i_glide_lignum>
964

> <i_i_glide_rotatable_bonds>
18

> <r_i_docking_score>
-7.69302097191439

> <r_i_glide_ligand_efficiency>
-0.19232552429786

> <r_i_glide_ligand_efficiency_sa>
-0.65774404015387

> <r_i_glide_ligand_efficiency_ln>
-1.64069497780854

> <r_i_glide_gscore>
-7.69302097191439

> <r_i_glide_lipo>
-4.23725761577736

> <r_i_glide_hbond>
-0.11694320694004

> <r_i_glide_metal>
0

> <r_i_glide_rewards>
-1.35

> <r_i_glide_evdw>
-36.3272361755371

> <r_i_glide_ecoul>
-4.58620929718018

> <r_i_glide_erotb>
0.72468875865792

> <r_i_glide_esite>
-0.209215704501034

> <r_i_glide_emodel>
-27.0791331481412

> <r_i_glide_energy>
-40.9134454727173

> <r_i_glide_einternal>
35.621208190918

> <i_i_glide_confnum>
65

> <i_i_glide_posenum>
69

> <r_i_glide_eff_state_penalty>
0

> <s_user_duplicate_titles>
CHEMBL220_lig784,11445

> <s_m_subgroup_title>
dock_pv

> <s_m_subgroupid>
dock_pv

> <b_m_subgroup_collapsed>
0

$$$$
CHEMBL220_lig1089
                    3D
 Schrodinger Suite 2021-1.
 52 55  0  0  1  0            999 V2000
   -2.0249   66.9080   68.1062 C   0  0  0  0  0  0
   -0.6982   66.5597   68.3839 C   0  0  0  0  0  0
    0.3007   66.9080   67.4659 C   0  0  0  0  0  0
   -2.3656   67.6002   66.9479 C   0  0  0  0  0  0
   -1.3686   67.9072   66.0317 C   0  0  0  0  0  0
   -0.0408   67.5615   66.2885 C   0  0  0  0  0  0
    0.9230   67.8311   65.2354 C   0  0  0  0  0  0
    0.5587   68.3282   64.0333 C   0  0  0  0  0  0
   -0.8570   68.6684   63.7939 C   0  0  0  0  0  0
   -1.7463   68.5080   64.8454 O   0  0  0  0  0  0
   -1.3364   69.1322   62.7680 O   0  0  0  0  0  0
    1.5650   68.7244   63.0308 C   0  0  0  0  0  0
    1.3945   68.5389   61.6568 C   0  0  0  0  0  0
    2.4001   68.9080   60.7680 C   0  0  0  0  0  0
    3.5814   69.4743   61.2257 C   0  0  0  0  0  0
    3.7404   69.7073   62.5896 C   0  0  0  0  0  0
    2.7410   69.3178   63.4683 C   0  0  0  0  0  0
    5.0376   70.2538   63.1563 C   0  0  0  0  0  0
    5.9430   69.1899   63.5861 N   0  0  1  0  0  0
    5.5612   68.4898   64.8232 C   0  0  0  0  0  0
    5.5292   69.3963   66.0580 C   0  0  0  0  0  0
    4.3297   69.7080   66.7134 C   0  0  0  0  0  0
    4.3320   70.5080   67.8502 C   0  0  0  0  0  0
    5.5324   71.0195   68.3196 C   0  0  0  0  0  0
    6.7292   70.6959   67.7014 C   0  0  0  0  0  0
    6.7284   69.8967   66.5651 C   0  0  0  0  0  0
    6.2547   68.3104   62.4601 C   0  0  0  0  0  0
   -0.4570   65.8996   69.5686 O   0  0  0  0  0  0
    0.8860   65.6601   69.9772 C   0  0  0  0  0  0
   -2.7964   66.6901   68.8273 H   0  0  0  0  0  0
    1.3288   66.6334   67.6366 H   0  0  0  0  0  0
   -3.3936   67.8690   66.7536 H   0  0  0  0  0  0
    1.9656   67.6295   65.4328 H   0  0  0  0  0  0
    0.4883   68.0995   61.2662 H   0  0  0  0  0  0
    2.2622   68.7334   59.7134 H   0  0  0  0  0  0
    4.3660   69.7277   60.5276 H   0  0  0  0  0  0
    2.8673   69.5397   64.5073 H   0  0  0  0  0  0
    4.8297   70.9080   64.0005 H   0  0  0  0  0  0
    5.5426   70.8574   62.3999 H   0  0  0  0  0  0
    6.2883   67.7080   65.0374 H   0  0  0  0  0  0
    4.6049   67.9844   64.6944 H   0  0  0  0  0  0
    3.3911   69.2829   66.4080 H   0  0  0  0  0  0
    3.4060   70.7386   68.3570 H   0  0  0  0  0  0
    5.5439   71.6748   69.1680 H   0  0  0  0  0  0
    7.6445   71.0869   68.1027 H   0  0  0  0  0  0
    7.6582   69.6431   66.0872 H   0  0  0  0  0  0
    6.4594   68.9030   61.5684 H   0  0  0  0  0  0
    7.1430   67.7272   62.6303 H   0  0  0  0  0  0
    5.4375   67.6253   62.2317 H   0  0  0  0  0  0
    0.8834   65.1848   70.9580 H   0  0  0  0  0  0
    1.4030   64.9908   69.2887 H   0  0  0  0  0  0
    1.4496   66.5908   70.0658 H   0  0  0  0  0  0
  1  2  2  0  0  0
  1  4  1  0  0  0
  1 30  1  0  0  0
  2  3  1  0  0  0
  2 28  1  0  0  0
  3  6  2  0  0  0
  3 31  1  0  0  0
  4  5  2  0  0  0
  4 32  1  0  0  0
  5 10  1  0  0  0
  5  6  1  0  0  0
  6  7  1  0  0  0
  7  8  2  0  0  0
  7 33  1  0  0  0
  8 12  1  0  0  0
  8  9  1  0  0  0
  9 10  1  0  0  0
  9 11  2  0  0  0
 12 17  1  0  0  0
 12 13  2  0  0  0
 13 14  1  0  0  0
 13 34  1  0  0  0
 14 15  2  0  0  0
 14 35  1  0  0  0
 15 16  1  0  0  0
 15 36  1  0  0  0
 16 17  2  0  0  0
 16 18  1  0  0  0
 17 37  1  0  0  0
 18 19  1  0  0  0
 18 38  1  0  0  0
 18 39  1  0  0  0
 19 20  1  0  0  0
 19 27  1  0  0  0
 20 21  1  0  0  0
 20 40  1  0  0  0
 20 41  1  0  0  0
 21 22  2  0  0  0
 21 26  1  0  0  0
 22 23  1  0  0  0
 22 42  1  0  0  0
 23 24  2  0  0  0
 23 43  1  0  0  0
 24 25  1  0  0  0
 24 44  1  0  0  0
 25 26  2  0  0  0
 25 45  1  0  0  0
 26 46  1  0  0  0
 27 47  1  0  0  0
 27 48  1  0  0  0
 27 49  1  0  0  0
 28 29  1  0  0  0
 29 50  1  0  0  0
 29 51  1  0  0  0
 29 52  1  0  0  0
M  END
> <s_m_entry_id>
8625

> <s_m_entry_name>
dock_pv.135

> <s_m_Source_Path>
/home/csk/Desktop/cluster/DUD-E-result/aces

> <s_m_Source_File>
dock_pv.maegz

> <i_m_Source_File_Index>
135

> <chembl_id>
CHEMBL413794

> <chembl_pref_name>
None

> <i_lp_mmshare_version>
53161

> <i_f3d_flags>
0

> <r_lp_tautomer_probability>
1

> <s_lp_Force_Field>
OPLS_2005

> <r_lp_Energy>
33.013946

> <b_lp_Chiralities_Consistent>
1

> <s_lp_Variant>
CHEMBL220_lig1089-1

> <s_i_glide_gridfile>
glide-grid_1e66

> <i_i_glide_lignum>
1494

> <i_i_glide_rotatable_bonds>
6

> <r_i_docking_score>
-7.6914964277449

> <r_i_glide_ligand_efficiency>
-0.265224014749824

> <r_i_glide_ligand_efficiency_sa>
-0.81485220217722

> <r_i_glide_ligand_efficiency_ln>
-1.76115764243264

> <r_i_glide_gscore>
-7.6914964277449

> <r_i_glide_lipo>
-5.14436145354176

> <r_i_glide_hbond>
0

> <r_i_glide_metal>
0

> <r_i_glide_rewards>
-1.65285043499524

> <r_i_glide_evdw>
-31.7113933563232

> <r_i_glide_ecoul>
1.11706697940826

> <r_i_glide_erotb>
0.523725081697023

> <r_i_glide_esite>
0

> <r_i_glide_emodel>
-35.7282178976511

> <r_i_glide_energy>
-30.594326376915

> <r_i_glide_einternal>
6.14493656158447

> <i_i_glide_confnum>
21

> <i_i_glide_posenum>
172

> <r_i_glide_eff_state_penalty>
0

> <s_user_duplicate_titles>
CHEMBL220_lig1089,387521

> <s_m_subgroup_title>
dock_pv

> <s_m_subgroupid>
dock_pv

> <b_m_subgroup_collapsed>
0

$$$$
CHEMBL220_lig1175
                    3D
 Schrodinger Suite 2021-1.
 48 50  0  0  1  0            999 V2000
    6.1189   70.4868   66.6201 C   0  0  0  0  0  0
    5.8440   70.9094   67.9166 C   0  0  0  0  0  0
    4.5734   70.7362   68.4593 C   0  0  0  0  0  0
    5.1284   69.8930   65.8425 C   0  0  0  0  0  0
    3.8187   69.6919   66.3679 C   0  0  0  0  0  0
    3.5541   70.1080   67.7028 C   0  0  0  0  0  0
    2.3429   69.9212   68.2796 N   0  0  0  0  0  0
    2.7401   69.0974   65.6431 C   0  0  0  0  0  0
    1.4992   68.8818   66.2582 C   0  0  0  0  0  0
    1.3528   69.3036   67.5877 C   0  0  0  0  0  0
    0.0562   69.0880   68.3490 C   0  0  0  0  0  0
   -1.0977   68.4169   67.5670 C   0  0  0  0  0  0
   -1.0252   68.6541   66.0604 C   0  0  0  0  0  0
    0.3336   68.1757   65.5412 C   0  0  0  0  0  0
    2.9022   68.6442   64.3360 N   0  0  0  0  0  0
    2.6992   69.6304   63.2897 C   0  0  0  0  0  0
    2.8949   69.0290   61.8870 C   0  0  0  0  0  0
    4.3426   68.5937   61.5577 C   0  0  0  0  0  0
    4.9680   67.8077   62.6153 N   0  0  0  0  0  0
    4.7321   66.5067   62.8220 C   0  0  0  0  0  0
    4.9205   65.9777   64.2251 C   0  0  0  0  0  0
    4.3429   65.7263   61.9680 O   0  0  0  0  0  0
    5.5426   64.6920   64.1189 O   0  0  0  0  0  0
    4.6573   63.5807   63.9680 N   0  3  0  0  0  0
    5.2005   62.6318   63.4604 O   0  0  0  0  0  0
    3.5248   63.7090   64.3704 O   0  5  0  0  0  0
    7.1083   70.6214   66.2064 H   0  0  0  0  0  0
    6.6212   71.3733   68.5069 H   0  0  0  0  0  0
    4.3601   71.0505   69.4707 H   0  0  0  0  0  0
    5.3584   69.5946   64.8322 H   0  0  0  0  0  0
   -0.2747   70.0432   68.7613 H   0  0  0  0  0  0
    0.3355   68.4390   69.1737 H   0  0  0  0  0  0
   -2.0585   68.7591   67.9553 H   0  0  0  0  0  0
   -1.0746   67.3413   67.7506 H   0  0  0  0  0  0
   -1.1727   69.7087   65.8344 H   0  0  0  0  0  0
   -1.8292   68.1153   65.5565 H   0  0  0  0  0  0
    0.3623   68.3273   64.4623 H   0  0  0  0  0  0
    0.4249   67.0995   65.6973 H   0  0  0  0  0  0
    3.8094   68.2280   64.1944 H   0  0  0  0  0  0
    3.4291   70.4236   63.4587 H   0  0  0  0  0  0
    1.7217   70.1038   63.3842 H   0  0  0  0  0  0
    2.5626   69.7525   61.1434 H   0  0  0  0  0  0
    2.2286   68.1721   61.7704 H   0  0  0  0  0  0
    4.9686   69.4758   61.4130 H   0  0  0  0  0  0
    4.3428   68.0208   60.6322 H   0  0  0  0  0  0
    5.5419   68.3229   63.2658 H   0  0  0  0  0  0
    3.9586   65.9844   64.7424 H   0  0  0  0  0  0
    5.5430   66.6784   64.7679 H   0  0  0  0  0  0
  1  2  2  0  0  0
  1  4  1  0  0  0
  1 27  1  0  0  0
  2  3  1  0  0  0
  2 28  1  0  0  0
  3  6  2  0  0  0
  3 29  1  0  0  0
  4  5  2  0  0  0
  4 30  1  0  0  0
  5  8  1  0  0  0
  5  6  1  0  0  0
  6  7  1  0  0  0
  7 10  2  0  0  0
  8 15  1  0  0  0
  8  9  2  0  0  0
  9 14  1  0  0  0
  9 10  1  0  0  0
 10 11  1  0  0  0
 11 12  1  0  0  0
 11 31  1  0  0  0
 11 32  1  0  0  0
 12 13  1  0  0  0
 12 33  1  0  0  0
 12 34  1  0  0  0
 13 14  1  0  0  0
 13 35  1  0  0  0
 13 36  1  0  0  0
 14 37  1  0  0  0
 14 38  1  0  0  0
 15 16  1  0  0  0
 15 39  1  0  0  0
 16 17  1  0  0  0
 16 40  1  0  0  0
 16 41  1  0  0  0
 17 18  1  0  0  0
 17 42  1  0  0  0
 17 43  1  0  0  0
 18 19  1  0  0  0
 18 44  1  0  0  0
 18 45  1  0  0  0
 19 20  1  0  0  0
 19 46  1  0  0  0
 20 21  1  0  0  0
 20 22  2  0  0  0
 21 23  1  0  0  0
 21 47  1  0  0  0
 21 48  1  0  0  0
 23 24  1  0  0  0
 24 25  2  0  0  0
 24 26  1  0  0  0
M  CHG  2  24   1  26  -1
M  END
> <s_m_entry_id>
8626

> <s_m_entry_name>
dock_pv.136

> <s_m_Source_Path>
/home/csk/Desktop/cluster/DUD-E-result/aces

> <s_m_Source_File>
dock_pv.maegz

> <i_m_Source_File_Index>
136

> <chembl_id>
CHEMBL269865

> <chembl_pref_name>
None

> <i_lp_mmshare_version>
53161

> <i_f3d_flags>
0

> <r_lp_tautomer_probability>
1

> <s_lp_Force_Field>
OPLS_2005

> <r_lp_Energy>
21.354172

> <b_lp_Chiralities_Consistent>
1

> <s_lp_Variant>
CHEMBL220_lig1175-1

> <s_i_glide_gridfile>
glide-grid_1e66

> <i_i_glide_lignum>
1590

> <i_i_glide_rotatable_bonds>
9

> <r_i_docking_score>
-7.68354174746378

> <r_i_glide_ligand_efficiency>
-0.295520836440915

> <r_i_glide_ligand_efficiency_sa>
-0.875479315137869

> <r_i_glide_ligand_efficiency_ln>
-1.80445456763503

> <r_i_glide_gscore>
-7.68354174746378

> <r_i_glide_lipo>
-3.45045078828226

> <r_i_glide_hbond>
-0.476017155482594

> <r_i_glide_metal>
0

> <r_i_glide_rewards>
-1.50130122532589

> <r_i_glide_evdw>
-36.2498245239258

> <r_i_glide_ecoul>
-9.32358169555664

> <r_i_glide_erotb>
1.04392543437158

> <r_i_glide_esite>
-0.0886695322148361

> <r_i_glide_emodel>
-62.6445645557201

> <r_i_glide_energy>
-45.5734062194824

> <r_i_glide_einternal>
8.6370325088501

> <i_i_glide_confnum>
73

> <i_i_glide_posenum>
76

> <r_i_glide_eff_state_penalty>
0

> <s_user_duplicate_titles>
CHEMBL220_lig1175,442252

> <s_m_subgroup_title>
dock_pv

> <s_m_subgroupid>
dock_pv

> <b_m_subgroup_collapsed>
0

$$$$
CHEMBL220_lig412
                    3D
 Schrodinger Suite 2021-1.
 52 55  0  0  1  0            999 V2000
    4.4937   68.9980   62.1956 C   0  0  0  0  0  0
    5.3907   69.1423   63.2512 C   0  0  0  0  0  0
    4.9713   69.1125   64.5831 C   0  0  0  0  0  0
    3.6195   68.8743   64.8933 C   0  0  0  0  0  0
    3.1522   68.8103   62.5264 C   0  0  0  0  0  0
    2.6881   68.7373   63.8469 C   0  0  0  0  0  0
    1.2741   68.5338   63.6916 C   0  0  0  0  0  0
    0.9487   68.5082   62.4132 N   0  0  0  0  0  0
    2.1154   68.6739   61.6589 O   0  0  0  0  0  0
    0.1705   68.3466   64.7207 C   0  0  0  0  0  0
    0.4589   68.9080   66.1326 C   0  0  0  0  0  0
    0.6773   67.8452   67.2362 C   0  0  0  0  0  0
    1.2412   68.5082   68.4967 C   0  0  0  0  0  0
    1.4432   67.5374   69.6920 C   0  0  0  0  0  0
    0.3094   66.6360   69.9371 N   0  0  1  0  0  0
   -0.4196   66.1227   68.7711 C   0  0  0  0  0  0
   -0.6394   67.1632   67.6563 C   0  0  0  0  0  0
    0.5222   65.6591   71.0144 C   0  0  0  0  0  0
    1.2869   64.3853   70.6502 C   0  0  0  0  0  0
    0.6004   63.1677   70.6233 C   0  0  0  0  0  0
    1.2875   61.9872   70.3558 C   0  0  0  0  0  0
    2.6539   62.0243   70.0811 C   0  0  0  0  0  0
    3.3443   63.2344   70.0959 C   0  0  0  0  0  0
    2.6632   64.4128   70.3897 C   0  0  0  0  0  0
    5.9434   69.3109   65.5392 O   0  0  0  0  0  0
    5.5699   69.9309   66.7651 C   0  0  0  0  0  0
    4.8148   69.0452   61.1688 H   0  0  0  0  0  0
    6.4353   69.3061   63.0312 H   0  0  0  0  0  0
    3.3033   68.8043   65.9198 H   0  0  0  0  0  0
   -0.7559   68.7971   64.3560 H   0  0  0  0  0  0
   -0.0554   67.2893   64.7941 H   0  0  0  0  0  0
    1.3019   69.5951   66.1187 H   0  0  0  0  0  0
   -0.3835   69.5327   66.4300 H   0  0  0  0  0  0
    1.3810   67.0775   66.9054 H   0  0  0  0  0  0
    2.1772   69.0209   68.2729 H   0  0  0  0  0  0
    0.5800   69.3284   68.7683 H   0  0  0  0  0  0
    2.3369   66.9477   69.5678 H   0  0  0  0  0  0
    1.6274   68.1070   70.5998 H   0  0  0  0  0  0
    0.1623   65.3080   68.3691 H   0  0  0  0  0  0
   -1.3670   65.7025   69.0958 H   0  0  0  0  0  0
   -1.3820   67.8983   67.9679 H   0  0  0  0  0  0
   -1.1126   66.6867   66.7963 H   0  0  0  0  0  0
    1.0010   66.1082   71.8739 H   0  0  0  0  0  0
   -0.4567   65.3802   71.3869 H   0  0  0  0  0  0
   -0.4588   63.1290   70.8297 H   0  0  0  0  0  0
    0.7585   61.0447   70.3656 H   0  0  0  0  0  0
    3.1794   61.1049   69.8692 H   0  0  0  0  0  0
    4.4052   63.2579   69.8930 H   0  0  0  0  0  0
    3.2234   65.3322   70.4482 H   0  0  0  0  0  0
    6.4657   70.1188   67.3572 H   0  0  0  0  0  0
    4.9076   69.3089   67.3631 H   0  0  0  0  0  0
    5.0812   70.8909   66.5892 H   0  0  0  0  0  0
  1  2  2  0  0  0
  1  5  1  0  0  0
  1 27  1  0  0  0
  2  3  1  0  0  0
  2 28  1  0  0  0
  3  4  2  0  0  0
  3 25  1  0  0  0
  4  6  1  0  0  0
  4 29  1  0  0  0
  5  9  1  0  0  0
  5  6  2  0  0  0
  6  7  1  0  0  0
  7  8  2  0  0  0
  7 10  1  0  0  0
  8  9  1  0  0  0
 10 11  1  0  0  0
 10 30  1  0  0  0
 10 31  1  0  0  0
 11 12  1  0  0  0
 11 32  1  0  0  0
 11 33  1  0  0  0
 12 13  1  0  0  0
 12 17  1  0  0  0
 12 34  1  0  0  0
 13 14  1  0  0  0
 13 35  1  0  0  0
 13 36  1  0  0  0
 14 15  1  0  0  0
 14 37  1  0  0  0
 14 38  1  0  0  0
 15 16  1  0  0  0
 15 18  1  0  0  0
 16 17  1  0  0  0
 16 39  1  0  0  0
 16 40  1  0  0  0
 17 41  1  0  0  0
 17 42  1  0  0  0
 18 19  1  0  0  0
 18 43  1  0  0  0
 18 44  1  0  0  0
 19 20  2  0  0  0
 19 24  1  0  0  0
 20 21  1  0  0  0
 20 45  1  0  0  0
 21 22  2  0  0  0
 21 46  1  0  0  0
 22 23  1  0  0  0
 22 47  1  0  0  0
 23 24  2  0  0  0
 23 48  1  0  0  0
 24 49  1  0  0  0
 25 26  1  0  0  0
 26 50  1  0  0  0
 26 51  1  0  0  0
 26 52  1  0  0  0
M  END
> <s_m_entry_id>
8627

> <s_m_entry_name>
dock_pv.137

> <s_m_Source_Path>
/home/csk/Desktop/cluster/DUD-E-result/aces

> <s_m_Source_File>
dock_pv.maegz

> <i_m_Source_File_Index>
137

> <chembl_id>
CHEMBL94186

> <chembl_pref_name>
None

> <i_lp_mmshare_version>
53161

> <i_f3d_flags>
0

> <r_lp_tautomer_probability>
1

> <s_lp_Force_Field>
OPLS_2005

> <r_lp_Energy>
33.470327

> <b_lp_Chiralities_Consistent>
1

> <s_lp_Variant>
CHEMBL220_lig412-1

> <s_i_glide_gridfile>
glide-grid_1e66

> <i_i_glide_lignum>
471

> <i_i_glide_rotatable_bonds>
6

> <r_i_docking_score>
-7.68259014365382

> <r_i_glide_ligand_efficiency>
-0.295484236294378

> <r_i_glide_ligand_efficiency_sa>
-0.875370887347768

> <r_i_glide_ligand_efficiency_ln>
-1.80423108660273

> <r_i_glide_gscore>
-7.68259014365382

> <r_i_glide_lipo>
-4.37322021627818

> <r_i_glide_hbond>
0

> <r_i_glide_metal>
0

> <r_i_glide_rewards>
-1.63741507420187

> <r_i_glide_evdw>
-41.7410621643066

> <r_i_glide_ecoul>
-2.405925989151

> <r_i_glide_erotb>
0.775987153414208

> <r_i_glide_esite>
0

> <r_i_glide_emodel>
-55.6168414542104

> <r_i_glide_energy>
-44.1469881534576

> <r_i_glide_einternal>
14.147967338562

> <i_i_glide_confnum>
121

> <i_i_glide_posenum>
389

> <r_i_glide_eff_state_penalty>
0

> <s_user_duplicate_titles>
CHEMBL220_lig412,150077

> <s_m_subgroup_title>
dock_pv

> <s_m_subgroupid>
dock_pv

> <b_m_subgroup_collapsed>
0

$$$$
CHEMBL220_lig314
                    3D
 Schrodinger Suite 2021-1.
 30 32  0  0  1  0            999 V2000
    4.9512   69.7190   65.4540 C   0  0  0  0  0  0
    4.6238   69.3657   64.1309 C   0  0  0  0  0  0
    3.9171   69.7071   66.3995 C   0  0  0  0  0  0
    2.6751   69.2468   66.1513 N   0  0  0  0  0  0
    3.2635   69.0203   63.7856 C   0  0  0  0  0  0
    2.3449   68.9100   64.8801 C   0  0  0  0  0  0
    4.0680   70.1078   67.7152 O   0  0  0  0  0  0
    2.7316   68.8085   62.4561 C   0  0  0  0  0  0
    5.6601   69.3947   63.1935 N   0  0  0  0  0  0
    6.3497   70.1699   65.8894 C   0  0  0  0  0  0
    1.0072   68.5075   64.6594 C   0  0  0  0  0  0
    0.5335   68.3312   63.3688 C   0  0  0  0  0  0
    1.3796   68.5076   62.2856 C   0  0  0  0  0  0
    5.2091   70.9119   68.0148 C   0  0  0  0  0  0
    3.5810   68.9419   61.1980 C   0  0  0  0  0  0
    6.4747   70.2989   67.4102 C   0  0  0  0  0  0
    6.5769   69.7061   63.4921 H   0  0  0  0  0  0
    5.4736   69.1939   62.2201 H   0  0  0  0  0  0
    7.1024   69.4486   65.5685 H   0  0  0  0  0  0
    6.5763   71.1260   65.4126 H   0  0  0  0  0  0
    0.3335   68.4076   65.4992 H   0  0  0  0  0  0
   -0.5020   68.0646   63.2081 H   0  0  0  0  0  0
    0.9736   68.3681   61.2934 H   0  0  0  0  0  0
    5.3058   70.9892   69.0982 H   0  0  0  0  0  0
    5.0795   71.9210   67.6274 H   0  0  0  0  0  0
    4.0609   69.9202   61.1514 H   0  0  0  0  0  0
    2.9865   68.8394   60.2895 H   0  0  0  0  0  0
    4.3442   68.1643   61.1685 H   0  0  0  0  0  0
    6.6269   69.3084   67.8286 H   0  0  0  0  0  0
    7.3554   70.8844   67.6750 H   0  0  0  0  0  0
  1  2  2  0  0  0
  1  3  1  0  0  0
  1 10  1  0  0  0
  2  5  1  0  0  0
  2  9  1  0  0  0
  3  4  2  0  0  0
  3  7  1  0  0  0
  4  6  1  0  0  0
  5  8  2  0  0  0
  5  6  1  0  0  0
  6 11  2  0  0  0
  7 14  1  0  0  0
  8 13  1  0  0  0
  8 15  1  0  0  0
  9 17  1  0  0  0
  9 18  1  0  0  0
 10 16  1  0  0  0
 10 19  1  0  0  0
 10 20  1  0  0  0
 11 12  1  0  0  0
 11 21  1  0  0  0
 12 13  2  0  0  0
 12 22  1  0  0  0
 13 23  1  0  0  0
 14 16  1  0  0  0
 14 24  1  0  0  0
 14 25  1  0  0  0
 15 26  1  0  0  0
 15 27  1  0  0  0
 15 28  1  0  0  0
 16 29  1  0  0  0
 16 30  1  0  0  0
M  END
> <s_m_entry_id>
8628

> <s_m_entry_name>
dock_pv.138

> <s_m_Source_Path>
/home/csk/Desktop/cluster/DUD-E-result/aces

> <s_m_Source_File>
dock_pv.maegz

> <i_m_Source_File_Index>
138

> <chembl_id>
CHEMBL132619

> <chembl_pref_name>
None

> <i_lp_mmshare_version>
53161

> <i_f3d_flags>
0

> <r_lp_tautomer_probability>
1

> <s_lp_Force_Field>
OPLS_2005

> <r_lp_Energy>
22.835322

> <b_lp_Chiralities_Consistent>
1

> <s_lp_Variant>
CHEMBL220_lig314-1

> <s_i_glide_gridfile>
glide-grid_1e66

> <i_i_glide_lignum>
368

> <i_i_glide_rotatable_bonds>
0

> <r_i_docking_score>
-7.68244612186091

> <r_i_glide_ligand_efficiency>
-0.480152882616307

> <r_i_glide_ligand_efficiency_sa>
-1.20990944683378

> <r_i_glide_ligand_efficiency_ln>
-2.036385804944

> <r_i_glide_gscore>
-7.68244612186091

> <r_i_glide_lipo>
-3.14307809777434

> <r_i_glide_hbond>
-0.267234093290037

> <r_i_glide_metal>
0

> <r_i_glide_rewards>
-2.47320640909091

> <r_i_glide_evdw>
-28.700813293457

> <r_i_glide_ecoul>
-2.42591238021851

> <r_i_glide_erotb>
0

> <r_i_glide_esite>
0

> <r_i_glide_emodel>
-45.2378582660439

> <r_i_glide_energy>
-31.1267256736755

> <r_i_glide_einternal>
0

> <i_i_glide_confnum>
2

> <i_i_glide_posenum>
117

> <r_i_glide_eff_state_penalty>
0

> <s_user_duplicate_titles>
CHEMBL220_lig314,219228

> <s_m_subgroup_title>
dock_pv

> <s_m_subgroupid>
dock_pv

> <b_m_subgroup_collapsed>
0

$$$$
CHEMBL220_lig646
                    3D
 Schrodinger Suite 2021-1.
 40 43  0  0  1  0            999 V2000
    5.9428   69.5709   65.1543 N   0  0  0  0  0  0
    4.9843   69.0200   64.3826 C   0  0  0  0  0  0
    3.6751   68.7929   64.8568 C   0  0  0  0  0  0
    3.3215   69.3152   66.1146 C   0  0  0  0  0  0
    4.3103   69.9731   66.9040 C   0  0  0  0  0  0
    4.0695   70.5049   68.1995 C   0  0  0  0  0  0
    5.1386   70.9080   68.9838 C   0  0  0  0  0  0
    6.4370   70.9154   68.4929 C   0  0  0  0  0  0
    6.6905   70.5074   67.1908 C   0  0  0  0  0  0
    5.6373   70.0210   66.3889 C   0  0  0  0  0  0
    2.7265   67.9037   64.0430 C   0  0  2  0  0  0
    2.7833   66.4369   64.5793 C   0  0  0  0  0  0
    3.9428   65.6225   63.9678 C   0  0  0  0  0  0
    4.7123   66.1491   62.9822 C   0  0  0  0  0  0
    4.5064   67.5285   62.3532 C   0  0  2  0  0  0
    5.4191   68.6017   62.9759 C   0  0  0  0  0  0
    3.0358   67.9447   62.5362 C   0  0  0  0  0  0
    4.0571   64.1639   64.4252 C   0  0  0  0  0  0
    2.0243   69.1228   66.6105 N   0  0  0  0  0  0
    7.4556   71.3058   69.2903 F   0  0  0  0  0  0
    4.7714   63.1921   63.4649 C   0  0  0  0  0  0
    3.0763   70.4784   68.6241 H   0  0  0  0  0  0
    4.9440   71.1606   70.0087 H   0  0  0  0  0  0
    7.6932   70.5080   66.7938 H   0  0  0  0  0  0
    1.7170   68.2920   64.1833 H   0  0  0  0  0  0
    1.8486   65.9189   64.3685 H   0  0  0  0  0  0
    2.8446   66.4050   65.6681 H   0  0  0  0  0  0
    5.5174   65.5592   62.5835 H   0  0  0  0  0  0
    4.7235   67.4471   61.2860 H   0  0  0  0  0  0
    6.4668   68.2957   62.9532 H   0  0  0  0  0  0
    5.3723   69.4924   62.3467 H   0  0  0  0  0  0
    2.8799   68.9535   62.1497 H   0  0  0  0  0  0
    2.3677   67.3080   61.9676 H   0  0  0  0  0  0
    3.0420   63.7874   64.5626 H   0  0  0  0  0  0
    4.5225   64.1129   65.4101 H   0  0  0  0  0  0
    1.7787   69.4705   67.5258 H   0  0  0  0  0  0
    1.3427   68.6340   66.0492 H   0  0  0  0  0  0
    4.6646   62.1580   63.7839 H   0  0  0  0  0  0
    5.8383   63.4007   63.3949 H   0  0  0  0  0  0
    4.3433   63.2455   62.4652 H   0  0  0  0  0  0
  1 10  1  0  0  0
  1  2  2  0  0  0
  2  3  1  0  0  0
  2 16  1  0  0  0
  3  4  2  0  0  0
  3 11  1  0  0  0
  4  5  1  0  0  0
  4 19  1  0  0  0
  5  6  2  0  0  0
  5 10  1  0  0  0
  6  7  1  0  0  0
  6 22  1  0  0  0
  7  8  2  0  0  0
  7 23  1  0  0  0
  8  9  1  0  0  0
  8 20  1  0  0  0
  9 10  2  0  0  0
  9 24  1  0  0  0
 11 12  1  0  0  0
 11 17  1  0  0  0
 11 25  1  0  0  0
 12 13  1  0  0  0
 12 26  1  0  0  0
 12 27  1  0  0  0
 13 14  2  0  0  0
 13 18  1  0  0  0
 14 15  1  0  0  0
 14 28  1  0  0  0
 15 16  1  0  0  0
 15 17  1  0  0  0
 15 29  1  0  0  0
 16 30  1  0  0  0
 16 31  1  0  0  0
 17 32  1  0  0  0
 17 33  1  0  0  0
 18 21  1  0  0  0
 18 34  1  0  0  0
 18 35  1  0  0  0
 19 36  1  0  0  0
 19 37  1  0  0  0
 21 38  1  0  0  0
 21 39  1  0  0  0
 21 40  1  0  0  0
M  END
> <s_m_entry_id>
8629

> <s_m_entry_name>
dock_pv.139

> <s_m_Source_Path>
/home/csk/Desktop/cluster/DUD-E-result/aces

> <s_m_Source_File>
dock_pv.maegz

> <i_m_Source_File_Index>
139

> <chembl_id>
CHEMBL341658

> <chembl_pref_name>
None

> <i_lp_mmshare_version>
53161

> <i_f3d_flags>
0

> <r_lp_tautomer_probability>
1

> <s_lp_Force_Field>
OPLS_2005

> <r_lp_Energy>
22.147178

> <b_lp_Chiralities_Consistent>
1

> <s_lp_Variant>
CHEMBL220_lig646-2

> <s_i_glide_gridfile>
glide-grid_1e66

> <i_i_glide_lignum>
753

> <i_i_glide_rotatable_bonds>
1

> <r_i_docking_score>
-7.67359074166628

> <r_i_glide_ligand_efficiency>
-0.36540908293649

> <r_i_glide_ligand_efficiency_sa>
-1.00813595215964

> <r_i_glide_ligand_efficiency_ln>
-1.89727980492688

> <r_i_glide_gscore>
-7.67359074166628

> <r_i_glide_lipo>
-3.52250132322569

> <r_i_glide_hbond>
0

> <r_i_glide_metal>
0

> <r_i_glide_rewards>
-2.83394138863636

> <r_i_glide_evdw>
-30.6893501281738

> <r_i_glide_ecoul>
1.44879651069641

> <r_i_glide_erotb>
0

> <r_i_glide_esite>
0

> <r_i_glide_emodel>
-36.1270735387072

> <r_i_glide_energy>
-29.2405536174774

> <r_i_glide_einternal>
0.567469656467438

> <i_i_glide_confnum>
1

> <i_i_glide_posenum>
203

> <r_i_glide_eff_state_penalty>
0

> <s_user_duplicate_titles>
CHEMBL220_lig646,643447,236249

> <s_m_subgroup_title>
dock_pv

> <s_m_subgroupid>
dock_pv

> <b_m_subgroup_collapsed>
0

$$$$
CHEMBL220_lig1029
                    3D
 Schrodinger Suite 2021-1.
 25 27  0  0  1  0            999 V2000
    4.3182   68.0685   62.3736 C   0  0  0  0  0  0
    5.4539   68.7084   62.8638 C   0  0  0  0  0  0
    5.4625   69.3238   64.1202 C   0  0  0  0  0  0
    3.1405   68.0516   63.1106 C   0  0  0  0  0  0
    3.1343   68.5876   64.4029 C   0  0  0  0  0  0
    4.2960   69.2356   64.8955 C   0  0  0  0  0  0
    3.9996   69.7023   66.1715 N   0  0  0  0  0  0
    2.1598   68.6150   65.4096 C   0  0  0  0  0  0
    2.7121   69.3081   66.5170 C   0  0  0  0  0  0
    1.9432   69.4741   67.6788 C   0  0  0  0  0  0
    0.6808   68.9820   67.7537 N   0  0  0  0  0  0
    0.1612   68.3223   66.6912 C   0  0  0  0  0  0
    0.8503   68.1078   65.4982 C   0  0  0  0  0  0
    4.3430   67.4191   61.1680 O   0  0  0  0  0  0
    4.9271   70.4132   67.0413 C   0  0  0  0  0  0
    6.3514   68.7310   62.2607 H   0  0  0  0  0  0
    6.3430   69.8293   64.4830 H   0  0  0  0  0  0
    2.2508   67.6091   62.6992 H   0  0  0  0  0  0
    2.3098   69.9920   68.5530 H   0  0  0  0  0  0
   -0.8475   67.9541   66.8105 H   0  0  0  0  0  0
    0.3907   67.5709   64.6809 H   0  0  0  0  0  0
    5.0631   67.7081   60.5690 H   0  0  0  0  0  0
    5.5442   71.0882   66.4485 H   0  0  0  0  0  0
    4.3775   71.0008   67.7765 H   0  0  0  0  0  0
    5.5656   69.6964   67.5559 H   0  0  0  0  0  0
  1  2  2  0  0  0
  1  4  1  0  0  0
  1 14  1  0  0  0
  2  3  1  0  0  0
  2 16  1  0  0  0
  3  6  2  0  0  0
  3 17  1  0  0  0
  4  5  2  0  0  0
  4 18  1  0  0  0
  5  8  1  0  0  0
  5  6  1  0  0  0
  6  7  1  0  0  0
  7  9  1  0  0  0
  7 15  1  0  0  0
  8  9  2  0  0  0
  8 13  1  0  0  0
  9 10  1  0  0  0
 10 11  2  0  0  0
 10 19  1  0  0  0
 11 12  1  0  0  0
 12 13  2  0  0  0
 12 20  1  0  0  0
 13 21  1  0  0  0
 14 22  1  0  0  0
 15 23  1  0  0  0
 15 24  1  0  0  0
 15 25  1  0  0  0
M  END
> <s_m_entry_id>
8630

> <s_m_entry_name>
dock_pv.140

> <s_m_Source_Path>
/home/csk/Desktop/cluster/DUD-E-result/aces

> <s_m_Source_File>
dock_pv.maegz

> <i_m_Source_File_Index>
140

> <chembl_id>
CHEMBL373674

> <chembl_pref_name>
None

> <i_lp_mmshare_version>
53161

> <i_f3d_flags>
0

> <r_lp_tautomer_probability>
1

> <s_lp_Force_Field>
OPLS_2005

> <r_lp_Energy>
10.017913

> <b_lp_Chiralities_Consistent>
1

> <s_lp_Variant>
CHEMBL220_lig1029-1

> <s_i_glide_gridfile>
glide-grid_1e66

> <i_i_glide_lignum>
1428

> <i_i_glide_rotatable_bonds>
1

> <r_i_docking_score>
-7.67200152799601

> <r_i_glide_ligand_efficiency>
-0.511466768533068

> <r_i_glide_ligand_efficiency_sa>
-1.26138551903641

> <r_i_glide_ligand_efficiency_ln>
-2.06901231426574

> <r_i_glide_gscore>
-7.67200152799601

> <r_i_glide_lipo>
-2.37729997814134

> <r_i_glide_hbond>
-0.16

> <r_i_glide_metal>
0

> <r_i_glide_rewards>
-2.34194113000909

> <r_i_glide_evdw>
-26.622200012207

> <r_i_glide_ecoul>
-9.74433612823486

> <r_i_glide_erotb>
0

> <r_i_glide_esite>
0

> <r_i_glide_emodel>
-52.8825794641724

> <r_i_glide_energy>
-36.3665361404419

> <r_i_glide_einternal>
1.53337895870209

> <i_i_glide_confnum>
1

> <i_i_glide_posenum>
97

> <r_i_glide_eff_state_penalty>
0

> <s_user_duplicate_titles>
CHEMBL220_lig1029

> <s_m_subgroup_title>
dock_pv

> <s_m_subgroupid>
dock_pv

> <b_m_subgroup_collapsed>
0

$$$$
CHEMBL220_lig613
                    3D
 Schrodinger Suite 2021-1.
 40 42  0  0  1  0            999 V2000
    1.6023   67.4654   64.4345 N   0  3  0  0  0  0
    0.4326   68.1871   64.1475 C   0  0  0  0  0  0
   -0.3976   68.1078   65.2689 N   0  0  0  0  0  0
    1.4319   66.9082   65.6925 C   0  0  0  0  0  0
    0.2173   67.3043   66.2112 C   0  0  0  0  0  0
    0.0966   68.9398   62.9298 C   0  0  0  0  0  0
    2.8280   67.3081   63.6612 C   0  0  0  0  0  0
    0.9532   69.3059   62.0715 N   0  0  0  0  0  0
    3.9798   69.9990   66.7182 C   0  0  0  0  0  0
    4.5977   69.8416   65.4454 C   0  0  0  0  0  0
    4.7682   70.5080   67.7990 C   0  0  0  0  0  0
    3.8838   67.9704   64.2499 O   0  0  0  0  0  0
    0.3429   70.0450   61.0503 O   0  0  0  0  0  0
   -1.7318   68.6746   65.4461 C   0  0  0  0  0  0
    3.8270   69.3838   64.2299 C   0  0  0  0  0  0
    6.7224   70.5079   66.3679 C   0  0  0  0  0  0
    5.9430   70.1083   65.2930 C   0  0  0  0  0  0
    2.6096   69.7080   66.9585 C   0  0  0  0  0  0
    6.1495   70.7336   67.6116 C   0  0  0  0  0  0
    4.1491   70.7576   69.0385 C   0  0  0  0  0  0
    2.0285   69.9713   68.1881 C   0  0  0  0  0  0
    2.7967   70.5080   69.2039 C   0  0  0  0  0  0
    2.2134   66.2996   66.1233 H   0  0  0  0  0  0
   -0.2628   67.0851   67.1555 H   0  0  0  0  0  0
   -0.9657   69.1577   62.8399 H   0  0  0  0  0  0
    3.1430   66.2635   63.6988 H   0  0  0  0  0  0
    2.6983   67.6007   62.6208 H   0  0  0  0  0  0
    1.0736   70.2255   60.4459 H   0  0  0  0  0  0
   -2.2778   68.1245   66.2148 H   0  0  0  0  0  0
   -1.6381   69.7080   65.7729 H   0  0  0  0  0  0
   -2.3034   68.6302   64.5196 H   0  0  0  0  0  0
    4.2752   69.7632   63.3093 H   0  0  0  0  0  0
    2.8227   69.8061   64.2415 H   0  0  0  0  0  0
    7.7746   70.6863   66.2179 H   0  0  0  0  0  0
    6.3680   69.9869   64.3107 H   0  0  0  0  0  0
    1.9813   69.3688   66.1612 H   0  0  0  0  0  0
    6.7533   71.0879   68.4350 H   0  0  0  0  0  0
    4.7360   71.1095   69.8686 H   0  0  0  0  0  0
    0.9758   69.7897   68.3529 H   0  0  0  0  0  0
    2.3429   70.7350   70.1522 H   0  0  0  0  0  0
  1  2  2  0  0  0
  1  4  1  0  0  0
  1  7  1  0  0  0
  2  3  1  0  0  0
  2  6  1  0  0  0
  3 14  1  0  0  0
  3  5  1  0  0  0
  4  5  2  0  0  0
  4 23  1  0  0  0
  5 24  1  0  0  0
  6  8  2  0  0  0
  6 25  1  0  0  0
  7 12  1  0  0  0
  7 26  1  0  0  0
  7 27  1  0  0  0
  8 13  1  0  0  0
  9 10  1  0  0  0
  9 11  1  0  0  0
  9 18  2  0  0  0
 10 15  1  0  0  0
 10 17  2  0  0  0
 11 20  2  0  0  0
 11 19  1  0  0  0
 12 15  1  0  0  0
 13 28  1  0  0  0
 14 29  1  0  0  0
 14 30  1  0  0  0
 14 31  1  0  0  0
 15 32  1  0  0  0
 15 33  1  0  0  0
 16 17  1  0  0  0
 16 19  2  0  0  0
 16 34  1  0  0  0
 17 35  1  0  0  0
 18 21  1  0  0  0
 18 36  1  0  0  0
 19 37  1  0  0  0
 20 22  1  0  0  0
 20 38  1  0  0  0
 21 22  2  0  0  0
 21 39  1  0  0  0
 22 40  1  0  0  0
M  CHG  1   1   1
M  END
> <s_m_entry_id>
8631

> <s_m_entry_name>
dock_pv.141

> <s_m_Source_Path>
/home/csk/Desktop/cluster/DUD-E-result/aces

> <s_m_Source_File>
dock_pv.maegz

> <i_m_Source_File_Index>
141

> <chembl_id>
CHEMBL33332

> <chembl_pref_name>
None

> <i_lp_mmshare_version>
53161

> <i_f3d_flags>
0

> <r_lp_tautomer_probability>
1

> <s_lp_Force_Field>
OPLS_2005

> <r_lp_Energy>
23.207821

> <b_lp_Chiralities_Consistent>
1

> <s_lp_Variant>
CHEMBL220_lig613-1

> <s_i_glide_gridfile>
glide-grid_1e66

> <i_i_glide_lignum>
713

> <i_i_glide_rotatable_bonds>
6

> <r_i_docking_score>
-7.67066542559807

> <r_i_glide_ligand_efficiency>
-0.348666610254458

> <r_i_glide_ligand_efficiency_sa>
-0.976977554212657

> <r_i_glide_ligand_efficiency_ln>
-1.8749904243358

> <r_i_glide_gscore>
-7.67066542559807

> <r_i_glide_lipo>
-2.09535269613452

> <r_i_glide_hbond>
-0.32

> <r_i_glide_metal>
0

> <r_i_glide_rewards>
-3.59543455160785

> <r_i_glide_evdw>
-30.724142074585

> <r_i_glide_ecoul>
-7.77755212783813

> <r_i_glide_erotb>
1.04296174504927

> <r_i_glide_esite>
0

> <r_i_glide_emodel>
-46.8831780585912

> <r_i_glide_energy>
-38.5016942024231

> <r_i_glide_einternal>
16.1855506896973

> <i_i_glide_confnum>
14

> <i_i_glide_posenum>
136

> <r_i_glide_eff_state_penalty>
0

> <s_user_duplicate_titles>
CHEMBL220_lig613

> <s_m_subgroup_title>
dock_pv

> <s_m_subgroupid>
dock_pv

> <b_m_subgroup_collapsed>
0

$$$$
CHEMBL220_lig286
                    3D
 Schrodinger Suite 2021-1.
 30 33  0  0  1  0            999 V2000
    2.5940   69.2939   66.6662 N   0  0  0  0  0  0
    1.3053   68.9039   66.6777 C   0  0  0  0  0  0
    0.5886   68.5080   65.5608 C   0  0  0  0  0  0
    1.2037   68.5019   64.3100 C   0  0  0  0  0  0
    2.5903   68.9076   64.2290 C   0  0  0  0  0  0
    3.2338   69.2825   65.4634 C   0  0  0  0  0  0
   -0.8222   68.1999   66.0609 C   0  0  2  0  0  0
    0.3585   68.8114   67.8614 C   0  0  1  0  0  0
   -0.9382   69.2434   67.1680 C   0  0  0  0  0  0
    3.3820   68.9726   63.0267 C   0  0  0  0  0  0
   -0.7610   66.9075   66.9003 C   0  0  0  0  0  0
    0.0923   67.3103   68.1297 C   0  0  0  0  0  0
    0.4323   68.1080   63.2171 N   0  0  0  0  0  0
    2.7683   68.6233   61.4491 Cl  0  0  0  0  0  0
    4.5910   69.6739   65.4682 C   0  0  0  0  0  0
    5.3136   69.7081   64.2870 C   0  0  0  0  0  0
    4.7191   69.3593   63.0857 C   0  0  0  0  0  0
   -1.6184   68.2255   65.3150 H   0  0  0  0  0  0
    0.6359   69.3966   68.7395 H   0  0  0  0  0  0
   -0.9312   70.2699   66.8003 H   0  0  0  0  0  0
   -1.8285   69.1211   67.7890 H   0  0  0  0  0  0
   -1.7580   66.5884   67.2054 H   0  0  0  0  0  0
   -0.3068   66.0918   66.3416 H   0  0  0  0  0  0
    1.0175   66.7344   68.1993 H   0  0  0  0  0  0
   -0.4563   67.1541   69.0583 H   0  0  0  0  0  0
    0.8485   68.1004   62.2963 H   0  0  0  0  0  0
   -0.4586   67.6600   63.3961 H   0  0  0  0  0  0
    5.0598   69.9571   66.4007 H   0  0  0  0  0  0
    6.3431   70.0235   64.3007 H   0  0  0  0  0  0
    5.3032   69.4105   62.1776 H   0  0  0  0  0  0
  1  2  2  0  0  0
  1  6  1  0  0  0
  2  3  1  0  0  0
  2  8  1  0  0  0
  3  7  1  0  0  0
  3  4  2  0  0  0
  4  5  1  0  0  0
  4 13  1  0  0  0
  5  6  1  0  0  0
  5 10  2  0  0  0
  6 15  2  0  0  0
  7  9  1  0  0  0
  7 11  1  0  0  0
  7 18  1  0  0  0
  8  9  1  0  0  0
  8 12  1  0  0  0
  8 19  1  0  0  0
  9 20  1  0  0  0
  9 21  1  0  0  0
 10 14  1  0  0  0
 10 17  1  0  0  0
 11 12  1  0  0  0
 11 22  1  0  0  0
 11 23  1  0  0  0
 12 24  1  0  0  0
 12 25  1  0  0  0
 13 26  1  0  0  0
 13 27  1  0  0  0
 15 16  1  0  0  0
 15 28  1  0  0  0
 16 17  2  0  0  0
 16 29  1  0  0  0
 17 30  1  0  0  0
M  END
> <s_m_entry_id>
8632

> <s_m_entry_name>
dock_pv.142

> <s_m_Source_Path>
/home/csk/Desktop/cluster/DUD-E-result/aces

> <s_m_Source_File>
dock_pv.maegz

> <i_m_Source_File_Index>
142

> <chembl_id>
CHEMBL368196

> <chembl_pref_name>
None

> <i_lp_mmshare_version>
53161

> <i_f3d_flags>
0

> <r_lp_tautomer_probability>
1

> <s_lp_Force_Field>
OPLS_2005

> <r_lp_Energy>
68.88079

> <b_lp_Chiralities_Consistent>
1

> <s_lp_Variant>
CHEMBL220_lig286-1

> <s_i_glide_gridfile>
glide-grid_1e66

> <i_i_glide_lignum>
338

> <i_i_glide_rotatable_bonds>
0

> <r_i_docking_score>
-7.6687932828935

> <r_i_glide_ligand_efficiency>
-0.45110548722903

> <r_i_glide_ligand_efficiency_sa>
-1.15991923366148

> <r_i_glide_ligand_efficiency_ln>
-2.00061739187691

> <r_i_glide_gscore>
-7.6687932828935

> <r_i_glide_lipo>
-3.38445580608535

> <r_i_glide_hbond>
-0.0985902306687128

> <r_i_glide_metal>
0

> <r_i_glide_rewards>
-2.04394445835868

> <r_i_glide_evdw>
-32.9452705383301

> <r_i_glide_ecoul>
-3.29692840576172

> <r_i_glide_erotb>
0

> <r_i_glide_esite>
0

> <r_i_glide_emodel>
-52.8693828052455

> <r_i_glide_energy>
-36.2421989440918

> <r_i_glide_einternal>
0

> <i_i_glide_confnum>
1

> <i_i_glide_posenum>
178

> <r_i_glide_eff_state_penalty>
0

> <s_user_duplicate_titles>
CHEMBL220_lig286,283594

> <s_m_subgroup_title>
dock_pv

> <s_m_subgroupid>
dock_pv

> <b_m_subgroup_collapsed>
0

$$$$
CHEMBL220_lig973
                    3D
 Schrodinger Suite 2021-1.
 59 61  0  0  1  0            999 V2000
    3.4630   67.2360   64.5758 C   0  0  0  0  0  0
    2.1639   67.9538   65.0169 C   0  0  2  0  0  0
    4.5138   68.0983   64.4601 O   0  0  0  0  0  0
    3.5423   66.0256   64.3696 O   0  0  0  0  0  0
    1.3037   67.0455   65.9661 C   0  0  0  0  0  0
    1.3502   68.4921   63.8019 C   0  0  0  0  0  0
    2.0780   69.4215   62.8023 C   0  0  0  0  0  0
    2.7773   68.6988   61.6422 C   0  0  0  0  0  0
    0.1341   67.6653   66.8413 C   0  0  0  0  0  0
   -0.0296   66.9089   68.2174 C   0  0  0  0  0  0
    1.1056   66.6625   68.9211 N   0  0  0  0  0  0
   -1.1387   66.5076   68.5766 O   0  0  0  0  0  0
   -2.1014   68.7952   66.5703 C   0  0  0  0  0  0
   -1.1660   69.7383   67.3263 C   0  0  0  0  0  0
    0.2584   69.1737   67.1926 C   0  0  0  0  0  0
   -1.2094   67.6672   66.0458 C   0  0  0  0  0  0
    1.3024   65.6763   69.9128 C   0  0  0  0  0  0
    0.3418   65.3973   70.8275 N   0  0  0  0  0  0
    0.5218   64.3510   71.6729 C   0  0  0  0  0  0
    1.6765   63.5687   71.6699 C   0  0  0  0  0  0
    2.6962   63.8830   70.7657 C   0  0  0  0  0  0
    2.5020   64.9529   69.8845 C   0  0  0  0  0  0
    3.9929   63.0773   70.7291 C   0  0  0  0  0  0
    3.8168   61.5626   70.7560 C   0  0  0  0  0  0
    3.2920   60.9091   69.6391 C   0  0  0  0  0  0
    3.1439   59.5244   69.6458 C   0  0  0  0  0  0
    3.5123   58.7977   70.7754 C   0  0  0  0  0  0
    4.0310   59.4448   71.8955 C   0  0  0  0  0  0
    4.1958   60.8276   71.8821 C   0  0  0  0  0  0
    2.5010   68.8017   65.6124 H   0  0  0  0  0  0
    4.2667   69.0095   64.6318 H   0  0  0  0  0  0
    0.8799   66.2325   65.3714 H   0  0  0  0  0  0
    1.9998   66.5158   66.6115 H   0  0  0  0  0  0
    0.5137   69.0709   64.1810 H   0  0  0  0  0  0
    0.8834   67.6679   63.2613 H   0  0  0  0  0  0
    2.7792   70.0742   63.3249 H   0  0  0  0  0  0
    1.3350   70.0880   62.3600 H   0  0  0  0  0  0
    3.1091   69.4092   60.8852 H   0  0  0  0  0  0
    2.0891   68.0026   61.1667 H   0  0  0  0  0  0
    3.6535   68.1358   61.9586 H   0  0  0  0  0  0
    1.9494   67.0442   68.5316 H   0  0  0  0  0  0
   -2.8681   68.3981   67.2396 H   0  0  0  0  0  0
   -2.6216   69.3024   65.7556 H   0  0  0  0  0  0
   -1.4487   69.7484   68.3679 H   0  0  0  0  0  0
   -1.2579   70.7663   66.9800 H   0  0  0  0  0  0
    0.9011   69.3946   68.0490 H   0  0  0  0  0  0
    0.7140   69.7073   66.3689 H   0  0  0  0  0  0
   -1.0241   67.8775   64.9966 H   0  0  0  0  0  0
   -1.7115   66.7014   66.0115 H   0  0  0  0  0  0
   -0.2818   64.1460   72.3662 H   0  0  0  0  0  0
    1.7804   62.7463   72.3624 H   0  0  0  0  0  0
    3.2658   65.1893   69.1649 H   0  0  0  0  0  0
    4.5666   63.3331   69.8372 H   0  0  0  0  0  0
    4.6105   63.3937   71.5684 H   0  0  0  0  0  0
    2.9892   61.4820   68.7762 H   0  0  0  0  0  0
    2.7392   59.0149   68.7833 H   0  0  0  0  0  0
    3.3864   57.7239   70.7873 H   0  0  0  0  0  0
    4.3183   58.8717   72.7672 H   0  0  0  0  0  0
    4.6078   61.3225   72.7493 H   0  0  0  0  0  0
  1  3  1  0  0  0
  1  2  1  0  0  0
  1  4  2  0  0  0
  2  5  1  0  0  0
  2  6  1  0  0  0
  2 30  1  0  0  0
  3 31  1  0  0  0
  5  9  1  0  0  0
  5 32  1  0  0  0
  5 33  1  0  0  0
  6  7  1  0  0  0
  6 34  1  0  0  0
  6 35  1  0  0  0
  7  8  1  0  0  0
  7 36  1  0  0  0
  7 37  1  0  0  0
  8 38  1  0  0  0
  8 39  1  0  0  0
  8 40  1  0  0  0
  9 15  1  0  0  0
  9 16  1  0  0  0
  9 10  1  0  0  0
 10 11  1  0  0  0
 10 12  2  0  0  0
 11 17  1  0  0  0
 11 41  1  0  0  0
 13 16  1  0  0  0
 13 14  1  0  0  0
 13 42  1  0  0  0
 13 43  1  0  0  0
 14 15  1  0  0  0
 14 44  1  0  0  0
 14 45  1  0  0  0
 15 46  1  0  0  0
 15 47  1  0  0  0
 16 48  1  0  0  0
 16 49  1  0  0  0
 17 18  2  0  0  0
 17 22  1  0  0  0
 18 19  1  0  0  0
 19 20  2  0  0  0
 19 50  1  0  0  0
 20 21  1  0  0  0
 20 51  1  0  0  0
 21 22  2  0  0  0
 21 23  1  0  0  0
 22 52  1  0  0  0
 23 24  1  0  0  0
 23 53  1  0  0  0
 23 54  1  0  0  0
 24 25  2  0  0  0
 24 29  1  0  0  0
 25 26  1  0  0  0
 25 55  1  0  0  0
 26 27  2  0  0  0
 26 56  1  0  0  0
 27 28  1  0  0  0
 27 57  1  0  0  0
 28 29  2  0  0  0
 28 58  1  0  0  0
 29 59  1  0  0  0
M  END
> <s_m_entry_id>
8633

> <s_m_entry_name>
dock_pv.143

> <s_m_Source_Path>
/home/csk/Desktop/cluster/DUD-E-result/aces

> <s_m_Source_File>
dock_pv.maegz

> <i_m_Source_File_Index>
143

> <chembl_id>
CHEMBL212771

> <chembl_pref_name>
None

> <i_lp_mmshare_version>
53161

> <i_f3d_flags>
0

> <r_lp_tautomer_probability>
1

> <s_lp_Force_Field>
OPLS_2005

> <r_lp_Energy>
41.201609

> <b_lp_Chiralities_Consistent>
1

> <s_lp_Variant>
CHEMBL220_lig973-1

> <s_i_glide_gridfile>
glide-grid_1e66

> <i_i_glide_lignum>
1334

> <i_i_glide_rotatable_bonds>
11

> <r_i_docking_score>
-7.65480063441794

> <r_i_glide_ligand_efficiency>
-0.263958642566136

> <r_i_glide_ligand_efficiency_sa>
-0.810964577930883

> <r_i_glide_ligand_efficiency_ln>
-1.7527552362858

> <r_i_glide_gscore>
-7.65480063441794

> <r_i_glide_lipo>
-4.56025452801258

> <r_i_glide_hbond>
0

> <r_i_glide_metal>
0

> <r_i_glide_rewards>
-1.28222350982522

> <r_i_glide_evdw>
-46.0093536376953

> <r_i_glide_ecoul>
-4.28083324432373

> <r_i_glide_erotb>
1.13027007195318

> <r_i_glide_esite>
0

> <r_i_glide_emodel>
-62.8788701969774

> <r_i_glide_energy>
-50.290186882019

> <r_i_glide_einternal>
16.4574069976807

> <i_i_glide_confnum>
75

> <i_i_glide_posenum>
165

> <r_i_glide_eff_state_penalty>
0

> <s_user_duplicate_titles>
CHEMBL220_lig973

> <s_m_subgroup_title>
dock_pv

> <s_m_subgroupid>
dock_pv

> <b_m_subgroup_collapsed>
0

$$$$
CHEMBL220_lig896
                    3D
 Schrodinger Suite 2021-1.
 57 60  0  0  1  0            999 V2000
    2.4577   69.0776   66.2482 C   0  0  0  0  0  0
    1.4105   68.5072   65.4934 C   0  0  0  0  0  0
    1.4801   68.3146   64.1613 N   0  0  0  0  0  0
    2.5729   68.7318   63.4934 C   0  0  0  0  0  0
    3.6481   69.4087   65.5717 C   0  0  0  0  0  0
    3.7131   69.2744   64.1529 C   0  0  0  0  0  0
    2.5443   68.6229   62.0932 C   0  0  0  0  0  0
    2.2796   69.3013   67.7640 C   0  0  0  0  0  0
    4.8244   69.6749   63.3554 C   0  0  0  0  0  0
    3.5604   61.0267   70.6760 S   0  0  0  0  0  0
    3.5295   59.3061   69.5684 S   0  0  0  0  0  0
    0.6394   65.4521   69.9951 C   0  0  0  0  0  0
    0.1571   67.9845   66.1686 C   0  0  0  0  0  0
   -0.4558   65.7335   69.2629 N   0  0  0  0  0  0
    1.7258   66.0124   69.8897 O   0  0  0  0  0  0
    4.7435   69.8949   66.2970 N   0  0  0  0  0  0
    3.6287   69.0478   61.3480 C   0  0  0  0  0  0
    4.7613   69.5696   61.9686 C   0  0  0  0  0  0
    1.0061   68.6508   68.3544 C   0  0  0  0  0  0
    0.5301   67.4223   67.5476 C   0  0  1  0  0  0
    2.4627   60.4435   72.0112 C   0  0  2  0  0  0
   -0.6743   66.6757   68.1513 C   0  0  0  0  0  0
    3.5427   68.9080   59.6385 Cl  0  0  0  0  0  0
    1.9790   59.0085   71.7348 C   0  0  0  0  0  0
    3.0692   58.2610   70.9688 C   0  0  0  0  0  0
    0.4841   64.3234   71.0187 C   0  0  0  0  0  0
    1.3532   61.4615   72.3925 C   0  0  0  0  0  0
    0.5362   62.9229   70.3609 C   0  0  0  0  0  0
    0.2506   61.7651   71.3425 C   0  0  0  0  0  0
    1.6659   68.2243   61.6057 H   0  0  0  0  0  0
    2.2653   70.3710   67.9784 H   0  0  0  0  0  0
    3.1418   68.9081   68.2925 H   0  0  0  0  0  0
    5.7084   70.0902   63.8186 H   0  0  0  0  0  0
   -0.3119   67.2171   65.5533 H   0  0  0  0  0  0
   -0.5788   68.7861   66.2519 H   0  0  0  0  0  0
   -1.2600   65.1658   69.4766 H   0  0  0  0  0  0
    5.5921   70.1491   65.8144 H   0  0  0  0  0  0
    4.6750   69.9657   67.3004 H   0  0  0  0  0  0
    5.6005   69.8865   61.3649 H   0  0  0  0  0  0
    0.1981   69.3827   68.4178 H   0  0  0  0  0  0
    1.1883   68.3878   69.3942 H   0  0  0  0  0  0
    1.3460   66.7056   67.4299 H   0  0  0  0  0  0
    3.1335   60.3862   72.8711 H   0  0  0  0  0  0
   -1.1372   66.1086   67.3482 H   0  0  0  0  0  0
   -1.4702   67.3819   68.3683 H   0  0  0  0  0  0
    1.0607   59.0005   71.1518 H   0  0  0  0  0  0
    1.7490   58.4979   72.6712 H   0  0  0  0  0  0
    2.7227   57.2922   70.6054 H   0  0  0  0  0  0
    3.9427   58.0944   71.5973 H   0  0  0  0  0  0
   -0.4557   64.4585   71.5583 H   0  0  0  0  0  0
    1.2804   64.4222   71.7578 H   0  0  0  0  0  0
    0.8579   61.0731   73.2857 H   0  0  0  0  0  0
    1.8164   62.3932   72.7219 H   0  0  0  0  0  0
    1.4955   62.7723   69.8647 H   0  0  0  0  0  0
   -0.2121   62.8735   69.5656 H   0  0  0  0  0  0
    0.0114   60.8701   70.7715 H   0  0  0  0  0  0
   -0.6756   61.9974   71.8728 H   0  0  0  0  0  0
  1  2  1  0  0  0
  1  5  2  0  0  0
  1  8  1  0  0  0
  2  3  2  0  0  0
  2 13  1  0  0  0
  3  4  1  0  0  0
  4  6  1  0  0  0
  4  7  2  0  0  0
  5  6  1  0  0  0
  5 16  1  0  0  0
  6  9  2  0  0  0
  7 17  1  0  0  0
  7 30  1  0  0  0
  8 19  1  0  0  0
  8 31  1  0  0  0
  8 32  1  0  0  0
  9 18  1  0  0  0
  9 33  1  0  0  0
 10 21  1  0  0  0
 10 11  1  0  0  0
 11 25  1  0  0  0
 12 14  1  0  0  0
 12 15  2  0  0  0
 12 26  1  0  0  0
 13 20  1  0  0  0
 13 34  1  0  0  0
 13 35  1  0  0  0
 14 22  1  0  0  0
 14 36  1  0  0  0
 16 37  1  0  0  0
 16 38  1  0  0  0
 17 18  2  0  0  0
 17 23  1  0  0  0
 18 39  1  0  0  0
 19 20  1  0  0  0
 19 40  1  0  0  0
 19 41  1  0  0  0
 20 22  1  0  0  0
 20 42  1  0  0  0
 21 27  1  0  0  0
 21 24  1  0  0  0
 21 43  1  0  0  0
 22 44  1  0  0  0
 22 45  1  0  0  0
 24 25  1  0  0  0
 24 46  1  0  0  0
 24 47  1  0  0  0
 25 48  1  0  0  0
 25 49  1  0  0  0
 26 28  1  0  0  0
 26 50  1  0  0  0
 26 51  1  0  0  0
 27 29  1  0  0  0
 27 52  1  0  0  0
 27 53  1  0  0  0
 28 29  1  0  0  0
 28 54  1  0  0  0
 28 55  1  0  0  0
 29 56  1  0  0  0
 29 57  1  0  0  0
M  END
> <s_m_entry_id>
8634

> <s_m_entry_name>
dock_pv.144

> <s_m_Source_Path>
/home/csk/Desktop/cluster/DUD-E-result/aces

> <s_m_Source_File>
dock_pv.maegz

> <i_m_Source_File_Index>
144

> <chembl_id>
CHEMBL363391

> <chembl_pref_name>
None

> <i_lp_mmshare_version>
53161

> <i_f3d_flags>
0

> <r_lp_tautomer_probability>
1

> <s_lp_Force_Field>
OPLS_2005

> <r_lp_Energy>
26.201257

> <b_lp_Chiralities_Consistent>
1

> <s_lp_Variant>
CHEMBL220_lig896-4

> <s_i_glide_gridfile>
glide-grid_1e66

> <i_i_glide_lignum>
1213

> <i_i_glide_rotatable_bonds>
8

> <r_i_docking_score>
-7.65105628157529

> <r_i_glide_ligand_efficiency>
-0.263829526950872

> <r_i_glide_ligand_efficiency_sa>
-0.810567893854095

> <r_i_glide_ligand_efficiency_ln>
-1.75189787443343

> <r_i_glide_gscore>
-7.65105628157529

> <r_i_glide_lipo>
-4.41177394721448

> <r_i_glide_hbond>
0

> <r_i_glide_metal>
0

> <r_i_glide_rewards>
-1.14643520751004

> <r_i_glide_evdw>
-46.9293251037598

> <r_i_glide_ecoul>
-2.92757892608643

> <r_i_glide_erotb>
0.692755967250188

> <r_i_glide_esite>
0

> <r_i_glide_emodel>
-62.6974941687732

> <r_i_glide_energy>
-49.8569040298462

> <r_i_glide_einternal>
9.34790515899658

> <i_i_glide_confnum>
54

> <i_i_glide_posenum>
349

> <r_i_glide_eff_state_penalty>
0

> <s_user_duplicate_titles>
CHEMBL220_lig896

> <s_m_subgroup_title>
dock_pv

> <s_m_subgroupid>
dock_pv

> <b_m_subgroup_collapsed>
0

$$$$
CHEMBL220_lig1122
                    3D
 Schrodinger Suite 2021-1.
 56 59  0  0  1  0            999 V2000
    1.3308   64.1876   70.8516 N   0  0  0  0  0  0
    2.5885   64.0433   70.3859 C   0  0  0  0  0  0
    1.6538   62.0109   71.0648 N   0  0  0  0  0  0
    0.8476   62.9738   71.2571 C   0  0  0  0  0  0
    2.8502   62.5517   70.5168 C   0  0  0  0  0  0
   -3.2472   68.5086   66.1122 N   0  0  0  0  0  0
    0.7442   65.5369   70.9930 C   0  0  0  0  0  0
   -2.1826   68.5115   65.6589 C   0  0  0  0  0  0
    0.3012   68.1371   65.8317 C   0  0  0  0  0  0
    3.3702   64.8983   69.9682 O   0  0  0  0  0  0
    0.2563   67.6117   67.2330 C   0  0  0  0  0  0
   -0.8396   68.5080   65.0827 C   0  0  0  0  0  0
    1.1430   68.0939   68.1995 C   0  0  0  0  0  0
   -0.5871   66.5489   67.5757 C   0  0  0  0  0  0
    0.5171   66.3144   69.7042 C   0  0  0  0  0  0
   -0.5510   62.8282   71.8687 C   0  0  0  0  0  0
   -0.4582   65.9094   68.8054 C   0  0  0  0  0  0
    1.2766   67.4453   69.4250 C   0  0  0  0  0  0
    3.2551   61.9188   69.1676 C   0  0  0  0  0  0
    4.1132   62.2647   71.3714 C   0  0  0  0  0  0
    1.5544   68.1990   65.2001 C   0  0  0  0  0  0
   -0.7038   68.8673   63.7342 C   0  0  0  0  0  0
   -0.6897   61.7586   72.9853 C   0  0  0  0  0  0
   -0.4543   60.2910   72.5643 C   0  0  0  0  0  0
    4.6871   60.9238   70.8811 C   0  0  0  0  0  0
    4.0076   60.6338   69.5361 C   0  0  0  0  0  0
    1.6802   68.5654   63.8615 C   0  0  0  0  0  0
   -1.0713   59.2758   73.5363 C   0  0  0  0  0  0
    0.5476   68.8932   63.1244 C   0  0  0  0  0  0
    1.4622   66.1082   71.5679 H   0  0  0  0  0  0
   -0.1697   65.5485   71.5804 H   0  0  0  0  0  0
    1.7834   68.9369   67.9829 H   0  0  0  0  0  0
   -1.2832   66.1487   66.8524 H   0  0  0  0  0  0
   -0.8596   63.7683   72.3162 H   0  0  0  0  0  0
   -1.2712   62.6226   71.0761 H   0  0  0  0  0  0
   -1.0668   65.0507   69.0396 H   0  0  0  0  0  0
    2.0011   67.8086   70.1384 H   0  0  0  0  0  0
    2.3913   61.7196   68.5299 H   0  0  0  0  0  0
    3.9257   62.5736   68.6053 H   0  0  0  0  0  0
    4.8744   63.0374   71.2352 H   0  0  0  0  0  0
    3.8900   62.2372   72.4404 H   0  0  0  0  0  0
    2.4464   67.9224   65.7436 H   0  0  0  0  0  0
   -1.5724   69.1411   63.1507 H   0  0  0  0  0  0
   -0.0261   62.0028   73.8170 H   0  0  0  0  0  0
   -1.7007   61.8473   73.3881 H   0  0  0  0  0  0
   -0.8567   60.1218   71.5678 H   0  0  0  0  0  0
    0.6146   60.0900   72.4904 H   0  0  0  0  0  0
    4.4700   60.1281   71.5960 H   0  0  0  0  0  0
    5.7721   60.9776   70.7812 H   0  0  0  0  0  0
    3.2975   59.8121   69.6484 H   0  0  0  0  0  0
    4.7220   60.3421   68.7663 H   0  0  0  0  0  0
    2.6550   68.5919   63.3968 H   0  0  0  0  0  0
   -0.8647   58.2552   73.2137 H   0  0  0  0  0  0
   -0.6679   59.3936   74.5426 H   0  0  0  0  0  0
   -2.1547   59.3891   73.5909 H   0  0  0  0  0  0
    0.6378   69.1755   62.0858 H   0  0  0  0  0  0
  1  2  1  0  0  0
  1  4  1  0  0  0
  1  7  1  0  0  0
  2  5  1  0  0  0
  2 10  2  0  0  0
  3  4  2  0  0  0
  3  5  1  0  0  0
  4 16  1  0  0  0
  5 19  1  0  0  0
  5 20  1  0  0  0
  6  8  3  0  0  0
  7 15  1  0  0  0
  7 30  1  0  0  0
  7 31  1  0  0  0
  8 12  1  0  0  0
  9 11  1  0  0  0
  9 12  2  0  0  0
  9 21  1  0  0  0
 11 13  2  0  0  0
 11 14  1  0  0  0
 12 22  1  0  0  0
 13 18  1  0  0  0
 13 32  1  0  0  0
 14 17  2  0  0  0
 14 33  1  0  0  0
 15 17  1  0  0  0
 15 18  2  0  0  0
 16 23  1  0  0  0
 16 34  1  0  0  0
 16 35  1  0  0  0
 17 36  1  0  0  0
 18 37  1  0  0  0
 19 26  1  0  0  0
 19 38  1  0  0  0
 19 39  1  0  0  0
 20 25  1  0  0  0
 20 40  1  0  0  0
 20 41  1  0  0  0
 21 27  2  0  0  0
 21 42  1  0  0  0
 22 29  2  0  0  0
 22 43  1  0  0  0
 23 24  1  0  0  0
 23 44  1  0  0  0
 23 45  1  0  0  0
 24 28  1  0  0  0
 24 46  1  0  0  0
 24 47  1  0  0  0
 25 26  1  0  0  0
 25 48  1  0  0  0
 25 49  1  0  0  0
 26 50  1  0  0  0
 26 51  1  0  0  0
 27 29  1  0  0  0
 27 52  1  0  0  0
 28 53  1  0  0  0
 28 54  1  0  0  0
 28 55  1  0  0  0
 29 56  1  0  0  0
M  END
> <s_m_entry_id>
8635

> <s_m_entry_name>
dock_pv.145

> <s_m_Source_Path>
/home/csk/Desktop/cluster/DUD-E-result/aces

> <s_m_Source_File>
dock_pv.maegz

> <i_m_Source_File_Index>
145

> <chembl_id>
CHEMBL332051

> <chembl_pref_name>
None

> <i_lp_mmshare_version>
53161

> <i_f3d_flags>
0

> <r_lp_tautomer_probability>
1

> <s_lp_Force_Field>
OPLS_2005

> <r_lp_Energy>
48.196164

> <b_lp_Chiralities_Consistent>
1

> <s_lp_Variant>
CHEMBL220_lig1122-1

> <s_i_glide_gridfile>
glide-grid_1e66

> <i_i_glide_lignum>
1527

> <i_i_glide_rotatable_bonds>
6

> <r_i_docking_score>
-7.64837072569478

> <r_i_glide_ligand_efficiency>
-0.263736921575682

> <r_i_glide_ligand_efficiency_sa>
-0.810283380802068

> <r_i_glide_ligand_efficiency_ln>
-1.75128295023661

> <r_i_glide_gscore>
-7.64837072569478

> <r_i_glide_lipo>
-3.62791528819906

> <r_i_glide_hbond>
0

> <r_i_glide_metal>
0

> <r_i_glide_rewards>
-2.94401129594572

> <r_i_glide_evdw>
-43.8253898620605

> <r_i_glide_ecoul>
3.06873488426208

> <r_i_glide_erotb>
0.654515118913716

> <r_i_glide_esite>
0

> <r_i_glide_emodel>
-50.9964915688423

> <r_i_glide_energy>
-40.7566549777985

> <r_i_glide_einternal>
3.36228036880493

> <i_i_glide_confnum>
72

> <i_i_glide_posenum>
282

> <r_i_glide_eff_state_penalty>
0

> <s_user_duplicate_titles>
CHEMBL220_lig1122,186513

> <s_m_subgroup_title>
dock_pv

> <s_m_subgroupid>
dock_pv

> <b_m_subgroup_collapsed>
0

$$$$
CHEMBL220_lig200
                    3D
 Schrodinger Suite 2021-1.
 48 49  0  0  1  0            999 V2000
    3.3680   66.1796   64.3682 C   0  0  0  0  0  0
    2.4460   67.0913   64.7680 C   0  0  0  0  0  0
    1.1352   62.9384   70.6895 C   0  0  0  0  0  0
    3.4274   64.8537   64.8830 C   0  0  0  0  0  0
    4.3432   66.4122   63.3594 C   0  0  0  0  0  0
    1.4686   64.0421   69.9686 O   0  0  0  0  0  0
    3.5431   63.7820   65.2995 N   0  0  0  0  0  0
    5.1067   66.5083   62.4969 N   0  0  0  0  0  0
    0.9645   65.1313   70.6084 C   0  0  0  0  0  0
    0.4285   63.3277   71.8162 C   0  0  0  0  0  0
    2.9326   61.1691   70.6862 N   0  0  0  0  0  0
    0.3429   64.7192   71.7744 C   0  0  0  0  0  0
    1.6327   61.6034   70.1588 C   0  0  0  0  0  0
    2.3400   68.3896   64.3095 N   0  0  0  0  0  0
    1.4493   66.7884   65.6806 N   0  0  0  0  0  0
    0.6563   66.5080   68.6226 N   0  0  1  0  0  0
    1.2091   66.4791   69.9698 C   0  0  0  0  0  0
    4.0383   62.1010   70.4943 C   0  0  0  0  0  0
    2.9503   60.8802   72.1133 C   0  0  0  0  0  0
    0.5505   67.6590   66.4472 C   0  0  0  0  0  0
    0.9083   67.7754   67.9408 C   0  0  0  0  0  0
    3.1090   69.0619   63.2743 C   0  0  0  0  0  0
    4.4297   60.7200   72.4495 C   0  0  0  0  0  0
    5.1396   61.6473   71.4596 C   0  0  0  0  0  0
    0.0432   62.6784   72.5886 H   0  0  0  0  0  0
   -0.1241   65.3625   72.5047 H   0  0  0  0  0  0
    0.9065   60.8168   70.3675 H   0  0  0  0  0  0
    1.7052   61.6346   69.0712 H   0  0  0  0  0  0
    1.4622   68.8543   64.4907 H   0  0  0  0  0  0
    1.3519   65.8254   65.9738 H   0  0  0  0  0  0
    0.9278   65.6865   68.0873 H   0  0  0  0  0  0
    2.2777   66.6961   69.9430 H   0  0  0  0  0  0
    0.7422   67.2686   70.5613 H   0  0  0  0  0  0
    4.3440   62.0781   69.4474 H   0  0  0  0  0  0
    3.7570   63.1378   70.6839 H   0  0  0  0  0  0
    2.4662   61.6568   72.7073 H   0  0  0  0  0  0
    2.3706   59.9747   72.2979 H   0  0  0  0  0  0
    0.5048   68.6558   66.0092 H   0  0  0  0  0  0
   -0.4615   67.2610   66.3492 H   0  0  0  0  0  0
    1.9416   68.1084   68.0537 H   0  0  0  0  0  0
    0.2801   68.5409   68.4003 H   0  0  0  0  0  0
    2.8206   70.1079   63.2263 H   0  0  0  0  0  0
    4.1786   69.0232   63.4840 H   0  0  0  0  0  0
    2.9213   68.6162   62.2969 H   0  0  0  0  0  0
    4.6258   61.0009   73.4849 H   0  0  0  0  0  0
    4.7407   59.6815   72.3312 H   0  0  0  0  0  0
    5.9489   61.1298   70.9437 H   0  0  0  0  0  0
    5.5539   62.5079   71.9824 H   0  0  0  0  0  0
  1  2  2  0  0  0
  1  4  1  0  0  0
  1  5  1  0  0  0
  2 14  1  0  0  0
  2 15  1  0  0  0
  3  6  1  0  0  0
  3 13  1  0  0  0
  3 10  2  0  0  0
  4  7  3  0  0  0
  5  8  3  0  0  0
  6  9  1  0  0  0
  9 17  1  0  0  0
  9 12  2  0  0  0
 10 12  1  0  0  0
 10 25  1  0  0  0
 11 13  1  0  0  0
 11 18  1  0  0  0
 11 19  1  0  0  0
 12 26  1  0  0  0
 13 27  1  0  0  0
 13 28  1  0  0  0
 14 22  1  0  0  0
 14 29  1  0  0  0
 15 20  1  0  0  0
 15 30  1  0  0  0
 16 21  1  0  0  0
 16 17  1  0  0  0
 16 31  1  0  0  0
 17 32  1  0  0  0
 17 33  1  0  0  0
 18 24  1  0  0  0
 18 34  1  0  0  0
 18 35  1  0  0  0
 19 23  1  0  0  0
 19 36  1  0  0  0
 19 37  1  0  0  0
 20 21  1  0  0  0
 20 38  1  0  0  0
 20 39  1  0  0  0
 21 40  1  0  0  0
 21 41  1  0  0  0
 22 42  1  0  0  0
 22 43  1  0  0  0
 22 44  1  0  0  0
 23 24  1  0  0  0
 23 45  1  0  0  0
 23 46  1  0  0  0
 24 47  1  0  0  0
 24 48  1  0  0  0
M  END
> <s_m_entry_id>
8636

> <s_m_entry_name>
dock_pv.146

> <s_m_Source_Path>
/home/csk/Desktop/cluster/DUD-E-result/aces

> <s_m_Source_File>
dock_pv.maegz

> <i_m_Source_File_Index>
146

> <chembl_id>
CHEMBL347539

> <chembl_pref_name>
None

> <i_lp_mmshare_version>
53161

> <i_f3d_flags>
0

> <r_lp_tautomer_probability>
0.499999999999948

> <s_lp_Force_Field>
OPLS_2005

> <r_lp_Energy>
32.004445

> <b_lp_Chiralities_Consistent>
1

> <s_lp_Variant>
CHEMBL220_lig200-1

> <s_i_glide_gridfile>
glide-grid_1e66

> <i_i_glide_lignum>
217

> <i_i_glide_rotatable_bonds>
9

> <r_i_docking_score>
-7.64340672876368

> <r_i_glide_ligand_efficiency>
-0.318475280365153

> <r_i_glide_ligand_efficiency_sa>
-0.918641671547183

> <r_i_glide_ligand_efficiency_ln>
-1.82941796327386

> <r_i_glide_gscore>
-7.64340672876368

> <r_i_glide_lipo>
-2.92105110025976

> <r_i_glide_hbond>
-0.841700072442482

> <r_i_glide_metal>
0

> <r_i_glide_rewards>
-2.38127794227592

> <r_i_glide_evdw>
-35.0411758422852

> <r_i_glide_ecoul>
-8.76354026794434

> <r_i_glide_erotb>
1.5672122185204

> <r_i_glide_esite>
0

> <r_i_glide_emodel>
-60.1899770559115

> <r_i_glide_energy>
-43.8047161102295

> <r_i_glide_einternal>
5.95303440093994

> <i_i_glide_confnum>
246

> <i_i_glide_posenum>
44

> <r_i_glide_eff_state_penalty>
0

> <s_user_duplicate_titles>
CHEMBL220_lig200,257095

> <s_m_subgroup_title>
dock_pv

> <s_m_subgroupid>
dock_pv

> <b_m_subgroup_collapsed>
0

$$$$
CHEMBL220_lig515
                    3D
 Schrodinger Suite 2021-1.
 29 31  0  0  1  0            999 V2000
    2.5924   69.9881   68.0378 N   0  0  0  0  0  0
    3.8542   70.1080   67.5674 C   0  0  0  0  0  0
    4.2447   69.5814   66.3041 C   0  0  0  0  0  0
    3.2465   68.9119   65.5326 C   0  0  0  0  0  0
    1.9412   68.7665   66.0440 C   0  0  0  0  0  0
    1.6707   69.3068   67.3201 C   0  0  0  0  0  0
    4.7936   70.7941   68.3721 C   0  0  0  0  0  0
    5.6010   69.7438   65.8996 C   0  0  0  0  0  0
    3.5421   68.4092   64.2596 N   0  0  0  0  0  0
    6.1150   70.9081   67.9600 C   0  0  0  0  0  0
    6.5126   70.3866   66.7333 C   0  0  0  0  0  0
    7.0199   71.5133   68.7621 F   0  0  0  0  0  0
    0.8127   68.1194   65.2161 C   0  0  0  0  0  0
    0.2965   69.1802   67.9678 C   0  0  0  0  0  0
   -0.4919   67.8676   65.9993 C   0  0  0  0  0  0
   -0.8298   69.0278   66.9382 C   0  0  0  0  0  0
    4.4830   71.1916   69.3258 H   0  0  0  0  0  0
    5.9360   69.3541   64.9492 H   0  0  0  0  0  0
    2.7708   68.1021   63.6868 H   0  0  0  0  0  0
    4.4141   68.6768   63.8272 H   0  0  0  0  0  0
    7.5414   70.4819   66.4194 H   0  0  0  0  0  0
    0.5875   68.7898   64.3849 H   0  0  0  0  0  0
    1.1492   67.1819   64.7717 H   0  0  0  0  0  0
    0.3122   68.3094   68.6261 H   0  0  0  0  0  0
    0.0945   70.0387   68.6116 H   0  0  0  0  0  0
   -1.3141   67.7080   65.3013 H   0  0  0  0  0  0
   -0.4034   66.9442   66.5746 H   0  0  0  0  0  0
   -0.9602   69.9508   66.3716 H   0  0  0  0  0  0
   -1.7774   68.8416   67.4467 H   0  0  0  0  0  0
  1  2  1  0  0  0
  1  6  2  0  0  0
  2  3  1  0  0  0
  2  7  2  0  0  0
  3  8  2  0  0  0
  3  4  1  0  0  0
  4  5  2  0  0  0
  4  9  1  0  0  0
  5  6  1  0  0  0
  5 13  1  0  0  0
  6 14  1  0  0  0
  7 10  1  0  0  0
  7 17  1  0  0  0
  8 11  1  0  0  0
  8 18  1  0  0  0
  9 19  1  0  0  0
  9 20  1  0  0  0
 10 11  2  0  0  0
 10 12  1  0  0  0
 11 21  1  0  0  0
 13 15  1  0  0  0
 13 22  1  0  0  0
 13 23  1  0  0  0
 14 16  1  0  0  0
 14 24  1  0  0  0
 14 25  1  0  0  0
 15 16  1  0  0  0
 15 26  1  0  0  0
 15 27  1  0  0  0
 16 28  1  0  0  0
 16 29  1  0  0  0
M  END
> <s_m_entry_id>
8637

> <s_m_entry_name>
dock_pv.147

> <s_m_Source_Path>
/home/csk/Desktop/cluster/DUD-E-result/aces

> <s_m_Source_File>
dock_pv.maegz

> <i_m_Source_File_Index>
147

> <chembl_id>
CHEMBL61533

> <chembl_pref_name>
None

> <i_lp_mmshare_version>
53161

> <i_f3d_flags>
0

> <r_lp_tautomer_probability>
1

> <s_lp_Force_Field>
OPLS_2005

> <r_lp_Energy>
15.638087

> <b_lp_Chiralities_Consistent>
1

> <s_lp_Variant>
CHEMBL220_lig515-1

> <s_i_glide_gridfile>
glide-grid_1e66

> <i_i_glide_lignum>
593

> <i_i_glide_rotatable_bonds>
0

> <r_i_docking_score>
-7.61227998737113

> <r_i_glide_ligand_efficiency>
-0.475767499210696

> <r_i_glide_ligand_efficiency_sa>
-1.19885897311481

> <r_i_glide_ligand_efficiency_ln>
-2.01778686939713

> <r_i_glide_gscore>
-7.61227998737113

> <r_i_glide_lipo>
-3.04848077204202

> <r_i_glide_hbond>
0

> <r_i_glide_metal>
0

> <r_i_glide_rewards>
-2.97328383125109

> <r_i_glide_evdw>
-28.854564666748

> <r_i_glide_ecoul>
-0.985247671604156

> <r_i_glide_erotb>
0

> <r_i_glide_esite>
0

> <r_i_glide_emodel>
-43.3841925946127

> <r_i_glide_energy>
-29.8398123383522

> <r_i_glide_einternal>
0

> <i_i_glide_confnum>
1

> <i_i_glide_posenum>
241

> <r_i_glide_eff_state_penalty>
0

> <s_user_duplicate_titles>
CHEMBL220_lig515,95954

> <s_m_subgroup_title>
dock_pv

> <s_m_subgroupid>
dock_pv

> <b_m_subgroup_collapsed>
0

$$$$
CHEMBL220_lig38
                    3D
 Schrodinger Suite 2021-1.
 45 46  0  0  1  0            999 V2000
    1.5803   67.8383   64.5615 C   0  0  0  0  0  0
    0.2053   67.9100   64.7852 C   0  0  0  0  0  0
   -0.6065   68.5150   63.8232 C   0  0  0  0  0  0
   -0.0549   69.0695   62.6735 C   0  0  0  0  0  0
    1.3168   68.9933   62.4496 C   0  0  0  0  0  0
    2.1463   68.4042   63.4094 C   0  0  0  0  0  0
    3.6159   68.3305   63.1908 C   0  0  0  0  0  0
    4.0812   68.0343   62.0912 O   0  0  0  0  0  0
    4.5145   68.7319   64.2692 C   0  0  0  0  0  0
    4.1379   69.5191   65.3050 C   0  0  0  0  0  0
    4.9894   69.9433   66.4282 C   0  0  0  0  0  0
    4.4003   70.5075   67.5677 C   0  0  0  0  0  0
    5.1833   70.9077   68.6442 C   0  0  0  0  0  0
    6.5589   70.7017   68.6003 C   0  0  0  0  0  0
    7.1429   70.1082   67.4896 C   0  0  0  0  0  0
    6.3694   69.7471   66.4005 C   0  0  0  0  0  0
   -0.4554   67.2479   66.0006 C   0  0  0  0  0  0
   -0.1358   67.8029   67.3250 N   0  0  0  0  0  0
    1.1299   67.2828   67.8374 C   0  0  0  0  0  0
    1.2809   67.4803   69.3508 C   0  0  0  0  0  0
   -1.6113   69.8006   67.0469 C   0  0  0  0  0  0
   -0.2230   69.2649   67.4163 C   0  0  0  0  0  0
    7.5450   71.0553   69.9667 Cl  0  0  0  0  0  0
    2.2076   67.3241   65.2734 H   0  0  0  0  0  0
   -1.6764   68.5658   63.9647 H   0  0  0  0  0  0
   -0.6991   69.5658   61.9670 H   0  0  0  0  0  0
    1.7296   69.4237   61.5468 H   0  0  0  0  0  0
    5.5238   68.3640   64.1757 H   0  0  0  0  0  0
    3.1271   69.9024   65.3462 H   0  0  0  0  0  0
    3.3282   70.6243   67.6282 H   0  0  0  0  0  0
    4.7107   71.3080   69.5260 H   0  0  0  0  0  0
    8.1907   69.8672   67.4918 H   0  0  0  0  0  0
    6.8603   69.2804   65.5650 H   0  0  0  0  0  0
   -1.5373   67.3358   65.8914 H   0  0  0  0  0  0
   -0.2727   66.1727   65.9682 H   0  0  0  0  0  0
    1.1959   66.2145   67.6329 H   0  0  0  0  0  0
    1.9430   67.7751   67.3147 H   0  0  0  0  0  0
    2.0570   66.8348   69.7575 H   0  0  0  0  0  0
    1.5658   68.5070   69.5709 H   0  0  0  0  0  0
    0.3582   67.2505   69.8857 H   0  0  0  0  0  0
   -1.6565   70.8739   67.2295 H   0  0  0  0  0  0
   -1.8539   69.6561   65.9974 H   0  0  0  0  0  0
   -2.3866   69.3071   67.6338 H   0  0  0  0  0  0
   -0.0149   69.5861   68.4364 H   0  0  0  0  0  0
    0.5451   69.7091   66.7850 H   0  0  0  0  0  0
  1  2  2  0  0  0
  1  6  1  0  0  0
  1 24  1  0  0  0
  2  3  1  0  0  0
  2 17  1  0  0  0
  3  4  2  0  0  0
  3 25  1  0  0  0
  4  5  1  0  0  0
  4 26  1  0  0  0
  5  6  2  0  0  0
  5 27  1  0  0  0
  6  7  1  0  0  0
  7  8  2  0  0  0
  7  9  1  0  0  0
  9 10  2  0  0  0
  9 28  1  0  0  0
 10 11  1  0  0  0
 10 29  1  0  0  0
 11 12  2  0  0  0
 11 16  1  0  0  0
 12 13  1  0  0  0
 12 30  1  0  0  0
 13 14  2  0  0  0
 13 31  1  0  0  0
 14 15  1  0  0  0
 14 23  1  0  0  0
 15 16  2  0  0  0
 15 32  1  0  0  0
 16 33  1  0  0  0
 17 18  1  0  0  0
 17 34  1  0  0  0
 17 35  1  0  0  0
 18 19  1  0  0  0
 18 22  1  0  0  0
 19 20  1  0  0  0
 19 36  1  0  0  0
 19 37  1  0  0  0
 20 38  1  0  0  0
 20 39  1  0  0  0
 20 40  1  0  0  0
 21 22  1  0  0  0
 21 41  1  0  0  0
 21 42  1  0  0  0
 21 43  1  0  0  0
 22 44  1  0  0  0
 22 45  1  0  0  0
M  END
> <s_m_entry_id>
8638

> <s_m_entry_name>
dock_pv.148

> <s_m_Source_Path>
/home/csk/Desktop/cluster/DUD-E-result/aces

> <s_m_Source_File>
dock_pv.maegz

> <i_m_Source_File_Index>
148

> <chembl_id>
CHEMBL2381398

> <chembl_pref_name>
None

> <i_lp_mmshare_version>
53161

> <i_f3d_flags>
0

> <r_lp_tautomer_probability>
1

> <s_lp_Force_Field>
OPLS_2005

> <r_lp_Energy>
22.013583

> <b_lp_Chiralities_Consistent>
1

> <s_lp_Variant>
CHEMBL220_lig38-1

> <s_i_glide_gridfile>
glide-grid_1e66

> <i_i_glide_lignum>
41

> <i_i_glide_rotatable_bonds>
7

> <r_i_docking_score>
-7.60539546420181

> <r_i_glide_ligand_efficiency>
-0.330669368008774

> <r_i_glide_ligand_efficiency_sa>
-0.940379695945687

> <r_i_glide_ligand_efficiency_ln>
-1.83905358515731

> <r_i_glide_gscore>
-7.60539546420181

> <r_i_glide_lipo>
-4.08199343225215

> <r_i_glide_hbond>
0

> <r_i_glide_metal>
0

> <r_i_glide_rewards>
-2.15351083977757

> <r_i_glide_evdw>
-37.111400604248

> <r_i_glide_ecoul>
-1.41986763477325

> <r_i_glide_erotb>
0.698658983256306

> <r_i_glide_esite>
0

> <r_i_glide_emodel>
-48.5070598057417

> <r_i_glide_energy>
-38.5312682390213

> <r_i_glide_einternal>
8.97921657562256

> <i_i_glide_confnum>
6

> <i_i_glide_posenum>
101

> <r_i_glide_eff_state_penalty>
0

> <s_user_duplicate_titles>
CHEMBL220_lig38

> <s_m_subgroup_title>
dock_pv

> <s_m_subgroupid>
dock_pv

> <b_m_subgroup_collapsed>
0

$$$$
CHEMBL220_lig279
                    3D
 Schrodinger Suite 2021-1.
 29 31  0  0  1  0            999 V2000
    2.5144   69.8894   67.9503 N   0  0  0  0  0  0
    3.2203   69.0729   65.3558 C   0  0  0  0  0  0
    4.1863   69.7068   66.1931 C   0  0  0  0  0  0
    3.7720   70.1075   67.4987 C   0  0  0  0  0  0
    4.6929   70.7280   68.3706 C   0  0  0  0  0  0
    6.0132   70.9031   67.9722 C   0  0  0  0  0  0
    6.4319   70.5068   66.7075 C   0  0  0  0  0  0
    5.5389   69.9315   65.8124 C   0  0  0  0  0  0
    1.6016   69.3065   67.1351 C   0  0  0  0  0  0
    1.9156   68.8530   65.8359 C   0  0  0  0  0  0
    0.8575   68.1079   65.0013 C   0  0  0  0  0  0
   -0.5792   68.3609   65.4872 C   0  0  0  0  0  0
   -0.6725   68.1299   66.9946 C   0  0  0  0  0  0
    0.1958   69.1651   67.7182 C   0  0  0  0  0  0
    3.5594   68.6479   64.0659 N   0  0  0  0  0  0
    7.1462   71.5628   69.0798 Cl  0  0  0  0  0  0
    4.3713   71.0156   69.3611 H   0  0  0  0  0  0
    7.4646   70.6305   66.4151 H   0  0  0  0  0  0
    5.8897   69.6347   64.8350 H   0  0  0  0  0  0
    0.9258   68.3786   63.9482 H   0  0  0  0  0  0
    1.0676   67.0386   65.0582 H   0  0  0  0  0  0
   -0.8865   69.3774   65.2424 H   0  0  0  0  0  0
   -1.2773   67.7100   64.9628 H   0  0  0  0  0  0
   -1.7068   68.2127   67.3310 H   0  0  0  0  0  0
   -0.3453   67.1182   67.2427 H   0  0  0  0  0  0
    0.2628   68.9115   68.7729 H   0  0  0  0  0  0
   -0.3001   70.1345   67.6694 H   0  0  0  0  0  0
    2.8262   68.3097   63.4630 H   0  0  0  0  0  0
    4.4515   68.9225   63.6788 H   0  0  0  0  0  0
  1  4  2  0  0  0
  1  9  1  0  0  0
  2  3  2  0  0  0
  2 10  1  0  0  0
  2 15  1  0  0  0
  3  4  1  0  0  0
  3  8  1  0  0  0
  4  5  1  0  0  0
  5  6  2  0  0  0
  5 17  1  0  0  0
  6  7  1  0  0  0
  6 16  1  0  0  0
  7  8  2  0  0  0
  7 18  1  0  0  0
  8 19  1  0  0  0
  9 10  2  0  0  0
  9 14  1  0  0  0
 10 11  1  0  0  0
 11 12  1  0  0  0
 11 20  1  0  0  0
 11 21  1  0  0  0
 12 13  1  0  0  0
 12 22  1  0  0  0
 12 23  1  0  0  0
 13 14  1  0  0  0
 13 24  1  0  0  0
 13 25  1  0  0  0
 14 26  1  0  0  0
 14 27  1  0  0  0
 15 28  1  0  0  0
 15 29  1  0  0  0
M  END
> <s_m_entry_id>
8639

> <s_m_entry_name>
dock_pv.149

> <s_m_Source_Path>
/home/csk/Desktop/cluster/DUD-E-result/aces

> <s_m_Source_File>
dock_pv.maegz

> <i_m_Source_File_Index>
149

> <chembl_id>
CHEMBL292314

> <chembl_pref_name>
None

> <i_lp_mmshare_version>
53161

> <i_f3d_flags>
0

> <r_lp_tautomer_probability>
1

> <s_lp_Force_Field>
OPLS_2005

> <r_lp_Energy>
15.494863

> <b_lp_Chiralities_Consistent>
1

> <s_lp_Variant>
CHEMBL220_lig279-1

> <s_i_glide_gridfile>
glide-grid_1e66

> <i_i_glide_lignum>
330

> <i_i_glide_rotatable_bonds>
0

> <r_i_docking_score>
-7.58621293360489

> <r_i_glide_ligand_efficiency>
-0.474138308350306

> <r_i_glide_ligand_efficiency_sa>
-1.19475366940001

> <r_i_glide_ligand_efficiency_ln>
-2.01087727609517

> <r_i_glide_gscore>
-7.58621293360489

> <r_i_glide_lipo>
-3.40506428363729

> <r_i_glide_hbond>
0

> <r_i_glide_metal>
0

> <r_i_glide_rewards>
-2.58077592424242

> <r_i_glide_evdw>
-29.017728805542

> <r_i_glide_ecoul>
-0.996575236320496

> <r_i_glide_erotb>
0

> <r_i_glide_esite>
0

> <r_i_glide_emodel>
-43.3791224641006

> <r_i_glide_energy>
-30.0143040418625

> <r_i_glide_einternal>
0

> <i_i_glide_confnum>
2

> <i_i_glide_posenum>
61

> <r_i_glide_eff_state_penalty>
0

> <s_user_duplicate_titles>
CHEMBL220_lig279,96267

> <s_m_subgroup_title>
dock_pv

> <s_m_subgroupid>
dock_pv

> <b_m_subgroup_collapsed>
0

$$$$
CHEMBL220_lig1031
                    3D
 Schrodinger Suite 2021-1.
 28 30  0  0  1  0            999 V2000
    4.3270   67.9860   62.3678 C   0  0  0  0  0  0
    5.4580   68.6560   62.8197 C   0  0  0  0  0  0
    5.4759   69.2801   64.0671 C   0  0  0  0  0  0
    3.1636   67.9506   63.1209 C   0  0  0  0  0  0
    3.1657   68.5163   64.3968 C   0  0  0  0  0  0
    4.3294   69.1720   64.8655 C   0  0  0  0  0  0
    4.0683   69.6104   66.1549 N   0  0  0  0  0  0
    2.1923   68.5860   65.3962 C   0  0  0  0  0  0
    2.7479   69.3080   66.4859 C   0  0  0  0  0  0
    1.9530   69.5744   67.6154 C   0  0  0  0  0  0
    0.6780   69.1027   67.6721 N   0  0  0  0  0  0
    0.1666   68.3921   66.6415 C   0  0  0  0  0  0
    0.8737   68.1077   65.4780 C   0  0  0  0  0  0
    4.3430   67.3421   61.1680 O   0  0  0  0  0  0
    2.3429   70.3719   68.8427 C   0  0  0  0  0  0
    5.0418   70.2707   67.0151 C   0  0  0  0  0  0
    6.3417   68.6952   62.1969 H   0  0  0  0  0  0
    6.3430   69.8176   64.4034 H   0  0  0  0  0  0
    2.2801   67.4844   62.7272 H   0  0  0  0  0  0
   -0.8522   68.0519   66.7582 H   0  0  0  0  0  0
    0.4186   67.5478   64.6738 H   0  0  0  0  0  0
    5.0221   67.7080   60.5650 H   0  0  0  0  0  0
    3.1498   71.0729   68.6576 H   0  0  0  0  0  0
    1.4939   70.9696   69.1680 H   0  0  0  0  0  0
    2.6440   69.7077   69.6518 H   0  0  0  0  0  0
    6.0387   70.2402   66.5773 H   0  0  0  0  0  0
    4.7565   71.3079   67.1677 H   0  0  0  0  0  0
    5.0784   69.7542   67.9716 H   0  0  0  0  0  0
  1  2  2  0  0  0
  1  4  1  0  0  0
  1 14  1  0  0  0
  2  3  1  0  0  0
  2 17  1  0  0  0
  3  6  2  0  0  0
  3 18  1  0  0  0
  4  5  2  0  0  0
  4 19  1  0  0  0
  5  8  1  0  0  0
  5  6  1  0  0  0
  6  7  1  0  0  0
  7  9  1  0  0  0
  7 16  1  0  0  0
  8  9  2  0  0  0
  8 13  1  0  0  0
  9 10  1  0  0  0
 10 11  2  0  0  0
 10 15  1  0  0  0
 11 12  1  0  0  0
 12 13  2  0  0  0
 12 20  1  0  0  0
 13 21  1  0  0  0
 14 22  1  0  0  0
 15 23  1  0  0  0
 15 24  1  0  0  0
 15 25  1  0  0  0
 16 26  1  0  0  0
 16 27  1  0  0  0
 16 28  1  0  0  0
M  END
> <s_m_entry_id>
8640

> <s_m_entry_name>
dock_pv.150

> <s_m_Source_Path>
/home/csk/Desktop/cluster/DUD-E-result/aces

> <s_m_Source_File>
dock_pv.maegz

> <i_m_Source_File_Index>
150

> <chembl_id>
CHEMBL220849

> <chembl_pref_name>
None

> <i_lp_mmshare_version>
53161

> <i_f3d_flags>
0

> <r_lp_tautomer_probability>
1

> <s_lp_Force_Field>
OPLS_2005

> <r_lp_Energy>
17.673

> <b_lp_Chiralities_Consistent>
1

> <s_lp_Variant>
CHEMBL220_lig1031-1

> <s_i_glide_gridfile>
glide-grid_1e66

> <i_i_glide_lignum>
1430

> <i_i_glide_rotatable_bonds>
1

> <r_i_docking_score>
-7.57240573630317

> <r_i_glide_ligand_efficiency>
-0.473275358518948

> <r_i_glide_ligand_efficiency_sa>
-1.19257917208695

> <r_i_glide_ligand_efficiency_ln>
-2.00721740264532

> <r_i_glide_gscore>
-7.57240573630317

> <r_i_glide_lipo>
-2.27809234093638

> <r_i_glide_hbond>
-0.16

> <r_i_glide_metal>
0

> <r_i_glide_rewards>
-2.29083457265867

> <r_i_glide_evdw>
-27.8537483215332

> <r_i_glide_ecoul>
-9.67194271087646

> <r_i_glide_erotb>
0

> <r_i_glide_esite>
0

> <r_i_glide_emodel>
-54.6114197742022

> <r_i_glide_energy>
-37.5256910324097

> <r_i_glide_einternal>
1.68168830871582

> <i_i_glide_confnum>
1

> <i_i_glide_posenum>
94

> <r_i_glide_eff_state_penalty>
0

> <s_user_duplicate_titles>
CHEMBL220_lig1031

> <s_m_subgroup_title>
dock_pv

> <s_m_subgroupid>
dock_pv

> <b_m_subgroup_collapsed>
0

$$$$
CHEMBL220_lig833
                    3D
 Schrodinger Suite 2021-1.
 67 70  0  0  1  0            999 V2000
   -0.0508   68.7446   63.5877 C   0  0  0  0  0  0
    1.2283   67.7080   64.1405 S   0  0  0  0  0  0
    5.4348   69.4246   63.7691 N   0  3  1  0  0  0
    0.6404   67.6056   65.7048 C   0  0  0  0  0  0
   -1.0179   68.8072   64.5683 C   0  0  0  0  0  0
   -0.6455   68.1428   65.7598 C   0  0  0  0  0  0
   -0.0565   69.3985   62.2659 C   0  0  0  0  0  0
    1.2695   66.9839   66.7685 C   0  0  0  0  0  0
    0.5360   66.7792   67.9214 C   0  0  0  0  0  0
   -1.3609   67.9216   66.9103 C   0  0  0  0  0  0
   -0.8163   67.1026   67.9314 C   0  0  0  0  0  0
    1.0580   69.3422   61.1906 C   0  0  0  0  0  0
    5.9568   68.7688   65.0847 C   0  0  0  0  0  0
    5.8597   68.5650   62.5419 C   0  0  0  0  0  0
   -1.0011   70.1081   61.9680 O   0  0  0  0  0  0
    3.8898   69.5510   63.9163 C   0  0  0  0  0  0
    2.4667   68.9228   61.6318 C   0  0  2  0  0  0
    5.9999   70.8589   63.6398 C   0  0  0  0  0  0
    1.1403   66.1080   68.9542 O   0  0  0  0  0  0
   -1.5863   66.5084   68.9039 O   0  0  0  0  0  0
    4.9069   67.3626   62.3160 C   0  0  1  0  0  0
    5.7976   69.5973   66.3653 C   0  0  0  0  0  0
    3.0836   69.9016   62.6535 C   0  0  0  0  0  0
    3.4495   68.5895   60.5236 C   0  0  0  0  0  0
    4.2017   67.3155   60.9688 C   0  0  0  0  0  0
    5.5430   66.1447   62.3683 O   0  0  0  0  0  0
   -2.9355   66.9080   68.8233 C   0  0  0  0  0  0
    1.3005   66.8700   70.1382 C   0  0  0  0  0  0
    4.5366   69.8017   66.9438 C   0  0  0  0  0  0
    6.9368   70.1079   66.9902 C   0  0  0  0  0  0
    4.4141   70.5076   68.1332 C   0  0  0  0  0  0
    6.8208   70.7501   68.2172 C   0  0  0  0  0  0
    5.5669   70.9094   68.7858 C   0  0  0  0  0  0
   -1.9661   69.3079   64.4472 H   0  0  0  0  0  0
    2.2588   66.5727   66.6619 H   0  0  0  0  0  0
   -2.3759   68.2787   66.8909 H   0  0  0  0  0  0
    0.7015   68.6930   60.3912 H   0  0  0  0  0  0
    1.1217   70.3431   60.7681 H   0  0  0  0  0  0
    5.4300   67.8177   65.1685 H   0  0  0  0  0  0
    7.0015   68.5080   64.9148 H   0  0  0  0  0  0
    6.9053   68.2901   62.6825 H   0  0  0  0  0  0
    5.8580   69.2427   61.6886 H   0  0  0  0  0  0
    3.5548   68.6815   64.4586 H   0  0  0  0  0  0
    3.7552   70.3888   64.5986 H   0  0  0  0  0  0
    2.2663   67.9449   62.0041 H   0  0  0  0  0  0
    5.7139   71.3677   64.5515 H   0  0  0  0  0  0
    7.0724   70.9081   63.5680 H   0  0  0  0  0  0
    5.5735   71.3073   62.7518 H   0  0  0  0  0  0
    4.1741   67.2393   63.1063 H   0  0  0  0  0  0
    3.7273   70.5083   62.0533 H   0  0  0  0  0  0
    2.2688   70.4914   63.0666 H   0  0  0  0  0  0
    2.9298   68.5079   59.5713 H   0  0  0  0  0  0
    4.1502   69.3979   60.3217 H   0  0  0  0  0  0
    3.5430   66.5082   61.1661 H   0  0  0  0  0  0
    4.7432   66.9082   60.1559 H   0  0  0  0  0  0
    6.2959   66.2550   61.7767 H   0  0  0  0  0  0
   -3.5459   66.5082   69.6223 H   0  0  0  0  0  0
   -3.2570   66.5080   67.8723 H   0  0  0  0  0  0
   -3.0650   67.9781   68.7667 H   0  0  0  0  0  0
    2.0225   66.3560   70.7680 H   0  0  0  0  0  0
    1.6902   67.8710   69.9417 H   0  0  0  0  0  0
    0.3636   66.9544   70.6904 H   0  0  0  0  0  0
    3.6371   69.3823   66.5243 H   0  0  0  0  0  0
    7.9156   69.9519   66.5576 H   0  0  0  0  0  0
    3.4465   70.6368   68.5974 H   0  0  0  0  0  0
    7.6909   71.0846   68.7584 H   0  0  0  0  0  0
    5.4901   71.3080   69.7774 H   0  0  0  0  0  0
  1  2  1  0  0  0
  1  5  2  0  0  0
  1  7  1  0  0  0
  2  4  1  0  0  0
  3 16  1  0  0  0
  3 13  1  0  0  0
  3 18  1  0  0  0
  3 14  1  0  0  0
  4  8  1  0  0  0
  4  6  2  0  0  0
  5  6  1  0  0  0
  5 34  1  0  0  0
  6 10  1  0  0  0
  7 12  1  0  0  0
  7 15  2  0  0  0
  8  9  2  0  0  0
  8 35  1  0  0  0
  9 19  1  0  0  0
  9 11  1  0  0  0
 10 11  2  0  0  0
 10 36  1  0  0  0
 11 20  1  0  0  0
 12 17  1  0  0  0
 12 37  1  0  0  0
 12 38  1  0  0  0
 13 22  1  0  0  0
 13 39  1  0  0  0
 13 40  1  0  0  0
 14 21  1  0  0  0
 14 41  1  0  0  0
 14 42  1  0  0  0
 16 23  1  0  0  0
 16 43  1  0  0  0
 16 44  1  0  0  0
 17 23  1  0  0  0
 17 24  1  0  0  0
 17 45  1  0  0  0
 18 46  1  0  0  0
 18 47  1  0  0  0
 18 48  1  0  0  0
 19 28  1  0  0  0
 20 27  1  0  0  0
 21 25  1  0  0  0
 21 26  1  0  0  0
 21 49  1  0  0  0
 22 29  2  0  0  0
 22 30  1  0  0  0
 23 50  1  0  0  0
 23 51  1  0  0  0
 24 25  1  0  0  0
 24 52  1  0  0  0
 24 53  1  0  0  0
 25 54  1  0  0  0
 25 55  1  0  0  0
 26 56  1  0  0  0
 27 57  1  0  0  0
 27 58  1  0  0  0
 27 59  1  0  0  0
 28 60  1  0  0  0
 28 61  1  0  0  0
 28 62  1  0  0  0
 29 31  1  0  0  0
 29 63  1  0  0  0
 30 32  2  0  0  0
 30 64  1  0  0  0
 31 33  2  0  0  0
 31 65  1  0  0  0
 32 33  1  0  0  0
 32 66  1  0  0  0
 33 67  1  0  0  0
M  CHG  1   3   1
M  END
> <s_m_entry_id>
8641

> <s_m_entry_name>
dock_pv.151

> <s_m_Source_Path>
/home/csk/Desktop/cluster/DUD-E-result/aces

> <s_m_Source_File>
dock_pv.maegz

> <i_m_Source_File_Index>
151

> <chembl_id>
CHEMBL189283

> <chembl_pref_name>
None

> <i_lp_mmshare_version>
53161

> <i_f3d_flags>
0

> <r_lp_tautomer_probability>
0.99990000499975

> <s_lp_Force_Field>
OPLS_2005

> <r_lp_Energy>
53.054283

> <b_lp_Chiralities_Consistent>
1

> <s_lp_Variant>
CHEMBL220_lig833-6

> <s_i_glide_gridfile>
glide-grid_1e66

> <i_i_glide_lignum>
1045

> <i_i_glide_rotatable_bonds>
8

> <r_i_docking_score>
-7.56263300043354

> <r_i_glide_ligand_efficiency>
-0.229170696982834

> <r_i_glide_ligand_efficiency_sa>
-0.735072877144783

> <r_i_glide_ligand_efficiency_ln>
-1.68189042207839

> <r_i_glide_gscore>
-7.56263300043354

> <r_i_glide_lipo>
-3.95707491232684

> <r_i_glide_hbond>
-0.204936029988081

> <r_i_glide_metal>
0

> <r_i_glide_rewards>
-3.14455567148927

> <r_i_glide_evdw>
4.87610292434692

> <r_i_glide_ecoul>
-6.39716577529907

> <r_i_glide_erotb>
0.45970333344817

> <r_i_glide_esite>
0

> <r_i_glide_emodel>
-33.2700223159677

> <r_i_glide_energy>
-1.52106285095215

> <r_i_glide_einternal>
12.5063419342041

> <i_i_glide_confnum>
27

> <i_i_glide_posenum>
16

> <r_i_glide_eff_state_penalty>
0

> <s_user_duplicate_titles>
CHEMBL220_lig833

> <s_m_subgroup_title>
dock_pv

> <s_m_subgroupid>
dock_pv

> <b_m_subgroup_collapsed>
0

$$$$
CHEMBL220_lig577
                    3D
 Schrodinger Suite 2021-1.
 30 32  0  0  1  0            999 V2000
    0.0996   68.3198   64.8435 C   0  0  0  0  0  0
    0.4884   68.7133   63.5508 C   0  0  0  0  0  0
    2.3969   67.7157   65.3407 N   0  0  0  0  0  0
    1.0907   67.7961   65.6952 C   0  0  0  0  0  0
    1.8435   68.5693   63.1363 C   0  0  0  0  0  0
    2.7768   68.0753   64.0909 C   0  0  0  0  0  0
   -1.3431   68.5123   65.3504 C   0  0  0  0  0  0
    0.7431   67.2884   67.0893 C   0  0  0  0  0  0
   -0.4568   69.3079   62.7114 N   0  0  0  0  0  0
   -1.6825   67.7066   66.6156 C   0  0  1  0  0  0
   -0.5634   67.8527   67.6392 C   0  0  0  0  0  0
    2.3181   68.9081   61.8370 C   0  0  0  0  0  0
   -2.9161   68.1079   67.1687 O   0  0  0  0  0  0
    4.1431   67.9434   63.7394 C   0  0  0  0  0  0
    3.6630   68.7601   61.5201 C   0  0  0  0  0  0
    4.5702   68.2854   62.4589 C   0  0  0  0  0  0
   -1.4697   69.5736   65.5688 H   0  0  0  0  0  0
   -2.0583   68.2734   64.5654 H   0  0  0  0  0  0
    0.6397   66.2074   67.0244 H   0  0  0  0  0  0
    1.5430   67.4844   67.7991 H   0  0  0  0  0  0
   -1.2860   69.6724   63.1642 H   0  0  0  0  0  0
   -0.1289   69.7421   61.8627 H   0  0  0  0  0  0
   -1.7917   66.6499   66.3669 H   0  0  0  0  0  0
   -0.4393   68.9000   67.9257 H   0  0  0  0  0  0
   -0.8219   67.3081   68.5484 H   0  0  0  0  0  0
    1.6336   69.2800   61.0892 H   0  0  0  0  0  0
   -3.5347   67.3678   67.1561 H   0  0  0  0  0  0
    4.8465   67.5815   64.4748 H   0  0  0  0  0  0
    4.0110   69.0192   60.5306 H   0  0  0  0  0  0
    5.6124   68.1878   62.1860 H   0  0  0  0  0  0
  1  2  2  0  0  0
  1  4  1  0  0  0
  1  7  1  0  0  0
  2  5  1  0  0  0
  2  9  1  0  0  0
  3  4  2  0  0  0
  3  6  1  0  0  0
  4  8  1  0  0  0
  5 12  2  0  0  0
  5  6  1  0  0  0
  6 14  2  0  0  0
  7 10  1  0  0  0
  7 17  1  0  0  0
  7 18  1  0  0  0
  8 11  1  0  0  0
  8 19  1  0  0  0
  8 20  1  0  0  0
  9 21  1  0  0  0
  9 22  1  0  0  0
 10 11  1  0  0  0
 10 13  1  0  0  0
 10 23  1  0  0  0
 11 24  1  0  0  0
 11 25  1  0  0  0
 12 15  1  0  0  0
 12 26  1  0  0  0
 13 27  1  0  0  0
 14 16  1  0  0  0
 14 28  1  0  0  0
 15 16  2  0  0  0
 15 29  1  0  0  0
 16 30  1  0  0  0
M  END
> <s_m_entry_id>
8642

> <s_m_entry_name>
dock_pv.152

> <s_m_Source_Path>
/home/csk/Desktop/cluster/DUD-E-result/aces

> <s_m_Source_File>
dock_pv.maegz

> <i_m_Source_File_Index>
152

> <chembl_id>
CHEMBL318026

> <chembl_pref_name>
None

> <i_lp_mmshare_version>
53161

> <i_f3d_flags>
0

> <r_lp_tautomer_probability>
1

> <s_lp_Force_Field>
OPLS_2005

> <r_lp_Energy>
15.16812

> <b_lp_Chiralities_Consistent>
1

> <s_lp_Variant>
CHEMBL220_lig577-2

> <s_i_glide_gridfile>
glide-grid_1e66

> <i_i_glide_lignum>
665

> <i_i_glide_rotatable_bonds>
1

> <r_i_docking_score>
-7.55815199965284

> <r_i_glide_ligand_efficiency>
-0.472384499978302

> <r_i_glide_ligand_efficiency_sa>
-1.19033434923335

> <r_i_glide_ligand_efficiency_ln>
-2.0034391650213

> <r_i_glide_gscore>
-7.55815199965284

> <r_i_glide_lipo>
-2.64464919668804

> <r_i_glide_hbond>
-0.566169427079555

> <r_i_glide_metal>
0

> <r_i_glide_rewards>
-2.08153974242424

> <r_i_glide_evdw>
-30.0890007019043

> <r_i_glide_ecoul>
-5.07562398910522

> <r_i_glide_erotb>
0

> <r_i_glide_esite>
0

> <r_i_glide_emodel>
-50.8579927709606

> <r_i_glide_energy>
-35.1646246910095

> <r_i_glide_einternal>
1.34093272686005

> <i_i_glide_confnum>
1

> <i_i_glide_posenum>
333

> <r_i_glide_eff_state_penalty>
0

> <s_user_duplicate_titles>
CHEMBL220_lig577

> <s_m_subgroup_title>
dock_pv

> <s_m_subgroupid>
dock_pv

> <b_m_subgroup_collapsed>
0

$$$$
CHEMBL220_lig280
                    3D
 Schrodinger Suite 2021-1.
 30 33  0  0  1  0            999 V2000
    2.6391   69.0998   66.3346 N   0  0  0  0  0  0
    1.3218   68.8236   66.4575 C   0  0  0  0  0  0
    0.4861   68.4970   65.3995 C   0  0  0  0  0  0
    1.0000   68.4523   64.1055 C   0  0  0  0  0  0
    3.1841   69.0539   65.0811 C   0  0  0  0  0  0
    2.3965   68.7354   63.9205 C   0  0  0  0  0  0
   -0.8851   68.2305   66.0248 C   0  0  2  0  0  0
    0.4761   68.7574   67.7233 C   0  0  1  0  0  0
   -0.8626   69.2470   67.1623 C   0  0  0  0  0  0
    4.5762   69.3327   64.9232 C   0  0  0  0  0  0
   -0.7884   66.9081   66.8201 C   0  0  0  0  0  0
    0.1597   67.2672   67.9936 C   0  0  0  0  0  0
    0.1494   68.1285   63.0462 N   0  0  0  0  0  0
    5.5884   69.7246   66.2743 Cl  0  0  0  0  0  0
    3.0407   68.7106   62.6490 C   0  0  0  0  0  0
    4.3983   68.9863   62.5344 C   0  0  0  0  0  0
    5.1519   69.2947   63.6566 C   0  0  0  0  0  0
   -1.7461   68.2993   65.3575 H   0  0  0  0  0  0
    0.8485   69.3157   68.5852 H   0  0  0  0  0  0
   -0.8608   70.2791   66.8170 H   0  0  0  0  0  0
   -1.7013   69.1384   67.8587 H   0  0  0  0  0  0
   -1.7664   66.5880   67.1827 H   0  0  0  0  0  0
   -0.3825   66.1044   66.2077 H   0  0  0  0  0  0
    1.0595   66.6498   68.0009 H   0  0  0  0  0  0
   -0.3374   67.1291   68.9548 H   0  0  0  0  0  0
    0.5082   68.0743   62.1065 H   0  0  0  0  0  0
   -0.7976   67.8475   63.2639 H   0  0  0  0  0  0
    2.4729   68.4754   61.7622 H   0  0  0  0  0  0
    4.8793   68.9624   61.5643 H   0  0  0  0  0  0
    6.2054   69.5116   63.5424 H   0  0  0  0  0  0
  1  2  2  0  0  0
  1  5  1  0  0  0
  2  3  1  0  0  0
  2  8  1  0  0  0
  3  7  1  0  0  0
  3  4  2  0  0  0
  4  6  1  0  0  0
  4 13  1  0  0  0
  5  6  1  0  0  0
  5 10  2  0  0  0
  6 15  2  0  0  0
  7  9  1  0  0  0
  7 11  1  0  0  0
  7 18  1  0  0  0
  8  9  1  0  0  0
  8 12  1  0  0  0
  8 19  1  0  0  0
  9 20  1  0  0  0
  9 21  1  0  0  0
 10 14  1  0  0  0
 10 17  1  0  0  0
 11 12  1  0  0  0
 11 22  1  0  0  0
 11 23  1  0  0  0
 12 24  1  0  0  0
 12 25  1  0  0  0
 13 26  1  0  0  0
 13 27  1  0  0  0
 15 16  1  0  0  0
 15 28  1  0  0  0
 16 17  2  0  0  0
 16 29  1  0  0  0
 17 30  1  0  0  0
M  END
> <s_m_entry_id>
8643

> <s_m_entry_name>
dock_pv.153

> <s_m_Source_Path>
/home/csk/Desktop/cluster/DUD-E-result/aces

> <s_m_Source_File>
dock_pv.maegz

> <i_m_Source_File_Index>
153

> <chembl_id>
CHEMBL355740

> <chembl_pref_name>
None

> <i_lp_mmshare_version>
53161

> <i_f3d_flags>
0

> <r_lp_tautomer_probability>
1

> <s_lp_Force_Field>
OPLS_2005

> <r_lp_Energy>
64.687633

> <b_lp_Chiralities_Consistent>
1

> <s_lp_Variant>
CHEMBL220_lig280-1

> <s_i_glide_gridfile>
glide-grid_1e66

> <i_i_glide_lignum>
331

> <i_i_glide_rotatable_bonds>
0

> <r_i_docking_score>
-7.55596395148604

> <r_i_glide_ligand_efficiency>
-0.444468467734473

> <r_i_glide_ligand_efficiency_sa>
-1.14285358763441

> <r_i_glide_ligand_efficiency_ln>
-1.97118273189838

> <r_i_glide_gscore>
-7.55596395148604

> <r_i_glide_lipo>
-3.48543052816778

> <r_i_glide_hbond>
-0.0228392473698425

> <r_i_glide_metal>
0

> <r_i_glide_rewards>
-2.10294359873704

> <r_i_glide_evdw>
-32.9795837402344

> <r_i_glide_ecoul>
-1.97180926799774

> <r_i_glide_erotb>
0

> <r_i_glide_esite>
0

> <r_i_glide_emodel>
-51.3931912044457

> <r_i_glide_energy>
-34.9513930082321

> <r_i_glide_einternal>
0

> <i_i_glide_confnum>
1

> <i_i_glide_posenum>
191

> <r_i_glide_eff_state_penalty>
0

> <s_user_duplicate_titles>
CHEMBL220_lig280,283596

> <s_m_subgroup_title>
dock_pv

> <s_m_subgroupid>
dock_pv

> <b_m_subgroup_collapsed>
0

$$$$
CHEMBL220_lig786
                    3D
 Schrodinger Suite 2021-1.
 55 56  0  0  1  0            999 V2000
    3.7218   61.3225   71.7885 C   0  0  0  0  0  0
    2.2810   69.0586   62.9552 C   0  0  0  0  0  0
    3.4542   62.3353   70.9238 O   0  0  0  0  0  0
    1.8464   68.9061   64.2297 O   0  0  0  0  0  0
    2.4242   63.0578   71.4309 C   0  0  0  0  0  0
    0.5489   68.5080   64.1940 C   0  0  0  0  0  0
    2.8649   61.4089   72.8748 C   0  0  0  0  0  0
    1.2365   68.7798   62.0856 C   0  0  0  0  0  0
    2.0366   62.5077   72.6451 C   0  0  0  0  0  0
    0.1381   68.4240   62.8752 C   0  0  0  0  0  0
    4.8024   60.3469   71.3636 C   0  0  0  0  0  0
    3.7232   69.4945   62.7932 C   0  0  0  0  0  0
    4.3429   59.3080   70.4304 N   0  0  0  0  0  0
    4.6946   68.4207   63.0378 N   0  0  0  0  0  0
    0.3489   64.8895   71.0746 S   0  0  0  0  0  0
    0.8819   67.3085   66.6439 S   0  0  0  0  0  0
    0.9397   67.1336   69.4514 C   0  0  0  0  0  0
    1.9691   64.2278   70.5904 C   0  0  0  0  0  0
   -0.1176   68.3367   65.5367 C   0  0  0  0  0  0
   -0.0261   65.9593   69.6519 C   0  0  0  0  0  0
    0.5772   68.0490   68.2693 C   0  0  0  0  0  0
    3.4130   58.3622   71.0445 C   0  0  0  0  0  0
    3.8251   59.8259   69.1680 C   0  0  0  0  0  0
    6.0110   68.8896   62.6141 C   0  0  0  0  0  0
    4.7676   68.0601   64.4554 C   0  0  0  0  0  0
    2.8320   60.7419   73.7251 H   0  0  0  0  0  0
    1.2664   68.8329   61.0067 H   0  0  0  0  0  0
    1.2434   62.8624   73.2872 H   0  0  0  0  0  0
   -0.8477   68.1410   62.5394 H   0  0  0  0  0  0
    5.6254   60.8923   70.8984 H   0  0  0  0  0  0
    5.2310   59.8657   72.2439 H   0  0  0  0  0  0
    3.9430   70.3426   63.4454 H   0  0  0  0  0  0
    3.8514   69.8634   61.7733 H   0  0  0  0  0  0
    1.9430   66.7460   69.3036 H   0  0  0  0  0  0
    0.9911   67.7077   70.3720 H   0  0  0  0  0  0
    1.9374   63.9452   69.5366 H   0  0  0  0  0  0
    2.6942   65.0387   70.6724 H   0  0  0  0  0  0
   -0.2853   69.3126   65.9932 H   0  0  0  0  0  0
   -1.0973   67.8664   65.4447 H   0  0  0  0  0  0
   -1.0323   66.3557   69.7768 H   0  0  0  0  0  0
   -0.0578   65.3297   68.7651 H   0  0  0  0  0  0
    1.1933   68.9475   68.3220 H   0  0  0  0  0  0
   -0.4566   68.3845   68.3356 H   0  0  0  0  0  0
    3.1899   57.5401   70.3637 H   0  0  0  0  0  0
    3.8428   57.9252   71.9476 H   0  0  0  0  0  0
    2.4698   58.8402   71.3149 H   0  0  0  0  0  0
    3.6570   59.0118   68.4610 H   0  0  0  0  0  0
    2.8771   60.3499   69.3034 H   0  0  0  0  0  0
    4.5401   60.5164   68.7207 H   0  0  0  0  0  0
    5.9977   69.1893   61.5681 H   0  0  0  0  0  0
    6.7634   68.1082   62.7125 H   0  0  0  0  0  0
    6.3406   69.7524   63.1988 H   0  0  0  0  0  0
    3.8323   67.6203   64.7997 H   0  0  0  0  0  0
    5.5424   67.3133   64.6284 H   0  0  0  0  0  0
    4.9896   68.9242   65.0846 H   0  0  0  0  0  0
  1  3  1  0  0  0
  1  7  2  0  0  0
  1 11  1  0  0  0
  2  4  1  0  0  0
  2 12  1  0  0  0
  2  8  2  0  0  0
  3  5  1  0  0  0
  4  6  1  0  0  0
  5 18  1  0  0  0
  5  9  2  0  0  0
  6 19  1  0  0  0
  6 10  2  0  0  0
  7  9  1  0  0  0
  7 26  1  0  0  0
  8 10  1  0  0  0
  8 27  1  0  0  0
  9 28  1  0  0  0
 10 29  1  0  0  0
 11 13  1  0  0  0
 11 30  1  0  0  0
 11 31  1  0  0  0
 12 14  1  0  0  0
 12 32  1  0  0  0
 12 33  1  0  0  0
 13 22  1  0  0  0
 13 23  1  0  0  0
 14 24  1  0  0  0
 14 25  1  0  0  0
 15 18  1  0  0  0
 15 20  1  0  0  0
 16 21  1  0  0  0
 16 19  1  0  0  0
 17 20  1  0  0  0
 17 21  1  0  0  0
 17 34  1  0  0  0
 17 35  1  0  0  0
 18 36  1  0  0  0
 18 37  1  0  0  0
 19 38  1  0  0  0
 19 39  1  0  0  0
 20 40  1  0  0  0
 20 41  1  0  0  0
 21 42  1  0  0  0
 21 43  1  0  0  0
 22 44  1  0  0  0
 22 45  1  0  0  0
 22 46  1  0  0  0
 23 47  1  0  0  0
 23 48  1  0  0  0
 23 49  1  0  0  0
 24 50  1  0  0  0
 24 51  1  0  0  0
 24 52  1  0  0  0
 25 53  1  0  0  0
 25 54  1  0  0  0
 25 55  1  0  0  0
M  END
> <s_m_entry_id>
8644

> <s_m_entry_name>
dock_pv.154

> <s_m_Source_Path>
/home/csk/Desktop/cluster/DUD-E-result/aces

> <s_m_Source_File>
dock_pv.maegz

> <i_m_Source_File_Index>
154

> <chembl_id>
CHEMBL275537

> <chembl_pref_name>
None

> <i_lp_mmshare_version>
53161

> <i_f3d_flags>
0

> <r_lp_tautomer_probability>
1

> <s_lp_Force_Field>
OPLS_2005

> <r_lp_Energy>
3.506125

> <b_lp_Chiralities_Consistent>
1

> <s_lp_Variant>
CHEMBL220_lig786-1

> <s_i_glide_gridfile>
glide-grid_1e66

> <i_i_glide_lignum>
967

> <i_i_glide_rotatable_bonds>
12

> <r_i_docking_score>
-7.55556517532315

> <r_i_glide_ligand_efficiency>
-0.302222607012926

> <r_i_glide_ligand_efficiency_sa>
-0.883704262846554

> <r_i_glide_ligand_efficiency_ln>
-1.79089536856876

> <r_i_glide_gscore>
-7.55556517532315

> <r_i_glide_lipo>
-3.7843508264578

> <r_i_glide_hbond>
-0.32

> <r_i_glide_metal>
0

> <r_i_glide_rewards>
-1.56113866997327

> <r_i_glide_evdw>
-44.4716453552246

> <r_i_glide_ecoul>
-6.62312602996826

> <r_i_glide_erotb>
1.32697549336438

> <r_i_glide_esite>
0

> <r_i_glide_emodel>
-69.8079109702348

> <r_i_glide_energy>
-51.0947713851929

> <r_i_glide_einternal>
9.59346961975098

> <i_i_glide_confnum>
240

> <i_i_glide_posenum>
348

> <r_i_glide_eff_state_penalty>
0

> <s_user_duplicate_titles>
CHEMBL220_lig786,11826

> <s_m_subgroup_title>
dock_pv

> <s_m_subgroupid>
dock_pv

> <b_m_subgroup_collapsed>
0

$$$$
CHEMBL220_lig687
                    3D
 Schrodinger Suite 2021-1.
 50 51  0  0  1  0            999 V2000
    5.0227   69.9248   66.6238 C   0  0  0  0  0  0
    4.3518   68.7709   64.5465 C   0  0  0  0  0  0
    6.1241   70.5070   67.4338 N   0  3  0  0  0  0
    4.7792   68.1910   63.2378 N   0  3  0  0  0  0
    5.3175   69.3903   65.3584 C   0  0  0  0  0  0
    3.6972   69.8578   67.0895 C   0  0  0  0  0  0
    3.0264   68.7148   65.0272 C   0  0  0  0  0  0
    2.7322   69.2834   66.2676 C   0  0  0  0  0  0
    1.7686   64.3557   70.0559 C   0  0  0  0  0  0
    1.7599   65.3802   69.1689 O   0  0  0  0  0  0
    0.8443   66.2916   69.5739 C   0  0  0  0  0  0
    0.8953   64.6529   71.0934 C   0  0  0  0  0  0
    3.9862   67.5486   62.5533 O   0  5  0  0  0  0
    7.2733   70.2417   67.1059 O   0  5  0  0  0  0
    0.3433   65.9060   70.8039 C   0  0  0  0  0  0
    5.9420   68.3534   62.8857 O   0  0  0  0  0  0
    5.8692   71.2279   68.3941 O   0  0  0  0  0  0
    3.3299   70.2983   68.3748 N   0  0  0  0  0  0
    2.7029   63.2058   69.7077 C   0  0  0  0  0  0
    2.0125   68.0452   64.3140 N   0  0  0  0  0  0
    3.9811   63.2041   70.4307 N   0  0  0  0  0  0
    1.9436   70.5062   68.7679 N   0  0  0  0  0  0
   -0.5363   67.0478   67.2744 S   0  0  0  0  0  0
    0.5955   67.4529   68.6442 C   0  0  0  0  0  0
    0.6681   67.8406   64.8512 C   0  0  0  0  0  0
    0.6106   66.7106   65.9007 C   0  0  0  0  0  0
    4.6552   64.5051   70.4318 C   0  0  0  0  0  0
    3.8300   62.6535   71.7733 C   0  0  0  0  0  0
    6.3388   69.4418   65.0076 H   0  0  0  0  0  0
    1.7250   69.2621   66.6410 H   0  0  0  0  0  0
    0.6947   64.0418   71.9612 H   0  0  0  0  0  0
   -0.3711   66.4615   71.3970 H   0  0  0  0  0  0
    3.9790   70.8892   68.8866 H   0  0  0  0  0  0
    2.1982   62.2484   69.8444 H   0  0  0  0  0  0
    2.9412   63.2519   68.6451 H   0  0  0  0  0  0
    2.2937   67.5295   63.4901 H   0  0  0  0  0  0
    1.7327   70.1090   69.6861 H   0  0  0  0  0  0
    1.6932   71.4860   68.7320 H   0  0  0  0  0  0
    1.5428   67.7823   68.2315 H   0  0  0  0  0  0
    0.2142   68.3220   69.1681 H   0  0  0  0  0  0
    0.2902   68.7711   65.2749 H   0  0  0  0  0  0
   -0.0154   67.6364   64.0262 H   0  0  0  0  0  0
    0.3445   65.7716   65.4197 H   0  0  0  0  0  0
    1.5962   66.5290   66.3304 H   0  0  0  0  0  0
    5.6439   64.4405   70.8795 H   0  0  0  0  0  0
    4.7850   64.8880   69.4193 H   0  0  0  0  0  0
    4.0947   65.2509   70.9977 H   0  0  0  0  0  0
    4.7883   62.6148   72.2926 H   0  0  0  0  0  0
    3.1301   63.2437   72.3651 H   0  0  0  0  0  0
    3.4472   61.6330   71.7282 H   0  0  0  0  0  0
  1  3  1  0  0  0
  1  5  1  0  0  0
  1  6  2  0  0  0
  2  5  2  0  0  0
  2  4  1  0  0  0
  2  7  1  0  0  0
  3 14  1  0  0  0
  3 17  2  0  0  0
  4 13  1  0  0  0
  4 16  2  0  0  0
  5 29  1  0  0  0
  6  8  1  0  0  0
  6 18  1  0  0  0
  7  8  2  0  0  0
  7 20  1  0  0  0
  8 30  1  0  0  0
  9 10  1  0  0  0
  9 19  1  0  0  0
  9 12  2  0  0  0
 10 11  1  0  0  0
 11 24  1  0  0  0
 11 15  2  0  0  0
 12 15  1  0  0  0
 12 31  1  0  0  0
 15 32  1  0  0  0
 18 22  1  0  0  0
 18 33  1  0  0  0
 19 21  1  0  0  0
 19 34  1  0  0  0
 19 35  1  0  0  0
 20 25  1  0  0  0
 20 36  1  0  0  0
 21 27  1  0  0  0
 21 28  1  0  0  0
 22 37  1  0  0  0
 22 38  1  0  0  0
 23 26  1  0  0  0
 23 24  1  0  0  0
 24 39  1  0  0  0
 24 40  1  0  0  0
 25 26  1  0  0  0
 25 41  1  0  0  0
 25 42  1  0  0  0
 26 43  1  0  0  0
 26 44  1  0  0  0
 27 45  1  0  0  0
 27 46  1  0  0  0
 27 47  1  0  0  0
 28 48  1  0  0  0
 28 49  1  0  0  0
 28 50  1  0  0  0
M  CHG  4   3   1   4   1  13  -1  14  -1
M  END
> <s_m_entry_id>
8645

> <s_m_entry_name>
dock_pv.155

> <s_m_Source_Path>
/home/csk/Desktop/cluster/DUD-E-result/aces

> <s_m_Source_File>
dock_pv.maegz

> <i_m_Source_File_Index>
155

> <chembl_id>
CHEMBL321605

> <chembl_pref_name>
None

> <i_lp_mmshare_version>
53161

> <i_f3d_flags>
0

> <r_lp_tautomer_probability>
1

> <s_lp_Force_Field>
OPLS_2005

> <r_lp_Energy>
21.58098

> <b_lp_Chiralities_Consistent>
1

> <s_lp_Variant>
CHEMBL220_lig687-1

> <s_i_glide_gridfile>
glide-grid_1e66

> <i_i_glide_lignum>
812

> <i_i_glide_rotatable_bonds>
11

> <r_i_docking_score>
-7.53924728054435

> <r_i_glide_ligand_efficiency>
-0.269258831448013

> <r_i_glide_ligand_efficiency_sa>
-0.817628397246995

> <r_i_glide_ligand_efficiency_ln>
-1.74027963426857

> <r_i_glide_gscore>
-7.53924728054435

> <r_i_glide_lipo>
-3.38498977705606

> <r_i_glide_hbond>
-0.250405370982933

> <r_i_glide_metal>
0

> <r_i_glide_rewards>
-1.80258804028001

> <r_i_glide_evdw>
-46.0146980285645

> <r_i_glide_ecoul>
-3.67471027374268

> <r_i_glide_erotb>
0.818563569738348

> <r_i_glide_esite>
-0.0678862194740783

> <r_i_glide_emodel>
-64.6145630779826

> <r_i_glide_energy>
-49.6894083023071

> <r_i_glide_einternal>
10.3063011169434

> <i_i_glide_confnum>
2

> <i_i_glide_posenum>
224

> <r_i_glide_eff_state_penalty>
0

> <s_user_duplicate_titles>
CHEMBL220_lig687,174553

> <s_m_subgroup_title>
dock_pv

> <s_m_subgroupid>
dock_pv

> <b_m_subgroup_collapsed>
0

$$$$
CHEMBL220_lig222
                    3D
 Schrodinger Suite 2021-1.
 64 67  0  0  1  0            999 V2000
    0.9436   64.3838   71.2323 C   0  0  0  0  0  0
    0.6252   63.3161   72.5914 S   0  0  0  0  0  0
    1.7669   62.1469   71.9724 C   0  0  0  0  0  0
    1.7965   63.8134   70.3044 C   0  0  0  0  0  0
    2.2850   62.5419   70.7078 C   0  0  0  0  0  0
    0.9882   67.6751   65.4472 N   0  3  2  0  0  0
    0.3430   65.7154   71.2357 C   0  0  0  0  0  0
    2.1573   60.9563   72.5963 C   0  0  0  0  0  0
    0.7714   66.7414   70.1816 C   0  0  0  0  0  0
    3.0659   60.1187   71.9370 C   0  0  0  0  0  0
    3.1765   61.6798   70.0585 C   0  0  0  0  0  0
    3.5352   60.4792   70.6665 C   0  0  0  0  0  0
   -0.0344   66.8380   68.8555 C   0  0  2  0  0  0
   -0.4197   66.0978   72.1300 O   0  0  0  0  0  0
    0.1442   68.2572   68.2147 C   0  0  2  0  0  0
    1.4365   68.9080   64.6190 C   0  0  0  0  0  0
   -0.5282   67.7490   65.8328 C   0  0  0  0  0  0
    1.9430   67.5439   66.6568 C   0  0  0  0  0  0
   -0.7670   68.6657   67.0394 C   0  0  0  0  0  0
    1.5774   68.5370   67.7803 C   0  0  0  0  0  0
    3.5281   58.9260   72.4674 O   0  0  0  0  0  0
    4.3639   59.6418   69.9705 O   0  0  0  0  0  0
   -1.3961   66.5080   68.9747 O   0  0  0  0  0  0
    1.1431   66.4033   64.6076 C   0  0  0  0  0  0
    2.7533   68.8557   63.8426 C   0  0  0  0  0  0
    3.6986   58.5080   69.4302 C   0  0  0  0  0  0
    3.0900   58.5163   73.7597 C   0  0  0  0  0  0
    2.7542   68.4491   62.5060 C   0  0  0  0  0  0
    3.9396   69.3055   64.4354 C   0  0  0  0  0  0
    5.1279   69.3053   63.7103 C   0  0  0  0  0  0
    3.9424   68.4473   61.7824 C   0  0  0  0  0  0
    5.1239   68.8704   62.3885 C   0  0  0  0  0  0
    2.0943   64.2916   69.3840 H   0  0  0  0  0  0
    1.7538   60.7047   73.5656 H   0  0  0  0  0  0
    0.7440   67.7070   70.6836 H   0  0  0  0  0  0
    1.8267   66.5820   69.9659 H   0  0  0  0  0  0
    3.5810   61.9334   69.0922 H   0  0  0  0  0  0
    0.3237   66.0562   68.1953 H   0  0  0  0  0  0
   -0.0567   68.9984   68.9753 H   0  0  0  0  0  0
    0.6060   69.1529   63.9542 H   0  0  0  0  0  0
    1.5432   69.6735   65.3826 H   0  0  0  0  0  0
   -1.0935   68.0618   64.9530 H   0  0  0  0  0  0
   -0.8510   66.7399   66.0914 H   0  0  0  0  0  0
    2.9576   67.7088   66.3040 H   0  0  0  0  0  0
    1.9093   66.5045   66.9730 H   0  0  0  0  0  0
   -1.8164   68.5968   67.3301 H   0  0  0  0  0  0
   -0.6049   69.7082   66.7586 H   0  0  0  0  0  0
    1.7011   69.5762   67.4769 H   0  0  0  0  0  0
    2.2558   68.4333   68.6275 H   0  0  0  0  0  0
   -1.8567   66.7886   68.1805 H   0  0  0  0  0  0
    0.5234   66.6046   63.7338 H   0  0  0  0  0  0
    2.1997   66.2792   64.3681 H   0  0  0  0  0  0
    0.7674   65.5486   65.1681 H   0  0  0  0  0  0
    4.3271   57.6305   69.5700 H   0  0  0  0  0  0
    3.5409   58.6484   68.3620 H   0  0  0  0  0  0
    2.7317   58.2784   69.8856 H   0  0  0  0  0  0
    3.5425   57.5599   74.0154 H   0  0  0  0  0  0
    3.3844   59.2333   74.5276 H   0  0  0  0  0  0
    2.0083   58.3801   73.7899 H   0  0  0  0  0  0
    1.8393   68.1338   62.0243 H   0  0  0  0  0  0
    3.9467   69.6698   65.4529 H   0  0  0  0  0  0
    6.0456   69.6550   64.1634 H   0  0  0  0  0  0
    3.9534   68.1305   60.7495 H   0  0  0  0  0  0
    6.0462   68.8747   61.8238 H   0  0  0  0  0  0
  1  2  1  0  0  0
  1  4  2  0  0  0
  1  7  1  0  0  0
  2  3  1  0  0  0
  3  8  2  0  0  0
  3  5  1  0  0  0
  4  5  1  0  0  0
  4 33  1  0  0  0
  5 11  2  0  0  0
  6 17  1  0  0  0
  6 16  1  0  0  0
  6 24  1  0  0  0
  6 18  1  0  0  0
  7  9  1  0  0  0
  7 14  2  0  0  0
  8 10  1  0  0  0
  8 34  1  0  0  0
  9 13  1  0  0  0
  9 35  1  0  0  0
  9 36  1  0  0  0
 10 21  1  0  0  0
 10 12  2  0  0  0
 11 12  1  0  0  0
 11 37  1  0  0  0
 12 22  1  0  0  0
 13 15  1  0  0  0
 13 23  1  0  0  0
 13 38  1  0  0  0
 15 19  1  0  0  0
 15 20  1  0  0  0
 15 39  1  0  0  0
 16 25  1  0  0  0
 16 40  1  0  0  0
 16 41  1  0  0  0
 17 19  1  0  0  0
 17 42  1  0  0  0
 17 43  1  0  0  0
 18 20  1  0  0  0
 18 44  1  0  0  0
 18 45  1  0  0  0
 19 46  1  0  0  0
 19 47  1  0  0  0
 20 48  1  0  0  0
 20 49  1  0  0  0
 21 27  1  0  0  0
 22 26  1  0  0  0
 23 50  1  0  0  0
 24 51  1  0  0  0
 24 52  1  0  0  0
 24 53  1  0  0  0
 25 28  1  0  0  0
 25 29  2  0  0  0
 26 54  1  0  0  0
 26 55  1  0  0  0
 26 56  1  0  0  0
 27 57  1  0  0  0
 27 58  1  0  0  0
 27 59  1  0  0  0
 28 31  2  0  0  0
 28 60  1  0  0  0
 29 30  1  0  0  0
 29 61  1  0  0  0
 30 32  2  0  0  0
 30 62  1  0  0  0
 31 32  1  0  0  0
 31 63  1  0  0  0
 32 64  1  0  0  0
M  CHG  1   6   1
M  END
> <s_m_entry_id>
8646

> <s_m_entry_name>
dock_pv.156

> <s_m_Source_Path>
/home/csk/Desktop/cluster/DUD-E-result/aces

> <s_m_Source_File>
dock_pv.maegz

> <i_m_Source_File_Index>
156

> <chembl_id>
CHEMBL315013

> <chembl_pref_name>
None

> <i_lp_mmshare_version>
53161

> <i_f3d_flags>
0

> <r_lp_tautomer_probability>
0.99990000499975

> <s_lp_Force_Field>
OPLS_2005

> <r_lp_Energy>
46.130265

> <b_lp_Chiralities_Consistent>
1

> <s_lp_Variant>
CHEMBL220_lig222-3

> <s_i_glide_gridfile>
glide-grid_1e66

> <i_i_glide_lignum>
249

> <i_i_glide_rotatable_bonds>
9

> <r_i_docking_score>
-7.53460451314047

> <r_i_glide_ligand_efficiency>
-0.23545639103564

> <r_i_glide_ligand_efficiency_sa>
-0.747527444781643

> <r_i_glide_ligand_efficiency_ln>
-1.68720333605415

> <r_i_glide_gscore>
-7.53460451314047

> <r_i_glide_lipo>
-3.33830924198454

> <r_i_glide_hbond>
-0.32

> <r_i_glide_metal>
0

> <r_i_glide_rewards>
-1.42955905376026

> <r_i_glide_evdw>
-31.4019088745117

> <r_i_glide_ecoul>
-9.73125171661377

> <r_i_glide_erotb>
0.583046983821975

> <r_i_glide_esite>
0

> <r_i_glide_emodel>
-47.1169277242986

> <r_i_glide_energy>
-41.1331605911255

> <r_i_glide_einternal>
13.3461742401123

> <i_i_glide_confnum>
3

> <i_i_glide_posenum>
3

> <r_i_glide_eff_state_penalty>
0

> <s_user_duplicate_titles>
CHEMBL220_lig222,138612

> <s_m_subgroup_title>
dock_pv

> <s_m_subgroupid>
dock_pv

> <b_m_subgroup_collapsed>
0

$$$$
CHEMBL220_lig423
                    3D
 Schrodinger Suite 2021-1.
 48 51  0  0  1  0            999 V2000
   -0.2247   68.9077   62.8432 N   0  0  0  0  0  0
    0.7431   69.3081   61.4855 S   0  0  0  0  0  0
    0.5098   68.4930   63.8421 C   0  0  0  0  0  0
    1.9238   68.5087   63.6516 C   0  0  0  0  0  0
    0.5464   65.9086   69.4035 N   0  0  2  0  0  0
    2.2282   68.9299   62.3329 C   0  0  0  0  0  0
   -0.2209   67.9597   65.0579 C   0  0  0  0  0  0
    0.7816   65.1167   70.6142 C   0  0  0  0  0  0
    1.2969   67.1576   69.3891 C   0  0  0  0  0  0
   -0.8715   66.1081   69.1085 C   0  0  0  0  0  0
   -0.3171   68.9016   66.2726 C   0  0  0  0  0  0
    1.9068   64.1117   70.4063 C   0  0  0  0  0  0
   -0.2597   68.1875   67.6400 C   0  0  0  0  0  0
   -1.1467   66.9201   67.8091 C   0  0  0  0  0  0
    1.1755   67.8169   68.0106 C   0  0  0  0  0  0
    2.9894   68.1708   64.5077 C   0  0  0  0  0  0
    3.5474   69.0023   61.8616 C   0  0  0  0  0  0
    1.5975   62.8028   70.0219 C   0  0  0  0  0  0
    3.2432   64.5074   70.5204 C   0  0  0  0  0  0
    4.3018   68.2610   64.0413 C   0  0  0  0  0  0
    4.5762   68.6662   62.7381 C   0  0  0  0  0  0
    4.2625   63.5824   70.3177 C   0  0  0  0  0  0
    2.6162   61.8757   69.8221 C   0  0  0  0  0  0
    3.9431   62.2668   69.9838 C   0  0  0  0  0  0
   -1.2490   67.7080   64.8012 H   0  0  0  0  0  0
    0.2540   67.0179   65.3306 H   0  0  0  0  0  0
    1.0010   65.7609   71.4674 H   0  0  0  0  0  0
   -0.1137   64.5498   70.8746 H   0  0  0  0  0  0
    0.9444   67.7873   70.2005 H   0  0  0  0  0  0
    2.3433   66.9600   69.5802 H   0  0  0  0  0  0
   -1.3781   66.5379   69.9674 H   0  0  0  0  0  0
   -1.2572   65.0990   68.9990 H   0  0  0  0  0  0
    0.5004   69.6213   66.2751 H   0  0  0  0  0  0
   -1.2283   69.4985   66.1970 H   0  0  0  0  0  0
   -0.5724   68.9270   68.3680 H   0  0  0  0  0  0
   -2.2015   67.1806   67.7144 H   0  0  0  0  0  0
   -0.9749   66.2207   66.9913 H   0  0  0  0  0  0
    1.5551   67.1381   67.2497 H   0  0  0  0  0  0
    1.8138   68.7008   67.9751 H   0  0  0  0  0  0
    2.8041   67.8512   65.5213 H   0  0  0  0  0  0
    3.7714   69.3128   60.8515 H   0  0  0  0  0  0
    0.5680   62.5001   69.8892 H   0  0  0  0  0  0
    3.4965   65.5242   70.7800 H   0  0  0  0  0  0
    5.1196   68.0163   64.7031 H   0  0  0  0  0  0
    5.6014   68.7259   62.3993 H   0  0  0  0  0  0
    5.2927   63.8894   70.4219 H   0  0  0  0  0  0
    2.3754   60.8587   69.5487 H   0  0  0  0  0  0
    4.7308   61.5425   69.8452 H   0  0  0  0  0  0
  1  2  1  0  0  0
  1  3  2  0  0  0
  2  6  1  0  0  0
  3  4  1  0  0  0
  3  7  1  0  0  0
  4 16  1  0  0  0
  4  6  2  0  0  0
  5  9  1  0  0  0
  5  8  1  0  0  0
  5 10  1  0  0  0
  6 17  1  0  0  0
  7 11  1  0  0  0
  7 25  1  0  0  0
  7 26  1  0  0  0
  8 12  1  0  0  0
  8 27  1  0  0  0
  8 28  1  0  0  0
  9 15  1  0  0  0
  9 29  1  0  0  0
  9 30  1  0  0  0
 10 14  1  0  0  0
 10 31  1  0  0  0
 10 32  1  0  0  0
 11 13  1  0  0  0
 11 33  1  0  0  0
 11 34  1  0  0  0
 12 18  2  0  0  0
 12 19  1  0  0  0
 13 14  1  0  0  0
 13 15  1  0  0  0
 13 35  1  0  0  0
 14 36  1  0  0  0
 14 37  1  0  0  0
 15 38  1  0  0  0
 15 39  1  0  0  0
 16 20  2  0  0  0
 16 40  1  0  0  0
 17 21  2  0  0  0
 17 41  1  0  0  0
 18 23  1  0  0  0
 18 42  1  0  0  0
 19 22  2  0  0  0
 19 43  1  0  0  0
 20 21  1  0  0  0
 20 44  1  0  0  0
 21 45  1  0  0  0
 22 24  1  0  0  0
 22 46  1  0  0  0
 23 24  2  0  0  0
 23 47  1  0  0  0
 24 48  1  0  0  0
M  END
> <s_m_entry_id>
8647

> <s_m_entry_name>
dock_pv.157

> <s_m_Source_Path>
/home/csk/Desktop/cluster/DUD-E-result/aces

> <s_m_Source_File>
dock_pv.maegz

> <i_m_Source_File_Index>
157

> <chembl_id>
CHEMBL328102

> <chembl_pref_name>
None

> <i_lp_mmshare_version>
53161

> <i_f3d_flags>
0

> <r_lp_tautomer_probability>
1

> <s_lp_Force_Field>
OPLS_2005

> <r_lp_Energy>
22.737548

> <b_lp_Chiralities_Consistent>
1

> <s_lp_Variant>
CHEMBL220_lig423-1

> <s_i_glide_gridfile>
glide-grid_1e66

> <i_i_glide_lignum>
483

> <i_i_glide_rotatable_bonds>
5

> <r_i_docking_score>
-7.53381519124472

> <r_i_glide_ligand_efficiency>
-0.313908966301863

> <r_i_glide_ligand_efficiency_sa>
-0.905470142569799

> <r_i_glide_ligand_efficiency_ln>
-1.8031876795176

> <r_i_glide_gscore>
-7.53381519124472

> <r_i_glide_lipo>
-4.43426582102832

> <r_i_glide_hbond>
0

> <r_i_glide_metal>
0

> <r_i_glide_rewards>
-1.95002419087925

> <r_i_glide_evdw>
-42.2751998901367

> <r_i_glide_ecoul>
0.868066608905792

> <r_i_glide_erotb>
0.834024823833823

> <r_i_glide_esite>
0

> <r_i_glide_emodel>
-55.7858367853744

> <r_i_glide_energy>
-41.4071332812309

> <r_i_glide_einternal>
8.18820381164551

> <i_i_glide_confnum>
123

> <i_i_glide_posenum>
1

> <r_i_glide_eff_state_penalty>
0

> <s_user_duplicate_titles>
CHEMBL220_lig423,150176

> <s_m_subgroup_title>
dock_pv

> <s_m_subgroupid>
dock_pv

> <b_m_subgroup_collapsed>
0

$$$$
CHEMBL220_lig386
                    3D
 Schrodinger Suite 2021-1.
 38 40  0  0  1  0            999 V2000
    0.9541   68.7403   63.3915 C   0  0  0  0  0  0
   -0.3249   68.8051   63.8466 C   0  0  0  0  0  0
    3.4028   69.0947   63.9466 N   0  0  2  0  0  0
    1.2317   69.0689   61.9755 C   0  0  0  0  0  0
    2.1704   68.3514   64.2315 C   0  0  0  0  0  0
   -0.8750   68.5080   65.1676 C   0  0  0  0  0  0
   -2.3344   68.4315   66.9052 N   0  0  0  0  0  0
    2.6949   69.3082   61.5679 C   0  0  0  0  0  0
   -2.1223   68.9080   65.6409 C   0  0  0  0  0  0
   -1.2531   67.6801   67.2659 C   0  0  0  0  0  0
   -0.3583   67.7075   66.2095 C   0  0  0  0  0  0
    0.3431   69.2375   61.1419 O   0  0  0  0  0  0
    3.7743   68.8268   62.5560 C   0  0  0  0  0  0
    4.5045   68.7573   64.8597 C   0  0  0  0  0  0
    4.5997   69.6117   66.1312 C   0  0  0  0  0  0
    5.8362   70.1851   66.4566 C   0  0  0  0  0  0
    3.5423   69.7080   67.0507 C   0  0  0  0  0  0
    3.7145   70.3757   68.2611 C   0  0  0  0  0  0
    6.0156   70.8335   67.6767 C   0  0  0  0  0  0
    4.9584   70.9080   68.5772 C   0  0  0  0  0  0
   -1.1050   69.1307   63.1700 H   0  0  0  0  0  0
    1.9103   68.4445   65.2713 H   0  0  0  0  0  0
    2.3508   67.2877   64.0650 H   0  0  0  0  0  0
   -3.1579   68.5983   67.4675 H   0  0  0  0  0  0
    2.7946   70.3905   61.5154 H   0  0  0  0  0  0
    2.8686   68.9356   60.5588 H   0  0  0  0  0  0
   -2.8813   69.5122   65.1682 H   0  0  0  0  0  0
   -1.2189   67.1844   68.2253 H   0  0  0  0  0  0
    0.5702   67.1589   66.1965 H   0  0  0  0  0  0
    4.0037   67.7693   62.4091 H   0  0  0  0  0  0
    4.7006   69.3498   62.3102 H   0  0  0  0  0  0
    5.4511   68.8868   64.3311 H   0  0  0  0  0  0
    4.4864   67.7031   65.1386 H   0  0  0  0  0  0
    6.6750   70.1026   65.7796 H   0  0  0  0  0  0
    2.5816   69.2599   66.8868 H   0  0  0  0  0  0
    2.9043   70.4220   68.9753 H   0  0  0  0  0  0
    6.9804   71.2374   67.9453 H   0  0  0  0  0  0
    5.1149   71.3080   69.5622 H   0  0  0  0  0  0
  1  2  2  0  0  0
  1  4  1  0  0  0
  1  5  1  0  0  0
  2  6  1  0  0  0
  2 21  1  0  0  0
  3  5  1  0  0  0
  3 13  1  0  0  0
  3 14  1  0  0  0
  4  8  1  0  0  0
  4 12  2  0  0  0
  5 22  1  0  0  0
  5 23  1  0  0  0
  6  9  2  0  0  0
  6 11  1  0  0  0
  7  9  1  0  0  0
  7 10  1  0  0  0
  7 24  1  0  0  0
  8 13  1  0  0  0
  8 25  1  0  0  0
  8 26  1  0  0  0
  9 27  1  0  0  0
 10 11  2  0  0  0
 10 28  1  0  0  0
 11 29  1  0  0  0
 13 30  1  0  0  0
 13 31  1  0  0  0
 14 15  1  0  0  0
 14 32  1  0  0  0
 14 33  1  0  0  0
 15 16  2  0  0  0
 15 17  1  0  0  0
 16 19  1  0  0  0
 16 34  1  0  0  0
 17 18  2  0  0  0
 17 35  1  0  0  0
 18 20  1  0  0  0
 18 36  1  0  0  0
 19 20  2  0  0  0
 19 37  1  0  0  0
 20 38  1  0  0  0
M  END
> <s_m_entry_id>
8648

> <s_m_entry_name>
dock_pv.158

> <s_m_Source_Path>
/home/csk/Desktop/cluster/DUD-E-result/aces

> <s_m_Source_File>
dock_pv.maegz

> <i_m_Source_File_Index>
158

> <chembl_id>
CHEMBL341251

> <chembl_pref_name>
None

> <i_lp_mmshare_version>
53161

> <i_f3d_flags>
0

> <r_lp_tautomer_probability>
1

> <s_lp_Force_Field>
OPLS_2005

> <r_lp_Energy>
14.482127

> <b_lp_Chiralities_Consistent>
1

> <s_lp_Variant>
CHEMBL220_lig386-1

> <s_i_glide_gridfile>
glide-grid_1e66

> <i_i_glide_lignum>
445

> <i_i_glide_rotatable_bonds>
3

> <r_i_docking_score>
-7.52547936279529

> <r_i_glide_ligand_efficiency>
-0.376273968139765

> <r_i_glide_ligand_efficiency_sa>
-1.02136468676474

> <r_i_glide_ligand_efficiency_ln>
-1.88337927758653

> <r_i_glide_gscore>
-7.52547936279529

> <r_i_glide_lipo>
-3.66204795402624

> <r_i_glide_hbond>
0

> <r_i_glide_metal>
0

> <r_i_glide_rewards>
-2.62648592424242

> <r_i_glide_evdw>
-38.1243209838867

> <r_i_glide_ecoul>
1.11376261711121

> <r_i_glide_erotb>
0.502206172101021

> <r_i_glide_esite>
0

> <r_i_glide_emodel>
-50.959436570009

> <r_i_glide_energy>
-37.0105583667755

> <r_i_glide_einternal>
4.54405736923218

> <i_i_glide_confnum>
5

> <i_i_glide_posenum>
391

> <r_i_glide_eff_state_penalty>
0

> <s_user_duplicate_titles>
CHEMBL220_lig386

> <s_m_subgroup_title>
dock_pv

> <s_m_subgroupid>
dock_pv

> <b_m_subgroup_collapsed>
0

$$$$
CHEMBL220_lig298
                    3D
 Schrodinger Suite 2021-1.
 32 34  0  0  1  0            999 V2000
    2.4850   69.5880   67.4793 C   0  0  0  0  0  0
    2.1603   68.4630   64.9300 N   0  0  0  0  0  0
    3.5899   69.6108   66.5468 C   0  0  0  0  0  0
    1.2659   68.9803   67.1165 C   0  0  0  0  0  0
    3.3390   69.0323   65.2613 C   0  0  0  0  0  0
    1.1672   68.4009   65.8396 C   0  0  0  0  0  0
    4.9147   70.1476   66.7759 C   0  0  0  0  0  0
    2.5643   70.1433   68.7639 N   0  0  0  0  0  0
    0.0483   68.9911   68.0580 C   0  0  0  0  0  0
    4.3325   69.0242   64.2601 C   0  0  0  0  0  0
   -0.1090   67.7138   65.3820 C   0  0  0  0  0  0
    5.5804   69.5610   64.5179 C   0  0  0  0  0  0
    5.8710   70.1026   65.7603 C   0  0  0  0  0  0
    5.3184   70.8144   68.0876 C   0  0  0  0  0  0
   -1.2340   68.3168   67.5150 C   0  0  0  0  0  0
   -1.3473   68.3793   65.9901 C   0  0  0  0  0  0
    1.7623   70.0850   69.3871 H   0  0  0  0  0  0
    3.4394   70.5290   69.0813 H   0  0  0  0  0  0
    0.3414   68.5106   68.9938 H   0  0  0  0  0  0
   -0.1840   70.0295   68.3030 H   0  0  0  0  0  0
    4.1162   68.5952   63.2924 H   0  0  0  0  0  0
   -0.1825   67.7092   64.2925 H   0  0  0  0  0  0
   -0.0575   66.6686   65.6901 H   0  0  0  0  0  0
    6.3425   69.5549   63.7505 H   0  0  0  0  0  0
    6.8592   70.5085   65.9228 H   0  0  0  0  0  0
    4.7049   71.6957   68.2766 H   0  0  0  0  0  0
    6.3570   71.1471   68.0737 H   0  0  0  0  0  0
    5.2208   70.1239   68.9235 H   0  0  0  0  0  0
   -1.2471   67.2711   67.8275 H   0  0  0  0  0  0
   -2.1173   68.7711   67.9664 H   0  0  0  0  0  0
   -2.2515   67.8652   65.6604 H   0  0  0  0  0  0
   -1.4339   69.4140   65.6529 H   0  0  0  0  0  0
  1  3  1  0  0  0
  1  4  2  0  0  0
  1  8  1  0  0  0
  2  6  2  0  0  0
  2  5  1  0  0  0
  3  5  1  0  0  0
  3  7  2  0  0  0
  4  6  1  0  0  0
  4  9  1  0  0  0
  5 10  2  0  0  0
  6 11  1  0  0  0
  7 13  1  0  0  0
  7 14  1  0  0  0
  8 17  1  0  0  0
  8 18  1  0  0  0
  9 15  1  0  0  0
  9 19  1  0  0  0
  9 20  1  0  0  0
 10 12  1  0  0  0
 10 21  1  0  0  0
 11 16  1  0  0  0
 11 22  1  0  0  0
 11 23  1  0  0  0
 12 13  2  0  0  0
 12 24  1  0  0  0
 13 25  1  0  0  0
 14 26  1  0  0  0
 14 27  1  0  0  0
 14 28  1  0  0  0
 15 16  1  0  0  0
 15 29  1  0  0  0
 15 30  1  0  0  0
 16 31  1  0  0  0
 16 32  1  0  0  0
M  END
> <s_m_entry_id>
8649

> <s_m_entry_name>
dock_pv.159

> <s_m_Source_Path>
/home/csk/Desktop/cluster/DUD-E-result/aces

> <s_m_Source_File>
dock_pv.maegz

> <i_m_Source_File_Index>
159

> <chembl_id>
CHEMBL133906

> <chembl_pref_name>
None

> <i_lp_mmshare_version>
53161

> <i_f3d_flags>
0

> <r_lp_tautomer_probability>
1

> <s_lp_Force_Field>
OPLS_2005

> <r_lp_Energy>
22.961723

> <b_lp_Chiralities_Consistent>
1

> <s_lp_Variant>
CHEMBL220_lig298-1

> <s_i_glide_gridfile>
glide-grid_1e66

> <i_i_glide_lignum>
352

> <i_i_glide_rotatable_bonds>
0

> <r_i_docking_score>
-7.51797165673148

> <r_i_glide_ligand_efficiency>
-0.469873228545718

> <r_i_glide_ligand_efficiency_sa>
-1.18400634175937

> <r_i_glide_ligand_efficiency_ln>
-1.99278856250943

> <r_i_glide_gscore>
-7.51797165673148

> <r_i_glide_lipo>
-2.8845836829537

> <r_i_glide_hbond>
-0.133454363442639

> <r_i_glide_metal>
0

> <r_i_glide_rewards>
-2.64499078787879

> <r_i_glide_evdw>
-27.6338043212891

> <r_i_glide_ecoul>
-3.15501737594604

> <r_i_glide_erotb>
0

> <r_i_glide_esite>
0

> <r_i_glide_emodel>
-44.7185889627806

> <r_i_glide_energy>
-30.7888216972351

> <r_i_glide_einternal>
0

> <i_i_glide_confnum>
1

> <i_i_glide_posenum>
93

> <r_i_glide_eff_state_penalty>
0

> <s_user_duplicate_titles>
CHEMBL220_lig298,219397

> <s_m_subgroup_title>
dock_pv

> <s_m_subgroupid>
dock_pv

> <b_m_subgroup_collapsed>
0

$$$$
CHEMBL220_lig664
                    3D
 Schrodinger Suite 2021-1.
 37 40  0  0  1  0            999 V2000
    2.7704   69.7080   67.3051 N   0  0  0  0  0  0
    2.8519   68.5116   65.1952 C   0  0  0  0  0  0
    4.1686   68.9343   64.9889 C   0  0  0  0  0  0
    2.1771   68.9275   66.3658 C   0  0  0  0  0  0
    4.0812   70.0345   67.1681 C   0  0  0  0  0  0
    4.8231   69.6510   66.0154 C   0  0  0  0  0  0
    2.1697   67.5693   64.2096 C   0  0  2  0  0  0
    0.1639   68.8871   63.3469 C   0  0  0  0  0  0
    0.0983   67.6127   65.5568 C   0  0  2  0  0  0
   -0.4966   68.5080   64.4660 C   0  0  0  0  0  0
    4.7423   70.7063   68.2279 C   0  0  0  0  0  0
    6.1985   69.9318   65.9680 C   0  0  0  0  0  0
    0.7444   68.4703   66.6758 C   0  0  0  0  0  0
    1.5506   68.3455   63.0163 C   0  0  0  0  0  0
    1.1511   66.6795   64.9264 C   0  0  0  0  0  0
    4.8371   68.5988   63.8001 N   0  0  0  0  0  0
    6.1182   70.9081   68.1566 C   0  0  0  0  0  0
    6.8383   70.5080   67.0469 C   0  0  0  0  0  0
    6.7856   71.4850   69.1681 F   0  0  0  0  0  0
   -0.4570   69.7896   62.3005 C   0  0  0  0  0  0
    2.9449   66.9080   63.8224 H   0  0  0  0  0  0
   -0.7113   67.0082   65.9684 H   0  0  0  0  0  0
   -1.4884   68.9079   64.6244 H   0  0  0  0  0  0
    4.1871   70.9973   69.1074 H   0  0  0  0  0  0
    6.7430   69.6261   65.0994 H   0  0  0  0  0  0
    0.1161   69.3285   66.9199 H   0  0  0  0  0  0
    0.7880   67.8689   67.5851 H   0  0  0  0  0  0
    1.4141   67.7080   62.1472 H   0  0  0  0  0  0
    2.1969   69.1536   62.6698 H   0  0  0  0  0  0
    1.6482   66.1080   65.7115 H   0  0  0  0  0  0
    0.7430   65.9330   64.2598 H   0  0  0  0  0  0
    5.7199   69.0533   63.6126 H   0  0  0  0  0  0
    4.2882   68.2492   63.0296 H   0  0  0  0  0  0
    7.9036   70.6658   67.0144 H   0  0  0  0  0  0
   -0.1710   69.4688   61.2987 H   0  0  0  0  0  0
   -0.0951   70.8091   62.4344 H   0  0  0  0  0  0
   -1.5450   69.8025   62.3680 H   0  0  0  0  0  0
  1  4  1  0  0  0
  1  5  2  0  0  0
  2  4  2  0  0  0
  2  7  1  0  0  0
  2  3  1  0  0  0
  3  6  2  0  0  0
  3 16  1  0  0  0
  4 13  1  0  0  0
  5  6  1  0  0  0
  5 11  1  0  0  0
  6 12  1  0  0  0
  7 14  1  0  0  0
  7 15  1  0  0  0
  7 21  1  0  0  0
  8 10  2  0  0  0
  8 20  1  0  0  0
  8 14  1  0  0  0
  9 13  1  0  0  0
  9 10  1  0  0  0
  9 15  1  0  0  0
  9 22  1  0  0  0
 10 23  1  0  0  0
 11 17  2  0  0  0
 11 24  1  0  0  0
 12 18  2  0  0  0
 12 25  1  0  0  0
 13 26  1  0  0  0
 13 27  1  0  0  0
 14 28  1  0  0  0
 14 29  1  0  0  0
 15 30  1  0  0  0
 15 31  1  0  0  0
 16 32  1  0  0  0
 16 33  1  0  0  0
 17 18  1  0  0  0
 17 19  1  0  0  0
 18 34  1  0  0  0
 20 35  1  0  0  0
 20 36  1  0  0  0
 20 37  1  0  0  0
M  END
> <s_m_entry_id>
8650

> <s_m_entry_name>
dock_pv.160

> <s_m_Source_Path>
/home/csk/Desktop/cluster/DUD-E-result/aces

> <s_m_Source_File>
dock_pv.maegz

> <i_m_Source_File_Index>
160

> <chembl_id>
CHEMBL4524111

> <chembl_pref_name>
None

> <i_lp_mmshare_version>
53161

> <i_f3d_flags>
0

> <r_lp_tautomer_probability>
1

> <s_lp_Force_Field>
OPLS_2005

> <r_lp_Energy>
24.26642

> <b_lp_Chiralities_Consistent>
1

> <s_lp_Variant>
CHEMBL220_lig664-1

> <s_i_glide_gridfile>
glide-grid_1e66

> <i_i_glide_lignum>
781

> <i_i_glide_rotatable_bonds>
0

> <r_i_docking_score>
-7.5179365116089

> <r_i_glide_ligand_efficiency>
-0.375896825580445

> <r_i_glide_ligand_efficiency_sa>
-1.02034096435877

> <r_i_glide_ligand_efficiency_ln>
-1.88149155071446

> <r_i_glide_gscore>
-7.5179365116089

> <r_i_glide_lipo>
-3.21252203773811

> <r_i_glide_hbond>
0

> <r_i_glide_metal>
0

> <r_i_glide_rewards>
-2.79514113054613

> <r_i_glide_evdw>
-28.816743850708

> <r_i_glide_ecoul>
-0.462907671928406

> <r_i_glide_erotb>
0

> <r_i_glide_esite>
0

> <r_i_glide_emodel>
-34.9344042784839

> <r_i_glide_energy>
-29.2796515226364

> <r_i_glide_einternal>
0

> <i_i_glide_confnum>
1

> <i_i_glide_posenum>
118

> <r_i_glide_eff_state_penalty>
0

> <s_user_duplicate_titles>
CHEMBL220_lig664,180318

> <s_m_subgroup_title>
dock_pv

> <s_m_subgroupid>
dock_pv

> <b_m_subgroup_collapsed>
0

$$$$
CHEMBL220_lig688
                    3D
 Schrodinger Suite 2021-1.
 57 58  0  0  1  0            999 V2000
    3.4786   68.8537   64.7602 C   0  0  0  0  0  0
    1.2105   68.4221   63.9074 C   0  0  0  0  0  0
    0.3558   68.3776   62.6846 N   0  3  0  0  0  0
    4.9375   68.9684   64.4487 N   0  3  0  0  0  0
    2.5984   68.5122   63.7272 C   0  0  0  0  0  0
    2.9262   69.1157   66.0302 C   0  0  0  0  0  0
    0.6939   68.5081   65.2221 C   0  0  0  0  0  0
    1.5721   68.8473   66.2628 C   0  0  0  0  0  0
    1.0388   63.4699   70.6414 C   0  0  0  0  0  0
    0.1472   64.4254   70.2671 O   0  0  0  0  0  0
    0.8252   65.5924   70.0986 C   0  0  0  0  0  0
    2.3027   64.0301   70.7164 C   0  0  0  0  0  0
    0.9001   68.5081   61.5916 O   0  5  0  0  0  0
    5.7387   69.2729   65.3264 O   0  5  0  0  0  0
    2.1654   65.3729   70.3680 C   0  0  0  0  0  0
   -0.8570   68.2582   62.7779 O   0  0  0  0  0  0
    5.3065   68.7194   63.3043 O   0  0  0  0  0  0
    0.4827   62.0856   70.8988 C   0  0  0  0  0  0
   -0.7001   68.5079   65.4416 N   0  0  0  0  0  0
    3.7188   69.7080   67.0273 N   0  0  0  0  0  0
    0.2804   61.8089   72.3237 N   0  0  0  0  0  0
   -0.5072   66.5080   67.9261 S   0  0  0  0  0  0
    0.0189   66.7832   69.6319 C   0  0  0  0  0  0
   -1.3865   68.8623   66.6896 C   0  0  0  0  0  0
    3.2502   70.1908   68.3182 C   0  0  0  0  0  0
   -1.8493   67.6429   67.4949 C   0  0  0  0  0  0
   -0.8571   62.5567   72.8575 C   0  0  0  0  0  0
    0.0446   60.3810   72.5237 C   0  0  0  0  0  0
    4.3842   70.8489   69.1382 C   0  0  0  0  0  0
    5.2828   71.8361   68.3680 C   0  0  0  0  0  0
    3.0004   68.3952   62.7295 H   0  0  0  0  0  0
    1.1864   69.0000   67.2564 H   0  0  0  0  0  0
    3.2125   63.5254   71.0049 H   0  0  0  0  0  0
    2.9533   66.1080   70.3604 H   0  0  0  0  0  0
   -0.4572   61.9518   70.3681 H   0  0  0  0  0  0
    1.1749   61.3523   70.4819 H   0  0  0  0  0  0
   -1.2742   68.2090   64.6616 H   0  0  0  0  0  0
    4.6839   69.8961   66.7849 H   0  0  0  0  0  0
    0.5893   67.7086   69.6943 H   0  0  0  0  0  0
   -0.8570   66.9056   70.2658 H   0  0  0  0  0  0
   -0.7952   69.5327   67.3120 H   0  0  0  0  0  0
   -2.2599   69.4565   66.4169 H   0  0  0  0  0  0
    2.7924   69.3701   68.8731 H   0  0  0  0  0  0
    2.4549   70.9080   68.1239 H   0  0  0  0  0  0
   -2.4278   67.9370   68.3680 H   0  0  0  0  0  0
   -2.5523   67.0702   66.8882 H   0  0  0  0  0  0
   -0.9936   62.3506   73.9199 H   0  0  0  0  0  0
   -0.6972   63.6307   72.7577 H   0  0  0  0  0  0
   -1.7857   62.3039   72.3420 H   0  0  0  0  0  0
   -0.0821   60.1541   73.5834 H   0  0  0  0  0  0
   -0.8488   60.0414   71.9955 H   0  0  0  0  0  0
    0.8922   59.7936   72.1677 H   0  0  0  0  0  0
    5.0597   70.1080   69.5420 H   0  0  0  0  0  0
    3.9425   71.3080   70.0201 H   0  0  0  0  0  0
    6.1643   72.1079   68.9474 H   0  0  0  0  0  0
    4.7462   72.7435   68.1141 H   0  0  0  0  0  0
    5.6642   71.4089   67.4407 H   0  0  0  0  0  0
  1  4  1  0  0  0
  1  5  1  0  0  0
  1  6  2  0  0  0
  2  5  2  0  0  0
  2  3  1  0  0  0
  2  7  1  0  0  0
  3 13  1  0  0  0
  3 16  2  0  0  0
  4 14  1  0  0  0
  4 17  2  0  0  0
  5 31  1  0  0  0
  6  8  1  0  0  0
  6 20  1  0  0  0
  7  8  2  0  0  0
  7 19  1  0  0  0
  8 32  1  0  0  0
  9 10  1  0  0  0
  9 18  1  0  0  0
  9 12  2  0  0  0
 10 11  1  0  0  0
 11 23  1  0  0  0
 11 15  2  0  0  0
 12 15  1  0  0  0
 12 33  1  0  0  0
 15 34  1  0  0  0
 18 21  1  0  0  0
 18 35  1  0  0  0
 18 36  1  0  0  0
 19 24  1  0  0  0
 19 37  1  0  0  0
 20 25  1  0  0  0
 20 38  1  0  0  0
 21 27  1  0  0  0
 21 28  1  0  0  0
 22 26  1  0  0  0
 22 23  1  0  0  0
 23 39  1  0  0  0
 23 40  1  0  0  0
 24 26  1  0  0  0
 24 41  1  0  0  0
 24 42  1  0  0  0
 25 29  1  0  0  0
 25 43  1  0  0  0
 25 44  1  0  0  0
 26 45  1  0  0  0
 26 46  1  0  0  0
 27 47  1  0  0  0
 27 48  1  0  0  0
 27 49  1  0  0  0
 28 50  1  0  0  0
 28 51  1  0  0  0
 28 52  1  0  0  0
 29 30  1  0  0  0
 29 53  1  0  0  0
 29 54  1  0  0  0
 30 55  1  0  0  0
 30 56  1  0  0  0
 30 57  1  0  0  0
M  CHG  4   3   1   4   1  13  -1  14  -1
M  END
> <s_m_entry_id>
8651

> <s_m_entry_name>
dock_pv.161

> <s_m_Source_Path>
/home/csk/Desktop/cluster/DUD-E-result/aces

> <s_m_Source_File>
dock_pv.maegz

> <i_m_Source_File_Index>
161

> <chembl_id>
CHEMBL106782

> <chembl_pref_name>
None

> <i_lp_mmshare_version>
53161

> <i_f3d_flags>
0

> <r_lp_tautomer_probability>
1

> <s_lp_Force_Field>
OPLS_2005

> <r_lp_Energy>
26.564215

> <b_lp_Chiralities_Consistent>
1

> <s_lp_Variant>
CHEMBL220_lig688-1

> <s_i_glide_gridfile>
glide-grid_1e66

> <i_i_glide_lignum>
813

> <i_i_glide_rotatable_bonds>
13

> <r_i_docking_score>
-7.51773181668717

> <r_i_glide_ligand_efficiency>
-0.250591060556239

> <r_i_glide_ligand_efficiency_sa>
-0.778644688179023

> <r_i_glide_ligand_efficiency_ln>
-1.70811058100013

> <r_i_glide_gscore>
-7.51773181668717

> <r_i_glide_lipo>
-4.39478892068749

> <r_i_glide_hbond>
0

> <r_i_glide_metal>
0

> <r_i_glide_rewards>
-1.82428313006023

> <r_i_glide_evdw>
-48.3890953063965

> <r_i_glide_ecoul>
1.22117137908936

> <r_i_glide_erotb>
0.937619292516962

> <r_i_glide_esite>
0

> <r_i_glide_emodel>
-52.5421779925076

> <r_i_glide_energy>
-47.1679239273071

> <r_i_glide_einternal>
12.138334274292

> <i_i_glide_confnum>
143

> <i_i_glide_posenum>
203

> <r_i_glide_eff_state_penalty>
0

> <s_user_duplicate_titles>
CHEMBL220_lig688,174199

> <s_m_subgroup_title>
dock_pv

> <s_m_subgroupid>
dock_pv

> <b_m_subgroup_collapsed>
0

$$$$
CHEMBL220_lig495
                    3D
 Schrodinger Suite 2021-1.
 50 52  0  0  1  0            999 V2000
    5.8273   70.9080   67.8799 C   0  0  0  0  0  0
    4.5320   70.7986   68.3755 C   0  0  0  0  0  0
    5.1973   69.7077   65.8790 C   0  0  0  0  0  0
    6.1554   70.3714   66.6400 C   0  0  0  0  0  0
    3.8674   69.5553   66.3654 C   0  0  0  0  0  0
    3.5431   70.1080   67.6359 C   0  0  0  0  0  0
    2.2995   70.0059   68.1638 N   0  0  0  0  0  0
    2.8297   68.8646   65.6708 C   0  0  0  0  0  0
    3.0322   68.2896   64.4162 N   0  0  0  0  0  0
    1.5522   68.7281   66.2399 C   0  0  0  0  0  0
    1.3371   69.3218   67.4957 C   0  0  0  0  0  0
   -0.0404   69.2931   68.1337 C   0  0  0  0  0  0
   -1.1731   69.2054   67.1051 C   0  0  0  0  0  0
   -0.9416   67.9702   66.2342 C   0  0  0  0  0  0
    0.3915   68.0561   65.4685 C   0  0  0  0  0  0
    2.9971   69.2244   63.3071 C   0  0  0  0  0  0
    3.0593   68.4980   61.9601 C   0  0  0  0  0  0
    4.4400   67.9354   61.5763 C   0  0  0  0  0  0
    5.1438   66.9270   62.5091 C   0  0  0  0  0  0
    4.3375   65.6701   62.8685 C   0  0  0  0  0  0
    5.0900   64.6331   63.7088 C   0  0  0  0  0  0
    4.2061   63.4437   64.0888 C   0  0  0  0  0  0
    6.7717   71.5386   68.6116 F   0  0  0  0  0  0
    4.2774   71.2184   69.3370 H   0  0  0  0  0  0
    5.4735   69.2953   64.9197 H   0  0  0  0  0  0
    7.1629   70.4693   66.2616 H   0  0  0  0  0  0
    2.3533   67.5604   64.2580 H   0  0  0  0  0  0
   -0.1873   70.1683   68.7679 H   0  0  0  0  0  0
   -0.0564   68.4104   68.7683 H   0  0  0  0  0  0
   -1.2148   70.1069   66.4926 H   0  0  0  0  0  0
   -2.1366   69.1371   67.6118 H   0  0  0  0  0  0
   -1.7673   67.8383   65.5334 H   0  0  0  0  0  0
   -0.9418   67.0780   66.8622 H   0  0  0  0  0  0
    0.2173   68.6299   64.5575 H   0  0  0  0  0  0
    0.6789   67.0539   65.1469 H   0  0  0  0  0  0
    3.8189   69.9363   63.4045 H   0  0  0  0  0  0
    2.0962   69.8387   63.3634 H   0  0  0  0  0  0
    2.7533   69.1992   61.1826 H   0  0  0  0  0  0
    2.3102   67.7081   61.9360 H   0  0  0  0  0  0
    5.1179   68.7864   61.4759 H   0  0  0  0  0  0
    4.3428   67.4805   60.5920 H   0  0  0  0  0  0
    5.4582   67.4339   63.4215 H   0  0  0  0  0  0
    6.0611   66.6294   62.0030 H   0  0  0  0  0  0
    3.9429   65.2061   61.9679 H   0  0  0  0  0  0
    3.4889   65.9757   63.4662 H   0  0  0  0  0  0
    5.4826   65.0980   64.6129 H   0  0  0  0  0  0
    5.9441   64.2476   63.1679 H   0  0  0  0  0  0
    4.7391   62.7855   64.7681 H   0  0  0  0  0  0
    3.9429   62.8602   63.2078 H   0  0  0  0  0  0
    3.2857   63.7602   64.5829 H   0  0  0  0  0  0
  1  2  2  0  0  0
  1  4  1  0  0  0
  1 23  1  0  0  0
  2  6  1  0  0  0
  2 24  1  0  0  0
  3  5  1  0  0  0
  3  4  2  0  0  0
  3 25  1  0  0  0
  4 26  1  0  0  0
  5  6  1  0  0  0
  5  8  2  0  0  0
  6  7  2  0  0  0
  7 11  1  0  0  0
  8 10  1  0  0  0
  8  9  1  0  0  0
  9 16  1  0  0  0
  9 27  1  0  0  0
 10 15  1  0  0  0
 10 11  2  0  0  0
 11 12  1  0  0  0
 12 13  1  0  0  0
 12 28  1  0  0  0
 12 29  1  0  0  0
 13 14  1  0  0  0
 13 30  1  0  0  0
 13 31  1  0  0  0
 14 15  1  0  0  0
 14 32  1  0  0  0
 14 33  1  0  0  0
 15 34  1  0  0  0
 15 35  1  0  0  0
 16 17  1  0  0  0
 16 36  1  0  0  0
 16 37  1  0  0  0
 17 18  1  0  0  0
 17 38  1  0  0  0
 17 39  1  0  0  0
 18 19  1  0  0  0
 18 40  1  0  0  0
 18 41  1  0  0  0
 19 20  1  0  0  0
 19 42  1  0  0  0
 19 43  1  0  0  0
 20 21  1  0  0  0
 20 44  1  0  0  0
 20 45  1  0  0  0
 21 22  1  0  0  0
 21 46  1  0  0  0
 21 47  1  0  0  0
 22 48  1  0  0  0
 22 49  1  0  0  0
 22 50  1  0  0  0
M  END
> <s_m_entry_id>
8652

> <s_m_entry_name>
dock_pv.162

> <s_m_Source_Path>
/home/csk/Desktop/cluster/DUD-E-result/aces

> <s_m_Source_File>
dock_pv.maegz

> <i_m_Source_File_Index>
162

> <chembl_id>
CHEMBL61561

> <chembl_pref_name>
None

> <i_lp_mmshare_version>
53161

> <i_f3d_flags>
0

> <r_lp_tautomer_probability>
1

> <s_lp_Force_Field>
OPLS_2005

> <r_lp_Energy>
24.141326

> <b_lp_Chiralities_Consistent>
1

> <s_lp_Variant>
CHEMBL220_lig495-1

> <s_i_glide_gridfile>
glide-grid_1e66

> <i_i_glide_lignum>
573

> <i_i_glide_rotatable_bonds>
7

> <r_i_docking_score>
-7.51448067064434

> <r_i_glide_ligand_efficiency>
-0.32671655089758

> <r_i_glide_ligand_efficiency_sa>
-0.929138409897518

> <r_i_glide_ligand_efficiency_ln>
-1.81706956370534

> <r_i_glide_gscore>
-7.51448067064434

> <r_i_glide_lipo>
-3.87209772704504

> <r_i_glide_hbond>
0

> <r_i_glide_metal>
0

> <r_i_glide_rewards>
-2.46418603772651

> <r_i_glide_evdw>
-39.7335319519043

> <r_i_glide_ecoul>
-0.876922369003296

> <r_i_glide_erotb>
0.94001804707292

> <r_i_glide_esite>
0

> <r_i_glide_emodel>
-56.0874568346441

> <r_i_glide_energy>
-40.6104543209076

> <r_i_glide_einternal>
4.1711859703064

> <i_i_glide_confnum>
122

> <i_i_glide_posenum>
306

> <r_i_glide_eff_state_penalty>
0

> <s_user_duplicate_titles>
CHEMBL220_lig495,95388

> <s_m_subgroup_title>
dock_pv

> <s_m_subgroupid>
dock_pv

> <b_m_subgroup_collapsed>
0

$$$$
CHEMBL220_lig820
                    3D
 Schrodinger Suite 2021-1.
 30 33  0  0  1  0            999 V2000
    2.2380   68.5049   64.9329 N   0  0  0  0  0  0
    1.3658   69.1280   67.1020 C   0  0  0  0  0  0
    1.2543   68.5082   65.8505 C   0  0  0  0  0  0
    2.5952   69.6926   67.4720 C   0  0  0  0  0  0
    3.6774   69.6752   66.5279 C   0  0  0  0  0  0
    3.4136   69.0922   65.2465 C   0  0  0  0  0  0
   -0.0561   67.7898   65.5242 C   0  0  2  0  0  0
    0.1039   69.1220   67.9685 C   0  0  0  0  0  0
   -1.0475   68.3050   67.3094 C   0  0  1  0  0  0
   -1.2552   68.7039   65.8358 C   0  0  0  0  0  0
   -0.5172   66.9692   66.7567 C   0  0  0  0  0  0
    4.9901   70.1880   66.7690 C   0  0  0  0  0  0
    2.7317   70.2248   68.7605 N   0  0  0  0  0  0
    5.3311   70.7241   67.9646 F   0  0  0  0  0  0
    4.3920   69.1082   64.2365 C   0  0  0  0  0  0
    5.6286   69.6710   64.4917 C   0  0  0  0  0  0
    5.9427   70.1727   65.7518 C   0  0  0  0  0  0
   -0.0571   67.3081   64.5487 H   0  0  0  0  0  0
   -0.2216   70.1413   68.1733 H   0  0  0  0  0  0
    0.3474   68.6599   68.9243 H   0  0  0  0  0  0
   -1.9327   68.2734   67.9475 H   0  0  0  0  0  0
   -2.2130   68.3769   65.4231 H   0  0  0  0  0  0
   -1.1635   69.7580   65.5872 H   0  0  0  0  0  0
   -1.2985   66.2312   66.5572 H   0  0  0  0  0  0
    0.2464   66.4585   67.3462 H   0  0  0  0  0  0
    3.6424   70.5523   69.0558 H   0  0  0  0  0  0
    1.9701   70.1207   69.4261 H   0  0  0  0  0  0
    4.1713   68.6938   63.2651 H   0  0  0  0  0  0
    6.3436   69.7032   63.6881 H   0  0  0  0  0  0
    6.9265   70.5809   65.9310 H   0  0  0  0  0  0
  1  3  2  0  0  0
  1  6  1  0  0  0
  2  3  1  0  0  0
  2  8  1  0  0  0
  2  4  2  0  0  0
  3  7  1  0  0  0
  4  5  1  0  0  0
  4 13  1  0  0  0
  5  6  1  0  0  0
  5 12  2  0  0  0
  6 15  2  0  0  0
  7 10  1  0  0  0
  7 11  1  0  0  0
  7 18  1  0  0  0
  8  9  1  0  0  0
  8 19  1  0  0  0
  8 20  1  0  0  0
  9 11  1  0  0  0
  9 10  1  0  0  0
  9 21  1  0  0  0
 10 22  1  0  0  0
 10 23  1  0  0  0
 11 24  1  0  0  0
 11 25  1  0  0  0
 12 14  1  0  0  0
 12 17  1  0  0  0
 13 26  1  0  0  0
 13 27  1  0  0  0
 15 16  1  0  0  0
 15 28  1  0  0  0
 16 17  2  0  0  0
 16 29  1  0  0  0
 17 30  1  0  0  0
M  END
> <s_m_entry_id>
8653

> <s_m_entry_name>
dock_pv.163

> <s_m_Source_Path>
/home/csk/Desktop/cluster/DUD-E-result/aces

> <s_m_Source_File>
dock_pv.maegz

> <i_m_Source_File_Index>
163

> <chembl_id>
CHEMBL1161714

> <chembl_pref_name>
None

> <i_lp_mmshare_version>
53161

> <i_f3d_flags>
0

> <r_lp_tautomer_probability>
1

> <s_lp_Force_Field>
OPLS_2005

> <r_lp_Energy>
34.815333

> <b_lp_Chiralities_Consistent>
1

> <s_lp_Variant>
CHEMBL220_lig820-1

> <s_i_glide_gridfile>
glide-grid_1e66

> <i_i_glide_lignum>
1015

> <i_i_glide_rotatable_bonds>
0

> <r_i_docking_score>
-7.510135435052

> <r_i_glide_ligand_efficiency>
-0.441772672650118

> <r_i_glide_ligand_efficiency_sa>
-1.13592193936837

> <r_i_glide_ligand_efficiency_ln>
-1.95922709251162

> <r_i_glide_gscore>
-7.510135435052

> <r_i_glide_lipo>
-2.61987491604039

> <r_i_glide_hbond>
-0.0877930744722138

> <r_i_glide_metal>
0

> <r_i_glide_rewards>
-2.95263938009772

> <r_i_glide_evdw>
-27.828519821167

> <r_i_glide_ecoul>
-3.05601382255554

> <r_i_glide_erotb>
0

> <r_i_glide_esite>
0

> <r_i_glide_emodel>
-44.7980229994316

> <r_i_glide_energy>
-30.8845336437225

> <r_i_glide_einternal>
0

> <i_i_glide_confnum>
1

> <i_i_glide_posenum>
200

> <r_i_glide_eff_state_penalty>
0

> <s_user_duplicate_titles>
CHEMBL220_lig820

> <s_m_subgroup_title>
dock_pv

> <s_m_subgroupid>
dock_pv

> <b_m_subgroup_collapsed>
0

$$$$
CHEMBL220_lig409
                    3D
 Schrodinger Suite 2021-1.
 52 55  0  0  1  0            999 V2000
    4.7430   66.7437   63.2183 C   0  0  0  0  0  0
    5.3998   67.8913   62.7682 C   0  0  0  0  0  0
    5.0909   69.1481   63.2960 C   0  0  0  0  0  0
    4.0933   69.3080   64.2652 C   0  0  0  0  0  0
    3.7023   66.9281   64.1346 C   0  0  0  0  0  0
    3.3620   68.1785   64.6698 C   0  0  0  0  0  0
    2.2860   67.8737   65.5601 C   0  0  0  0  0  0
    1.9522   66.6055   65.4435 N   0  0  0  0  0  0
    2.8937   65.9664   64.6468 O   0  0  0  0  0  0
    1.5746   68.8049   66.5318 C   0  0  0  0  0  0
    0.2991   68.2357   67.2105 C   0  0  0  0  0  0
    0.5501   67.0236   68.1422 C   0  0  0  0  0  0
    1.2659   67.4057   69.4286 C   0  0  0  0  0  0
    1.6124   66.1517   70.2458 C   0  0  0  0  0  0
    0.4296   65.3235   70.5404 N   0  0  1  0  0  0
   -0.3693   65.0096   69.3457 C   0  0  0  0  0  0
   -0.7325   66.2974   68.5620 C   0  0  0  0  0  0
    0.7257   64.1577   71.3880 C   0  0  0  0  0  0
    1.7812   63.1946   70.8389 C   0  0  0  0  0  0
    3.1428   63.4553   71.0252 C   0  0  0  0  0  0
    4.1001   62.5937   70.4985 C   0  0  0  0  0  0
    3.6953   61.4738   69.7761 C   0  0  0  0  0  0
    2.3430   61.2174   69.5680 C   0  0  0  0  0  0
    1.3876   62.0851   70.0914 C   0  0  0  0  0  0
    5.0864   65.4883   62.7680 O   0  0  0  0  0  0
    5.1430   64.4282   63.7201 C   0  0  0  0  0  0
    6.1830   67.8064   62.0260 H   0  0  0  0  0  0
    5.6414   70.0131   62.9541 H   0  0  0  0  0  0
    3.8780   70.2864   64.6702 H   0  0  0  0  0  0
    2.2773   69.1388   67.2946 H   0  0  0  0  0  0
    1.3038   69.7080   66.0015 H   0  0  0  0  0  0
   -0.1903   69.0298   67.7780 H   0  0  0  0  0  0
   -0.4124   67.9575   66.4308 H   0  0  0  0  0  0
    1.1683   66.2820   67.6540 H   0  0  0  0  0  0
    2.1742   67.9681   69.2234 H   0  0  0  0  0  0
    0.6571   68.1080   69.9680 H   0  0  0  0  0  0
    2.3403   65.5595   69.6907 H   0  0  0  0  0  0
    2.0973   66.4360   71.1680 H   0  0  0  0  0  0
    0.2183   64.3178   68.7680 H   0  0  0  0  0  0
   -1.2570   64.4364   69.5680 H   0  0  0  0  0  0
   -1.4189   66.9080   69.1382 H   0  0  0  0  0  0
   -1.3100   66.1078   67.6604 H   0  0  0  0  0  0
    1.0536   64.5080   72.3658 H   0  0  0  0  0  0
   -0.2043   63.6124   71.5583 H   0  0  0  0  0  0
    3.4611   64.3325   71.5680 H   0  0  0  0  0  0
    5.1491   62.7981   70.6480 H   0  0  0  0  0  0
    4.4335   60.8004   69.3681 H   0  0  0  0  0  0
    2.0333   60.3498   69.0040 H   0  0  0  0  0  0
    0.3392   61.8876   69.9304 H   0  0  0  0  0  0
    5.8008   63.6427   63.3483 H   0  0  0  0  0  0
    5.5323   64.7595   64.6843 H   0  0  0  0  0  0
    4.1613   63.9775   63.8691 H   0  0  0  0  0  0
  1  2  2  0  0  0
  1  5  1  0  0  0
  1 25  1  0  0  0
  2  3  1  0  0  0
  2 27  1  0  0  0
  3  4  2  0  0  0
  3 28  1  0  0  0
  4  6  1  0  0  0
  4 29  1  0  0  0
  5  9  1  0  0  0
  5  6  2  0  0  0
  6  7  1  0  0  0
  7  8  2  0  0  0
  7 10  1  0  0  0
  8  9  1  0  0  0
 10 11  1  0  0  0
 10 30  1  0  0  0
 10 31  1  0  0  0
 11 12  1  0  0  0
 11 32  1  0  0  0
 11 33  1  0  0  0
 12 13  1  0  0  0
 12 17  1  0  0  0
 12 34  1  0  0  0
 13 14  1  0  0  0
 13 35  1  0  0  0
 13 36  1  0  0  0
 14 15  1  0  0  0
 14 37  1  0  0  0
 14 38  1  0  0  0
 15 16  1  0  0  0
 15 18  1  0  0  0
 16 17  1  0  0  0
 16 39  1  0  0  0
 16 40  1  0  0  0
 17 41  1  0  0  0
 17 42  1  0  0  0
 18 19  1  0  0  0
 18 43  1  0  0  0
 18 44  1  0  0  0
 19 20  2  0  0  0
 19 24  1  0  0  0
 20 21  1  0  0  0
 20 45  1  0  0  0
 21 22  2  0  0  0
 21 46  1  0  0  0
 22 23  1  0  0  0
 22 47  1  0  0  0
 23 24  2  0  0  0
 23 48  1  0  0  0
 24 49  1  0  0  0
 25 26  1  0  0  0
 26 50  1  0  0  0
 26 51  1  0  0  0
 26 52  1  0  0  0
M  END
> <s_m_entry_id>
8654

> <s_m_entry_name>
dock_pv.164

> <s_m_Source_Path>
/home/csk/Desktop/cluster/DUD-E-result/aces

> <s_m_Source_File>
dock_pv.maegz

> <i_m_Source_File_Index>
164

> <chembl_id>
CHEMBL93619

> <chembl_pref_name>
None

> <i_lp_mmshare_version>
53161

> <i_f3d_flags>
0

> <r_lp_tautomer_probability>
1

> <s_lp_Force_Field>
OPLS_2005

> <r_lp_Energy>
34.666054

> <b_lp_Chiralities_Consistent>
1

> <s_lp_Variant>
CHEMBL220_lig409-1

> <s_i_glide_gridfile>
glide-grid_1e66

> <i_i_glide_lignum>
468

> <i_i_glide_rotatable_bonds>
6

> <r_i_docking_score>
-7.50888322804716

> <r_i_glide_ligand_efficiency>
-0.288803201078737

> <r_i_glide_ligand_efficiency_sa>
-0.855578346810035

> <r_i_glide_ligand_efficiency_ln>
-1.76343658745138

> <r_i_glide_gscore>
-7.50888322804716

> <r_i_glide_lipo>
-3.54948281882914

> <r_i_glide_hbond>
-0.337454873531442

> <r_i_glide_metal>
0

> <r_i_glide_rewards>
-1.91963154545454

> <r_i_glide_evdw>
-32.6495323181152

> <r_i_glide_ecoul>
-5.63883018493652

> <r_i_glide_erotb>
0.775987153414208

> <r_i_glide_esite>
0

> <r_i_glide_emodel>
-48.6901551050899

> <r_i_glide_energy>
-38.2883625030518

> <r_i_glide_einternal>
12.0374383926392

> <i_i_glide_confnum>
33

> <i_i_glide_posenum>
353

> <r_i_glide_eff_state_penalty>
0

> <s_user_duplicate_titles>
CHEMBL220_lig409,150076

> <s_m_subgroup_title>
dock_pv

> <s_m_subgroupid>
dock_pv

> <b_m_subgroup_collapsed>
0

$$$$
CHEMBL220_lig381
                    3D
 Schrodinger Suite 2021-1.
 34 36  0  0  1  0            999 V2000
    1.9436   69.0253   66.7361 C   0  0  0  0  0  0
    3.0376   68.9208   65.7449 C   0  0  0  0  0  0
    2.4628   69.8054   67.9306 C   0  0  0  0  0  0
    4.2061   69.6071   66.3434 C   0  0  0  0  0  0
    0.6918   68.5085   66.6238 C   0  0  0  0  0  0
    3.8880   70.1080   67.5984 C   0  0  0  0  0  0
   -2.1938   68.4488   66.0924 N   0  0  2  0  0  0
    2.9882   68.3578   64.6516 O   0  0  0  0  0  0
    0.1037   67.7160   65.4506 C   0  0  0  0  0  0
   -0.3527   68.6758   67.7290 C   0  0  0  0  0  0
   -1.6561   69.2773   67.1673 C   0  0  0  0  0  0
   -1.2328   68.3422   64.9921 C   0  0  0  0  0  0
    5.4972   69.7577   65.8315 C   0  0  0  0  0  0
    4.8489   70.7804   68.3560 C   0  0  0  0  0  0
   -3.5033   68.9078   65.6407 C   0  0  0  0  0  0
    6.4675   70.4005   66.6015 C   0  0  0  0  0  0
    6.1467   70.9086   67.8626 C   0  0  0  0  0  0
    1.8924   70.7223   68.0874 H   0  0  0  0  0  0
    2.3872   69.2269   68.8530 H   0  0  0  0  0  0
   -0.0576   66.6876   65.7752 H   0  0  0  0  0  0
    0.7518   67.6437   64.5843 H   0  0  0  0  0  0
   -0.0036   69.3067   68.5447 H   0  0  0  0  0  0
   -0.5570   67.7009   68.1734 H   0  0  0  0  0  0
   -1.5310   70.3156   66.8544 H   0  0  0  0  0  0
   -2.3902   69.3026   67.9702 H   0  0  0  0  0  0
   -1.6563   67.7136   64.2114 H   0  0  0  0  0  0
   -1.0714   69.3079   64.5123 H   0  0  0  0  0  0
    5.7651   69.3728   64.8577 H   0  0  0  0  0  0
    4.6037   71.1721   69.3311 H   0  0  0  0  0  0
   -4.1217   69.2501   66.4719 H   0  0  0  0  0  0
   -4.0531   68.0990   65.1680 H   0  0  0  0  0  0
   -3.4180   69.7080   64.9088 H   0  0  0  0  0  0
    7.4709   70.5076   66.2163 H   0  0  0  0  0  0
    6.8997   71.4100   68.4528 H   0  0  0  0  0  0
  1  2  1  0  0  0
  1  3  1  0  0  0
  1  5  2  0  0  0
  2  4  1  0  0  0
  2  8  2  0  0  0
  3  6  1  0  0  0
  3 18  1  0  0  0
  3 19  1  0  0  0
  4 13  2  0  0  0
  4  6  1  0  0  0
  5  9  1  0  0  0
  5 10  1  0  0  0
  6 14  2  0  0  0
  7 11  1  0  0  0
  7 15  1  0  0  0
  7 12  1  0  0  0
  9 12  1  0  0  0
  9 20  1  0  0  0
  9 21  1  0  0  0
 10 11  1  0  0  0
 10 22  1  0  0  0
 10 23  1  0  0  0
 11 24  1  0  0  0
 11 25  1  0  0  0
 12 26  1  0  0  0
 12 27  1  0  0  0
 13 16  1  0  0  0
 13 28  1  0  0  0
 14 17  1  0  0  0
 14 29  1  0  0  0
 15 30  1  0  0  0
 15 31  1  0  0  0
 15 32  1  0  0  0
 16 17  2  0  0  0
 16 33  1  0  0  0
 17 34  1  0  0  0
M  END
> <s_m_entry_id>
8655

> <s_m_entry_name>
dock_pv.165

> <s_m_Source_Path>
/home/csk/Desktop/cluster/DUD-E-result/aces

> <s_m_Source_File>
dock_pv.maegz

> <i_m_Source_File_Index>
165

> <chembl_id>
CHEMBL157017

> <chembl_pref_name>
None

> <i_lp_mmshare_version>
53161

> <i_f3d_flags>
0

> <r_lp_tautomer_probability>
1

> <s_lp_Force_Field>
OPLS_2005

> <r_lp_Energy>
28.288744

> <b_lp_Chiralities_Consistent>
1

> <s_lp_Variant>
CHEMBL220_lig381-1

> <s_i_glide_gridfile>
glide-grid_1e66

> <i_i_glide_lignum>
439

> <i_i_glide_rotatable_bonds>
0

> <r_i_docking_score>
-7.49882166062945

> <r_i_glide_ligand_efficiency>
-0.441107156507615

> <r_i_glide_ligand_efficiency_sa>
-1.13421070996448

> <r_i_glide_ligand_efficiency_ln>
-1.95627558071014

> <r_i_glide_gscore>
-7.49882166062945

> <r_i_glide_lipo>
-3.03137993696534

> <r_i_glide_hbond>
0

> <r_i_glide_metal>
0

> <r_i_glide_rewards>
-2.78561492951662

> <r_i_glide_evdw>
-28.9594993591309

> <r_i_glide_ecoul>
-1.55901217460632

> <r_i_glide_erotb>
0

> <r_i_glide_esite>
0

> <r_i_glide_emodel>
-43.1719355101437

> <r_i_glide_energy>
-30.5185115337372

> <r_i_glide_einternal>
0

> <i_i_glide_confnum>
2

> <i_i_glide_posenum>
208

> <r_i_glide_eff_state_penalty>
0

> <s_user_duplicate_titles>
CHEMBL220_lig381

> <s_m_subgroup_title>
dock_pv

> <s_m_subgroupid>
dock_pv

> <b_m_subgroup_collapsed>
0

$$$$
CHEMBL220_lig215
                    3D
 Schrodinger Suite 2021-1.
 36 38  0  0  1  0            999 V2000
    3.8154   68.8493   63.4908 C   0  0  2  0  0  0
    4.3730   69.4093   64.8207 C   0  0  0  0  0  0
    3.6631   69.4330   65.9868 C   0  0  0  0  0  0
    2.2701   68.8117   63.5708 C   0  0  0  0  0  0
    3.5945   66.3575   64.1793 C   0  0  0  0  0  0
    1.8181   68.0739   64.8414 C   0  0  1  0  0  0
    4.1239   64.9279   64.1198 C   0  0  0  0  0  0
    4.1677   69.9764   67.1518 N   0  0  0  0  0  0
    4.3044   67.3868   63.2883 C   0  0  0  0  0  0
    2.4752   66.6940   64.8576 C   0  0  0  0  0  0
    5.7191   69.9695   64.9120 C   0  0  0  0  0  0
    2.2347   68.8934   66.0845 C   0  0  0  0  0  0
    5.4100   70.5079   67.2865 C   0  0  0  0  0  0
    6.2005   70.4649   66.0701 C   0  0  0  0  0  0
    4.3018   69.6685   62.3910 N   0  0  0  0  0  0
    1.4282   69.3079   62.6309 C   0  0  0  0  0  0
    5.8000   70.9983   68.3410 O   0  0  0  0  0  0
    3.5138   64.1228   64.9928 F   0  0  0  0  0  0
    5.4279   64.9094   64.3669 F   0  0  0  0  0  0
    3.9431   64.4532   62.8916 F   0  0  0  0  0  0
   -0.0873   69.3014   62.6533 C   0  0  0  0  0  0
    0.7420   67.9073   64.8579 H   0  0  0  0  0  0
    5.3847   67.3190   63.4089 H   0  0  0  0  0  0
    4.1351   67.0844   62.2536 H   0  0  0  0  0  0
    1.9803   65.9315   65.4434 H   0  0  0  0  0  0
    6.3430   69.9801   64.0302 H   0  0  0  0  0  0
    1.5443   69.7081   66.2932 H   0  0  0  0  0  0
    2.1479   68.2638   66.9703 H   0  0  0  0  0  0
    7.2029   70.8634   66.1030 H   0  0  0  0  0  0
    4.0222   69.2813   61.5025 H   0  0  0  0  0  0
    3.9039   70.5947   62.4641 H   0  0  0  0  0  0
    1.8374   69.7788   61.7493 H   0  0  0  0  0  0
    3.6189   70.0017   67.9956 H   0  0  0  0  0  0
   -0.4640   70.2694   62.3198 H   0  0  0  0  0  0
   -0.4564   68.5336   61.9745 H   0  0  0  0  0  0
   -0.5114   69.1144   63.6382 H   0  0  0  0  0  0
  1  4  1  0  0  0
  1  9  1  0  0  0
  1 15  1  0  0  0
  1  2  1  0  0  0
  2  3  2  0  0  0
  2 11  1  0  0  0
  3  8  1  0  0  0
  3 12  1  0  0  0
  4  6  1  0  0  0
  4 16  2  0  0  0
  5  9  1  0  0  0
  5  7  1  0  0  0
  5 10  2  0  0  0
  6 12  1  0  0  0
  6 10  1  0  0  0
  6 22  1  0  0  0
  7 18  1  0  0  0
  7 19  1  0  0  0
  7 20  1  0  0  0
  8 13  1  0  0  0
  8 33  1  0  0  0
  9 23  1  0  0  0
  9 24  1  0  0  0
 10 25  1  0  0  0
 11 26  1  0  0  0
 11 14  2  0  0  0
 12 27  1  0  0  0
 12 28  1  0  0  0
 13 17  2  0  0  0
 13 14  1  0  0  0
 14 29  1  0  0  0
 15 30  1  0  0  0
 15 31  1  0  0  0
 16 21  1  0  0  0
 16 32  1  0  0  0
 21 34  1  0  0  0
 21 35  1  0  0  0
 21 36  1  0  0  0
M  END
> <s_m_entry_id>
8656

> <s_m_entry_name>
dock_pv.166

> <s_m_Source_Path>
/home/csk/Desktop/cluster/DUD-E-result/aces

> <s_m_Source_File>
dock_pv.maegz

> <i_m_Source_File_Index>
166

> <chembl_id>
CHEMBL294891

> <chembl_pref_name>
None

> <i_lp_mmshare_version>
53161

> <i_f3d_flags>
0

> <r_lp_tautomer_probability>
0.999

> <s_lp_Force_Field>
OPLS_2005

> <r_lp_Energy>
21.728571

> <b_lp_Chiralities_Consistent>
1

> <s_lp_Variant>
CHEMBL220_lig215-1

> <s_i_glide_gridfile>
glide-grid_1e66

> <i_i_glide_lignum>
238

> <i_i_glide_rotatable_bonds>
1

> <r_i_docking_score>
-7.49846601984462

> <r_i_glide_ligand_efficiency>
-0.357069810468792

> <r_i_glide_ligand_efficiency_sa>
-0.985128531758425

> <r_i_glide_ligand_efficiency_ln>
-1.8539805713293

> <r_i_glide_gscore>
-7.49846601984462

> <r_i_glide_lipo>
-3.18131668177706

> <r_i_glide_hbond>
0

> <r_i_glide_metal>
0

> <r_i_glide_rewards>
-2.12994550709577

> <r_i_glide_evdw>
-31.4081745147705

> <r_i_glide_ecoul>
-3.77358531951904

> <r_i_glide_erotb>
0

> <r_i_glide_esite>
-0.0507573073054161

> <r_i_glide_emodel>
-50.0212700319887

> <r_i_glide_energy>
-35.1817598342896

> <r_i_glide_einternal>
0.247012406587601

> <i_i_glide_confnum>
1

> <i_i_glide_posenum>
136

> <r_i_glide_eff_state_penalty>
0

> <s_user_duplicate_titles>
CHEMBL220_lig215

> <s_m_subgroup_title>
dock_pv

> <s_m_subgroupid>
dock_pv

> <b_m_subgroup_collapsed>
0

$$$$
CHEMBL220_lig1161
                    3D
 Schrodinger Suite 2021-1.
 37 39  0  0  1  0            999 V2000
    2.6918   68.4348   64.7707 C   0  0  0  0  0  0
    0.3063   68.5078   64.1201 C   0  0  0  0  0  0
    1.6144   68.6522   63.7721 C   0  0  0  0  0  0
    2.3081   68.0957   66.0487 O   0  0  0  0  0  0
    0.9892   67.8537   66.3886 C   0  0  0  0  0  0
   -0.0631   68.1084   65.5059 C   0  0  0  0  0  0
    0.7407   67.3338   67.6573 C   0  0  0  0  0  0
   -1.3760   67.9084   65.9668 C   0  0  0  0  0  0
    3.9082   68.5137   64.5997 O   0  0  0  0  0  0
   -0.5568   67.0316   68.0672 C   0  0  0  0  0  0
   -0.8663   66.4660   69.2882 O   0  0  0  0  0  0
   -1.6157   67.3409   67.2168 C   0  0  0  0  0  0
   -0.8411   68.6830   63.1314 C   0  0  0  0  0  0
    2.3426   65.2259   70.3618 C   0  0  0  0  0  0
    3.1234   64.0715   70.2970 C   0  0  0  0  0  0
    0.1048   66.4155   70.3398 C   0  0  0  0  0  0
    0.9487   65.1467   70.2749 C   0  0  0  0  0  0
    2.1339   69.0949   62.3992 C   0  0  0  0  0  0
    4.8445   64.1889   70.3665 Cl  0  0  0  0  0  0
    1.1215   62.7347   70.0950 C   0  0  0  0  0  0
    2.5118   62.8244   70.1676 C   0  0  0  0  0  0
    0.3423   63.8918   70.1453 C   0  0  0  0  0  0
    1.5434   67.1292   68.3276 H   0  0  0  0  0  0
   -2.2240   68.1108   65.3314 H   0  0  0  0  0  0
   -2.6309   67.1410   67.5294 H   0  0  0  0  0  0
   -0.5447   69.1194   62.1828 H   0  0  0  0  0  0
   -1.2697   67.7080   62.9101 H   0  0  0  0  0  0
   -1.6281   69.3080   63.5406 H   0  0  0  0  0  0
    2.8275   66.1858   70.4664 H   0  0  0  0  0  0
   -0.4303   66.4185   71.2897 H   0  0  0  0  0  0
    0.7243   67.3120   70.3676 H   0  0  0  0  0  0
    2.3691   68.2220   61.7896 H   0  0  0  0  0  0
    1.4264   69.7108   61.8495 H   0  0  0  0  0  0
    3.0379   69.7028   62.4756 H   0  0  0  0  0  0
    0.6466   61.7701   69.9920 H   0  0  0  0  0  0
    3.1123   61.9283   70.1221 H   0  0  0  0  0  0
   -0.7326   63.8110   70.0718 H   0  0  0  0  0  0
  1  3  1  0  0  0
  1  4  1  0  0  0
  1  9  2  0  0  0
  2  3  2  0  0  0
  2 13  1  0  0  0
  2  6  1  0  0  0
  3 18  1  0  0  0
  4  5  1  0  0  0
  5  6  2  0  0  0
  5  7  1  0  0  0
  6  8  1  0  0  0
  7 10  2  0  0  0
  7 23  1  0  0  0
  8 12  2  0  0  0
  8 24  1  0  0  0
 10 11  1  0  0  0
 10 12  1  0  0  0
 11 16  1  0  0  0
 12 25  1  0  0  0
 13 26  1  0  0  0
 13 27  1  0  0  0
 13 28  1  0  0  0
 14 17  1  0  0  0
 14 15  2  0  0  0
 14 29  1  0  0  0
 15 19  1  0  0  0
 15 21  1  0  0  0
 16 17  1  0  0  0
 16 30  1  0  0  0
 16 31  1  0  0  0
 17 22  2  0  0  0
 18 32  1  0  0  0
 18 33  1  0  0  0
 18 34  1  0  0  0
 20 22  1  0  0  0
 20 21  2  0  0  0
 20 35  1  0  0  0
 21 36  1  0  0  0
 22 37  1  0  0  0
M  END
> <s_m_entry_id>
8657

> <s_m_entry_name>
dock_pv.167

> <s_m_Source_Path>
/home/csk/Desktop/cluster/DUD-E-result/aces

> <s_m_Source_File>
dock_pv.maegz

> <i_m_Source_File_Index>
167

> <chembl_id>
CHEMBL109018

> <chembl_pref_name>
None

> <i_lp_mmshare_version>
53161

> <i_f3d_flags>
0

> <r_lp_tautomer_probability>
1

> <s_lp_Force_Field>
OPLS_2005

> <r_lp_Energy>
28.681289

> <b_lp_Chiralities_Consistent>
1

> <s_lp_Variant>
CHEMBL220_lig1161-1

> <s_i_glide_gridfile>
glide-grid_1e66

> <i_i_glide_lignum>
1576

> <i_i_glide_rotatable_bonds>
3

> <r_i_docking_score>
-7.49741435004908

> <r_i_glide_ligand_efficiency>
-0.340791561365867

> <r_i_glide_ligand_efficiency_sa>
-0.954911357518729

> <r_i_glide_ligand_efficiency_ln>
-1.8326415419851

> <r_i_glide_gscore>
-7.49741435004908

> <r_i_glide_lipo>
-4.20363835270511

> <r_i_glide_hbond>
0

> <r_i_glide_metal>
0

> <r_i_glide_rewards>
-1.97558826846882

> <r_i_glide_evdw>
-37.5160751342773

> <r_i_glide_ecoul>
-0.0358605831861496

> <r_i_glide_erotb>
0.562995115316641

> <r_i_glide_esite>
0

> <r_i_glide_emodel>
-52.8882961254837

> <r_i_glide_energy>
-37.5519357174635

> <r_i_glide_einternal>
3.52991271018982

> <i_i_glide_confnum>
13

> <i_i_glide_posenum>
283

> <r_i_glide_eff_state_penalty>
0

> <s_user_duplicate_titles>
CHEMBL220_lig1161

> <s_m_subgroup_title>
dock_pv

> <s_m_subgroupid>
dock_pv

> <b_m_subgroup_collapsed>
0

$$$$
CHEMBL220_lig1039
                    3D
 Schrodinger Suite 2021-1.
 29 31  0  0  1  0            999 V2000
   -0.8602   67.1982   67.5729 C   0  0  0  0  0  0
   -2.0156   67.7946   67.0668 C   0  0  0  0  0  0
   -2.0414   68.4740   65.8460 C   0  0  0  0  0  0
    0.3423   67.3053   66.8602 C   0  0  0  0  0  0
    0.3429   67.9153   65.5985 C   0  0  0  0  0  0
   -0.8588   68.4754   65.0970 C   0  0  0  0  0  0
   -0.5958   68.9080   63.8111 N   0  0  0  0  0  0
    1.3447   68.1122   64.6326 C   0  0  0  0  0  0
    0.7378   68.7163   63.5023 C   0  0  0  0  0  0
    1.4894   69.0315   62.3640 C   0  0  0  0  0  0
    2.8179   68.7562   62.3901 N   0  3  0  0  0  0
    3.4372   68.1927   63.4542 C   0  0  0  0  0  0
    2.7217   67.8368   64.5996 C   0  0  0  0  0  0
   -0.9829   66.5082   68.7670 O   0  0  0  0  0  0
    0.1958   66.1717   69.4944 C   0  0  0  0  0  0
    3.6503   69.1368   61.2342 C   0  0  0  0  0  0
   -2.9276   67.7205   67.6403 H   0  0  0  0  0  0
   -2.9584   68.9067   65.4722 H   0  0  0  0  0  0
    1.2470   66.8611   67.2364 H   0  0  0  0  0  0
   -1.2758   69.3677   63.2208 H   0  0  0  0  0  0
    1.0875   69.5041   61.4785 H   0  0  0  0  0  0
    4.5058   68.0477   63.3668 H   0  0  0  0  0  0
    3.2168   67.3910   65.4491 H   0  0  0  0  0  0
   -0.0752   65.7668   70.4687 H   0  0  0  0  0  0
    0.7849   65.4124   68.9816 H   0  0  0  0  0  0
    0.8195   67.0498   69.6736 H   0  0  0  0  0  0
    3.0137   69.3063   60.3676 H   0  0  0  0  0  0
    4.1925   70.0451   61.5055 H   0  0  0  0  0  0
    4.3430   68.3188   61.0258 H   0  0  0  0  0  0
  1  2  2  0  0  0
  1  4  1  0  0  0
  1 14  1  0  0  0
  2  3  1  0  0  0
  2 17  1  0  0  0
  3  6  2  0  0  0
  3 18  1  0  0  0
  4  5  2  0  0  0
  4 19  1  0  0  0
  5  8  1  0  0  0
  5  6  1  0  0  0
  6  7  1  0  0  0
  7  9  1  0  0  0
  7 20  1  0  0  0
  8  9  2  0  0  0
  8 13  1  0  0  0
  9 10  1  0  0  0
 10 11  2  0  0  0
 10 21  1  0  0  0
 11 12  1  0  0  0
 11 16  1  0  0  0
 12 13  2  0  0  0
 12 22  1  0  0  0
 13 23  1  0  0  0
 14 15  1  0  0  0
 15 24  1  0  0  0
 15 25  1  0  0  0
 15 26  1  0  0  0
 16 27  1  0  0  0
 16 28  1  0  0  0
 16 29  1  0  0  0
M  CHG  1  11   1
M  END
> <s_m_entry_id>
8658

> <s_m_entry_name>
dock_pv.168

> <s_m_Source_Path>
/home/csk/Desktop/cluster/DUD-E-result/aces

> <s_m_Source_File>
dock_pv.maegz

> <i_m_Source_File_Index>
168

> <chembl_id>
CHEMBL376434

> <chembl_pref_name>
None

> <i_lp_mmshare_version>
53161

> <i_f3d_flags>
0

> <r_lp_tautomer_probability>
1

> <s_lp_Force_Field>
OPLS_2005

> <r_lp_Energy>
19.965609

> <b_lp_Chiralities_Consistent>
1

> <s_lp_Variant>
CHEMBL220_lig1039-1

> <s_i_glide_gridfile>
glide-grid_1e66

> <i_i_glide_lignum>
1438

> <i_i_glide_rotatable_bonds>
1

> <r_i_docking_score>
-7.49218909796231

> <r_i_glide_ligand_efficiency>
-0.468261818622644

> <r_i_glide_ligand_efficiency_sa>
-1.17994584319895

> <r_i_glide_ligand_efficiency_ln>
-1.98595438028935

> <r_i_glide_gscore>
-7.49218909796231

> <r_i_glide_lipo>
-2.89149150987924

> <r_i_glide_hbond>
-0.0356668236886807

> <r_i_glide_metal>
0

> <r_i_glide_rewards>
-2.41250186614002

> <r_i_glide_evdw>
-30.3660945892334

> <r_i_glide_ecoul>
-4.16629695892334

> <r_i_glide_erotb>
0

> <r_i_glide_esite>
-0.00927962495419779

> <r_i_glide_emodel>
-56.8628797195055

> <r_i_glide_energy>
-34.5323915481567

> <r_i_glide_einternal>
0.410745114088058

> <i_i_glide_confnum>
1

> <i_i_glide_posenum>
63

> <r_i_glide_eff_state_penalty>
0

> <s_user_duplicate_titles>
CHEMBL220_lig1039

> <s_m_subgroup_title>
dock_pv

> <s_m_subgroupid>
dock_pv

> <b_m_subgroup_collapsed>
0

$$$$
CHEMBL220_lig295
                    3D
 Schrodinger Suite 2021-1.
 26 28  0  0  1  0            999 V2000
    2.7238   69.4149   66.7020 N   0  0  0  0  0  0
    2.5754   68.9095   65.4590 C   0  0  0  0  0  0
    3.5891   68.8977   64.4795 C   0  0  0  0  0  0
    4.8574   69.3900   64.8460 C   0  0  0  0  0  0
    5.0484   69.9228   66.1609 C   0  0  0  0  0  0
    3.9259   69.9369   67.0429 C   0  0  0  0  0  0
    1.2660   68.5221   65.2368 O   0  0  0  0  0  0
    5.2885   70.9093   68.8116 N   0  0  0  0  0  0
    5.9082   69.3428   63.9152 N   0  0  0  0  0  0
    3.2519   68.3686   63.0845 C   0  0  0  0  0  0
    4.0978   70.5077   68.3263 C   0  0  0  0  0  0
    6.2781   70.4485   66.6524 C   0  0  0  0  0  0
    6.3435   70.9075   67.9688 C   0  0  0  0  0  0
    0.9333   67.9867   63.9569 C   0  0  0  0  0  0
    1.7584   68.5815   62.8023 C   0  0  0  0  0  0
    5.7136   69.0438   62.9711 H   0  0  0  0  0  0
    6.8307   69.7066   64.1522 H   0  0  0  0  0  0
    3.8458   68.8591   62.3104 H   0  0  0  0  0  0
    3.4907   67.3046   63.0405 H   0  0  0  0  0  0
    3.2645   70.5291   69.0142 H   0  0  0  0  0  0
    7.1432   70.4795   66.0148 H   0  0  0  0  0  0
    7.2662   71.2822   68.3827 H   0  0  0  0  0  0
   -0.1310   68.1506   63.7812 H   0  0  0  0  0  0
    1.0735   66.9081   64.0019 H   0  0  0  0  0  0
    1.5393   69.6461   62.7049 H   0  0  0  0  0  0
    1.4759   68.1139   61.8585 H   0  0  0  0  0  0
  1  2  2  0  0  0
  1  6  1  0  0  0
  2  3  1  0  0  0
  2  7  1  0  0  0
  3 10  1  0  0  0
  3  4  2  0  0  0
  4  5  1  0  0  0
  4  9  1  0  0  0
  5  6  1  0  0  0
  5 12  2  0  0  0
  6 11  2  0  0  0
  7 14  1  0  0  0
  8 11  1  0  0  0
  8 13  2  0  0  0
  9 16  1  0  0  0
  9 17  1  0  0  0
 10 15  1  0  0  0
 10 18  1  0  0  0
 10 19  1  0  0  0
 11 20  1  0  0  0
 12 13  1  0  0  0
 12 21  1  0  0  0
 13 22  1  0  0  0
 14 15  1  0  0  0
 14 23  1  0  0  0
 14 24  1  0  0  0
 15 25  1  0  0  0
 15 26  1  0  0  0
M  END
> <s_m_entry_id>
8659

> <s_m_entry_name>
dock_pv.169

> <s_m_Source_Path>
/home/csk/Desktop/cluster/DUD-E-result/aces

> <s_m_Source_File>
dock_pv.maegz

> <i_m_Source_File_Index>
169

> <chembl_id>
CHEMBL130373

> <chembl_pref_name>
None

> <i_lp_mmshare_version>
53161

> <i_f3d_flags>
0

> <r_lp_tautomer_probability>
1

> <s_lp_Force_Field>
OPLS_2005

> <r_lp_Energy>
15.97974

> <b_lp_Chiralities_Consistent>
1

> <s_lp_Variant>
CHEMBL220_lig295-1

> <s_i_glide_gridfile>
glide-grid_1e66

> <i_i_glide_lignum>
349

> <i_i_glide_rotatable_bonds>
0

> <r_i_docking_score>
-7.48621205955177

> <r_i_glide_ligand_efficiency>
-0.499080803970118

> <r_i_glide_ligand_efficiency_sa>
-1.23083910370661

> <r_i_glide_ligand_efficiency_ln>
-2.01890795796845

> <r_i_glide_gscore>
-7.48621205955177

> <r_i_glide_lipo>
-2.80063919888898

> <r_i_glide_hbond>
-0.32

> <r_i_glide_metal>
0

> <r_i_glide_rewards>
-2.53420211795068

> <r_i_glide_evdw>
-26.6565723419189

> <r_i_glide_ecoul>
-3.31108260154724

> <r_i_glide_erotb>
0

> <r_i_glide_esite>
-0.00187973538408012

> <r_i_glide_emodel>
-43.685598517761

> <r_i_glide_energy>
-29.9676549434662

> <r_i_glide_einternal>
0

> <i_i_glide_confnum>
2

> <i_i_glide_posenum>
127

> <r_i_glide_eff_state_penalty>
0

> <s_user_duplicate_titles>
CHEMBL220_lig295,219051

> <s_m_subgroup_title>
dock_pv

> <s_m_subgroupid>
dock_pv

> <b_m_subgroup_collapsed>
0

$$$$
CHEMBL220_lig487
                    3D
 Schrodinger Suite 2021-1.
 50 52  0  0  1  0            999 V2000
    5.8497   70.7218   67.8012 C   0  0  0  0  0  0
    4.5587   70.6751   68.3200 C   0  0  0  0  0  0
    5.1219   69.6788   65.7548 C   0  0  0  0  0  0
    6.1272   70.2502   66.5239 C   0  0  0  0  0  0
    3.8029   69.5493   66.2731 C   0  0  0  0  0  0
    3.5221   70.0767   67.5680 C   0  0  0  0  0  0
    2.2892   69.9792   68.1220 N   0  0  0  0  0  0
    2.7425   68.8818   65.5923 C   0  0  0  0  0  0
    2.9114   68.3094   64.3337 N   0  0  0  0  0  0
    1.4828   68.7365   66.1955 C   0  0  0  0  0  0
    1.3057   69.3090   67.4662 C   0  0  0  0  0  0
   -0.0562   69.2809   68.1366 C   0  0  0  0  0  0
   -1.2169   69.1978   67.1380 C   0  0  0  0  0  0
   -1.0053   67.9723   66.2473 C   0  0  0  0  0  0
    0.3021   68.0818   65.4430 C   0  0  0  0  0  0
    2.9234   69.2386   63.2191 C   0  0  0  0  0  0
    3.0246   68.4893   61.8886 C   0  0  0  0  0  0
    4.4133   67.9058   61.5681 C   0  0  0  0  0  0
    5.1057   66.9446   62.5620 C   0  0  0  0  0  0
    4.3187   65.6777   62.9324 C   0  0  0  0  0  0
    5.1044   64.6414   63.7422 C   0  0  0  0  0  0
    4.2439   63.4384   64.1324 C   0  0  0  0  0  0
    7.1383   71.3080   68.7717 Cl  0  0  0  0  0  0
    4.3492   71.0396   69.3147 H   0  0  0  0  0  0
    5.3595   69.2952   64.7759 H   0  0  0  0  0  0
    7.1348   70.3021   66.1355 H   0  0  0  0  0  0
    2.2035   67.6082   64.1742 H   0  0  0  0  0  0
   -0.1835   70.1585   68.7680 H   0  0  0  0  0  0
   -0.0569   68.4007   68.7740 H   0  0  0  0  0  0
   -1.2759   70.1066   66.5370 H   0  0  0  0  0  0
   -2.1650   69.1172   67.6696 H   0  0  0  0  0  0
   -1.8506   67.8423   65.5695 H   0  0  0  0  0  0
   -0.9797   67.0728   66.8664 H   0  0  0  0  0  0
    0.0987   68.6815   64.5554 H   0  0  0  0  0  0
    0.5803   67.0908   65.0834 H   0  0  0  0  0  0
    3.7486   69.9429   63.3337 H   0  0  0  0  0  0
    2.0264   69.8585   63.2442 H   0  0  0  0  0  0
    2.7525   69.1796   61.0901 H   0  0  0  0  0  0
    2.2676   67.7081   61.8532 H   0  0  0  0  0  0
    5.0836   68.7558   61.4337 H   0  0  0  0  0  0
    4.3427   67.4022   60.6052 H   0  0  0  0  0  0
    5.3829   67.4841   63.4681 H   0  0  0  0  0  0
    6.0429   66.6534   62.0936 H   0  0  0  0  0  0
    3.9432   65.2104   62.0240 H   0  0  0  0  0  0
    3.4677   65.9572   63.5513 H   0  0  0  0  0  0
    5.5197   65.1031   64.6376 H   0  0  0  0  0  0
    5.9430   64.2707   63.1674 H   0  0  0  0  0  0
    4.8152   62.7690   64.7679 H   0  0  0  0  0  0
    3.9431   62.8726   63.2513 H   0  0  0  0  0  0
    3.3479   63.7366   64.6779 H   0  0  0  0  0  0
  1  2  2  0  0  0
  1  4  1  0  0  0
  1 23  1  0  0  0
  2  6  1  0  0  0
  2 24  1  0  0  0
  3  5  1  0  0  0
  3  4  2  0  0  0
  3 25  1  0  0  0
  4 26  1  0  0  0
  5  6  1  0  0  0
  5  8  2  0  0  0
  6  7  2  0  0  0
  7 11  1  0  0  0
  8 10  1  0  0  0
  8  9  1  0  0  0
  9 16  1  0  0  0
  9 27  1  0  0  0
 10 15  1  0  0  0
 10 11  2  0  0  0
 11 12  1  0  0  0
 12 13  1  0  0  0
 12 28  1  0  0  0
 12 29  1  0  0  0
 13 14  1  0  0  0
 13 30  1  0  0  0
 13 31  1  0  0  0
 14 15  1  0  0  0
 14 32  1  0  0  0
 14 33  1  0  0  0
 15 34  1  0  0  0
 15 35  1  0  0  0
 16 17  1  0  0  0
 16 36  1  0  0  0
 16 37  1  0  0  0
 17 18  1  0  0  0
 17 38  1  0  0  0
 17 39  1  0  0  0
 18 19  1  0  0  0
 18 40  1  0  0  0
 18 41  1  0  0  0
 19 20  1  0  0  0
 19 42  1  0  0  0
 19 43  1  0  0  0
 20 21  1  0  0  0
 20 44  1  0  0  0
 20 45  1  0  0  0
 21 22  1  0  0  0
 21 46  1  0  0  0
 21 47  1  0  0  0
 22 48  1  0  0  0
 22 49  1  0  0  0
 22 50  1  0  0  0
M  END
> <s_m_entry_id>
8660

> <s_m_entry_name>
dock_pv.170

> <s_m_Source_Path>
/home/csk/Desktop/cluster/DUD-E-result/aces

> <s_m_Source_File>
dock_pv.maegz

> <i_m_Source_File_Index>
170

> <chembl_id>
CHEMBL59782

> <chembl_pref_name>
None

> <i_lp_mmshare_version>
53161

> <i_f3d_flags>
0

> <r_lp_tautomer_probability>
1

> <s_lp_Force_Field>
OPLS_2005

> <r_lp_Energy>
18.979813

> <b_lp_Chiralities_Consistent>
1

> <s_lp_Variant>
CHEMBL220_lig487-1

> <s_i_glide_gridfile>
glide-grid_1e66

> <i_i_glide_lignum>
565

> <i_i_glide_rotatable_bonds>
7

> <r_i_docking_score>
-7.48373185838522

> <r_i_glide_ligand_efficiency>
-0.325379646016749

> <r_i_glide_ligand_efficiency_sa>
-0.925336430255694

> <r_i_glide_ligand_efficiency_ln>
-1.80963422208627

> <r_i_glide_gscore>
-7.48373185838522

> <r_i_glide_lipo>
-4.19891500364093

> <r_i_glide_hbond>
0

> <r_i_glide_metal>
0

> <r_i_glide_rewards>
-1.96545435473157

> <r_i_glide_evdw>
-40.3489265441895

> <r_i_glide_ecoul>
-1.07386207580566

> <r_i_glide_erotb>
0.859163138567598

> <r_i_glide_esite>
0

> <r_i_glide_emodel>
-57.1491751749761

> <r_i_glide_energy>
-41.4227886199951

> <r_i_glide_einternal>
4.41796207427979

> <i_i_glide_confnum>
154

> <i_i_glide_posenum>
281

> <r_i_glide_eff_state_penalty>
0

> <s_user_duplicate_titles>
CHEMBL220_lig487,95514

> <s_m_subgroup_title>
dock_pv

> <s_m_subgroupid>
dock_pv

> <b_m_subgroup_collapsed>
0

$$$$
CHEMBL220_lig986
                    3D
 Schrodinger Suite 2021-1.
 53 55  0  0  1  0            999 V2000
    1.6190   68.6348   63.1837 C   0  0  0  0  0  0
    1.7896   68.2329   64.6770 C   0  0  1  0  0  0
    0.4541   69.3079   62.9596 O   0  0  0  0  0  0
    2.4242   68.3597   62.2982 O   0  0  0  0  0  0
    0.5992   67.3450   65.1923 C   0  0  0  0  0  0
    3.1557   67.5410   64.9460 C   0  0  0  0  0  0
    4.4260   68.4045   64.7362 C   0  0  0  0  0  0
    4.5805   69.5592   65.7357 C   0  0  0  0  0  0
   -0.2060   67.7727   66.4734 C   0  0  0  0  0  0
    0.5517   67.5018   67.8178 C   0  0  0  0  0  0
    0.0519   66.6025   68.6916 N   0  0  0  0  0  0
    1.5425   68.1739   68.0901 O   0  0  0  0  0  0
   -2.5304   68.1345   67.3439 C   0  0  0  0  0  0
   -1.8324   69.4935   67.2581 C   0  0  0  0  0  0
   -0.5641   69.2774   66.4428 C   0  0  0  0  0  0
   -1.6578   67.2129   66.4924 C   0  0  0  0  0  0
    0.5479   66.3660   70.0521 C   0  0  0  0  0  0
    1.3580   65.0821   70.1955 C   0  0  0  0  0  0
    0.7175   63.8291   70.2172 C   0  0  0  0  0  0
    3.5356   63.9941   70.4847 C   0  0  0  0  0  0
    2.7548   65.1502   70.3591 C   0  0  0  0  0  0
    2.8714   62.7740   70.4864 C   0  0  0  0  0  0
    1.5130   62.6959   70.3666 C   0  0  0  0  0  0
    1.1432   61.3905   70.3712 O   0  0  0  0  0  0
    2.2903   60.6709   70.7309 C   0  0  0  0  0  0
    3.3931   61.5214   70.5648 O   0  0  0  0  0  0
    1.7964   69.1694   65.2329 H   0  0  0  0  0  0
   -0.0778   69.4013   63.7515 H   0  0  0  0  0  0
   -0.1284   67.3080   64.3886 H   0  0  0  0  0  0
    0.8995   66.3003   65.2841 H   0  0  0  0  0  0
    3.2330   66.6459   64.3294 H   0  0  0  0  0  0
    3.1492   67.1707   65.9682 H   0  0  0  0  0  0
    4.4585   68.8120   63.7277 H   0  0  0  0  0  0
    5.3037   67.7615   64.7969 H   0  0  0  0  0  0
    5.5319   70.0728   65.5916 H   0  0  0  0  0  0
    4.5472   69.2057   66.7661 H   0  0  0  0  0  0
    3.7929   70.3036   65.6140 H   0  0  0  0  0  0
   -0.7266   66.0397   68.3886 H   0  0  0  0  0  0
   -2.5763   67.7677   68.3675 H   0  0  0  0  0  0
   -3.5579   68.1787   66.9752 H   0  0  0  0  0  0
   -1.5850   69.8748   68.2455 H   0  0  0  0  0  0
   -2.4572   70.2346   66.7680 H   0  0  0  0  0  0
    0.2539   69.9126   66.7712 H   0  0  0  0  0  0
   -0.8080   69.5728   65.4215 H   0  0  0  0  0  0
   -2.0565   67.3082   65.4929 H   0  0  0  0  0  0
   -1.7379   66.1564   66.7386 H   0  0  0  0  0  0
    1.1409   67.2144   70.4070 H   0  0  0  0  0  0
   -0.3084   66.3212   70.7238 H   0  0  0  0  0  0
   -0.3526   63.7509   70.1027 H   0  0  0  0  0  0
    4.6091   64.0612   70.5797 H   0  0  0  0  0  0
    3.2475   66.1096   70.3696 H   0  0  0  0  0  0
    2.3871   59.7759   70.1163 H   0  0  0  0  0  0
    2.2147   60.3798   71.7803 H   0  0  0  0  0  0
  1  4  2  0  0  0
  1  3  1  0  0  0
  1  2  1  0  0  0
  2  5  1  0  0  0
  2  6  1  0  0  0
  2 27  1  0  0  0
  3 28  1  0  0  0
  5  9  1  0  0  0
  5 29  1  0  0  0
  5 30  1  0  0  0
  6  7  1  0  0  0
  6 31  1  0  0  0
  6 32  1  0  0  0
  7  8  1  0  0  0
  7 33  1  0  0  0
  7 34  1  0  0  0
  8 35  1  0  0  0
  8 36  1  0  0  0
  8 37  1  0  0  0
  9 15  1  0  0  0
  9 16  1  0  0  0
  9 10  1  0  0  0
 10 11  1  0  0  0
 10 12  2  0  0  0
 11 17  1  0  0  0
 11 38  1  0  0  0
 13 16  1  0  0  0
 13 14  1  0  0  0
 13 39  1  0  0  0
 13 40  1  0  0  0
 14 15  1  0  0  0
 14 41  1  0  0  0
 14 42  1  0  0  0
 15 43  1  0  0  0
 15 44  1  0  0  0
 16 45  1  0  0  0
 16 46  1  0  0  0
 17 18  1  0  0  0
 17 47  1  0  0  0
 17 48  1  0  0  0
 18 19  2  0  0  0
 18 21  1  0  0  0
 19 23  1  0  0  0
 19 49  1  0  0  0
 20 22  1  0  0  0
 20 21  2  0  0  0
 20 50  1  0  0  0
 21 51  1  0  0  0
 22 23  2  0  0  0
 22 26  1  0  0  0
 23 24  1  0  0  0
 24 25  1  0  0  0
 25 26  1  0  0  0
 25 52  1  0  0  0
 25 53  1  0  0  0
M  END
> <s_m_entry_id>
8661

> <s_m_entry_name>
dock_pv.171

> <s_m_Source_Path>
/home/csk/Desktop/cluster/DUD-E-result/aces

> <s_m_Source_File>
dock_pv.maegz

> <i_m_Source_File_Index>
171

> <chembl_id>
CHEMBL386053

> <chembl_pref_name>
None

> <i_lp_mmshare_version>
53161

> <i_f3d_flags>
0

> <r_lp_tautomer_probability>
1

> <s_lp_Force_Field>
OPLS_2005

> <r_lp_Energy>
42.564525

> <b_lp_Chiralities_Consistent>
1

> <s_lp_Variant>
CHEMBL220_lig986-2

> <s_i_glide_gridfile>
glide-grid_1e66

> <i_i_glide_lignum>
1361

> <i_i_glide_rotatable_bonds>
10

> <r_i_docking_score>
-7.47114937094618

> <r_i_glide_ligand_efficiency>
-0.287351898882545

> <r_i_glide_ligand_efficiency_sa>
-0.851278869764416

> <r_i_glide_ligand_efficiency_ln>
-1.7545749149261

> <r_i_glide_gscore>
-7.47114937094618

> <r_i_glide_lipo>
-3.57880511174298

> <r_i_glide_hbond>
0

> <r_i_glide_metal>
0

> <r_i_glide_rewards>
-2.67913573825716

> <r_i_glide_evdw>
-36.7939834594727

> <r_i_glide_ecoul>
-2.67888379096985

> <r_i_glide_erotb>
1.02832322067308

> <r_i_glide_esite>
0

> <r_i_glide_emodel>
-48.6390973412124

> <r_i_glide_energy>
-39.4728672504425

> <r_i_glide_einternal>
9.1740550994873

> <i_i_glide_confnum>
62

> <i_i_glide_posenum>
391

> <r_i_glide_eff_state_penalty>
0

> <s_user_duplicate_titles>
CHEMBL220_lig986

> <s_m_subgroup_title>
dock_pv

> <s_m_subgroupid>
dock_pv

> <b_m_subgroup_collapsed>
0

$$$$
CHEMBL220_lig857
                    3D
 Schrodinger Suite 2021-1.
 63 66  0  0  1  0            999 V2000
    0.3430   64.3286   71.1085 S   0  0  0  0  0  0
    1.1965   62.7896   70.9323 C   0  0  0  0  0  0
    0.8062   68.2290   64.3903 N   0  3  1  0  0  0
    1.0503   64.9511   69.5628 C   0  0  1  0  0  0
    2.2450   62.8583   70.0174 C   0  0  0  0  0  0
    0.9576   61.6123   71.6378 C   0  0  0  0  0  0
    1.2060   66.4702   69.6459 C   0  0  0  0  0  0
    2.4031   64.2227   69.4092 C   0  0  0  0  0  0
    1.7909   60.4930   71.4597 C   0  0  0  0  0  0
    0.3343   67.4536   68.8445 C   0  0  0  0  0  0
    3.1152   61.7789   69.8788 C   0  0  0  0  0  0
    0.2788   67.4487   67.2952 C   0  0  2  0  0  0
    2.8823   60.5952   70.5787 C   0  0  0  0  0  0
    2.0798   66.9164   70.3680 O   0  0  0  0  0  0
    1.9316   69.3079   64.4125 C   0  0  0  0  0  0
    1.5484   67.0376   66.5227 C   0  0  0  0  0  0
   -0.2498   68.7700   66.6936 C   0  0  0  0  0  0
    1.3548   66.9016   64.9899 C   0  0  0  0  0  0
   -0.4762   68.7001   65.1565 C   0  0  0  0  0  0
   -0.7126   66.5076   66.9973 O   0  0  0  0  0  0
    1.6116   59.2899   72.1179 O   0  0  0  0  0  0
    3.7627   59.5555   70.3986 O   0  0  0  0  0  0
    0.3550   68.0339   62.9194 C   0  0  0  0  0  0
    3.3345   68.9363   63.9819 C   0  0  0  0  0  0
    3.2547   58.5080   69.5882 C   0  0  0  0  0  0
    0.4702   59.1106   72.9495 C   0  0  0  0  0  0
    3.6337   68.9428   62.6246 C   0  0  0  0  0  0
    4.3438   68.7352   64.9285 C   0  0  0  0  0  0
    4.9350   68.7363   62.2166 C   0  0  0  0  0  0
    5.6510   68.5104   64.5082 C   0  0  0  0  0  0
    5.9418   68.5112   63.1470 C   0  0  0  0  0  0
    0.3433   64.7122   68.7695 H   0  0  0  0  0  0
    0.1350   61.5842   72.3348 H   0  0  0  0  0  0
    3.2059   64.7244   69.9548 H   0  0  0  0  0  0
    2.7439   64.1838   68.3777 H   0  0  0  0  0  0
   -0.6736   67.3068   69.2035 H   0  0  0  0  0  0
    0.6308   68.4521   69.1684 H   0  0  0  0  0  0
    3.9716   61.8428   69.2252 H   0  0  0  0  0  0
    1.6030   70.0711   63.6994 H   0  0  0  0  0  0
    1.9438   69.7078   65.4235 H   0  0  0  0  0  0
    2.3355   67.7558   66.7479 H   0  0  0  0  0  0
    1.9426   66.1082   66.9186 H   0  0  0  0  0  0
   -1.1775   69.0530   67.1951 H   0  0  0  0  0  0
    0.4206   69.5852   66.9625 H   0  0  0  0  0  0
    0.6377   66.1196   64.7663 H   0  0  0  0  0  0
    2.2784   66.6430   64.4733 H   0  0  0  0  0  0
   -1.2416   67.9518   64.9462 H   0  0  0  0  0  0
   -0.8550   69.6313   64.7362 H   0  0  0  0  0  0
   -0.2999   65.6378   66.9497 H   0  0  0  0  0  0
    1.2100   67.7078   62.3336 H   0  0  0  0  0  0
   -0.4550   67.3095   62.8829 H   0  0  0  0  0  0
   -0.0077   68.9939   62.5474 H   0  0  0  0  0  0
    3.9703   57.6884   69.5686 H   0  0  0  0  0  0
    3.0983   58.8515   68.5645 H   0  0  0  0  0  0
    2.3165   58.1014   69.9669 H   0  0  0  0  0  0
    0.4646   58.0920   73.3359 H   0  0  0  0  0  0
    0.4879   59.7880   73.8048 H   0  0  0  0  0  0
   -0.4572   59.2566   72.3931 H   0  0  0  0  0  0
    2.8802   69.1586   61.8814 H   0  0  0  0  0  0
    4.1393   68.7891   65.9872 H   0  0  0  0  0  0
    5.1432   68.7910   61.1682 H   0  0  0  0  0  0
    6.4418   68.3804   65.2332 H   0  0  0  0  0  0
    6.9592   68.3866   62.8025 H   0  0  0  0  0  0
  1  2  1  0  0  0
  1  4  1  0  0  0
  2  5  2  0  0  0
  2  6  1  0  0  0
  3 19  1  0  0  0
  3 15  1  0  0  0
  3 23  1  0  0  0
  3 18  1  0  0  0
  4  7  1  0  0  0
  4  8  1  0  0  0
  4 32  1  0  0  0
  5 11  1  0  0  0
  5  8  1  0  0  0
  6  9  2  0  0  0
  6 33  1  0  0  0
  7 10  1  0  0  0
  7 14  2  0  0  0
  8 34  1  0  0  0
  8 35  1  0  0  0
  9 13  1  0  0  0
  9 21  1  0  0  0
 10 12  1  0  0  0
 10 36  1  0  0  0
 10 37  1  0  0  0
 11 13  2  0  0  0
 11 38  1  0  0  0
 12 16  1  0  0  0
 12 17  1  0  0  0
 12 20  1  0  0  0
 13 22  1  0  0  0
 15 24  1  0  0  0
 15 39  1  0  0  0
 15 40  1  0  0  0
 16 18  1  0  0  0
 16 41  1  0  0  0
 16 42  1  0  0  0
 17 19  1  0  0  0
 17 43  1  0  0  0
 17 44  1  0  0  0
 18 45  1  0  0  0
 18 46  1  0  0  0
 19 47  1  0  0  0
 19 48  1  0  0  0
 20 49  1  0  0  0
 21 26  1  0  0  0
 22 25  1  0  0  0
 23 50  1  0  0  0
 23 51  1  0  0  0
 23 52  1  0  0  0
 24 27  1  0  0  0
 24 28  2  0  0  0
 25 53  1  0  0  0
 25 54  1  0  0  0
 25 55  1  0  0  0
 26 56  1  0  0  0
 26 57  1  0  0  0
 26 58  1  0  0  0
 27 29  2  0  0  0
 27 59  1  0  0  0
 28 30  1  0  0  0
 28 60  1  0  0  0
 29 31  1  0  0  0
 29 61  1  0  0  0
 30 31  2  0  0  0
 30 62  1  0  0  0
 31 63  1  0  0  0
M  CHG  1   3   1
M  END
> <s_m_entry_id>
8662

> <s_m_entry_name>
dock_pv.172

> <s_m_Source_Path>
/home/csk/Desktop/cluster/DUD-E-result/aces

> <s_m_Source_File>
dock_pv.maegz

> <i_m_Source_File_Index>
172

> <chembl_id>
CHEMBL360832

> <chembl_pref_name>
None

> <i_lp_mmshare_version>
53161

> <i_f3d_flags>
0

> <r_lp_tautomer_probability>
0.999999960000001

> <s_lp_Force_Field>
OPLS_2005

> <r_lp_Energy>
48.79656

> <b_lp_Chiralities_Consistent>
1

> <s_lp_Variant>
CHEMBL220_lig857-4

> <s_i_glide_gridfile>
glide-grid_1e66

> <i_i_glide_lignum>
1125

> <i_i_glide_rotatable_bonds>
8

> <r_i_docking_score>
-7.46017104654208

> <r_i_glide_ligand_efficiency>
-0.240650678920712

> <r_i_glide_ligand_efficiency_sa>
-0.755975385881043

> <r_i_glide_ligand_efficiency_ln>
-1.68249719778078

> <r_i_glide_gscore>
-7.46017104654208

> <r_i_glide_lipo>
-3.25742757519886

> <r_i_glide_hbond>
-0.32

> <r_i_glide_metal>
0

> <r_i_glide_rewards>
-1.62019887258773

> <r_i_glide_evdw>
-33.2726516723633

> <r_i_glide_ecoul>
-7.39344501495361

> <r_i_glide_erotb>
0.51010473710571

> <r_i_glide_esite>
0

> <r_i_glide_emodel>
-47.2295333452682

> <r_i_glide_energy>
-40.6660966873169

> <r_i_glide_einternal>
14.4064254760742

> <i_i_glide_confnum>
32

> <i_i_glide_posenum>
199

> <r_i_glide_eff_state_penalty>
0

> <s_user_duplicate_titles>
CHEMBL220_lig857,313694

> <s_m_subgroup_title>
dock_pv

> <s_m_subgroupid>
dock_pv

> <b_m_subgroup_collapsed>
0

$$$$
CHEMBL220_lig667
                    3D
 Schrodinger Suite 2021-1.
 40 43  0  0  1  0            999 V2000
    5.9429   69.7492   65.0011 N   0  0  0  0  0  0
    4.9270   69.2668   64.2637 C   0  0  0  0  0  0
    3.6604   69.0122   64.8220 C   0  0  0  0  0  0
    3.4031   69.4506   66.1332 C   0  0  0  0  0  0
    4.4558   70.0433   66.9058 C   0  0  0  0  0  0
    4.3538   70.5080   68.2599 C   0  0  0  0  0  0
    5.4977   70.9080   68.9365 C   0  0  0  0  0  0
    6.7430   70.9080   68.3387 C   0  0  0  0  0  0
    6.8690   70.5080   67.0183 C   0  0  0  0  0  0
    5.7387   70.1015   66.2868 C   0  0  0  0  0  0
    2.6596   68.1560   64.0392 C   0  0  2  0  0  0
    2.7931   66.6764   64.5127 C   0  0  0  0  0  0
    3.9431   65.9200   63.8113 C   0  0  0  0  0  0
    4.6016   66.4801   62.7680 C   0  0  0  0  0  0
    4.3059   67.8745   62.2058 C   0  0  2  0  0  0
    5.2518   68.9346   62.8039 C   0  0  0  0  0  0
    2.8492   68.2731   62.5201 C   0  0  0  0  0  0
    4.1464   64.4791   64.2850 C   0  0  0  0  0  0
    2.1289   69.2247   66.6673 N   0  0  0  0  0  0
    2.8854   70.5080   69.1680 Cl  0  0  0  0  0  0
    4.8743   63.4980   63.3574 C   0  0  0  0  0  0
    5.4261   71.1671   69.9745 H   0  0  0  0  0  0
    7.6044   71.2130   68.9113 H   0  0  0  0  0  0
    7.8320   70.5084   66.5303 H   0  0  0  0  0  0
    1.6565   68.5167   64.2692 H   0  0  0  0  0  0
    1.8567   66.1398   64.3680 H   0  0  0  0  0  0
    2.9340   66.6145   65.5927 H   0  0  0  0  0  0
    5.3948   65.9245   62.2992 H   0  0  0  0  0  0
    4.4273   67.8352   61.1248 H   0  0  0  0  0  0
    6.2968   68.6410   62.6831 H   0  0  0  0  0  0
    5.1427   69.8563   62.2306 H   0  0  0  0  0  0
    2.6781   69.3075   62.2149 H   0  0  0  0  0  0
    2.1129   67.7042   61.9622 H   0  0  0  0  0  0
    3.1642   64.0569   64.5035 H   0  0  0  0  0  0
    4.6752   64.5063   65.2295 H   0  0  0  0  0  0
    1.9354   69.5421   67.6099 H   0  0  0  0  0  0
    1.4059   68.8128   66.0978 H   0  0  0  0  0  0
    4.9252   62.5095   63.8144 H   0  0  0  0  0  0
    5.9005   63.8101   63.1680 H   0  0  0  0  0  0
    4.3430   63.3803   62.4132 H   0  0  0  0  0  0
  1 10  1  0  0  0
  1  2  2  0  0  0
  2  3  1  0  0  0
  2 16  1  0  0  0
  3  4  2  0  0  0
  3 11  1  0  0  0
  4  5  1  0  0  0
  4 19  1  0  0  0
  5  6  2  0  0  0
  5 10  1  0  0  0
  6  7  1  0  0  0
  6 20  1  0  0  0
  7  8  2  0  0  0
  7 22  1  0  0  0
  8  9  1  0  0  0
  8 23  1  0  0  0
  9 10  2  0  0  0
  9 24  1  0  0  0
 11 12  1  0  0  0
 11 17  1  0  0  0
 11 25  1  0  0  0
 12 13  1  0  0  0
 12 26  1  0  0  0
 12 27  1  0  0  0
 13 14  2  0  0  0
 13 18  1  0  0  0
 14 15  1  0  0  0
 14 28  1  0  0  0
 15 16  1  0  0  0
 15 17  1  0  0  0
 15 29  1  0  0  0
 16 30  1  0  0  0
 16 31  1  0  0  0
 17 32  1  0  0  0
 17 33  1  0  0  0
 18 21  1  0  0  0
 18 34  1  0  0  0
 18 35  1  0  0  0
 19 36  1  0  0  0
 19 37  1  0  0  0
 21 38  1  0  0  0
 21 39  1  0  0  0
 21 40  1  0  0  0
M  END
> <s_m_entry_id>
8663

> <s_m_entry_name>
dock_pv.173

> <s_m_Source_Path>
/home/csk/Desktop/cluster/DUD-E-result/aces

> <s_m_Source_File>
dock_pv.maegz

> <i_m_Source_File_Index>
173

> <chembl_id>
CHEMBL139819

> <chembl_pref_name>
None

> <i_lp_mmshare_version>
53161

> <i_f3d_flags>
0

> <r_lp_tautomer_probability>
1

> <s_lp_Force_Field>
OPLS_2005

> <r_lp_Energy>
29.215741

> <b_lp_Chiralities_Consistent>
1

> <s_lp_Variant>
CHEMBL220_lig667-2

> <s_i_glide_gridfile>
glide-grid_1e66

> <i_i_glide_lignum>
786

> <i_i_glide_rotatable_bonds>
1

> <r_i_docking_score>
-7.45580582833201

> <r_i_glide_ligand_efficiency>
-0.355038372777715

> <r_i_glide_ligand_efficiency_sa>
-0.979523949205389

> <r_i_glide_ligand_efficiency_ln>
-1.84343292518083

> <r_i_glide_gscore>
-7.45580582833201

> <r_i_glide_lipo>
-3.78177408976733

> <r_i_glide_hbond>
0

> <r_i_glide_metal>
0

> <r_i_glide_rewards>
-2.25375353507728

> <r_i_glide_evdw>
-33.1565437316895

> <r_i_glide_ecoul>
1.58365988731384

> <r_i_glide_erotb>
0

> <r_i_glide_esite>
0

> <r_i_glide_emodel>
-41.3240774516842

> <r_i_glide_energy>
-31.5728838443756

> <r_i_glide_einternal>
0.558830618858337

> <i_i_glide_confnum>
1

> <i_i_glide_posenum>
381

> <r_i_glide_eff_state_penalty>
0

> <s_user_duplicate_titles>
CHEMBL220_lig667,236335

> <s_m_subgroup_title>
dock_pv

> <s_m_subgroupid>
dock_pv

> <b_m_subgroup_collapsed>
0

$$$$
CHEMBL220_lig1032
                    3D
 Schrodinger Suite 2021-1.
 35 37  0  0  1  0            999 V2000
    4.3055   68.5596   63.9670 C   0  0  0  0  0  0
    3.8347   68.8132   62.6823 C   0  0  0  0  0  0
    2.4728   68.9082   62.3946 C   0  0  0  0  0  0
    3.3905   68.3329   65.0018 C   0  0  0  0  0  0
    2.0148   68.3916   64.7511 C   0  0  0  0  0  0
    1.5705   68.7113   63.4546 C   0  0  0  0  0  0
    0.1860   68.7710   63.5109 N   0  0  0  0  0  0
    0.8804   68.1775   65.5555 C   0  0  0  0  0  0
   -0.2788   68.5080   64.8031 C   0  0  0  0  0  0
   -1.5707   68.5018   65.4044 C   0  0  0  0  0  0
   -1.6328   68.0623   66.7058 N   0  3  0  0  0  0
   -0.5489   67.6719   67.4041 C   0  0  0  0  0  0
    0.7232   67.7476   66.8752 C   0  0  0  0  0  0
    5.6739   68.5028   64.1335 O   0  0  0  0  0  0
    6.2402   68.8928   65.3851 C   0  0  0  0  0  0
   -2.8873   68.9080   64.7474 C   0  0  0  0  0  0
   -0.6265   69.0808   62.3680 C   0  0  0  0  0  0
   -2.8911   68.0476   67.5009 C   0  0  0  0  0  0
    4.5528   68.9672   61.8883 H   0  0  0  0  0  0
    2.1486   69.1400   61.3910 H   0  0  0  0  0  0
    3.7264   68.1080   65.9874 H   0  0  0  0  0  0
   -0.7103   67.3080   68.4058 H   0  0  0  0  0  0
    1.5430   67.4620   67.4957 H   0  0  0  0  0  0
    7.2562   68.5079   65.4491 H   0  0  0  0  0  0
    6.2834   69.9802   65.4603 H   0  0  0  0  0  0
    5.7331   68.5085   66.2649 H   0  0  0  0  0  0
   -2.8092   69.2824   63.7330 H   0  0  0  0  0  0
   -3.6405   68.1257   64.7682 H   0  0  0  0  0  0
   -3.3022   69.7080   65.3335 H   0  0  0  0  0  0
   -0.0570   68.9551   61.4461 H   0  0  0  0  0  0
   -1.4387   68.3626   62.3680 H   0  0  0  0  0  0
   -0.9944   70.1046   62.4271 H   0  0  0  0  0  0
   -3.7806   68.1080   66.8842 H   0  0  0  0  0  0
   -2.9357   67.1194   68.0743 H   0  0  0  0  0  0
   -2.8557   68.9079   68.1650 H   0  0  0  0  0  0
  1  4  1  0  0  0
  1 14  1  0  0  0
  1  2  2  0  0  0
  2  3  1  0  0  0
  2 19  1  0  0  0
  3  6  2  0  0  0
  3 20  1  0  0  0
  4  5  2  0  0  0
  4 21  1  0  0  0
  5  6  1  0  0  0
  5  8  1  0  0  0
  6  7  1  0  0  0
  7  9  1  0  0  0
  7 17  1  0  0  0
  8  9  2  0  0  0
  8 13  1  0  0  0
  9 10  1  0  0  0
 10 11  2  0  0  0
 10 16  1  0  0  0
 11 12  1  0  0  0
 11 18  1  0  0  0
 12 13  2  0  0  0
 12 22  1  0  0  0
 13 23  1  0  0  0
 14 15  1  0  0  0
 15 24  1  0  0  0
 15 25  1  0  0  0
 15 26  1  0  0  0
 16 27  1  0  0  0
 16 28  1  0  0  0
 16 29  1  0  0  0
 17 30  1  0  0  0
 17 31  1  0  0  0
 17 32  1  0  0  0
 18 33  1  0  0  0
 18 34  1  0  0  0
 18 35  1  0  0  0
M  CHG  1  11   1
M  END
> <s_m_entry_id>
8664

> <s_m_entry_name>
dock_pv.174

> <s_m_Source_Path>
/home/csk/Desktop/cluster/DUD-E-result/aces

> <s_m_Source_File>
dock_pv.maegz

> <i_m_Source_File_Index>
174

> <chembl_id>
CHEMBL220959

> <chembl_pref_name>
None

> <i_lp_mmshare_version>
53161

> <i_f3d_flags>
0

> <r_lp_tautomer_probability>
1

> <s_lp_Force_Field>
OPLS_2005

> <r_lp_Energy>
31.847962

> <b_lp_Chiralities_Consistent>
1

> <s_lp_Variant>
CHEMBL220_lig1032-1

> <s_i_glide_gridfile>
glide-grid_1e66

> <i_i_glide_lignum>
1431

> <i_i_glide_rotatable_bonds>
1

> <r_i_docking_score>
-7.45525819298258

> <r_i_glide_ligand_efficiency>
-0.414181010721254

> <r_i_glide_ligand_efficiency_sa>
-1.08546131844667

> <r_i_glide_ligand_efficiency_ln>
-1.91633567610881

> <r_i_glide_gscore>
-7.45525819298258

> <r_i_glide_lipo>
-2.9483588916147

> <r_i_glide_hbond>
0

> <r_i_glide_metal>
0

> <r_i_glide_rewards>
-2.62985216792214

> <r_i_glide_evdw>
-27.0796680450439

> <r_i_glide_ecoul>
-3.48709154129028

> <r_i_glide_erotb>
0

> <r_i_glide_esite>
0

> <r_i_glide_emodel>
-39.0227258639683

> <r_i_glide_energy>
-30.5667595863342

> <r_i_glide_einternal>
4.38823699951172

> <i_i_glide_confnum>
1

> <i_i_glide_posenum>
134

> <r_i_glide_eff_state_penalty>
0

> <s_user_duplicate_titles>
CHEMBL220_lig1032

> <s_m_subgroup_title>
dock_pv

> <s_m_subgroupid>
dock_pv

> <b_m_subgroup_collapsed>
0

$$$$
CHEMBL220_lig526
                    3D
 Schrodinger Suite 2021-1.
 30 33  0  0  1  0            999 V2000
    1.2815   68.6641   63.5575 C   0  0  0  0  0  0
    2.0935   68.2829   64.6108 C   0  0  0  0  0  0
    1.6455   67.8905   65.8277 N   0  0  0  0  0  0
   -0.0820   68.7827   63.7808 C   0  0  0  0  0  0
    0.2989   67.9251   66.0398 C   0  0  0  0  0  0
   -0.6119   68.4300   65.0570 C   0  0  0  0  0  0
    2.1067   68.9462   62.3225 C   0  0  0  0  0  0
    3.4915   68.4323   64.1924 C   0  0  0  0  0  0
    3.5093   68.7779   62.8427 C   0  0  0  0  0  0
   -0.2113   67.4289   67.2632 C   0  0  0  0  0  0
   -1.9930   68.5083   65.3825 C   0  0  0  0  0  0
   -0.8678   69.3080   62.7679 N   0  0  0  0  0  0
   -1.5819   67.4512   67.5065 C   0  0  0  0  0  0
   -2.4576   68.0234   66.5969 C   0  0  0  0  0  0
   -2.0783   66.9077   68.6340 F   0  0  0  0  0  0
    4.6810   68.3261   64.9039 C   0  0  0  0  0  0
    4.7226   68.9525   62.1847 C   0  0  0  0  0  0
    5.8962   68.5089   64.2495 C   0  0  0  0  0  0
    5.9180   68.7945   62.8839 C   0  0  0  0  0  0
    1.9456   69.9550   61.9406 H   0  0  0  0  0  0
    1.8752   68.2628   61.5050 H   0  0  0  0  0  0
    0.4632   67.0088   67.9946 H   0  0  0  0  0  0
   -2.6951   68.9071   64.6645 H   0  0  0  0  0  0
   -1.6476   69.8720   63.0963 H   0  0  0  0  0  0
   -0.3672   69.6279   61.9539 H   0  0  0  0  0  0
   -3.5147   68.0539   66.8198 H   0  0  0  0  0  0
    4.6674   68.1094   65.9606 H   0  0  0  0  0  0
    4.7449   69.2165   61.1392 H   0  0  0  0  0  0
    6.8188   68.4366   64.8044 H   0  0  0  0  0  0
    6.8604   68.9078   62.3689 H   0  0  0  0  0  0
  1  2  1  0  0  0
  1  4  2  0  0  0
  1  7  1  0  0  0
  2  3  2  0  0  0
  2  8  1  0  0  0
  3  5  1  0  0  0
  4  6  1  0  0  0
  4 12  1  0  0  0
  5  6  1  0  0  0
  5 10  2  0  0  0
  6 11  2  0  0  0
  7  9  1  0  0  0
  7 20  1  0  0  0
  7 21  1  0  0  0
  8 16  1  0  0  0
  8  9  2  0  0  0
  9 17  1  0  0  0
 10 13  1  0  0  0
 10 22  1  0  0  0
 11 14  1  0  0  0
 11 23  1  0  0  0
 12 24  1  0  0  0
 12 25  1  0  0  0
 13 14  2  0  0  0
 13 15  1  0  0  0
 14 26  1  0  0  0
 16 18  2  0  0  0
 16 27  1  0  0  0
 17 19  2  0  0  0
 17 28  1  0  0  0
 18 19  1  0  0  0
 18 29  1  0  0  0
 19 30  1  0  0  0
M  END
> <s_m_entry_id>
8665

> <s_m_entry_name>
dock_pv.175

> <s_m_Source_Path>
/home/csk/Desktop/cluster/DUD-E-result/aces

> <s_m_Source_File>
dock_pv.maegz

> <i_m_Source_File_Index>
175

> <chembl_id>
CHEMBL304447

> <chembl_pref_name>
None

> <i_lp_mmshare_version>
53161

> <i_f3d_flags>
0

> <r_lp_tautomer_probability>
1

> <s_lp_Force_Field>
OPLS_2005

> <r_lp_Energy>
35.282801

> <b_lp_Chiralities_Consistent>
1

> <s_lp_Variant>
CHEMBL220_lig526-1

> <s_i_glide_gridfile>
glide-grid_1e66

> <i_i_glide_lignum>
607

> <i_i_glide_rotatable_bonds>
0

> <r_i_docking_score>
-7.45401731706747

> <r_i_glide_ligand_efficiency>
-0.392316700898288

> <r_i_glide_ligand_efficiency_sa>
-1.04685853047068

> <r_i_glide_ligand_efficiency_ln>
-1.88975348748903

> <r_i_glide_gscore>
-7.45401731706747

> <r_i_glide_lipo>
-2.99199747539064

> <r_i_glide_hbond>
-0.278154797791687

> <r_i_glide_metal>
0

> <r_i_glide_rewards>
-2.12383255696955

> <r_i_glide_evdw>
-28.2521705627441

> <r_i_glide_ecoul>
-4.31615972518921

> <r_i_glide_erotb>
0

> <r_i_glide_esite>
0

> <r_i_glide_emodel>
-44.2108013479321

> <r_i_glide_energy>
-32.5683302879333

> <r_i_glide_einternal>
0

> <i_i_glide_confnum>
1

> <i_i_glide_posenum>
218

> <r_i_glide_eff_state_penalty>
0

> <s_user_duplicate_titles>
CHEMBL220_lig526

> <s_m_subgroup_title>
dock_pv

> <s_m_subgroupid>
dock_pv

> <b_m_subgroup_collapsed>
0

$$$$
CHEMBL220_lig507
                    3D
 Schrodinger Suite 2021-1.
 33 36  0  0  1  0            999 V2000
    0.7072   68.5080   63.7621 C   0  0  0  0  0  0
    1.3621   68.1127   64.9163 C   0  0  0  0  0  0
    2.7006   68.0562   65.0665 N   0  0  0  0  0  0
    1.4600   68.8977   62.6547 C   0  0  0  0  0  0
    0.3809   67.8153   65.9585 C   0  0  0  0  0  0
   -0.7863   68.4868   63.9982 C   0  0  0  0  0  0
    2.8866   68.8933   62.7749 C   0  0  0  0  0  0
   -0.8860   68.1080   65.4637 C   0  0  0  0  0  0
    3.4577   68.4593   64.0174 C   0  0  0  0  0  0
    0.5474   67.3080   67.2407 C   0  0  0  0  0  0
   -2.0058   67.9377   66.2823 C   0  0  0  0  0  0
    0.7988   69.3100   61.4944 N   0  0  0  0  0  0
   -0.5730   67.0580   68.0268 C   0  0  0  0  0  0
   -1.8498   67.3922   67.5575 C   0  0  0  0  0  0
    3.7672   69.3172   61.7454 C   0  0  0  0  0  0
    4.8579   68.4610   64.1912 C   0  0  0  0  0  0
   -0.3863   66.4546   69.4008 C   0  0  0  0  0  0
    5.1400   69.3530   61.9681 C   0  0  0  0  0  0
    5.6778   68.9086   63.1666 C   0  0  0  0  0  0
   -1.2805   67.7672   63.3457 H   0  0  0  0  0  0
   -1.2522   69.4317   63.7740 H   0  0  0  0  0  0
    1.5327   67.0718   67.6127 H   0  0  0  0  0  0
   -2.9997   68.1583   65.9212 H   0  0  0  0  0  0
    1.3237   69.6363   60.6942 H   0  0  0  0  0  0
   -0.2090   69.3343   61.4966 H   0  0  0  0  0  0
   -2.7245   67.2241   68.1700 H   0  0  0  0  0  0
    3.3728   69.6494   60.7978 H   0  0  0  0  0  0
    5.2818   68.1364   65.1303 H   0  0  0  0  0  0
   -1.3095   66.5081   69.9683 H   0  0  0  0  0  0
    0.3783   66.9991   69.9577 H   0  0  0  0  0  0
   -0.0693   65.4141   69.3215 H   0  0  0  0  0  0
    5.7970   69.7082   61.1863 H   0  0  0  0  0  0
    6.7433   68.9164   63.3020 H   0  0  0  0  0  0
  1  2  1  0  0  0
  1  4  2  0  0  0
  1  6  1  0  0  0
  2  3  2  0  0  0
  2  5  1  0  0  0
  3  9  1  0  0  0
  4  7  1  0  0  0
  4 12  1  0  0  0
  5 10  1  0  0  0
  5  8  2  0  0  0
  6  8  1  0  0  0
  6 20  1  0  0  0
  6 21  1  0  0  0
  7  9  1  0  0  0
  7 15  2  0  0  0
  8 11  1  0  0  0
  9 16  2  0  0  0
 10 13  2  0  0  0
 10 22  1  0  0  0
 11 14  2  0  0  0
 11 23  1  0  0  0
 12 24  1  0  0  0
 12 25  1  0  0  0
 13 17  1  0  0  0
 13 14  1  0  0  0
 14 26  1  0  0  0
 15 18  1  0  0  0
 15 27  1  0  0  0
 16 19  1  0  0  0
 16 28  1  0  0  0
 17 29  1  0  0  0
 17 30  1  0  0  0
 17 31  1  0  0  0
 18 19  2  0  0  0
 18 32  1  0  0  0
 19 33  1  0  0  0
M  END
> <s_m_entry_id>
8666

> <s_m_entry_name>
dock_pv.176

> <s_m_Source_Path>
/home/csk/Desktop/cluster/DUD-E-result/aces

> <s_m_Source_File>
dock_pv.maegz

> <i_m_Source_File_Index>
176

> <chembl_id>
CHEMBL59844

> <chembl_pref_name>
None

> <i_lp_mmshare_version>
53161

> <i_f3d_flags>
0

> <r_lp_tautomer_probability>
1

> <s_lp_Force_Field>
OPLS_2005

> <r_lp_Energy>
36.755035

> <b_lp_Chiralities_Consistent>
1

> <s_lp_Variant>
CHEMBL220_lig507-1

> <s_i_glide_gridfile>
glide-grid_1e66

> <i_i_glide_lignum>
585

> <i_i_glide_rotatable_bonds>
0

> <r_i_docking_score>
-7.44463692743557

> <r_i_glide_ligand_efficiency>
-0.391822996180819

> <r_i_glide_ligand_efficiency_sa>
-1.04554112798989

> <r_i_glide_ligand_efficiency_ln>
-1.88737535724505

> <r_i_glide_gscore>
-7.44463692743557

> <r_i_glide_lipo>
-3.38733947861516

> <r_i_glide_hbond>
-0.127073624043959

> <r_i_glide_metal>
0

> <r_i_glide_rewards>
-2.09504704097632

> <r_i_glide_evdw>
-33.1364212036133

> <r_i_glide_ecoul>
-1.18903815746307

> <r_i_glide_erotb>
0

> <r_i_glide_esite>
0

> <r_i_glide_emodel>
-46.2275874163128

> <r_i_glide_energy>
-34.3254593610764

> <r_i_glide_einternal>
0

> <i_i_glide_confnum>
1

> <i_i_glide_posenum>
315

> <r_i_glide_eff_state_penalty>
0

> <s_user_duplicate_titles>
CHEMBL220_lig507

> <s_m_subgroup_title>
dock_pv

> <s_m_subgroupid>
dock_pv

> <b_m_subgroup_collapsed>
0

$$$$
CHEMBL220_lig1092
                    3D
 Schrodinger Suite 2021-1.
 56 59  0  0  1  0            999 V2000
    1.4789   61.9081   72.4213 C   0  0  0  0  0  0
    0.1464   61.6542   72.0643 C   0  0  0  0  0  0
   -0.5108   62.5079   71.1667 C   0  0  0  0  0  0
    2.1086   63.0660   71.9316 C   0  0  0  0  0  0
    1.4293   63.9266   71.0705 C   0  0  0  0  0  0
    0.1475   63.6119   70.6310 C   0  0  0  0  0  0
   -0.4480   64.5078   69.6338 C   0  0  0  0  0  0
    0.1218   65.6825   69.2729 C   0  0  0  0  0  0
    1.3778   66.0857   69.9682 C   0  0  0  0  0  0
    2.0619   65.0892   70.6615 O   0  0  0  0  0  0
    1.9242   67.1856   69.9679 O   0  0  0  0  0  0
   -0.4271   66.5307   68.1745 C   0  0  0  0  0  0
   -1.7709   66.9081   68.0976 C   0  0  0  0  0  0
   -2.2278   67.7207   67.0572 C   0  0  0  0  0  0
   -1.3610   68.1098   66.0337 C   0  0  0  0  0  0
   -0.0359   67.6635   66.0299 C   0  0  0  0  0  0
    0.4108   66.9078   67.1169 C   0  0  0  0  0  0
    0.8761   67.9116   64.8193 C   0  0  0  0  0  0
    1.9429   68.9081   65.0130 N   0  0  1  0  0  0
    3.0103   68.4555   65.9028 C   0  0  0  0  0  0
    3.9451   69.5159   66.4738 C   0  0  0  0  0  0
    3.6321   70.1078   67.7068 C   0  0  0  0  0  0
    4.5675   70.9069   68.3597 C   0  0  0  0  0  0
    5.7964   71.1482   67.7514 C   0  0  0  0  0  0
    6.0815   70.6220   66.4900 C   0  0  0  0  0  0
    5.1550   69.8085   65.8446 C   0  0  0  0  0  0
    2.5004   69.2997   63.7182 C   0  0  0  0  0  0
    2.0872   60.9903   73.2592 O   0  0  0  0  0  0
   -0.4692   60.5364   72.5858 O   0  0  0  0  0  0
   -1.7681   60.7245   73.1357 C   0  0  0  0  0  0
    3.4094   61.2255   73.7221 C   0  0  0  0  0  0
   -1.5213   62.2911   70.8559 H   0  0  0  0  0  0
    3.1202   63.3067   72.2075 H   0  0  0  0  0  0
   -1.3416   64.1632   69.1677 H   0  0  0  0  0  0
   -2.4564   66.6292   68.8832 H   0  0  0  0  0  0
   -3.2605   68.0373   67.0370 H   0  0  0  0  0  0
   -1.7386   68.7079   65.2161 H   0  0  0  0  0  0
    1.4093   66.5035   67.1087 H   0  0  0  0  0  0
    0.2271   68.2748   64.0199 H   0  0  0  0  0  0
    1.2812   66.9629   64.4629 H   0  0  0  0  0  0
    3.5680   67.6225   65.4731 H   0  0  0  0  0  0
    2.5228   68.1032   66.7925 H   0  0  0  0  0  0
    2.6936   69.8876   68.1972 H   0  0  0  0  0  0
    4.3410   71.3072   69.3355 H   0  0  0  0  0  0
    6.5263   71.7646   68.2552 H   0  0  0  0  0  0
    7.0225   70.8562   66.0121 H   0  0  0  0  0  0
    5.4004   69.3696   64.8885 H   0  0  0  0  0  0
    1.7199   69.6855   63.0603 H   0  0  0  0  0  0
    3.2357   70.0975   63.8332 H   0  0  0  0  0  0
    2.9852   68.4609   63.2158 H   0  0  0  0  0  0
   -2.0931   59.8012   73.6162 H   0  0  0  0  0  0
   -1.7754   61.5155   73.8878 H   0  0  0  0  0  0
   -2.5008   60.9675   72.3688 H   0  0  0  0  0  0
    3.7375   60.3770   74.3222 H   0  0  0  0  0  0
    4.1209   61.3450   72.9044 H   0  0  0  0  0  0
    3.4334   62.1061   74.3611 H   0  0  0  0  0  0
  1  4  1  0  0  0
  1 28  1  0  0  0
  1  2  2  0  0  0
  2  3  1  0  0  0
  2 29  1  0  0  0
  3  6  2  0  0  0
  3 32  1  0  0  0
  4  5  2  0  0  0
  4 33  1  0  0  0
  5 10  1  0  0  0
  5  6  1  0  0  0
  6  7  1  0  0  0
  7  8  2  0  0  0
  7 34  1  0  0  0
  8 12  1  0  0  0
  8  9  1  0  0  0
  9 10  1  0  0  0
  9 11  2  0  0  0
 12 17  1  0  0  0
 12 13  2  0  0  0
 13 14  1  0  0  0
 13 35  1  0  0  0
 14 15  2  0  0  0
 14 36  1  0  0  0
 15 16  1  0  0  0
 15 37  1  0  0  0
 16 17  2  0  0  0
 16 18  1  0  0  0
 17 38  1  0  0  0
 18 19  1  0  0  0
 18 39  1  0  0  0
 18 40  1  0  0  0
 19 20  1  0  0  0
 19 27  1  0  0  0
 20 21  1  0  0  0
 20 41  1  0  0  0
 20 42  1  0  0  0
 21 22  2  0  0  0
 21 26  1  0  0  0
 22 23  1  0  0  0
 22 43  1  0  0  0
 23 24  2  0  0  0
 23 44  1  0  0  0
 24 25  1  0  0  0
 24 45  1  0  0  0
 25 26  2  0  0  0
 25 46  1  0  0  0
 26 47  1  0  0  0
 27 48  1  0  0  0
 27 49  1  0  0  0
 27 50  1  0  0  0
 28 31  1  0  0  0
 29 30  1  0  0  0
 30 51  1  0  0  0
 30 52  1  0  0  0
 30 53  1  0  0  0
 31 54  1  0  0  0
 31 55  1  0  0  0
 31 56  1  0  0  0
M  END
> <s_m_entry_id>
8667

> <s_m_entry_name>
dock_pv.177

> <s_m_Source_Path>
/home/csk/Desktop/cluster/DUD-E-result/aces

> <s_m_Source_File>
dock_pv.maegz

> <i_m_Source_File_Index>
177

> <chembl_id>
CHEMBL243310

> <chembl_pref_name>
None

> <i_lp_mmshare_version>
53161

> <i_f3d_flags>
0

> <r_lp_tautomer_probability>
1

> <s_lp_Force_Field>
OPLS_2005

> <r_lp_Energy>
35.772233

> <b_lp_Chiralities_Consistent>
1

> <s_lp_Variant>
CHEMBL220_lig1092-1

> <s_i_glide_gridfile>
glide-grid_1e66

> <i_i_glide_lignum>
1497

> <i_i_glide_rotatable_bonds>
7

> <r_i_docking_score>
-7.44103141242582

> <r_i_glide_ligand_efficiency>
-0.240033271368575

> <r_i_glide_ligand_efficiency_sa>
-0.754035873744338

> <r_i_glide_ligand_efficiency_ln>
-1.67818062372822

> <r_i_glide_gscore>
-7.44103141242582

> <r_i_glide_lipo>
-4.91068637282108

> <r_i_glide_hbond>
0

> <r_i_glide_metal>
0

> <r_i_glide_rewards>
-1.47626590909091

> <r_i_glide_evdw>
-34.8692359924316

> <r_i_glide_ecoul>
1.54538476467133

> <r_i_glide_erotb>
0.457574954407047

> <r_i_glide_esite>
0

> <r_i_glide_emodel>
-34.3288914630963

> <r_i_glide_energy>
-33.3238512277603

> <r_i_glide_einternal>
10.8325529098511

> <i_i_glide_confnum>
29

> <i_i_glide_posenum>
176

> <r_i_glide_eff_state_penalty>
0

> <s_user_duplicate_titles>
CHEMBL220_lig1092,387516

> <s_m_subgroup_title>
dock_pv

> <s_m_subgroupid>
dock_pv

> <b_m_subgroup_collapsed>
0

$$$$
CHEMBL220_lig267
                    3D
 Schrodinger Suite 2021-1.
 30 33  0  0  1  0            999 V2000
    2.6347   69.0801   66.3413 N   0  0  0  0  0  0
    1.3214   68.7906   66.4771 C   0  0  0  0  0  0
    0.4756   68.4438   65.4358 C   0  0  0  0  0  0
    0.9708   68.4064   64.1299 C   0  0  0  0  0  0
   -0.8940   68.1967   66.0723 C   0  0  2  0  0  0
    2.3644   68.6918   63.9303 C   0  0  0  0  0  0
    3.1578   69.0216   65.0815 C   0  0  0  0  0  0
    0.4799   68.7750   67.7454 C   0  0  1  0  0  0
   -0.8568   69.2572   67.1689 C   0  0  0  0  0  0
   -0.8176   66.9081   66.9279 C   0  0  0  0  0  0
    0.1570   67.2969   68.0706 C   0  0  0  0  0  0
    0.0982   68.1118   63.0834 N   0  0  0  0  0  0
    3.0035   68.6659   62.6566 C   0  0  0  0  0  0
    4.5363   69.3090   64.9200 C   0  0  0  0  0  0
    4.3629   68.9495   62.5387 C   0  0  0  0  0  0
    5.1199   69.2690   63.6580 C   0  0  0  0  0  0
   -1.7559   68.2548   65.4047 H   0  0  0  0  0  0
    0.8606   69.3617   68.5831 H   0  0  0  0  0  0
   -0.8573   70.2752   66.7819 H   0  0  0  0  0  0
   -1.6894   69.1837   67.8741 H   0  0  0  0  0  0
   -1.7992   66.6426   67.3262 H   0  0  0  0  0  0
   -0.4563   66.0566   66.3515 H   0  0  0  0  0  0
    1.0523   66.6729   68.0834 H   0  0  0  0  0  0
   -0.3230   67.1970   69.0441 H   0  0  0  0  0  0
    0.4451   68.0567   62.1367 H   0  0  0  0  0  0
   -0.8161   67.7470   63.3224 H   0  0  0  0  0  0
    2.4331   68.4214   61.7736 H   0  0  0  0  0  0
    5.1297   69.5642   65.7856 H   0  0  0  0  0  0
    4.8385   68.9217   61.5684 H   0  0  0  0  0  0
    6.1712   69.4939   63.5452 H   0  0  0  0  0  0
  1  2  2  0  0  0
  1  7  1  0  0  0
  2  3  1  0  0  0
  2  8  1  0  0  0
  3  5  1  0  0  0
  3  4  2  0  0  0
  4  6  1  0  0  0
  4 12  1  0  0  0
  5  9  1  0  0  0
  5 10  1  0  0  0
  5 17  1  0  0  0
  6  7  1  0  0  0
  6 13  2  0  0  0
  7 14  2  0  0  0
  8  9  1  0  0  0
  8 11  1  0  0  0
  8 18  1  0  0  0
  9 19  1  0  0  0
  9 20  1  0  0  0
 10 11  1  0  0  0
 10 21  1  0  0  0
 10 22  1  0  0  0
 11 23  1  0  0  0
 11 24  1  0  0  0
 12 25  1  0  0  0
 12 26  1  0  0  0
 13 15  1  0  0  0
 13 27  1  0  0  0
 14 16  1  0  0  0
 14 28  1  0  0  0
 15 16  2  0  0  0
 15 29  1  0  0  0
 16 30  1  0  0  0
M  END
> <s_m_entry_id>
8668

> <s_m_entry_name>
dock_pv.178

> <s_m_Source_Path>
/home/csk/Desktop/cluster/DUD-E-result/aces

> <s_m_Source_File>
dock_pv.maegz

> <i_m_Source_File_Index>
178

> <chembl_id>
CHEMBL431844

> <chembl_pref_name>
None

> <i_lp_mmshare_version>
53161

> <i_f3d_flags>
0

> <r_lp_tautomer_probability>
1

> <s_lp_Force_Field>
OPLS_2005

> <r_lp_Energy>
63.3498

> <b_lp_Chiralities_Consistent>
1

> <s_lp_Variant>
CHEMBL220_lig267-1

> <s_i_glide_gridfile>
glide-grid_1e66

> <i_i_glide_lignum>
315

> <i_i_glide_rotatable_bonds>
0

> <r_i_docking_score>
-7.43762685561385

> <r_i_glide_ligand_efficiency>
-0.464851678475866

> <r_i_glide_ligand_efficiency_sa>
-1.17135282849885

> <r_i_glide_ligand_efficiency_ln>
-1.97149156804936

> <r_i_glide_gscore>
-7.43762685561385

> <r_i_glide_lipo>
-3.18526811102504

> <r_i_glide_hbond>
-0.0851281326951061

> <r_i_glide_metal>
0

> <r_i_glide_rewards>
-2.24157741651254

> <r_i_glide_evdw>
-30.8855609893799

> <r_i_glide_ecoul>
-2.5425009727478

> <r_i_glide_erotb>
0

> <r_i_glide_esite>
0

> <r_i_glide_emodel>
-48.7112905472797

> <r_i_glide_energy>
-33.4280619621277

> <r_i_glide_einternal>
0

> <i_i_glide_confnum>
1

> <i_i_glide_posenum>
339

> <r_i_glide_eff_state_penalty>
0

> <s_user_duplicate_titles>
CHEMBL220_lig267,194883

> <s_m_subgroup_title>
dock_pv

> <s_m_subgroupid>
dock_pv

> <b_m_subgroup_collapsed>
0

$$$$
CHEMBL220_lig890
                    3D
 Schrodinger Suite 2021-1.
 63 66  0  0  1  0            999 V2000
    2.8397   69.2634   64.7077 C   0  0  0  0  0  0
    2.5005   69.3080   67.4924 N   0  0  0  0  0  0
    1.6400   68.7889   65.2865 C   0  0  0  0  0  0
    3.9122   69.6845   65.5519 C   0  0  0  0  0  0
    1.5137   68.8449   66.6935 C   0  0  0  0  0  0
    3.6752   69.7080   66.9531 C   0  0  0  0  0  0
    1.4792   62.9068   70.2831 S   0  0  0  0  0  0
    2.2110   61.0765   70.7983 S   0  0  0  0  0  0
    3.9472   64.7077   63.9684 C   0  0  0  0  0  0
    2.9408   69.4698   63.3195 N   0  0  0  0  0  0
    4.3429   63.7757   63.2669 O   0  0  0  0  0  0
    4.2033   65.9825   63.6647 N   0  0  0  0  0  0
    3.1227   63.6758   70.0973 C   0  0  1  0  0  0
    0.4456   68.3162   64.4395 C   0  0  0  0  0  0
    4.2104   62.7961   70.7513 C   0  0  0  0  0  0
    5.1901   70.1081   65.0816 C   0  0  0  0  0  0
    4.4783   67.9160   62.1790 C   0  0  0  0  0  0
    3.5431   61.8413   71.7423 C   0  0  0  0  0  0
    0.2115   68.4913   67.4205 C   0  0  0  0  0  0
    4.6731   70.2060   67.8239 C   0  0  0  0  0  0
    3.0992   64.4489   65.2318 C   0  0  0  0  0  0
    3.0160   68.3349   62.4257 C   0  0  0  0  0  0
    4.7651   66.4355   62.3963 C   0  0  0  0  0  0
    3.4134   64.0997   68.6373 C   0  0  0  0  0  0
    3.7922   63.4131   66.1396 C   0  0  0  0  0  0
    3.3244   62.9908   67.5676 C   0  0  0  0  0  0
   -0.8974   68.5080   65.1598 C   0  0  0  0  0  0
    6.1793   70.5079   65.9721 C   0  0  0  0  0  0
   -0.8424   67.8172   66.5250 C   0  0  0  0  0  0
    5.9215   70.5708   67.3339 C   0  0  0  0  0  0
    3.5667   70.2166   63.0507 H   0  0  0  0  0  0
    3.9129   66.7065   64.3077 H   0  0  0  0  0  0
    3.0491   64.5881   70.6933 H   0  0  0  0  0  0
    0.4023   68.8364   63.4823 H   0  0  0  0  0  0
    0.5769   67.2581   64.2113 H   0  0  0  0  0  0
    4.9581   63.4146   71.2482 H   0  0  0  0  0  0
    4.7422   62.2055   70.0066 H   0  0  0  0  0  0
    5.4045   70.1486   64.0267 H   0  0  0  0  0  0
    5.1792   68.4711   62.7965 H   0  0  0  0  0  0
    4.7429   68.1950   61.1675 H   0  0  0  0  0  0
    3.1177   62.3669   72.5994 H   0  0  0  0  0  0
    4.2291   61.0785   72.1115 H   0  0  0  0  0  0
   -0.2089   69.4193   67.8129 H   0  0  0  0  0  0
    0.4182   67.8649   68.2898 H   0  0  0  0  0  0
    4.4713   70.2570   68.8846 H   0  0  0  0  0  0
    2.1330   64.1079   64.8636 H   0  0  0  0  0  0
    2.9255   65.3808   65.7735 H   0  0  0  0  0  0
    2.5478   68.6390   61.4884 H   0  0  0  0  0  0
    2.4095   67.5234   62.8159 H   0  0  0  0  0  0
    5.8395   66.2552   62.3676 H   0  0  0  0  0  0
    4.3048   65.8775   61.5813 H   0  0  0  0  0  0
    2.7429   64.9116   68.3680 H   0  0  0  0  0  0
    4.4223   64.5080   68.6165 H   0  0  0  0  0  0
    4.7430   63.8908   66.2905 H   0  0  0  0  0  0
    3.9431   62.5080   65.5565 H   0  0  0  0  0  0
    3.9789   62.1939   67.9182 H   0  0  0  0  0  0
    2.3485   62.5080   67.5608 H   0  0  0  0  0  0
   -1.1134   69.5686   65.2894 H   0  0  0  0  0  0
   -1.7088   68.1081   64.5529 H   0  0  0  0  0  0
    7.1406   70.8238   65.5931 H   0  0  0  0  0  0
   -1.8198   67.8502   67.0087 H   0  0  0  0  0  0
   -0.6029   66.7598   66.3954 H   0  0  0  0  0  0
    6.6876   70.9162   68.0128 H   0  0  0  0  0  0
  1  3  2  0  0  0
  1  4  1  0  0  0
  1 10  1  0  0  0
  2  6  1  0  0  0
  2  5  2  0  0  0
  3  5  1  0  0  0
  3 14  1  0  0  0
  4  6  1  0  0  0
  4 16  2  0  0  0
  5 19  1  0  0  0
  6 20  2  0  0  0
  7 13  1  0  0  0
  7  8  1  0  0  0
  8 18  1  0  0  0
  9 12  1  0  0  0
  9 11  2  0  0  0
  9 21  1  0  0  0
 10 22  1  0  0  0
 10 31  1  0  0  0
 12 23  1  0  0  0
 12 32  1  0  0  0
 13 24  1  0  0  0
 13 15  1  0  0  0
 13 33  1  0  0  0
 14 27  1  0  0  0
 14 34  1  0  0  0
 14 35  1  0  0  0
 15 18  1  0  0  0
 15 36  1  0  0  0
 15 37  1  0  0  0
 16 28  1  0  0  0
 16 38  1  0  0  0
 17 22  1  0  0  0
 17 23  1  0  0  0
 17 39  1  0  0  0
 17 40  1  0  0  0
 18 41  1  0  0  0
 18 42  1  0  0  0
 19 29  1  0  0  0
 19 43  1  0  0  0
 19 44  1  0  0  0
 20 30  1  0  0  0
 20 45  1  0  0  0
 21 25  1  0  0  0
 21 46  1  0  0  0
 21 47  1  0  0  0
 22 48  1  0  0  0
 22 49  1  0  0  0
 23 50  1  0  0  0
 23 51  1  0  0  0
 24 26  1  0  0  0
 24 52  1  0  0  0
 24 53  1  0  0  0
 25 26  1  0  0  0
 25 54  1  0  0  0
 25 55  1  0  0  0
 26 56  1  0  0  0
 26 57  1  0  0  0
 27 29  1  0  0  0
 27 58  1  0  0  0
 27 59  1  0  0  0
 28 30  2  0  0  0
 28 60  1  0  0  0
 29 61  1  0  0  0
 29 62  1  0  0  0
 30 63  1  0  0  0
M  END
> <s_m_entry_id>
8669

> <s_m_entry_name>
dock_pv.179

> <s_m_Source_Path>
/home/csk/Desktop/cluster/DUD-E-result/aces

> <s_m_Source_File>
dock_pv.maegz

> <i_m_Source_File_Index>
179

> <chembl_id>
CHEMBL195179

> <chembl_pref_name>
None

> <i_lp_mmshare_version>
53161

> <i_f3d_flags>
0

> <r_lp_tautomer_probability>
1

> <s_lp_Force_Field>
OPLS_2005

> <r_lp_Energy>
27.479296

> <b_lp_Chiralities_Consistent>
1

> <s_lp_Variant>
CHEMBL220_lig890-1

> <s_i_glide_gridfile>
glide-grid_1e66

> <i_i_glide_lignum>
1198

> <i_i_glide_rotatable_bonds>
11

> <r_i_docking_score>
-7.43129565191946

> <r_i_glide_ligand_efficiency>
-0.247709855063982

> <r_i_glide_ligand_efficiency_sa>
-0.769692112827299

> <r_i_glide_ligand_efficiency_ln>
-1.68847134256745

> <r_i_glide_gscore>
-7.43129565191946

> <r_i_glide_lipo>
-4.18854001195343

> <r_i_glide_hbond>
-0.187274597073315

> <r_i_glide_metal>
0

> <r_i_glide_rewards>
-1.57816112146571

> <r_i_glide_evdw>
-37.1297035217285

> <r_i_glide_ecoul>
-3.56649661064148

> <r_i_glide_erotb>
0.914139746255635

> <r_i_glide_esite>
0

> <r_i_glide_emodel>
-43.8163309634132

> <r_i_glide_energy>
-40.69620013237

> <r_i_glide_einternal>
10.4098291397095

> <i_i_glide_confnum>
63

> <i_i_glide_posenum>
129

> <r_i_glide_eff_state_penalty>
0

> <s_user_duplicate_titles>
CHEMBL220_lig890

> <s_m_subgroup_title>
dock_pv

> <s_m_subgroupid>
dock_pv

> <b_m_subgroup_collapsed>
0

$$$$
CHEMBL220_lig684
                    3D
 Schrodinger Suite 2021-1.
 46 47  0  0  1  0            999 V2000
    1.4495   68.8060   63.1769 C   0  0  0  0  0  0
    3.8985   68.8237   63.0757 C   0  0  0  0  0  0
    0.1652   69.1606   62.5206 N   0  3  0  0  0  0
    5.1445   69.1762   62.3659 N   0  3  0  0  0  0
    2.6497   69.1020   62.5066 C   0  0  0  0  0  0
    1.5115   68.1969   64.4516 C   0  0  0  0  0  0
    3.9425   68.2451   64.3429 C   0  0  0  0  0  0
    2.7668   67.9231   65.0025 C   0  0  0  0  0  0
    2.1580   63.2238   70.4070 C   0  0  0  0  0  0
    1.7355   64.2818   69.6703 O   0  0  0  0  0  0
    0.6529   64.8243   70.2880 C   0  0  0  0  0  0
    1.3658   63.1154   71.5388 C   0  0  0  0  0  0
    0.1620   70.0891   61.7188 O   0  5  0  0  0  0
    6.1480   68.5085   62.5919 O   0  5  0  0  0  0
    0.4121   64.1342   71.4665 C   0  0  0  0  0  0
   -0.8421   68.5081   62.7770 O   0  0  0  0  0  0
    5.1098   70.1083   61.5705 O   0  0  0  0  0  0
    3.3560   62.4727   69.8507 C   0  0  0  0  0  0
    0.3431   67.8924   65.1793 N   0  0  0  0  0  0
    5.1171   67.9821   64.9594 F   0  0  0  0  0  0
    4.6454   62.8403   70.4507 N   0  0  0  0  0  0
    1.1424   67.3080   69.1674 S   0  0  0  0  0  0
   -0.0158   65.9746   69.5666 C   0  0  0  0  0  0
    0.3272   67.1708   66.4534 C   0  0  0  0  0  0
    0.3819   68.0743   67.7017 C   0  0  0  0  0  0
    4.9325   64.2740   70.3668 C   0  0  0  0  0  0
    4.7950   62.3017   71.7998 C   0  0  0  0  0  0
    2.6151   69.5665   61.5301 H   0  0  0  0  0  0
    2.8633   67.4722   65.9683 H   0  0  0  0  0  0
    1.4655   62.3799   72.3212 H   0  0  0  0  0  0
   -0.3667   64.3309   72.1857 H   0  0  0  0  0  0
    3.2061   61.3971   69.9577 H   0  0  0  0  0  0
    3.4267   62.6477   68.7753 H   0  0  0  0  0  0
   -0.5497   68.1305   64.7631 H   0  0  0  0  0  0
   -0.8271   66.4218   70.1404 H   0  0  0  0  0  0
   -0.4575   65.6009   68.6471 H   0  0  0  0  0  0
   -0.5775   66.5629   66.4784 H   0  0  0  0  0  0
    1.1338   66.4410   66.4780 H   0  0  0  0  0  0
    0.9639   68.9706   67.4908 H   0  0  0  0  0  0
   -0.6185   68.4247   67.9596 H   0  0  0  0  0  0
    5.9424   64.5090   70.7022 H   0  0  0  0  0  0
    4.8498   64.6180   69.3367 H   0  0  0  0  0  0
    4.2418   64.8614   70.9731 H   0  0  0  0  0  0
    5.7827   62.5097   72.2115 H   0  0  0  0  0  0
    4.0440   62.7134   72.4696 H   0  0  0  0  0  0
    4.6757   61.2182   71.7988 H   0  0  0  0  0  0
  1  3  1  0  0  0
  1  5  2  0  0  0
  1  6  1  0  0  0
  2  5  1  0  0  0
  2  4  1  0  0  0
  2  7  2  0  0  0
  3 13  1  0  0  0
  3 16  2  0  0  0
  4 14  1  0  0  0
  4 17  2  0  0  0
  5 28  1  0  0  0
  6  8  2  0  0  0
  6 19  1  0  0  0
  7  8  1  0  0  0
  7 20  1  0  0  0
  8 29  1  0  0  0
  9 10  1  0  0  0
  9 18  1  0  0  0
  9 12  2  0  0  0
 10 11  1  0  0  0
 11 23  1  0  0  0
 11 15  2  0  0  0
 12 15  1  0  0  0
 12 30  1  0  0  0
 15 31  1  0  0  0
 18 21  1  0  0  0
 18 32  1  0  0  0
 18 33  1  0  0  0
 19 24  1  0  0  0
 19 34  1  0  0  0
 21 26  1  0  0  0
 21 27  1  0  0  0
 22 25  1  0  0  0
 22 23  1  0  0  0
 23 35  1  0  0  0
 23 36  1  0  0  0
 24 25  1  0  0  0
 24 37  1  0  0  0
 24 38  1  0  0  0
 25 39  1  0  0  0
 25 40  1  0  0  0
 26 41  1  0  0  0
 26 42  1  0  0  0
 26 43  1  0  0  0
 27 44  1  0  0  0
 27 45  1  0  0  0
 27 46  1  0  0  0
M  CHG  4   3   1   4   1  13  -1  14  -1
M  END
> <s_m_entry_id>
8670

> <s_m_entry_name>
dock_pv.180

> <s_m_Source_Path>
/home/csk/Desktop/cluster/DUD-E-result/aces

> <s_m_Source_File>
dock_pv.maegz

> <i_m_Source_File_Index>
180

> <chembl_id>
CHEMBL104681

> <chembl_pref_name>
None

> <i_lp_mmshare_version>
53161

> <i_f3d_flags>
0

> <r_lp_tautomer_probability>
1

> <s_lp_Force_Field>
OPLS_2005

> <r_lp_Energy>
20.429373

> <b_lp_Chiralities_Consistent>
1

> <s_lp_Variant>
CHEMBL220_lig684-1

> <s_i_glide_gridfile>
glide-grid_1e66

> <i_i_glide_lignum>
808

> <i_i_glide_rotatable_bonds>
10

> <r_i_docking_score>
-7.4226072467826

> <r_i_glide_ligand_efficiency>
-0.274911379510467

> <r_i_glide_ligand_efficiency_sa>
-0.824734137625337

> <r_i_glide_ligand_efficiency_ln>
-1.72786059580669

> <r_i_glide_gscore>
-7.4226072467826

> <r_i_glide_lipo>
-3.63001002703791

> <r_i_glide_hbond>
0

> <r_i_glide_metal>
0

> <r_i_glide_rewards>
-2.16484924241976

> <r_i_glide_evdw>
-47.5974426269531

> <r_i_glide_ecoul>
0.0208392236381769

> <r_i_glide_erotb>
0.863667605991181

> <r_i_glide_esite>
-0.114669335514179

> <r_i_glide_emodel>
-64.2751663166782

> <r_i_glide_energy>
-47.5766034033149

> <r_i_glide_einternal>
6.45562219619751

> <i_i_glide_confnum>
120

> <i_i_glide_posenum>
240

> <r_i_glide_eff_state_penalty>
0

> <s_user_duplicate_titles>
CHEMBL220_lig684,174830

> <s_m_subgroup_title>
dock_pv

> <s_m_subgroupid>
dock_pv

> <b_m_subgroup_collapsed>
0

$$$$
CHEMBL220_lig353
                    3D
 Schrodinger Suite 2021-1.
 32 32  0  0  1  0            999 V2000
    4.9869   68.8384   63.5503 N   0  3  0  0  0  0
    3.4751   68.6295   63.4808 C   0  0  0  0  0  0
    5.6739   68.5307   64.9227 C   0  0  0  0  0  0
    5.4785   69.5153   66.0881 C   0  0  0  0  0  0
    2.7972   67.8529   64.4339 C   0  0  0  0  0  0
    2.7684   69.1981   62.4090 C   0  0  0  0  0  0
    6.5294   70.1095   66.6826 C   0  0  0  0  0  0
    0.7200   68.2912   63.2891 C   0  0  0  0  0  0
    1.3906   69.0306   62.3212 C   0  0  0  0  0  0
    1.4143   67.7080   64.3470 C   0  0  0  0  0  0
    5.3927   70.2877   63.1885 C   0  0  0  0  0  0
    5.6649   67.9085   62.5177 C   0  0  0  0  0  0
   -0.6286   68.1083   63.1683 O   0  0  0  0  0  0
    4.0636   69.8073   66.5591 C   0  0  0  0  0  0
    6.7420   68.5046   64.6945 H   0  0  0  0  0  0
    5.3991   67.5106   65.1680 H   0  0  0  0  0  0
    3.2980   67.3672   65.2556 H   0  0  0  0  0  0
    3.2593   69.7687   61.6357 H   0  0  0  0  0  0
    7.5445   69.9181   66.3673 H   0  0  0  0  0  0
    6.3943   70.8011   67.5017 H   0  0  0  0  0  0
    0.8422   69.4651   61.4980 H   0  0  0  0  0  0
    0.8870   67.1247   65.0888 H   0  0  0  0  0  0
    6.4291   70.4595   63.4672 H   0  0  0  0  0  0
    5.2458   70.4694   62.1241 H   0  0  0  0  0  0
    4.7403   70.9080   63.7915 H   0  0  0  0  0  0
    6.7298   68.1427   62.4475 H   0  0  0  0  0  0
    5.4931   66.8784   62.8283 H   0  0  0  0  0  0
    5.1770   68.0965   61.5679 H   0  0  0  0  0  0
   -0.9672   67.3760   63.7016 H   0  0  0  0  0  0
    3.5683   68.9082   66.9172 H   0  0  0  0  0  0
    4.0526   70.5188   67.3858 H   0  0  0  0  0  0
    3.4703   70.2420   65.7572 H   0  0  0  0  0  0
  1  2  1  0  0  0
  1  3  1  0  0  0
  1 11  1  0  0  0
  1 12  1  0  0  0
  2  5  2  0  0  0
  2  6  1  0  0  0
  3  4  1  0  0  0
  3 15  1  0  0  0
  3 16  1  0  0  0
  4  7  2  0  0  0
  4 14  1  0  0  0
  5 10  1  0  0  0
  5 17  1  0  0  0
  6  9  2  0  0  0
  6 18  1  0  0  0
  7 19  1  0  0  0
  7 20  1  0  0  0
  8 10  2  0  0  0
  8 13  1  0  0  0
  8  9  1  0  0  0
  9 21  1  0  0  0
 10 22  1  0  0  0
 11 23  1  0  0  0
 11 24  1  0  0  0
 11 25  1  0  0  0
 12 26  1  0  0  0
 12 27  1  0  0  0
 12 28  1  0  0  0
 13 29  1  0  0  0
 14 30  1  0  0  0
 14 31  1  0  0  0
 14 32  1  0  0  0
M  CHG  1   1   1
M  END
> <s_m_entry_id>
8671

> <s_m_entry_name>
dock_pv.181

> <s_m_Source_Path>
/home/csk/Desktop/cluster/DUD-E-result/aces

> <s_m_Source_File>
dock_pv.maegz

> <i_m_Source_File_Index>
181

> <chembl_id>
CHEMBL294292

> <chembl_pref_name>
None

> <i_lp_mmshare_version>
53161

> <i_f3d_flags>
0

> <r_lp_tautomer_probability>
1

> <s_lp_Force_Field>
OPLS_2005

> <r_lp_Energy>
22.550211

> <b_lp_Chiralities_Consistent>
1

> <s_lp_Variant>
CHEMBL220_lig353-1

> <s_i_glide_gridfile>
glide-grid_1e66

> <i_i_glide_lignum>
407

> <i_i_glide_rotatable_bonds>
4

> <r_i_docking_score>
-7.42103540732622

> <r_i_glide_ligand_efficiency>
-0.530073957666159

> <r_i_glide_ligand_efficiency_sa>
-1.27755364738599

> <r_i_glide_ligand_efficiency_ln>
-2.03927411281284

> <r_i_glide_gscore>
-7.42103540732622

> <r_i_glide_lipo>
-2.6076681578347

> <r_i_glide_hbond>
-0.32

> <r_i_glide_metal>
0

> <r_i_glide_rewards>
-3.35800381202903

> <r_i_glide_evdw>
-25.3086547851562

> <r_i_glide_ecoul>
-7.85198879241943

> <r_i_glide_erotb>
1.30786762065824

> <r_i_glide_esite>
0

> <r_i_glide_emodel>
-50.0038181130797

> <r_i_glide_energy>
-33.1606435775757

> <r_i_glide_einternal>
3.32096600532532

> <i_i_glide_confnum>
8

> <i_i_glide_posenum>
363

> <r_i_glide_eff_state_penalty>
0

> <s_user_duplicate_titles>
CHEMBL220_lig353

> <s_m_subgroup_title>
dock_pv

> <s_m_subgroupid>
dock_pv

> <b_m_subgroup_collapsed>
0

$$$$
CHEMBL220_lig861
                    3D
 Schrodinger Suite 2021-1.
 53 55  0  0  1  0            999 V2000
    0.5922   68.1075   64.8549 S   0  0  0  0  0  0
    2.3166   68.4575   64.9424 C   0  0  0  0  0  0
    2.1383   62.7176   70.9973 N   0  3  0  0  0  0
    2.7001   69.0307   66.1491 C   0  0  0  0  0  0
    0.3037   68.5569   66.5962 C   0  0  2  0  0  0
    3.2656   68.2098   63.9559 C   0  0  0  0  0  0
    1.5890   69.2120   67.1405 C   0  0  0  0  0  0
    4.6175   68.5258   64.1770 C   0  0  0  0  0  0
    4.0190   69.4266   66.3426 C   0  0  0  0  0  0
    4.9968   69.1511   65.3762 C   0  0  0  0  0  0
   -0.2147   67.3165   67.3633 C   0  0  0  0  0  0
   -1.0785   66.5797   66.8912 O   0  0  0  0  0  0
    0.3476   67.0734   68.7681 C   0  0  0  0  0  0
    0.8323   62.5005   70.7051 C   0  0  0  0  0  0
    2.7090   63.9317   70.8024 C   0  0  0  0  0  0
    0.5783   64.8237   70.0604 C   0  0  0  0  0  0
   -0.3258   65.9875   69.6348 C   0  0  0  0  0  0
    5.6223   68.2353   63.2751 O   0  0  0  0  0  0
    2.9381   61.6412   71.6381 C   0  0  0  0  0  0
    6.3398   69.4217   65.5617 O   0  0  0  0  0  0
    1.9393   65.0062   70.3457 C   0  0  0  0  0  0
    0.0346   63.5447   70.2292 C   0  0  0  0  0  0
    3.6753   60.6833   69.4755 O   0  0  0  0  0  0
    4.0966   61.1112   70.7652 C   0  0  0  0  0  0
    6.7724   70.0368   66.7650 C   0  0  0  0  0  0
    5.3136   67.5203   62.0886 C   0  0  0  0  0  0
    2.8810   59.5039   69.4343 C   0  0  0  0  0  0
   -0.5153   69.2773   66.6091 H   0  0  0  0  0  0
    2.9448   67.7526   63.0332 H   0  0  0  0  0  0
    1.9148   68.8812   68.1245 H   0  0  0  0  0  0
    1.3953   70.2633   67.2693 H   0  0  0  0  0  0
    4.2851   69.8993   67.2749 H   0  0  0  0  0  0
    1.4047   66.8596   68.6379 H   0  0  0  0  0  0
    0.2509   68.0215   69.2975 H   0  0  0  0  0  0
    0.4449   61.5053   70.8744 H   0  0  0  0  0  0
    3.7520   64.0285   71.0712 H   0  0  0  0  0  0
   -0.6541   66.5016   70.5438 H   0  0  0  0  0  0
   -1.2307   65.5993   69.1626 H   0  0  0  0  0  0
    3.3073   62.0644   72.5732 H   0  0  0  0  0  0
    2.2614   60.8358   71.9278 H   0  0  0  0  0  0
    2.4006   65.9797   70.2610 H   0  0  0  0  0  0
   -1.0076   63.3607   70.0115 H   0  0  0  0  0  0
    4.8540   61.8869   70.6381 H   0  0  0  0  0  0
    4.6053   60.2927   71.2753 H   0  0  0  0  0  0
    7.8525   70.1650   66.7306 H   0  0  0  0  0  0
    6.5456   69.4124   67.6274 H   0  0  0  0  0  0
    6.3139   71.0170   66.9035 H   0  0  0  0  0  0
    6.2460   67.3064   61.5699 H   0  0  0  0  0  0
    4.8373   66.5622   62.3027 H   0  0  0  0  0  0
    4.6712   68.1021   61.4258 H   0  0  0  0  0  0
    2.6239   59.2648   68.4035 H   0  0  0  0  0  0
    3.4150   58.6505   69.8491 H   0  0  0  0  0  0
    1.9519   59.6248   69.9816 H   0  0  0  0  0  0
  1  2  1  0  0  0
  1  5  1  0  0  0
  2  4  2  0  0  0
  2  6  1  0  0  0
  3 14  1  0  0  0
  3 19  1  0  0  0
  3 15  2  0  0  0
  4  9  1  0  0  0
  4  7  1  0  0  0
  5  7  1  0  0  0
  5 11  1  0  0  0
  5 28  1  0  0  0
  6  8  2  0  0  0
  6 29  1  0  0  0
  7 30  1  0  0  0
  7 31  1  0  0  0
  8 10  1  0  0  0
  8 18  1  0  0  0
  9 10  2  0  0  0
  9 32  1  0  0  0
 10 20  1  0  0  0
 11 12  2  0  0  0
 11 13  1  0  0  0
 13 17  1  0  0  0
 13 33  1  0  0  0
 13 34  1  0  0  0
 14 22  2  0  0  0
 14 35  1  0  0  0
 15 21  1  0  0  0
 15 36  1  0  0  0
 16 17  1  0  0  0
 16 21  2  0  0  0
 16 22  1  0  0  0
 17 37  1  0  0  0
 17 38  1  0  0  0
 18 26  1  0  0  0
 19 24  1  0  0  0
 19 39  1  0  0  0
 19 40  1  0  0  0
 20 25  1  0  0  0
 21 41  1  0  0  0
 22 42  1  0  0  0
 23 24  1  0  0  0
 23 27  1  0  0  0
 24 43  1  0  0  0
 24 44  1  0  0  0
 25 45  1  0  0  0
 25 46  1  0  0  0
 25 47  1  0  0  0
 26 48  1  0  0  0
 26 49  1  0  0  0
 26 50  1  0  0  0
 27 51  1  0  0  0
 27 52  1  0  0  0
 27 53  1  0  0  0
M  CHG  1   3   1
M  END
> <s_m_entry_id>
8672

> <s_m_entry_name>
dock_pv.182

> <s_m_Source_Path>
/home/csk/Desktop/cluster/DUD-E-result/aces

> <s_m_Source_File>
dock_pv.maegz

> <i_m_Source_File_Index>
182

> <chembl_id>
CHEMBL189774

> <chembl_pref_name>
None

> <i_lp_mmshare_version>
53161

> <i_f3d_flags>
0

> <r_lp_tautomer_probability>
0.999999960000001

> <s_lp_Force_Field>
OPLS_2005

> <r_lp_Energy>
34.900089

> <b_lp_Chiralities_Consistent>
1

> <s_lp_Variant>
CHEMBL220_lig861-1

> <s_i_glide_gridfile>
glide-grid_1e66

> <i_i_glide_lignum>
1140

> <i_i_glide_rotatable_bonds>
9

> <r_i_docking_score>
-7.41791643960762

> <r_i_glide_ligand_efficiency>
-0.274737645911393

> <r_i_glide_ligand_efficiency_sa>
-0.82421293682869

> <r_i_glide_ligand_efficiency_ln>
-1.72676865323036

> <r_i_glide_gscore>
-7.41791643960762

> <r_i_glide_lipo>
-3.95509234082857

> <r_i_glide_hbond>
0

> <r_i_glide_metal>
0

> <r_i_glide_rewards>
-2.01950063322698

> <r_i_glide_evdw>
-44.1788177490234

> <r_i_glide_ecoul>
-0.0596622303128242

> <r_i_glide_erotb>
0.774566756446023

> <r_i_glide_esite>
0

> <r_i_glide_emodel>
-52.8166858092519

> <r_i_glide_energy>
-44.2384799793363

> <r_i_glide_einternal>
5.59006214141846

> <i_i_glide_confnum>
48

> <i_i_glide_posenum>
111

> <r_i_glide_eff_state_penalty>
0

> <s_user_duplicate_titles>
CHEMBL220_lig861,313665

> <s_m_subgroup_title>
dock_pv

> <s_m_subgroupid>
dock_pv

> <b_m_subgroup_collapsed>
0

$$$$
CHEMBL220_lig981
                    3D
 Schrodinger Suite 2021-1.
 54 56  0  0  1  0            999 V2000
   -0.5698   68.8460   65.2837 N   0  0  0  0  0  0
    4.4379   68.1654   62.6238 C   0  0  0  0  0  0
    3.6772   68.7288   63.8484 C   0  0  2  0  0  0
    5.1393   69.1313   61.9671 O   0  0  0  0  0  0
    4.4033   66.9820   62.2857 O   0  0  0  0  0  0
    2.4534   69.6467   63.4581 C   0  0  0  0  0  0
    4.6618   69.4310   64.8266 C   0  0  0  0  0  0
    4.0944   69.6543   66.2405 C   0  0  0  0  0  0
    5.1327   70.2367   67.2102 C   0  0  0  0  0  0
    0.9902   69.0809   63.3200 C   0  0  0  0  0  0
    0.5173   68.3603   64.6466 C   0  0  0  0  0  0
    1.1409   67.3982   65.0951 O   0  0  0  0  0  0
    0.7263   68.9030   60.8789 C   0  0  0  0  0  0
    0.1719   70.2501   61.2542 C   0  0  0  0  0  0
   -0.0469   70.1101   62.7505 C   0  0  0  0  0  0
    0.9681   68.1077   62.1592 C   0  0  0  0  0  0
   -0.9596   68.6776   66.6947 C   0  0  0  0  0  0
    0.1418   69.1350   67.6566 C   0  0  0  0  0  0
   -1.4533   67.2936   67.1860 C   0  0  0  0  0  0
   -0.4759   66.9071   68.2880 C   0  0  0  0  0  0
    0.5065   67.8876   68.4190 C   0  0  0  0  0  0
    1.5429   67.7100   69.3274 C   0  0  0  0  0  0
    1.6264   66.5390   70.0813 C   0  0  0  0  0  0
    0.6098   65.5980   70.0219 C   0  0  0  0  0  0
   -0.4563   65.8000   69.1555 C   0  0  0  0  0  0
   -1.1036   69.5465   64.7865 H   0  0  0  0  0  0
    3.3346   67.8429   64.3736 H   0  0  0  0  0  0
    5.5421   68.7982   61.1464 H   0  0  0  0  0  0
    2.4024   70.4865   64.1396 H   0  0  0  0  0  0
    2.7060   70.1087   62.5066 H   0  0  0  0  0  0
    4.9831   70.3887   64.4109 H   0  0  0  0  0  0
    5.5704   68.8328   64.9289 H   0  0  0  0  0  0
    3.7124   68.7142   66.6341 H   0  0  0  0  0  0
    3.2350   70.3195   66.2054 H   0  0  0  0  0  0
    4.6924   70.3967   68.1950 H   0  0  0  0  0  0
    5.5192   71.1953   66.8599 H   0  0  0  0  0  0
    5.9798   69.5610   67.3317 H   0  0  0  0  0  0
   -0.0571   68.4043   60.3619 H   0  0  0  0  0  0
    1.6093   68.9427   60.2418 H   0  0  0  0  0  0
   -0.7570   70.4759   60.7294 H   0  0  0  0  0  0
    0.8611   71.0489   60.9931 H   0  0  0  0  0  0
   -1.0585   69.7118   62.8662 H   0  0  0  0  0  0
   -0.0494   71.1024   63.1657 H   0  0  0  0  0  0
    1.8712   67.5217   62.0781 H   0  0  0  0  0  0
    0.1192   67.4372   62.3031 H   0  0  0  0  0  0
   -1.7968   69.3664   66.8250 H   0  0  0  0  0  0
    0.9876   69.6283   67.1761 H   0  0  0  0  0  0
   -0.2617   69.8558   68.3709 H   0  0  0  0  0  0
   -2.4598   67.3854   67.5976 H   0  0  0  0  0  0
   -1.4698   66.5723   66.3689 H   0  0  0  0  0  0
    2.2589   68.5052   69.4669 H   0  0  0  0  0  0
    2.4507   66.3825   70.7612 H   0  0  0  0  0  0
    0.6426   64.7207   70.6518 H   0  0  0  0  0  0
   -1.2318   65.0593   69.1662 H   0  0  0  0  0  0
  1 17  1  0  0  0
  1 11  1  0  0  0
  1 26  1  0  0  0
  2  3  1  0  0  0
  2  5  2  0  0  0
  2  4  1  0  0  0
  3  7  1  0  0  0
  3  6  1  0  0  0
  3 27  1  0  0  0
  4 28  1  0  0  0
  6 10  1  0  0  0
  6 29  1  0  0  0
  6 30  1  0  0  0
  7  8  1  0  0  0
  7 31  1  0  0  0
  7 32  1  0  0  0
  8  9  1  0  0  0
  8 33  1  0  0  0
  8 34  1  0  0  0
  9 35  1  0  0  0
  9 36  1  0  0  0
  9 37  1  0  0  0
 10 15  1  0  0  0
 10 16  1  0  0  0
 10 11  1  0  0  0
 11 12  2  0  0  0
 13 16  1  0  0  0
 13 14  1  0  0  0
 13 38  1  0  0  0
 13 39  1  0  0  0
 14 15  1  0  0  0
 14 40  1  0  0  0
 14 41  1  0  0  0
 15 42  1  0  0  0
 15 43  1  0  0  0
 16 44  1  0  0  0
 16 45  1  0  0  0
 17 18  1  0  0  0
 17 19  1  0  0  0
 17 46  1  0  0  0
 18 21  1  0  0  0
 18 47  1  0  0  0
 18 48  1  0  0  0
 19 20  1  0  0  0
 19 49  1  0  0  0
 19 50  1  0  0  0
 20 21  2  0  0  0
 20 25  1  0  0  0
 21 22  1  0  0  0
 22 23  2  0  0  0
 22 51  1  0  0  0
 23 24  1  0  0  0
 23 52  1  0  0  0
 24 25  2  0  0  0
 24 53  1  0  0  0
 25 54  1  0  0  0
M  END
> <s_m_entry_id>
8673

> <s_m_entry_name>
dock_pv.183

> <s_m_Source_Path>
/home/csk/Desktop/cluster/DUD-E-result/aces

> <s_m_Source_File>
dock_pv.maegz

> <i_m_Source_File_Index>
183

> <chembl_id>
CHEMBL376425

> <chembl_pref_name>
None

> <i_lp_mmshare_version>
53161

> <i_f3d_flags>
0

> <r_lp_tautomer_probability>
1

> <s_lp_Force_Field>
OPLS_2005

> <r_lp_Energy>
45.6951

> <b_lp_Chiralities_Consistent>
1

> <s_lp_Variant>
CHEMBL220_lig981-1

> <s_i_glide_gridfile>
glide-grid_1e66

> <i_i_glide_lignum>
1350

> <i_i_glide_rotatable_bonds>
9

> <r_i_docking_score>
-7.40436838262996

> <r_i_glide_ligand_efficiency>
-0.296174735305198

> <r_i_glide_ligand_efficiency_sa>
-0.866020178713697

> <r_i_glide_ligand_efficiency_ln>
-1.75505719769822

> <r_i_glide_gscore>
-7.40436838262996

> <r_i_glide_lipo>
-3.79340614478263

> <r_i_glide_hbond>
-0.226062521822569

> <r_i_glide_metal>
0

> <r_i_glide_rewards>
-2.29523294521388

> <r_i_glide_evdw>
-23.0434684753418

> <r_i_glide_ecoul>
-7.08987665176392

> <r_i_glide_erotb>
1.12598815072079

> <r_i_glide_esite>
0

> <r_i_glide_emodel>
-25.6608869540557

> <r_i_glide_energy>
-30.1333451271057

> <r_i_glide_einternal>
12.3809461593628

> <i_i_glide_confnum>
99

> <i_i_glide_posenum>
114

> <r_i_glide_eff_state_penalty>
0

> <s_user_duplicate_titles>
CHEMBL220_lig981

> <s_m_subgroup_title>
dock_pv

> <s_m_subgroupid>
dock_pv

> <b_m_subgroup_collapsed>
0

$$$$
CHEMBL220_lig972
                    3D
 Schrodinger Suite 2021-1.
 60 62  0  0  1  0            999 V2000
    1.0904   69.2321   62.6702 C   0  0  0  0  0  0
    1.3823   68.4993   64.0143 C   0  0  1  0  0  0
    2.1884   69.3558   61.8720 O   0  0  0  0  0  0
   -0.0136   69.6790   62.3680 O   0  0  0  0  0  0
    0.1183   67.7080   64.5418 C   0  0  0  0  0  0
    2.6960   67.6321   63.9834 C   0  0  0  0  0  0
    3.9341   68.2681   64.6555 C   0  0  0  0  0  0
    4.5523   69.4564   63.9044 C   0  0  0  0  0  0
   -0.4155   67.9038   66.0255 C   0  0  0  0  0  0
    0.4884   67.2128   67.0917 C   0  0  0  0  0  0
    0.0270   66.9080   68.3315 N   0  0  0  0  0  0
    1.6031   66.9080   66.7232 O   0  0  0  0  0  0
   -2.5327   68.4315   67.2870 C   0  0  0  0  0  0
   -1.5806   69.6276   67.3926 C   0  0  0  0  0  0
   -0.4933   69.3847   66.3680 C   0  0  0  0  0  0
   -1.9107   67.5214   66.2169 C   0  0  0  0  0  0
    0.6361   66.1980   69.3522 C   0  0  0  0  0  0
   -0.0565   66.1080   70.6220 C   0  0  0  0  0  0
    0.3430   65.1997   71.5443 C   0  0  0  0  0  0
    1.4418   64.2656   71.3226 C   0  0  0  0  0  0
    2.2472   64.5881   70.2488 N   0  0  0  0  0  0
    1.7761   65.4557   69.2806 C   0  0  0  0  0  0
    3.6028   63.9952   70.1886 C   0  0  0  0  0  0
    3.7289   62.4711   70.2399 C   0  0  0  0  0  0
    4.6678   61.8946   71.1017 C   0  0  0  0  0  0
    4.7702   60.5094   71.1967 C   0  0  0  0  0  0
    3.9317   59.7027   70.4302 C   0  0  0  0  0  0
    2.9956   60.2697   69.5680 C   0  0  0  0  0  0
    2.8925   61.6560   69.4721 C   0  0  0  0  0  0
    1.6018   63.3166   72.0914 O   0  0  0  0  0  0
    1.5685   69.3080   64.7142 H   0  0  0  0  0  0
    2.9710   69.0236   62.3159 H   0  0  0  0  0  0
   -0.7290   67.8684   63.8740 H   0  0  0  0  0  0
    0.3430   66.6527   64.4026 H   0  0  0  0  0  0
    2.9573   67.3080   62.9759 H   0  0  0  0  0  0
    2.5295   66.6835   64.4907 H   0  0  0  0  0  0
    4.7024   67.5018   64.7677 H   0  0  0  0  0  0
    3.6803   68.5734   65.6723 H   0  0  0  0  0  0
    5.4348   69.8260   64.4282 H   0  0  0  0  0  0
    3.8562   70.2897   63.8285 H   0  0  0  0  0  0
    4.8678   69.1787   62.8979 H   0  0  0  0  0  0
   -0.9119   67.2214   68.5228 H   0  0  0  0  0  0
   -2.6311   67.9083   68.2383 H   0  0  0  0  0  0
   -3.5373   68.7465   66.9993 H   0  0  0  0  0  0
   -1.1198   69.7080   68.3680 H   0  0  0  0  0  0
   -2.0570   70.5810   67.1740 H   0  0  0  0  0  0
    0.4794   69.7814   66.6566 H   0  0  0  0  0  0
   -0.8570   69.8982   65.4779 H   0  0  0  0  0  0
   -2.4360   67.7676   65.2975 H   0  0  0  0  0  0
   -2.0838   66.4550   66.3680 H   0  0  0  0  0  0
   -0.8570   66.7963   70.8554 H   0  0  0  0  0  0
   -0.1512   65.1531   72.5017 H   0  0  0  0  0  0
    2.3343   65.3080   68.3683 H   0  0  0  0  0  0
    4.1090   64.3328   69.2834 H   0  0  0  0  0  0
    4.1783   64.4258   71.0100 H   0  0  0  0  0  0
    5.3061   62.5144   71.7143 H   0  0  0  0  0  0
    5.4830   60.0680   71.8783 H   0  0  0  0  0  0
    3.9908   58.6275   70.5182 H   0  0  0  0  0  0
    2.3429   59.6354   68.9862 H   0  0  0  0  0  0
    2.1522   62.0933   68.8172 H   0  0  0  0  0  0
  1  3  1  0  0  0
  1  2  1  0  0  0
  1  4  2  0  0  0
  2  5  1  0  0  0
  2  6  1  0  0  0
  2 31  1  0  0  0
  3 32  1  0  0  0
  5  9  1  0  0  0
  5 33  1  0  0  0
  5 34  1  0  0  0
  6  7  1  0  0  0
  6 35  1  0  0  0
  6 36  1  0  0  0
  7  8  1  0  0  0
  7 37  1  0  0  0
  7 38  1  0  0  0
  8 39  1  0  0  0
  8 40  1  0  0  0
  8 41  1  0  0  0
  9 15  1  0  0  0
  9 16  1  0  0  0
  9 10  1  0  0  0
 10 11  1  0  0  0
 10 12  2  0  0  0
 11 17  1  0  0  0
 11 42  1  0  0  0
 13 16  1  0  0  0
 13 14  1  0  0  0
 13 43  1  0  0  0
 13 44  1  0  0  0
 14 15  1  0  0  0
 14 45  1  0  0  0
 14 46  1  0  0  0
 15 47  1  0  0  0
 15 48  1  0  0  0
 16 49  1  0  0  0
 16 50  1  0  0  0
 17 18  1  0  0  0
 17 22  2  0  0  0
 18 19  2  0  0  0
 18 51  1  0  0  0
 19 20  1  0  0  0
 19 52  1  0  0  0
 20 21  1  0  0  0
 20 30  2  0  0  0
 21 22  1  0  0  0
 21 23  1  0  0  0
 22 53  1  0  0  0
 23 24  1  0  0  0
 23 54  1  0  0  0
 23 55  1  0  0  0
 24 25  2  0  0  0
 24 29  1  0  0  0
 25 26  1  0  0  0
 25 56  1  0  0  0
 26 27  2  0  0  0
 26 57  1  0  0  0
 27 28  1  0  0  0
 27 58  1  0  0  0
 28 29  2  0  0  0
 28 59  1  0  0  0
 29 60  1  0  0  0
M  END
> <s_m_entry_id>
8674

> <s_m_entry_name>
dock_pv.184

> <s_m_Source_Path>
/home/csk/Desktop/cluster/DUD-E-result/aces

> <s_m_Source_File>
dock_pv.maegz

> <i_m_Source_File_Index>
184

> <chembl_id>
CHEMBL213944

> <chembl_pref_name>
None

> <i_lp_mmshare_version>
53161

> <i_f3d_flags>
0

> <r_lp_tautomer_probability>
1

> <s_lp_Force_Field>
OPLS_2005

> <r_lp_Energy>
49.650089

> <b_lp_Chiralities_Consistent>
1

> <s_lp_Variant>
CHEMBL220_lig972-2

> <s_i_glide_gridfile>
glide-grid_1e66

> <i_i_glide_lignum>
1333

> <i_i_glide_rotatable_bonds>
11

> <r_i_docking_score>
-7.40163765654466

> <r_i_glide_ligand_efficiency>
-0.246721255218155

> <r_i_glide_ligand_efficiency_sa>
-0.766620303254449

> <r_i_glide_ligand_efficiency_ln>
-1.68173272286856

> <r_i_glide_gscore>
-7.40163765654466

> <r_i_glide_lipo>
-4.18057656014143

> <r_i_glide_hbond>
0

> <r_i_glide_metal>
0

> <r_i_glide_rewards>
-2.4649612845446

> <r_i_glide_evdw>
-36.0298614501953

> <r_i_glide_ecoul>
-0.0452157184481621

> <r_i_glide_erotb>
1.05217561841835

> <r_i_glide_esite>
0

> <r_i_glide_emodel>
-35.8495245948208

> <r_i_glide_energy>
-36.0750771686435

> <r_i_glide_einternal>
16.7289943695068

> <i_i_glide_confnum>
185

> <i_i_glide_posenum>
335

> <r_i_glide_eff_state_penalty>
0

> <s_user_duplicate_titles>
CHEMBL220_lig972

> <s_m_subgroup_title>
dock_pv

> <s_m_subgroupid>
dock_pv

> <b_m_subgroup_collapsed>
0

$$$$
CHEMBL220_lig910
                    3D
 Schrodinger Suite 2021-1.
 45 47  0  0  1  0            999 V2000
    1.9182   68.4155   64.7890 C   0  0  0  0  0  0
    0.3266   68.2711   67.1819 C   0  0  2  0  0  0
    2.4944   68.9397   65.9731 C   0  0  0  0  0  0
    1.7296   68.9524   67.1744 C   0  0  0  0  0  0
    2.6473   68.5089   63.6040 C   0  0  0  0  0  0
    0.1574   67.3709   66.1138 O   0  0  0  0  0  0
    3.7938   69.5145   65.9703 C   0  0  0  0  0  0
   -0.7700   69.3525   67.1332 C   0  0  0  0  0  0
    0.4989   67.8901   64.8291 C   0  0  0  0  0  0
    3.9515   69.0115   63.5869 C   0  0  0  0  0  0
    4.5340   69.4985   64.7683 C   0  0  0  0  0  0
    2.1872   69.5653   68.2968 N   0  0  0  0  0  0
    0.1528   67.5640   68.3787 O   0  0  0  0  0  0
    2.0489   68.1084   62.4327 O   0  0  0  0  0  0
    4.5710   69.0157   62.3581 O   0  0  0  0  0  0
    3.4235   70.1161   68.2813 C   0  0  0  0  0  0
   -2.2247   68.8746   66.9196 C   0  0  2  0  0  0
    4.2658   70.1080   67.1675 C   0  0  0  0  0  0
   -2.5866   67.7537   67.7111 O   0  0  0  0  0  0
   -4.0582   68.5080   65.4645 O   0  0  0  0  0  0
   -2.6481   68.5847   65.4913 C   0  0  0  0  0  0
    1.0805   66.5444   68.7191 C   0  0  0  0  0  0
    1.5366   69.1707   61.6369 C   0  0  0  0  0  0
    5.8624   69.5716   62.2319 C   0  0  0  0  0  0
   -0.5266   70.0835   66.3684 H   0  0  0  0  0  0
   -0.7193   69.8949   68.0795 H   0  0  0  0  0  0
   -0.1599   68.7013   64.5282 H   0  0  0  0  0  0
    0.3623   67.0976   64.0948 H   0  0  0  0  0  0
    5.5291   69.9167   64.7800 H   0  0  0  0  0  0
    3.7420   70.5739   69.2070 H   0  0  0  0  0  0
   -2.8539   69.7079   67.1680 H   0  0  0  0  0  0
    5.2443   70.5641   67.2005 H   0  0  0  0  0  0
   -3.4565   67.4606   67.4108 H   0  0  0  0  0  0
   -4.3627   68.2879   64.5734 H   0  0  0  0  0  0
   -2.3220   69.3081   64.7667 H   0  0  0  0  0  0
   -2.1563   67.6983   65.1683 H   0  0  0  0  0  0
    1.8565   66.9404   69.3756 H   0  0  0  0  0  0
    0.5631   65.7499   69.2566 H   0  0  0  0  0  0
    1.5430   66.1080   67.8376 H   0  0  0  0  0  0
    1.0254   68.7573   60.7676 H   0  0  0  0  0  0
    0.8141   69.7739   62.1897 H   0  0  0  0  0  0
    2.3290   69.8257   61.2731 H   0  0  0  0  0  0
    6.0524   69.7081   61.1682 H   0  0  0  0  0  0
    5.9410   70.5575   62.6942 H   0  0  0  0  0  0
    6.6243   68.9083   62.6446 H   0  0  0  0  0  0
  1  3  2  0  0  0
  1  5  1  0  0  0
  1  9  1  0  0  0
  2  6  1  0  0  0
  2  8  1  0  0  0
  2 13  1  0  0  0
  2  4  1  0  0  0
  3  4  1  0  0  0
  3  7  1  0  0  0
  4 12  2  0  0  0
  5 10  2  0  0  0
  5 14  1  0  0  0
  6  9  1  0  0  0
  7 18  1  0  0  0
  7 11  2  0  0  0
  8 17  1  0  0  0
  8 25  1  0  0  0
  8 26  1  0  0  0
  9 27  1  0  0  0
  9 28  1  0  0  0
 10 11  1  0  0  0
 10 15  1  0  0  0
 11 29  1  0  0  0
 12 16  1  0  0  0
 13 22  1  0  0  0
 14 23  1  0  0  0
 15 24  1  0  0  0
 16 18  2  0  0  0
 16 30  1  0  0  0
 17 19  1  0  0  0
 17 21  1  0  0  0
 17 31  1  0  0  0
 18 32  1  0  0  0
 19 33  1  0  0  0
 20 21  1  0  0  0
 20 34  1  0  0  0
 21 35  1  0  0  0
 21 36  1  0  0  0
 22 37  1  0  0  0
 22 38  1  0  0  0
 22 39  1  0  0  0
 23 40  1  0  0  0
 23 41  1  0  0  0
 23 42  1  0  0  0
 24 43  1  0  0  0
 24 44  1  0  0  0
 24 45  1  0  0  0
M  END
> <s_m_entry_id>
8675

> <s_m_entry_name>
dock_pv.185

> <s_m_Source_Path>
/home/csk/Desktop/cluster/DUD-E-result/aces

> <s_m_Source_File>
dock_pv.maegz

> <i_m_Source_File_Index>
185

> <chembl_id>
CHEMBL371006

> <chembl_pref_name>
None

> <i_lp_mmshare_version>
53161

> <i_f3d_flags>
0

> <r_lp_tautomer_probability>
1

> <s_lp_Force_Field>
OPLS_2005

> <r_lp_Energy>
40.401846

> <b_lp_Chiralities_Consistent>
1

> <s_lp_Variant>
CHEMBL220_lig910-1

> <s_i_glide_gridfile>
glide-grid_1e66

> <i_i_glide_lignum>
1236

> <i_i_glide_rotatable_bonds>
8

> <r_i_docking_score>
-7.3817743209181

> <r_i_glide_ligand_efficiency>
-0.307573930038254

> <r_i_glide_ligand_efficiency_sa>
-0.887196735931013

> <r_i_glide_ligand_efficiency_ln>
-1.76679732254751

> <r_i_glide_gscore>
-7.3817743209181

> <r_i_glide_lipo>
-3.50247083652505

> <r_i_glide_hbond>
0

> <r_i_glide_metal>
0

> <r_i_glide_rewards>
-1.81615697277595

> <r_i_glide_evdw>
-31.4538021087646

> <r_i_glide_ecoul>
-6.62596654891968

> <r_i_glide_erotb>
0.503438576159085

> <r_i_glide_esite>
0

> <r_i_glide_emodel>
-45.4728235737697

> <r_i_glide_energy>
-38.0797686576843

> <r_i_glide_einternal>
10.1561651229858

> <i_i_glide_confnum>
4

> <i_i_glide_posenum>
214

> <r_i_glide_eff_state_penalty>
0

> <s_user_duplicate_titles>
CHEMBL220_lig910

> <s_m_subgroup_title>
dock_pv

> <s_m_subgroupid>
dock_pv

> <b_m_subgroup_collapsed>
0

$$$$
CHEMBL220_lig210
                    3D
 Schrodinger Suite 2021-1.
 56 58  0  0  1  0            999 V2000
    0.3413   68.4942   62.5993 C   0  0  0  0  0  0
    1.5539   68.5082   61.8542 O   0  0  0  0  0  0
    2.7000   68.9804   62.5548 C   0  0  2  0  0  0
    3.8078   69.2607   61.5219 C   0  0  0  0  0  0
    5.1262   69.6305   62.2335 C   0  0  0  0  0  0
    5.4966   68.5975   63.3265 C   0  0  0  0  0  0
    4.4323   68.3956   64.3285 N   0  0  1  0  0  0
    4.2491   69.6348   65.1081 C   0  0  0  0  0  0
    3.4900   69.5012   66.4153 C   0  0  0  0  0  0
    2.3220   68.7964   66.4523 O   0  0  0  0  0  0
    1.7963   68.9212   67.7046 C   0  0  0  0  0  0
    0.5405   68.1395   68.0368 C   0  0  0  0  0  0
    0.8475   66.8016   68.5448 N   0  0  1  0  0  0
    1.3418   66.7934   69.9222 C   0  0  0  0  0  0
    2.1151   65.4901   70.2334 C   0  0  0  0  0  0
    1.3300   64.2566   70.3062 N   0  0  0  0  0  0
    0.1763   64.1833   71.1747 C   0  0  0  0  0  0
   -0.4541   62.9581   70.5686 C   0  0  0  0  0  0
    0.7424   62.1605   70.4418 N   0  0  0  0  0  0
    1.8544   62.9594   70.2363 C   0  0  0  0  0  0
    3.1223   62.5205   70.0755 C   0  0  0  0  0  0
    4.2370   63.3950   69.9897 C   0  0  0  0  0  0
    5.1430   64.1078   69.9680 N   0  0  0  0  0  0
    3.4491   61.1347   69.9981 C   0  0  0  0  0  0
    3.7563   60.0230   69.8978 N   0  0  0  0  0  0
    2.5870   69.7864   68.4379 C   0  0  0  0  0  0
    3.6793   70.1080   67.6431 C   0  0  0  0  0  0
    3.2078   67.9676   63.6223 C   0  0  0  0  0  0
   -0.4568   68.1089   61.9681 H   0  0  0  0  0  0
    0.3973   67.8440   63.4727 H   0  0  0  0  0  0
    0.0577   69.4966   62.9245 H   0  0  0  0  0  0
    2.4056   69.9218   63.0193 H   0  0  0  0  0  0
    3.5233   70.0844   60.8680 H   0  0  0  0  0  0
    3.9846   68.3708   60.9158 H   0  0  0  0  0  0
    5.0890   70.6341   62.6564 H   0  0  0  0  0  0
    5.9391   69.6779   61.5089 H   0  0  0  0  0  0
    6.4118   68.9090   63.8302 H   0  0  0  0  0  0
    5.7318   67.6368   62.8659 H   0  0  0  0  0  0
    3.8068   70.4289   64.5122 H   0  0  0  0  0  0
    5.2387   70.0227   65.3572 H   0  0  0  0  0  0
   -0.0667   68.0189   67.1387 H   0  0  0  0  0  0
   -0.0569   68.6921   68.7607 H   0  0  0  0  0  0
    0.0726   66.1656   68.4156 H   0  0  0  0  0  0
    0.5222   66.9564   70.6225 H   0  0  0  0  0  0
    2.0320   67.6240   70.0683 H   0  0  0  0  0  0
    2.6649   65.5973   71.1671 H   0  0  0  0  0  0
    2.8598   65.3724   69.4498 H   0  0  0  0  0  0
   -0.4569   65.0624   71.0947 H   0  0  0  0  0  0
    0.4608   64.0417   72.2204 H   0  0  0  0  0  0
   -1.2013   62.5009   71.2185 H   0  0  0  0  0  0
   -0.9001   63.1664   69.5938 H   0  0  0  0  0  0
    0.6392   61.2753   69.9642 H   0  0  0  0  0  0
    2.4168   70.1066   69.4545 H   0  0  0  0  0  0
    4.5002   70.7547   67.9155 H   0  0  0  0  0  0
    3.3933   66.9970   63.1615 H   0  0  0  0  0  0
    2.4218   67.7819   64.3493 H   0  0  0  0  0  0
  1  2  1  0  0  0
  1 29  1  0  0  0
  1 30  1  0  0  0
  1 31  1  0  0  0
  2  3  1  0  0  0
  3  4  1  0  0  0
  3 28  1  0  0  0
  3 32  1  0  0  0
  4  5  1  0  0  0
  4 33  1  0  0  0
  4 34  1  0  0  0
  5  6  1  0  0  0
  5 35  1  0  0  0
  5 36  1  0  0  0
  6  7  1  0  0  0
  6 37  1  0  0  0
  6 38  1  0  0  0
  7  8  1  0  0  0
  7 28  1  0  0  0
  8  9  1  0  0  0
  8 39  1  0  0  0
  8 40  1  0  0  0
  9 10  1  0  0  0
  9 27  2  0  0  0
 10 11  1  0  0  0
 11 12  1  0  0  0
 11 26  2  0  0  0
 12 13  1  0  0  0
 12 41  1  0  0  0
 12 42  1  0  0  0
 13 14  1  0  0  0
 13 43  1  0  0  0
 14 15  1  0  0  0
 14 44  1  0  0  0
 14 45  1  0  0  0
 15 16  1  0  0  0
 15 46  1  0  0  0
 15 47  1  0  0  0
 16 17  1  0  0  0
 16 20  1  0  0  0
 17 18  1  0  0  0
 17 48  1  0  0  0
 17 49  1  0  0  0
 18 19  1  0  0  0
 18 50  1  0  0  0
 18 51  1  0  0  0
 19 20  1  0  0  0
 19 52  1  0  0  0
 20 21  2  0  0  0
 21 22  1  0  0  0
 21 24  1  0  0  0
 22 23  3  0  0  0
 24 25  3  0  0  0
 26 27  1  0  0  0
 26 53  1  0  0  0
 27 54  1  0  0  0
 28 55  1  0  0  0
 28 56  1  0  0  0
M  END
> <s_m_entry_id>
8676

> <s_m_entry_name>
dock_pv.186

> <s_m_Source_Path>
/home/csk/Desktop/cluster/DUD-E-result/aces

> <s_m_Source_File>
dock_pv.maegz

> <i_m_Source_File_Index>
186

> <chembl_id>
CHEMBL1203535

> <chembl_pref_name>
None

> <i_lp_mmshare_version>
53161

> <i_f3d_flags>
0

> <r_lp_tautomer_probability>
0.5

> <s_lp_Force_Field>
OPLS_2005

> <r_lp_Energy>
49.836043

> <b_lp_Chiralities_Consistent>
1

> <s_lp_Variant>
CHEMBL220_lig210-1

> <s_i_glide_gridfile>
glide-grid_1e66

> <i_i_glide_lignum>
230

> <i_i_glide_rotatable_bonds>
8

> <r_i_docking_score>
-7.37799331718424

> <r_i_glide_ligand_efficiency>
-0.263499761328008

> <r_i_glide_ligand_efficiency_sa>
-0.800140468451756

> <r_i_glide_ligand_efficiency_ln>
-1.70305748490296

> <r_i_glide_gscore>
-7.37799331718424

> <r_i_glide_lipo>
-3.25744074025886

> <r_i_glide_hbond>
0

> <r_i_glide_metal>
0

> <r_i_glide_rewards>
-2.38481342048803

> <r_i_glide_evdw>
-43.9990501403809

> <r_i_glide_ecoul>
-3.04332709312439

> <r_i_glide_erotb>
0.920712414550357

> <r_i_glide_esite>
0

> <r_i_glide_emodel>
-63.7587954220385

> <r_i_glide_energy>
-47.0423772335052

> <r_i_glide_einternal>
7.22184991836548

> <i_i_glide_confnum>
63

> <i_i_glide_posenum>
317

> <r_i_glide_eff_state_penalty>
0

> <s_user_duplicate_titles>
CHEMBL220_lig210

> <s_m_subgroup_title>
dock_pv

> <s_m_subgroupid>
dock_pv

> <b_m_subgroup_collapsed>
0

$$$$
CHEMBL220_lig1022
                    3D
 Schrodinger Suite 2021-1.
 52 55  0  0  1  0            999 V2000
   -0.5034   67.9174   66.8046 C   0  0  0  0  0  0
   -1.3857   68.4703   65.9235 C   0  0  0  0  0  0
   -0.9213   68.9073   64.7056 N   0  0  0  0  0  0
    1.0220   67.8924   66.5296 C   0  0  1  0  0  0
    1.1742   67.8001   65.0294 C   0  0  0  0  0  0
    0.3130   68.5082   64.1922 C   0  0  0  0  0  0
    0.6515   68.9023   62.9526 N   0  0  0  0  0  0
    2.2773   67.2053   64.4580 C   0  0  0  0  0  0
    2.7428   67.7079   63.2560 C   0  0  0  0  0  0
    1.8902   68.5684   62.5171 C   0  0  0  0  0  0
    2.3495   69.2097   61.2241 C   0  0  0  0  0  0
    3.8746   69.1786   61.1125 C   0  0  0  0  0  0
    4.3427   67.7372   61.3955 C   0  0  0  0  0  0
    4.1558   67.3726   62.8287 C   0  0  0  0  0  0
    3.0000   66.2370   65.1617 N   0  0  0  0  0  0
   -2.8967   68.6175   66.0798 C   0  0  0  0  0  0
   -0.9561   67.1644   67.9682 C   0  0  0  0  0  0
   -2.1370   66.9107   68.2082 O   0  0  0  0  0  0
    0.0584   66.8321   68.8105 O   0  0  0  0  0  0
   -0.1510   66.1957   70.0564 C   0  0  0  0  0  0
   -0.0543   64.6658   69.9440 C   0  0  0  0  0  0
    1.9694   68.9916   67.1176 C   0  0  0  0  0  0
    3.2153   69.3088   66.5251 C   0  0  0  0  0  0
    4.1608   70.1078   67.1625 C   0  0  0  0  0  0
    3.8620   70.6566   68.3986 C   0  0  0  0  0  0
    2.6067   70.4507   68.9503 C   0  0  0  0  0  0
    1.6669   69.6342   68.3140 C   0  0  0  0  0  0
   -1.5094   69.4970   64.1281 H   0  0  0  0  0  0
    1.4457   66.9779   66.9452 H   0  0  0  0  0  0
    1.9042   68.6706   60.3874 H   0  0  0  0  0  0
    1.9846   70.2354   61.1724 H   0  0  0  0  0  0
    4.1732   69.5028   60.1159 H   0  0  0  0  0  0
    4.3318   69.8806   61.8134 H   0  0  0  0  0  0
    3.8129   67.0333   60.7638 H   0  0  0  0  0  0
    5.3915   67.5780   61.1802 H   0  0  0  0  0  0
    4.8584   67.9355   63.4466 H   0  0  0  0  0  0
    4.3868   66.3159   62.9604 H   0  0  0  0  0  0
    3.8548   65.8793   64.7686 H   0  0  0  0  0  0
    2.6859   65.9809   66.0875 H   0  0  0  0  0  0
   -3.3922   67.6522   65.9680 H   0  0  0  0  0  0
   -3.1419   68.9908   67.0736 H   0  0  0  0  0  0
   -3.3300   69.3017   65.3526 H   0  0  0  0  0  0
    0.6282   66.5463   70.7358 H   0  0  0  0  0  0
   -1.0926   66.5124   70.4983 H   0  0  0  0  0  0
   -0.1932   64.1961   70.9168 H   0  0  0  0  0  0
   -0.8070   64.2692   69.2612 H   0  0  0  0  0  0
    0.9239   64.3631   69.5676 H   0  0  0  0  0  0
    3.5410   68.8983   65.5923 H   0  0  0  0  0  0
    5.1205   70.2902   66.7046 H   0  0  0  0  0  0
    4.5844   71.2796   68.9043 H   0  0  0  0  0  0
    2.3139   70.9093   69.8840 H   0  0  0  0  0  0
    0.7058   69.4664   68.7685 H   0  0  0  0  0  0
  1 17  1  0  0  0
  1  2  2  0  0  0
  1  4  1  0  0  0
  2  3  1  0  0  0
  2 16  1  0  0  0
  3  6  1  0  0  0
  3 28  1  0  0  0
  4  5  1  0  0  0
  4 22  1  0  0  0
  4 29  1  0  0  0
  5  8  1  0  0  0
  5  6  2  0  0  0
  6  7  1  0  0  0
  7 10  2  0  0  0
  8 15  1  0  0  0
  8  9  2  0  0  0
  9 10  1  0  0  0
  9 14  1  0  0  0
 10 11  1  0  0  0
 11 12  1  0  0  0
 11 30  1  0  0  0
 11 31  1  0  0  0
 12 13  1  0  0  0
 12 32  1  0  0  0
 12 33  1  0  0  0
 13 14  1  0  0  0
 13 34  1  0  0  0
 13 35  1  0  0  0
 14 36  1  0  0  0
 14 37  1  0  0  0
 15 38  1  0  0  0
 15 39  1  0  0  0
 16 40  1  0  0  0
 16 41  1  0  0  0
 16 42  1  0  0  0
 17 18  2  0  0  0
 17 19  1  0  0  0
 19 20  1  0  0  0
 20 21  1  0  0  0
 20 43  1  0  0  0
 20 44  1  0  0  0
 21 45  1  0  0  0
 21 46  1  0  0  0
 21 47  1  0  0  0
 22 23  2  0  0  0
 22 27  1  0  0  0
 23 24  1  0  0  0
 23 48  1  0  0  0
 24 25  2  0  0  0
 24 49  1  0  0  0
 25 26  1  0  0  0
 25 50  1  0  0  0
 26 27  2  0  0  0
 26 51  1  0  0  0
 27 52  1  0  0  0
M  END
> <s_m_entry_id>
8677

> <s_m_entry_name>
dock_pv.187

> <s_m_Source_Path>
/home/csk/Desktop/cluster/DUD-E-result/aces

> <s_m_Source_File>
dock_pv.maegz

> <i_m_Source_File_Index>
187

> <chembl_id>
CHEMBL218939

> <chembl_pref_name>
None

> <i_lp_mmshare_version>
53161

> <i_f3d_flags>
0

> <r_lp_tautomer_probability>
0.999999999997873

> <s_lp_Force_Field>
OPLS_2005

> <r_lp_Energy>
28.982996

> <b_lp_Chiralities_Consistent>
1

> <s_lp_Variant>
CHEMBL220_lig1022-1

> <s_i_glide_gridfile>
glide-grid_1e66

> <i_i_glide_lignum>
1419

> <i_i_glide_rotatable_bonds>
4

> <r_i_docking_score>
-7.37586426466141

> <r_i_glide_ligand_efficiency>
-0.273180157950423

> <r_i_glide_ligand_efficiency_sa>
-0.81954047295091

> <r_i_glide_ligand_efficiency_ln>
-1.71697960018717

> <r_i_glide_gscore>
-7.37586426466141

> <r_i_glide_lipo>
-3.62841195813429

> <r_i_glide_hbond>
-0.240946541299227

> <r_i_glide_metal>
0

> <r_i_glide_rewards>
-2.47639289369389

> <r_i_glide_evdw>
-29.8849620819092

> <r_i_glide_ecoul>
0.295964807271957

> <r_i_glide_erotb>
0.436348823940907

> <r_i_glide_esite>
-0.0166083124702381

> <r_i_glide_emodel>
-54.2813831553822

> <r_i_glide_energy>
-29.5889972746372

> <r_i_glide_einternal>
9.6704568862915

> <i_i_glide_confnum>
1

> <i_i_glide_posenum>
20

> <r_i_glide_eff_state_penalty>
0

> <s_user_duplicate_titles>
CHEMBL220_lig1022,365077

> <s_m_subgroup_title>
dock_pv

> <s_m_subgroupid>
dock_pv

> <b_m_subgroup_collapsed>
0

$$$$
CHEMBL220_lig196
                    3D
 Schrodinger Suite 2021-1.
 49 51  0  0  1  0            999 V2000
    3.6438   68.8377   63.9389 C   0  0  0  0  0  0
    2.8471   68.9919   62.8619 C   0  0  0  0  0  0
    3.3738   68.6942   65.2958 N   0  0  0  0  0  0
    0.3408   65.1347   69.7204 C   0  0  0  0  0  0
    1.4255   68.9114   62.8704 C   0  0  0  0  0  0
    3.4286   69.3210   61.6106 C   0  0  0  0  0  0
   -0.4484   65.7084   68.7684 O   0  0  0  0  0  0
    5.0221   68.8823   63.9517 N   0  0  0  0  0  0
    0.2722   68.8527   62.8117 N   0  0  0  0  0  0
    3.9429   69.7081   60.6544 N   0  0  0  0  0  0
    0.0868   66.9161   68.4454 C   0  0  0  0  0  0
    1.3391   66.0350   70.0605 C   0  0  0  0  0  0
    1.0350   62.7875   70.4653 N   0  0  0  0  0  0
    1.1430   67.1791   69.2938 C   0  0  0  0  0  0
   -0.0540   63.7217   70.1519 C   0  0  0  0  0  0
    5.3009   69.9295   64.8962 C   0  0  0  0  0  0
   -0.0576   67.2841   65.9783 N   0  0  1  0  0  0
    4.3585   69.5098   66.0005 C   0  0  0  0  0  0
    2.0519   68.5592   65.9068 C   0  0  0  0  0  0
   -0.5365   67.6942   67.3025 C   0  0  0  0  0  0
    1.7550   63.0165   71.7091 C   0  0  0  0  0  0
    2.0721   62.6184   69.4603 C   0  0  0  0  0  0
    1.3785   67.1922   65.7199 C   0  0  0  0  0  0
    3.1544   61.7898   70.1532 C   0  0  0  0  0  0
    2.9637   62.0786   71.6479 C   0  0  0  0  0  0
    5.4629   69.0896   63.0651 H   0  0  0  0  0  0
    2.1348   65.8850   70.7679 H   0  0  0  0  0  0
    1.7370   68.0812   69.3140 H   0  0  0  0  0  0
   -0.7368   63.7346   71.0014 H   0  0  0  0  0  0
   -0.6304   63.2606   69.3494 H   0  0  0  0  0  0
    5.0547   70.9079   64.4838 H   0  0  0  0  0  0
    6.3431   69.9367   65.2155 H   0  0  0  0  0  0
   -0.6529   66.6511   65.4394 H   0  0  0  0  0  0
    4.8954   68.9077   66.7256 H   0  0  0  0  0  0
    3.9229   70.3708   66.5104 H   0  0  0  0  0  0
    2.1093   68.7905   66.9707 H   0  0  0  0  0  0
    1.4016   69.3083   65.4721 H   0  0  0  0  0  0
   -0.3884   68.7677   67.4291 H   0  0  0  0  0  0
   -1.6168   67.5430   67.3028 H   0  0  0  0  0  0
    2.0389   64.0564   71.8590 H   0  0  0  0  0  0
    1.0903   62.7895   72.5440 H   0  0  0  0  0  0
    1.6423   62.1089   68.5964 H   0  0  0  0  0  0
    2.4469   63.5696   69.0800 H   0  0  0  0  0  0
    1.5047   66.8430   64.6949 H   0  0  0  0  0  0
    1.8375   66.4406   66.3628 H   0  0  0  0  0  0
    3.0240   60.7288   69.9348 H   0  0  0  0  0  0
    4.1493   62.0765   69.8090 H   0  0  0  0  0  0
    3.8469   62.5464   72.0838 H   0  0  0  0  0  0
    2.7696   61.1597   72.2039 H   0  0  0  0  0  0
  1  2  2  0  0  0
  1  3  1  0  0  0
  1  8  1  0  0  0
  2  5  1  0  0  0
  2  6  1  0  0  0
  3 18  1  0  0  0
  3 19  1  0  0  0
  4  7  1  0  0  0
  4 15  1  0  0  0
  4 12  2  0  0  0
  5  9  3  0  0  0
  6 10  3  0  0  0
  7 11  1  0  0  0
  8 16  1  0  0  0
  8 26  1  0  0  0
 11 20  1  0  0  0
 11 14  2  0  0  0
 12 14  1  0  0  0
 12 27  1  0  0  0
 13 15  1  0  0  0
 13 21  1  0  0  0
 13 22  1  0  0  0
 14 28  1  0  0  0
 15 29  1  0  0  0
 15 30  1  0  0  0
 16 18  1  0  0  0
 16 31  1  0  0  0
 16 32  1  0  0  0
 17 23  1  0  0  0
 17 20  1  0  0  0
 17 33  1  0  0  0
 18 34  1  0  0  0
 18 35  1  0  0  0
 19 23  1  0  0  0
 19 36  1  0  0  0
 19 37  1  0  0  0
 20 38  1  0  0  0
 20 39  1  0  0  0
 21 25  1  0  0  0
 21 40  1  0  0  0
 21 41  1  0  0  0
 22 24  1  0  0  0
 22 42  1  0  0  0
 22 43  1  0  0  0
 23 44  1  0  0  0
 23 45  1  0  0  0
 24 25  1  0  0  0
 24 46  1  0  0  0
 24 47  1  0  0  0
 25 48  1  0  0  0
 25 49  1  0  0  0
M  END
> <s_m_entry_id>
8678

> <s_m_entry_name>
dock_pv.188

> <s_m_Source_Path>
/home/csk/Desktop/cluster/DUD-E-result/aces

> <s_m_Source_File>
dock_pv.maegz

> <i_m_Source_File_Index>
188

> <chembl_id>
CHEMBL155111

> <chembl_pref_name>
None

> <i_lp_mmshare_version>
53161

> <i_f3d_flags>
0

> <r_lp_tautomer_probability>
0.5

> <s_lp_Force_Field>
OPLS_2005

> <r_lp_Energy>
51.735269

> <b_lp_Chiralities_Consistent>
1

> <s_lp_Variant>
CHEMBL220_lig196-1

> <s_i_glide_gridfile>
glide-grid_1e66

> <i_i_glide_lignum>
213

> <i_i_glide_rotatable_bonds>
7

> <r_i_docking_score>
-7.36972428031252

> <r_i_glide_ligand_efficiency>
-0.294788971212501

> <r_i_glide_ligand_efficiency_sa>
-0.861968179930018

> <r_i_glide_ligand_efficiency_ln>
-1.74684550724902

> <r_i_glide_gscore>
-7.36972428031252

> <r_i_glide_lipo>
-2.97066266352057

> <r_i_glide_hbond>
-0.467704752032168

> <r_i_glide_metal>
0

> <r_i_glide_rewards>
-2.57806914492011

> <r_i_glide_evdw>
-37.9975128173828

> <r_i_glide_ecoul>
-3.98186492919922

> <r_i_glide_erotb>
1.14386766040935

> <r_i_glide_esite>
0

> <r_i_glide_emodel>
-55.5162499210513

> <r_i_glide_energy>
-41.979377746582

> <r_i_glide_einternal>
8.67290782928467

> <i_i_glide_confnum>
193

> <i_i_glide_posenum>
136

> <r_i_glide_eff_state_penalty>
0

> <s_user_duplicate_titles>
CHEMBL220_lig196,257160

> <s_m_subgroup_title>
dock_pv

> <s_m_subgroupid>
dock_pv

> <b_m_subgroup_collapsed>
0

$$$$
CHEMBL220_lig649
                    3D
 Schrodinger Suite 2021-1.
 31 33  0  0  1  0            999 V2000
    2.8293   68.9060   65.2131 N   0  0  0  0  0  0
    1.7497   68.4663   65.7400 C   0  0  0  0  0  0
    1.4285   68.6594   67.0981 N   0  0  0  0  0  0
    3.8277   69.4984   66.0114 C   0  0  0  0  0  0
    3.5426   69.9425   67.3180 C   0  0  0  0  0  0
    2.1133   69.7426   67.8409 C   0  0  0  0  0  0
    5.1310   69.6191   65.4973 C   0  0  0  0  0  0
    5.5432   69.0752   63.9038 Cl  0  0  0  0  0  0
    0.1440   68.2685   67.6821 C   0  0  0  0  0  0
    4.5625   70.5083   68.0882 C   0  0  0  0  0  0
    0.7284   67.7752   64.8333 C   0  0  0  0  0  0
    5.8529   70.6274   67.5771 C   0  0  0  0  0  0
    6.1357   70.1783   66.2898 C   0  0  0  0  0  0
   -1.0735   69.0431   67.1401 C   0  0  0  0  0  0
   -0.6219   68.5080   64.6189 C   0  0  0  0  0  0
   -1.6073   68.5058   65.8036 C   0  0  0  0  0  0
    1.5482   70.6700   67.7558 H   0  0  0  0  0  0
    2.1495   69.4911   68.9024 H   0  0  0  0  0  0
    0.1781   68.3577   68.7688 H   0  0  0  0  0  0
   -0.0004   67.1999   67.5130 H   0  0  0  0  0  0
    4.3530   70.8466   69.0928 H   0  0  0  0  0  0
    0.5538   66.7590   65.1872 H   0  0  0  0  0  0
    1.1741   67.6334   63.8475 H   0  0  0  0  0  0
    6.6355   71.0594   68.1834 H   0  0  0  0  0  0
    7.1424   70.2685   65.9088 H   0  0  0  0  0  0
   -0.8490   70.1077   67.0645 H   0  0  0  0  0  0
   -1.8808   68.9768   67.8706 H   0  0  0  0  0  0
   -1.1277   68.0600   63.7638 H   0  0  0  0  0  0
   -0.4570   69.5289   64.2880 H   0  0  0  0  0  0
   -1.9633   67.4860   65.9604 H   0  0  0  0  0  0
   -2.4917   69.0805   65.5232 H   0  0  0  0  0  0
  1  2  2  0  0  0
  1  4  1  0  0  0
  2  3  1  0  0  0
  2 11  1  0  0  0
  3  9  1  0  0  0
  3  6  1  0  0  0
  4  5  1  0  0  0
  4  7  2  0  0  0
  5  6  1  0  0  0
  5 10  2  0  0  0
  6 17  1  0  0  0
  6 18  1  0  0  0
  7  8  1  0  0  0
  7 13  1  0  0  0
  9 14  1  0  0  0
  9 19  1  0  0  0
  9 20  1  0  0  0
 10 12  1  0  0  0
 10 21  1  0  0  0
 11 15  1  0  0  0
 11 22  1  0  0  0
 11 23  1  0  0  0
 12 13  2  0  0  0
 12 24  1  0  0  0
 13 25  1  0  0  0
 14 16  1  0  0  0
 14 26  1  0  0  0
 14 27  1  0  0  0
 15 16  1  0  0  0
 15 28  1  0  0  0
 15 29  1  0  0  0
 16 30  1  0  0  0
 16 31  1  0  0  0
M  END
> <s_m_entry_id>
8679

> <s_m_entry_name>
dock_pv.189

> <s_m_Source_Path>
/home/csk/Desktop/cluster/DUD-E-result/aces

> <s_m_Source_File>
dock_pv.maegz

> <i_m_Source_File_Index>
189

> <chembl_id>
CHEMBL349977

> <chembl_pref_name>
None

> <i_lp_mmshare_version>
53161

> <i_f3d_flags>
0

> <r_lp_tautomer_probability>
0.999601159137504

> <s_lp_Force_Field>
OPLS_2005

> <r_lp_Energy>
19.641265

> <b_lp_Chiralities_Consistent>
1

> <s_lp_Variant>
CHEMBL220_lig649-1

> <s_i_glide_gridfile>
glide-grid_1e66

> <i_i_glide_lignum>
757

> <i_i_glide_rotatable_bonds>
0

> <r_i_docking_score>
-7.36661105494042

> <r_i_glide_ligand_efficiency>
-0.460413190933776

> <r_i_glide_ligand_efficiency_sa>
-1.16016854074124

> <r_i_glide_ligand_efficiency_ln>
-1.95266741150805

> <r_i_glide_gscore>
-7.36661105494042

> <r_i_glide_lipo>
-2.75689941756057

> <r_i_glide_hbond>
0

> <r_i_glide_metal>
0

> <r_i_glide_rewards>
-2.90259945619317

> <r_i_glide_evdw>
-29.8962688446045

> <r_i_glide_ecoul>
-1.41532492637634

> <r_i_glide_erotb>
0

> <r_i_glide_esite>
0

> <r_i_glide_emodel>
-45.2443379213667

> <r_i_glide_energy>
-31.3115937709808

> <r_i_glide_einternal>
0

> <i_i_glide_confnum>
1

> <i_i_glide_posenum>
185

> <r_i_glide_eff_state_penalty>
0

> <s_user_duplicate_titles>
CHEMBL220_lig649

> <s_m_subgroup_title>
dock_pv

> <s_m_subgroupid>
dock_pv

> <b_m_subgroup_collapsed>
0

$$$$
CHEMBL220_lig334
                    3D
 Schrodinger Suite 2021-1.
 32 32  0  0  1  0            999 V2000
    4.9945   69.2800   64.5817 N   0  3  0  0  0  0
    4.7417   69.7891   66.0073 C   0  0  0  0  0  0
    3.7117   68.7556   63.8368 C   0  0  0  0  0  0
    3.7988   68.4011   62.3439 C   0  0  0  0  0  0
    5.7775   70.3762   66.7750 C   0  0  0  0  0  0
    3.2398   69.1820   61.4013 C   0  0  0  0  0  0
    6.0059   68.1086   64.6142 C   0  0  0  0  0  0
    5.5638   70.3926   63.6558 C   0  0  0  0  0  0
    7.0857   70.4726   66.3689 O   0  0  0  0  0  0
    3.4643   69.6553   66.5900 C   0  0  0  0  0  0
    4.4915   67.1038   61.9581 C   0  0  0  0  0  0
    5.5011   70.8716   68.0512 C   0  0  0  0  0  0
    3.2210   70.1080   67.8882 C   0  0  0  0  0  0
    4.2311   70.7391   68.6084 C   0  0  0  0  0  0
    2.9927   69.5690   63.9556 H   0  0  0  0  0  0
    3.3406   67.9027   64.4080 H   0  0  0  0  0  0
    2.7228   70.0969   61.6524 H   0  0  0  0  0  0
    3.2930   68.9139   60.3558 H   0  0  0  0  0  0
    6.5418   68.1086   63.6673 H   0  0  0  0  0  0
    6.7219   68.2396   65.4216 H   0  0  0  0  0  0
    5.4591   67.1790   64.7680 H   0  0  0  0  0  0
    5.9082   69.9576   62.7172 H   0  0  0  0  0  0
    4.7426   71.0633   63.4488 H   0  0  0  0  0  0
    6.3755   70.9373   64.1227 H   0  0  0  0  0  0
    7.3197   70.1301   65.4965 H   0  0  0  0  0  0
    2.6301   69.1964   66.0832 H   0  0  0  0  0  0
    4.1885   66.2856   62.6108 H   0  0  0  0  0  0
    4.2509   66.8336   60.9313 H   0  0  0  0  0  0
    5.5746   67.2115   61.9819 H   0  0  0  0  0  0
    6.2887   71.3317   68.6304 H   0  0  0  0  0  0
    2.2391   69.9975   68.3298 H   0  0  0  0  0  0
    4.0329   71.1017   69.6071 H   0  0  0  0  0  0
  1  2  1  0  0  0
  1  3  1  0  0  0
  1  7  1  0  0  0
  1  8  1  0  0  0
  2  5  2  0  0  0
  2 10  1  0  0  0
  3  4  1  0  0  0
  3 15  1  0  0  0
  3 16  1  0  0  0
  4  6  2  0  0  0
  4 11  1  0  0  0
  5  9  1  0  0  0
  5 12  1  0  0  0
  6 17  1  0  0  0
  6 18  1  0  0  0
  7 19  1  0  0  0
  7 20  1  0  0  0
  7 21  1  0  0  0
  8 22  1  0  0  0
  8 23  1  0  0  0
  8 24  1  0  0  0
  9 25  1  0  0  0
 10 13  2  0  0  0
 10 26  1  0  0  0
 11 27  1  0  0  0
 11 28  1  0  0  0
 11 29  1  0  0  0
 12 14  2  0  0  0
 12 30  1  0  0  0
 13 14  1  0  0  0
 13 31  1  0  0  0
 14 32  1  0  0  0
M  CHG  1   1   1
M  END
> <s_m_entry_id>
8680

> <s_m_entry_name>
dock_pv.190

> <s_m_Source_Path>
/home/csk/Desktop/cluster/DUD-E-result/aces

> <s_m_Source_File>
dock_pv.maegz

> <i_m_Source_File_Index>
190

> <chembl_id>
CHEMBL294674

> <chembl_pref_name>
None

> <i_lp_mmshare_version>
53161

> <i_f3d_flags>
0

> <r_lp_tautomer_probability>
1

> <s_lp_Force_Field>
OPLS_2005

> <r_lp_Energy>
26.135647

> <b_lp_Chiralities_Consistent>
1

> <s_lp_Variant>
CHEMBL220_lig334-1

> <s_i_glide_gridfile>
glide-grid_1e66

> <i_i_glide_lignum>
388

> <i_i_glide_rotatable_bonds>
4

> <r_i_docking_score>
-7.36510995719803

> <r_i_glide_ligand_efficiency>
-0.526079282657002

> <r_i_glide_ligand_efficiency_sa>
-1.26792591232325

> <r_i_glide_ligand_efficiency_ln>
-2.02390599819891

> <r_i_glide_gscore>
-7.36510995719803

> <r_i_glide_lipo>
-2.50252408904255

> <r_i_glide_hbond>
-0.312573132150373

> <r_i_glide_metal>
0

> <r_i_glide_rewards>
-4.14420175825942

> <r_i_glide_evdw>
-21.3369846343994

> <r_i_glide_ecoul>
-4.31219577789307

> <r_i_glide_erotb>
1.30786762065824

> <r_i_glide_esite>
0

> <r_i_glide_emodel>
-40.4273396363027

> <r_i_glide_energy>
-25.6491804122925

> <r_i_glide_einternal>
2.79221749305725

> <i_i_glide_confnum>
11

> <i_i_glide_posenum>
367

> <r_i_glide_eff_state_penalty>
0

> <s_user_duplicate_titles>
CHEMBL220_lig334

> <s_m_subgroup_title>
dock_pv

> <s_m_subgroupid>
dock_pv

> <b_m_subgroup_collapsed>
0

$$$$
CHEMBL220_lig392
                    3D
 Schrodinger Suite 2021-1.
 47 50  0  0  1  0            999 V2000
    4.3149   69.1384   61.9673 C   0  0  0  0  0  0
    5.3199   69.1209   62.9360 C   0  0  0  0  0  0
    5.0285   68.8639   64.2773 C   0  0  0  0  0  0
    3.7217   68.6041   64.7014 C   0  0  0  0  0  0
    3.0121   68.8759   62.4025 C   0  0  0  0  0  0
    2.6908   68.6076   63.7425 C   0  0  0  0  0  0
    1.2749   68.3965   63.6965 C   0  0  0  0  0  0
    0.8047   68.5084   62.4727 N   0  0  0  0  0  0
    1.8854   68.8237   61.6362 O   0  0  0  0  0  0
    0.4756   68.1103   64.7732 N   0  0  0  0  0  0
    0.6155   68.7361   66.0811 C   0  0  0  0  0  0
    0.7588   67.7501   67.2525 C   0  0  0  0  0  0
    1.2193   68.4808   68.5207 C   0  0  0  0  0  0
    1.4363   67.5207   69.7172 C   0  0  0  0  0  0
    0.3053   66.6036   69.9489 N   0  0  1  0  0  0
   -0.3430   66.0529   68.7542 C   0  0  0  0  0  0
   -0.5704   67.0771   67.6299 C   0  0  0  0  0  0
    0.5269   65.6143   71.0140 C   0  0  0  0  0  0
    1.4151   64.4219   70.6393 C   0  0  0  0  0  0
    0.8189   63.1947   70.3333 C   0  0  0  0  0  0
    1.6072   62.1077   69.9660 C   0  0  0  0  0  0
    2.9907   62.2485   69.8870 C   0  0  0  0  0  0
    3.5950   63.4685   70.1800 C   0  0  0  0  0  0
    2.8066   64.5526   70.5559 C   0  0  0  0  0  0
    4.5378   69.3330   60.9289 H   0  0  0  0  0  0
    6.3429   69.3057   62.6421 H   0  0  0  0  0  0
    5.8313   68.8677   65.0004 H   0  0  0  0  0  0
    3.5184   68.3992   65.7429 H   0  0  0  0  0  0
   -0.3892   67.5969   64.6522 H   0  0  0  0  0  0
    1.4740   69.4085   66.0774 H   0  0  0  0  0  0
   -0.2429   69.3870   66.2520 H   0  0  0  0  0  0
    1.4964   66.9843   67.0017 H   0  0  0  0  0  0
    2.1463   69.0201   68.3234 H   0  0  0  0  0  0
    0.5170   69.2768   68.7679 H   0  0  0  0  0  0
    2.3425   66.9451   69.5676 H   0  0  0  0  0  0
    1.6186   68.0920   70.6241 H   0  0  0  0  0  0
    0.3306   65.3081   68.3711 H   0  0  0  0  0  0
   -1.2605   65.5414   69.0276 H   0  0  0  0  0  0
   -1.3322   67.8059   67.9110 H   0  0  0  0  0  0
   -0.9975   66.5791   66.7585 H   0  0  0  0  0  0
    0.9123   66.1071   71.9005 H   0  0  0  0  0  0
   -0.4493   65.2296   71.3117 H   0  0  0  0  0  0
   -0.2547   63.0785   70.3786 H   0  0  0  0  0  0
    1.1440   61.1588   69.7424 H   0  0  0  0  0  0
    3.5991   61.4041   69.5987 H   0  0  0  0  0  0
    4.6678   63.5762   70.1183 H   0  0  0  0  0  0
    3.2872   65.4911   70.7880 H   0  0  0  0  0  0
  1  2  2  0  0  0
  1  5  1  0  0  0
  1 25  1  0  0  0
  2  3  1  0  0  0
  2 26  1  0  0  0
  3  4  2  0  0  0
  3 27  1  0  0  0
  4  6  1  0  0  0
  4 28  1  0  0  0
  5  9  1  0  0  0
  5  6  2  0  0  0
  6  7  1  0  0  0
  7  8  2  0  0  0
  7 10  1  0  0  0
  8  9  1  0  0  0
 10 11  1  0  0  0
 10 29  1  0  0  0
 11 12  1  0  0  0
 11 30  1  0  0  0
 11 31  1  0  0  0
 12 13  1  0  0  0
 12 17  1  0  0  0
 12 32  1  0  0  0
 13 14  1  0  0  0
 13 33  1  0  0  0
 13 34  1  0  0  0
 14 15  1  0  0  0
 14 35  1  0  0  0
 14 36  1  0  0  0
 15 16  1  0  0  0
 15 18  1  0  0  0
 16 17  1  0  0  0
 16 37  1  0  0  0
 16 38  1  0  0  0
 17 39  1  0  0  0
 17 40  1  0  0  0
 18 19  1  0  0  0
 18 41  1  0  0  0
 18 42  1  0  0  0
 19 20  2  0  0  0
 19 24  1  0  0  0
 20 21  1  0  0  0
 20 43  1  0  0  0
 21 22  2  0  0  0
 21 44  1  0  0  0
 22 23  1  0  0  0
 22 45  1  0  0  0
 23 24  2  0  0  0
 23 46  1  0  0  0
 24 47  1  0  0  0
M  END
> <s_m_entry_id>
8681

> <s_m_entry_name>
dock_pv.191

> <s_m_Source_Path>
/home/csk/Desktop/cluster/DUD-E-result/aces

> <s_m_Source_File>
dock_pv.maegz

> <i_m_Source_File_Index>
191

> <chembl_id>
CHEMBL92629

> <chembl_pref_name>
None

> <i_lp_mmshare_version>
53161

> <i_f3d_flags>
0

> <r_lp_tautomer_probability>
1

> <s_lp_Force_Field>
OPLS_2005

> <r_lp_Energy>
33.426608

> <b_lp_Chiralities_Consistent>
1

> <s_lp_Variant>
CHEMBL220_lig392-1

> <s_i_glide_gridfile>
glide-grid_1e66

> <i_i_glide_lignum>
451

> <i_i_glide_rotatable_bonds>
5

> <r_i_docking_score>
-7.36330980355348

> <r_i_glide_ligand_efficiency>
-0.306804575148061

> <r_i_glide_ligand_efficiency_sa>
-0.884977532413775

> <r_i_glide_ligand_efficiency_ln>
-1.76237791626066

> <r_i_glide_gscore>
-7.36330980355348

> <r_i_glide_lipo>
-3.73998606895568

> <r_i_glide_hbond>
-0.141236844996632

> <r_i_glide_metal>
0

> <r_i_glide_rewards>
-1.96399067723092

> <r_i_glide_evdw>
-38.9419403076172

> <r_i_glide_ecoul>
-3.16928267478943

> <r_i_glide_erotb>
0.904393204229028

> <r_i_glide_esite>
0

> <r_i_glide_emodel>
-56.0530820069729

> <r_i_glide_energy>
-42.1112229824066

> <r_i_glide_einternal>
8.90128612518311

> <i_i_glide_confnum>
83

> <i_i_glide_posenum>
110

> <r_i_glide_eff_state_penalty>
0

> <s_user_duplicate_titles>
CHEMBL220_lig392,150210

> <s_m_subgroup_title>
dock_pv

> <s_m_subgroupid>
dock_pv

> <b_m_subgroup_collapsed>
0

$$$$
CHEMBL220_lig421
                    3D
 Schrodinger Suite 2021-1.
 51 54  0  0  1  0            999 V2000
    4.7750   69.7074   62.0472 C   0  0  0  0  0  0
    5.5373   69.6636   63.2090 C   0  0  0  0  0  0
    5.0009   69.2167   64.4180 C   0  0  0  0  0  0
    3.6802   68.7571   64.4896 C   0  0  0  0  0  0
    3.4440   69.3070   62.1571 C   0  0  0  0  0  0
    2.8647   68.8251   63.3421 C   0  0  0  0  0  0
    1.5181   68.5088   62.9397 C   0  0  0  0  0  0
    1.3091   68.8763   61.6918 N   0  0  0  0  0  0
    2.5215   69.3224   61.1663 O   0  0  0  0  0  0
    0.3988   67.7837   63.6661 C   0  0  0  0  0  0
   -0.5781   68.6618   64.4807 C   0  0  0  0  0  0
   -0.5569   68.4648   66.0182 C   0  0  0  0  0  0
   -1.0000   67.0407   66.4241 C   0  0  0  0  0  0
   -0.9870   66.8308   67.9421 C   0  0  0  0  0  0
    0.3334   67.1446   68.5149 N   0  0  1  0  0  0
    0.7676   68.5137   68.2041 C   0  0  0  0  0  0
    0.8100   68.7082   66.6749 C   0  0  0  0  0  0
    0.4343   66.8145   69.9405 C   0  0  0  0  0  0
    1.0422   65.4297   70.1577 C   0  0  0  0  0  0
    0.2553   64.2761   70.0693 C   0  0  0  0  0  0
    0.8283   63.0198   70.2462 C   0  0  0  0  0  0
    2.1968   62.9121   70.4785 C   0  0  0  0  0  0
    2.9986   64.0496   70.5288 C   0  0  0  0  0  0
    2.4193   65.3056   70.3658 C   0  0  0  0  0  0
    5.8634   69.2596   65.6656 C   0  0  0  0  0  0
    5.1882   70.0594   61.1132 H   0  0  0  0  0  0
    6.5612   69.9933   63.1683 H   0  0  0  0  0  0
    3.3155   68.3808   65.4263 H   0  0  0  0  0  0
   -0.2186   67.3080   62.9051 H   0  0  0  0  0  0
    0.7976   66.9526   64.2464 H   0  0  0  0  0  0
   -0.4578   69.7057   64.2019 H   0  0  0  0  0  0
   -1.5943   68.4430   64.1463 H   0  0  0  0  0  0
   -1.2566   69.1735   66.4661 H   0  0  0  0  0  0
   -2.0062   66.8706   66.0407 H   0  0  0  0  0  0
   -0.3937   66.2597   65.9685 H   0  0  0  0  0  0
   -1.7898   67.4250   68.3691 H   0  0  0  0  0  0
   -1.2182   65.7923   68.1674 H   0  0  0  0  0  0
    0.1055   69.2324   68.6888 H   0  0  0  0  0  0
    1.7652   68.6848   68.6113 H   0  0  0  0  0  0
    1.5273   68.0077   66.2602 H   0  0  0  0  0  0
    1.1880   69.6982   66.4196 H   0  0  0  0  0  0
    1.0849   67.5379   70.4353 H   0  0  0  0  0  0
   -0.5371   66.8807   70.4335 H   0  0  0  0  0  0
   -0.7998   64.3448   69.8626 H   0  0  0  0  0  0
    0.2149   62.1334   70.1919 H   0  0  0  0  0  0
    2.6400   61.9360   70.6099 H   0  0  0  0  0  0
    4.0633   63.9639   70.6909 H   0  0  0  0  0  0
    3.0443   66.1853   70.4047 H   0  0  0  0  0  0
    6.7668   68.6598   65.5350 H   0  0  0  0  0  0
    5.3316   68.9083   66.5503 H   0  0  0  0  0  0
    6.1802   70.2861   65.8596 H   0  0  0  0  0  0
  1  2  2  0  0  0
  1  5  1  0  0  0
  1 26  1  0  0  0
  2  3  1  0  0  0
  2 27  1  0  0  0
  3  4  2  0  0  0
  3 25  1  0  0  0
  4  6  1  0  0  0
  4 28  1  0  0  0
  5  9  1  0  0  0
  5  6  2  0  0  0
  6  7  1  0  0  0
  7  8  2  0  0  0
  7 10  1  0  0  0
  8  9  1  0  0  0
 10 11  1  0  0  0
 10 29  1  0  0  0
 10 30  1  0  0  0
 11 12  1  0  0  0
 11 31  1  0  0  0
 11 32  1  0  0  0
 12 13  1  0  0  0
 12 17  1  0  0  0
 12 33  1  0  0  0
 13 14  1  0  0  0
 13 34  1  0  0  0
 13 35  1  0  0  0
 14 15  1  0  0  0
 14 36  1  0  0  0
 14 37  1  0  0  0
 15 16  1  0  0  0
 15 18  1  0  0  0
 16 17  1  0  0  0
 16 38  1  0  0  0
 16 39  1  0  0  0
 17 40  1  0  0  0
 17 41  1  0  0  0
 18 19  1  0  0  0
 18 42  1  0  0  0
 18 43  1  0  0  0
 19 20  2  0  0  0
 19 24  1  0  0  0
 20 21  1  0  0  0
 20 44  1  0  0  0
 21 22  2  0  0  0
 21 45  1  0  0  0
 22 23  1  0  0  0
 22 46  1  0  0  0
 23 24  2  0  0  0
 23 47  1  0  0  0
 24 48  1  0  0  0
 25 49  1  0  0  0
 25 50  1  0  0  0
 25 51  1  0  0  0
M  END
> <s_m_entry_id>
8682

> <s_m_entry_name>
dock_pv.192

> <s_m_Source_Path>
/home/csk/Desktop/cluster/DUD-E-result/aces

> <s_m_Source_File>
dock_pv.maegz

> <i_m_Source_File_Index>
192

> <chembl_id>
CHEMBL433379

> <chembl_pref_name>
None

> <i_lp_mmshare_version>
53161

> <i_f3d_flags>
0

> <r_lp_tautomer_probability>
1

> <s_lp_Force_Field>
OPLS_2005

> <r_lp_Energy>
30.694899

> <b_lp_Chiralities_Consistent>
1

> <s_lp_Variant>
CHEMBL220_lig421-1

> <s_i_glide_gridfile>
glide-grid_1e66

> <i_i_glide_lignum>
481

> <i_i_glide_rotatable_bonds>
5

> <r_i_docking_score>
-7.36092764700739

> <r_i_glide_ligand_efficiency>
-0.294437105880296

> <r_i_glide_ligand_efficiency_sa>
-0.860939319458292

> <r_i_glide_ligand_efficiency_ln>
-1.74476044154188

> <r_i_glide_gscore>
-7.36092764700739

> <r_i_glide_lipo>
-3.89037071308872

> <r_i_glide_hbond>
0

> <r_i_glide_metal>
0

> <r_i_glide_rewards>
-2.02871836363636

> <r_i_glide_evdw>
-41.1670684814453

> <r_i_glide_ecoul>
-1.51024842262268

> <r_i_glide_erotb>
0.843052117183357

> <r_i_glide_esite>
0

> <r_i_glide_emodel>
-52.5087827198273

> <r_i_glide_energy>
-42.677316904068

> <r_i_glide_einternal>
9.46309185028076

> <i_i_glide_confnum>
130

> <i_i_glide_posenum>
53

> <r_i_glide_eff_state_penalty>
0

> <s_user_duplicate_titles>
CHEMBL220_lig421,149695

> <s_m_subgroup_title>
dock_pv

> <s_m_subgroupid>
dock_pv

> <b_m_subgroup_collapsed>
0

$$$$
CHEMBL220_lig489
                    3D
 Schrodinger Suite 2021-1.
 34 37  0  0  1  0            999 V2000
    0.6963   68.5080   64.0496 C   0  0  0  0  0  0
    1.3690   68.1302   65.2027 C   0  0  0  0  0  0
    2.7145   68.1081   65.3333 N   0  0  0  0  0  0
    1.4292   68.9078   62.9322 C   0  0  0  0  0  0
    0.3925   67.7661   66.2404 C   0  0  0  0  0  0
   -0.7943   68.4037   64.2802 C   0  0  0  0  0  0
    2.8580   68.9088   63.0238 C   0  0  0  0  0  0
   -0.8823   67.9698   65.7257 C   0  0  0  0  0  0
    3.4548   68.4987   64.2613 C   0  0  0  0  0  0
    0.5549   67.2618   67.5270 C   0  0  0  0  0  0
   -2.0040   67.6943   66.5081 C   0  0  0  0  0  0
    0.7487   69.3054   61.7770 N   0  0  0  0  0  0
   -0.5580   66.9079   68.3009 C   0  0  0  0  0  0
   -1.8350   67.1394   67.7768 C   0  0  0  0  0  0
    3.7146   69.3091   61.9638 C   0  0  0  0  0  0
   -0.4750   66.3592   69.5653 O   0  0  0  0  0  0
    4.8638   68.4981   64.3942 C   0  0  0  0  0  0
    0.7883   66.2821   70.2178 C   0  0  0  0  0  0
    5.0945   69.3273   62.1403 C   0  0  0  0  0  0
    5.6654   68.9082   63.3341 C   0  0  0  0  0  0
   -1.2486   67.7081   63.5813 H   0  0  0  0  0  0
   -1.3413   69.3085   64.1097 H   0  0  0  0  0  0
    1.5430   67.1047   67.9094 H   0  0  0  0  0  0
   -3.0034   67.8461   66.1256 H   0  0  0  0  0  0
    1.2622   69.6208   60.9674 H   0  0  0  0  0  0
   -0.2597   69.3340   61.7981 H   0  0  0  0  0  0
   -2.7078   66.9079   68.3705 H   0  0  0  0  0  0
    3.2972   69.6283   61.0217 H   0  0  0  0  0  0
    5.3114   68.1906   65.3275 H   0  0  0  0  0  0
    0.6507   65.8603   71.2126 H   0  0  0  0  0  0
    1.2373   67.2691   70.3417 H   0  0  0  0  0  0
    1.4805   65.6323   69.6797 H   0  0  0  0  0  0
    5.7299   69.6623   61.3333 H   0  0  0  0  0  0
    6.7427   68.9082   63.4361 H   0  0  0  0  0  0
  1  2  1  0  0  0
  1  4  2  0  0  0
  1  6  1  0  0  0
  2  3  2  0  0  0
  2  5  1  0  0  0
  3  9  1  0  0  0
  4  7  1  0  0  0
  4 12  1  0  0  0
  5 10  1  0  0  0
  5  8  2  0  0  0
  6  8  1  0  0  0
  6 21  1  0  0  0
  6 22  1  0  0  0
  7  9  1  0  0  0
  7 15  2  0  0  0
  8 11  1  0  0  0
  9 17  2  0  0  0
 10 13  2  0  0  0
 10 23  1  0  0  0
 11 14  2  0  0  0
 11 24  1  0  0  0
 12 25  1  0  0  0
 12 26  1  0  0  0
 13 16  1  0  0  0
 13 14  1  0  0  0
 14 27  1  0  0  0
 15 19  1  0  0  0
 15 28  1  0  0  0
 16 18  1  0  0  0
 17 20  1  0  0  0
 17 29  1  0  0  0
 18 30  1  0  0  0
 18 31  1  0  0  0
 18 32  1  0  0  0
 19 20  2  0  0  0
 19 33  1  0  0  0
 20 34  1  0  0  0
M  END
> <s_m_entry_id>
8683

> <s_m_entry_name>
dock_pv.193

> <s_m_Source_Path>
/home/csk/Desktop/cluster/DUD-E-result/aces

> <s_m_Source_File>
dock_pv.maegz

> <i_m_Source_File_Index>
193

> <chembl_id>
CHEMBL293842

> <chembl_pref_name>
None

> <i_lp_mmshare_version>
53161

> <i_f3d_flags>
0

> <r_lp_tautomer_probability>
1

> <s_lp_Force_Field>
OPLS_2005

> <r_lp_Energy>
40.504547

> <b_lp_Chiralities_Consistent>
1

> <s_lp_Variant>
CHEMBL220_lig489-1

> <s_i_glide_gridfile>
glide-grid_1e66

> <i_i_glide_lignum>
567

> <i_i_glide_rotatable_bonds>
1

> <r_i_docking_score>
-7.35741410654819

> <r_i_glide_ligand_efficiency>
-0.36787070532741

> <r_i_glide_ligand_efficiency_sa>
-0.99855472217278

> <r_i_glide_ligand_efficiency_ln>
-1.84131808711102

> <r_i_glide_gscore>
-7.35741410654819

> <r_i_glide_lipo>
-3.48214749806158

> <r_i_glide_hbond>
0

> <r_i_glide_metal>
0

> <r_i_glide_rewards>
-1.88241256166502

> <r_i_glide_evdw>
-33.8380966186523

> <r_i_glide_ecoul>
-2.00632810592651

> <r_i_glide_erotb>
0

> <r_i_glide_esite>
0

> <r_i_glide_emodel>
-49.0384842545818

> <r_i_glide_energy>
-35.8444247245789

> <r_i_glide_einternal>
3.39098334312439

> <i_i_glide_confnum>
1

> <i_i_glide_posenum>
207

> <r_i_glide_eff_state_penalty>
0

> <s_user_duplicate_titles>
CHEMBL220_lig489

> <s_m_subgroup_title>
dock_pv

> <s_m_subgroupid>
dock_pv

> <b_m_subgroup_collapsed>
0

$$$$
CHEMBL220_lig836
                    3D
 Schrodinger Suite 2021-1.
 55 58  0  0  1  0            999 V2000
   -0.0682   67.1014   67.0116 C   0  0  0  0  0  0
   -1.0427   68.1788   66.0126 S   0  0  0  0  0  0
    1.1843   66.9083   66.4395 C   0  0  0  0  0  0
    0.2141   68.2630   64.7955 C   0  0  0  0  0  0
    1.3861   67.5959   65.2135 C   0  0  0  0  0  0
   -0.7040   66.5083   68.2116 C   0  0  0  0  0  0
    1.6920   63.8356   70.8044 N   0  3  1  0  0  0
    0.0598   65.6544   69.1679 C   0  0  0  0  0  0
    0.1373   68.9080   63.5601 C   0  0  0  0  0  0
    1.2933   68.9970   62.7687 C   0  0  0  0  0  0
   -0.4554   64.4631   69.5680 C   0  0  0  0  0  0
    2.5252   67.6658   64.3956 C   0  0  0  0  0  0
    2.4825   68.3847   63.1883 C   0  0  0  0  0  0
    0.2282   63.4365   70.4565 C   0  0  0  0  0  0
   -1.9120   66.6731   68.3740 O   0  0  0  0  0  0
    2.7248   63.2446   69.7816 C   0  0  0  0  0  0
    1.4695   66.0655   69.5539 C   0  0  0  0  0  0
    1.8455   65.3854   70.8780 C   0  0  0  0  0  0
    1.3457   69.7079   61.5818 O   0  0  0  0  0  0
    3.5764   68.5220   62.3508 O   0  0  0  0  0  0
    1.9657   63.2763   72.2213 C   0  0  0  0  0  0
    3.1906   61.8100   70.0379 C   0  0  0  0  0  0
    4.8448   68.0035   62.7357 C   0  0  0  0  0  0
    0.1948   70.4058   61.1242 C   0  0  0  0  0  0
    4.3288   61.5777   70.8196 C   0  0  0  0  0  0
    2.4772   60.7332   69.5117 C   0  0  0  0  0  0
    4.7030   60.2752   71.1348 C   0  0  0  0  0  0
    2.8726   59.4297   69.7987 C   0  0  0  0  0  0
    3.9611   59.2082   70.6324 C   0  0  0  0  0  0
    1.9431   66.2641   66.8348 H   0  0  0  0  0  0
   -0.7960   69.3674   63.2753 H   0  0  0  0  0  0
   -1.4056   64.1587   69.1689 H   0  0  0  0  0  0
    3.4288   67.1753   64.7152 H   0  0  0  0  0  0
   -0.3444   63.3687   71.3837 H   0  0  0  0  0  0
    0.2489   62.4452   70.0046 H   0  0  0  0  0  0
    2.2846   63.3488   68.7903 H   0  0  0  0  0  0
    3.5936   63.9047   69.8241 H   0  0  0  0  0  0
    2.1713   65.7079   68.8094 H   0  0  0  0  0  0
    1.5748   67.1518   69.6169 H   0  0  0  0  0  0
    2.8735   65.6029   71.1679 H   0  0  0  0  0  0
    1.1431   65.7173   71.6449 H   0  0  0  0  0  0
    3.0334   63.3972   72.3679 H   0  0  0  0  0  0
    1.3702   63.8160   72.9575 H   0  0  0  0  0  0
    1.7039   62.2163   72.2286 H   0  0  0  0  0  0
    5.5812   68.2456   61.9684 H   0  0  0  0  0  0
    4.8197   66.9181   62.8358 H   0  0  0  0  0  0
    5.1906   68.4450   63.6719 H   0  0  0  0  0  0
    0.4734   71.1826   60.4169 H   0  0  0  0  0  0
   -0.4569   69.7179   60.5960 H   0  0  0  0  0  0
   -0.3522   70.9080   61.9206 H   0  0  0  0  0  0
    4.9023   62.4025   71.2184 H   0  0  0  0  0  0
    1.6141   60.9035   68.8863 H   0  0  0  0  0  0
    5.5571   60.0999   71.7740 H   0  0  0  0  0  0
    2.3430   58.5830   69.3908 H   0  0  0  0  0  0
    4.2385   58.1932   70.8786 H   0  0  0  0  0  0
  1  2  1  0  0  0
  1  3  2  0  0  0
  1  6  1  0  0  0
  2  4  1  0  0  0
  3  5  1  0  0  0
  3 30  1  0  0  0
  4  9  1  0  0  0
  4  5  2  0  0  0
  5 12  1  0  0  0
  6  8  1  0  0  0
  6 15  2  0  0  0
  7 18  1  0  0  0
  7 16  1  0  0  0
  7 21  1  0  0  0
  7 14  1  0  0  0
  8 11  2  0  0  0
  8 17  1  0  0  0
  9 10  2  0  0  0
  9 31  1  0  0  0
 10 19  1  0  0  0
 10 13  1  0  0  0
 11 14  1  0  0  0
 11 32  1  0  0  0
 12 13  2  0  0  0
 12 33  1  0  0  0
 13 20  1  0  0  0
 14 34  1  0  0  0
 14 35  1  0  0  0
 16 22  1  0  0  0
 16 36  1  0  0  0
 16 37  1  0  0  0
 17 18  1  0  0  0
 17 38  1  0  0  0
 17 39  1  0  0  0
 18 40  1  0  0  0
 18 41  1  0  0  0
 19 24  1  0  0  0
 20 23  1  0  0  0
 21 42  1  0  0  0
 21 43  1  0  0  0
 21 44  1  0  0  0
 22 25  1  0  0  0
 22 26  2  0  0  0
 23 45  1  0  0  0
 23 46  1  0  0  0
 23 47  1  0  0  0
 24 48  1  0  0  0
 24 49  1  0  0  0
 24 50  1  0  0  0
 25 27  2  0  0  0
 25 51  1  0  0  0
 26 28  1  0  0  0
 26 52  1  0  0  0
 27 29  1  0  0  0
 27 53  1  0  0  0
 28 29  2  0  0  0
 28 54  1  0  0  0
 29 55  1  0  0  0
M  CHG  1   7   1
M  END
> <s_m_entry_id>
8684

> <s_m_entry_name>
dock_pv.194

> <s_m_Source_Path>
/home/csk/Desktop/cluster/DUD-E-result/aces

> <s_m_Source_File>
dock_pv.maegz

> <i_m_Source_File_Index>
194

> <chembl_id>
CHEMBL188325

> <chembl_pref_name>
None

> <i_lp_mmshare_version>
53161

> <i_f3d_flags>
0

> <r_lp_tautomer_probability>
1

> <s_lp_Force_Field>
OPLS_2005

> <r_lp_Energy>
34.80458

> <b_lp_Chiralities_Consistent>
1

> <s_lp_Variant>
CHEMBL220_lig836-2

> <s_i_glide_gridfile>
glide-grid_1e66

> <i_i_glide_lignum>
1061

> <i_i_glide_rotatable_bonds>
6

> <r_i_docking_score>
-7.34955833038964

> <r_i_glide_ligand_efficiency>
-0.253433045875505

> <r_i_glide_ligand_efficiency_sa>
-0.778626610154171

> <r_i_glide_ligand_efficiency_ln>
-1.6828624889403

> <r_i_glide_gscore>
-7.34955833038964

> <r_i_glide_lipo>
-4.00234850719669

> <r_i_glide_hbond>
0

> <r_i_glide_metal>
0

> <r_i_glide_rewards>
-2.03376334548546

> <r_i_glide_evdw>
-33.9586791992188

> <r_i_glide_ecoul>
-0.581501722335815

> <r_i_glide_erotb>
0.47171274060382

> <r_i_glide_esite>
0

> <r_i_glide_emodel>
-38.3293585090664

> <r_i_glide_energy>
-34.5401809215546

> <r_i_glide_einternal>
7.11364698410034

> <i_i_glide_confnum>
57

> <i_i_glide_posenum>
392

> <r_i_glide_eff_state_penalty>
0

> <s_user_duplicate_titles>
CHEMBL220_lig836,313772

> <s_m_subgroup_title>
dock_pv

> <s_m_subgroupid>
dock_pv

> <b_m_subgroup_collapsed>
0

$$$$
CHEMBL220_lig227
                    3D
 Schrodinger Suite 2021-1.
 50 52  0  0  1  0            999 V2000
    0.2817   68.5080   64.1945 C   0  0  0  0  0  0
    1.1659   68.5080   62.6710 S   0  0  0  0  0  0
    2.6954   68.6753   63.5261 C   0  0  0  0  0  0
    1.1471   68.6895   65.2305 C   0  0  0  0  0  0
    2.4734   68.8919   64.8991 C   0  0  0  0  0  0
    0.6925   66.4317   69.3283 N   0  3  0  0  0  0
    3.9918   68.6524   63.0234 C   0  0  0  0  0  0
   -1.1824   68.5080   64.2146 C   0  0  0  0  0  0
    5.0349   68.9022   63.9264 C   0  0  0  0  0  0
    3.5144   69.2747   65.7437 C   0  0  0  0  0  0
    4.8085   69.3070   65.2417 C   0  0  0  0  0  0
   -1.8046   68.5097   63.1680 O   0  0  0  0  0  0
   -2.0722   68.5080   65.4786 C   0  0  0  0  0  0
   -0.4570   65.9914   68.7680 C   0  0  0  0  0  0
    1.1020   67.7079   69.1645 C   0  0  0  0  0  0
   -0.7763   68.1223   67.6882 C   0  0  0  0  0  0
   -1.5824   69.0794   66.8250 C   0  0  0  0  0  0
    6.3430   68.7509   63.6103 O   0  0  0  0  0  0
    5.9055   69.6795   65.9995 O   0  0  0  0  0  0
    1.5659   65.4644   70.0343 C   0  0  0  0  0  0
   -1.2095   66.8198   67.9296 C   0  0  0  0  0  0
    0.3596   68.5775   68.3680 C   0  0  0  0  0  0
    5.7121   70.3407   67.2445 C   0  0  0  0  0  0
    6.7130   68.2274   62.3680 C   0  0  0  0  0  0
    0.8870   64.7655   71.2277 C   0  0  0  0  0  0
    1.7878   63.6743   71.8205 C   0  0  0  0  0  0
    0.8756   68.9080   66.2086 H   0  0  0  0  0  0
    4.1721   68.4361   61.9804 H   0  0  0  0  0  0
    3.3085   69.5097   66.7746 H   0  0  0  0  0  0
   -2.9205   69.1316   65.1906 H   0  0  0  0  0  0
   -2.4832   67.5108   65.6082 H   0  0  0  0  0  0
   -0.7164   64.9694   68.9887 H   0  0  0  0  0  0
    1.9768   68.0234   69.7070 H   0  0  0  0  0  0
   -1.0675   70.0298   66.6766 H   0  0  0  0  0  0
   -2.4570   69.3184   67.4256 H   0  0  0  0  0  0
    1.8843   64.7501   69.2722 H   0  0  0  0  0  0
    2.4658   65.9883   70.3656 H   0  0  0  0  0  0
   -2.1261   66.4692   67.4797 H   0  0  0  0  0  0
    0.6667   69.6129   68.2996 H   0  0  0  0  0  0
    6.6826   70.6043   67.6646 H   0  0  0  0  0  0
    5.2037   69.7080   67.9680 H   0  0  0  0  0  0
    5.1430   71.2633   67.1236 H   0  0  0  0  0  0
    7.7930   68.1080   62.3680 H   0  0  0  0  0  0
    6.2622   67.2558   62.1671 H   0  0  0  0  0  0
    6.4407   68.9116   61.5680 H   0  0  0  0  0  0
    0.6465   65.5104   71.9857 H   0  0  0  0  0  0
   -0.0571   64.3006   70.9475 H   0  0  0  0  0  0
    1.4074   63.3214   72.7800 H   0  0  0  0  0  0
    1.8495   62.8128   71.1542 H   0  0  0  0  0  0
    2.8040   64.0386   71.9680 H   0  0  0  0  0  0
  1  2  1  0  0  0
  1  4  2  0  0  0
  1  8  1  0  0  0
  2  3  1  0  0  0
  3  7  2  0  0  0
  3  5  1  0  0  0
  4  5  1  0  0  0
  4 27  1  0  0  0
  5 10  2  0  0  0
  6 14  2  0  0  0
  6 20  1  0  0  0
  6 15  1  0  0  0
  7  9  1  0  0  0
  7 28  1  0  0  0
  8 12  2  0  0  0
  8 13  1  0  0  0
  9 18  1  0  0  0
  9 11  2  0  0  0
 10 11  1  0  0  0
 10 29  1  0  0  0
 11 19  1  0  0  0
 13 17  1  0  0  0
 13 30  1  0  0  0
 13 31  1  0  0  0
 14 21  1  0  0  0
 14 32  1  0  0  0
 15 22  2  0  0  0
 15 33  1  0  0  0
 16 17  1  0  0  0
 16 21  2  0  0  0
 16 22  1  0  0  0
 17 34  1  0  0  0
 17 35  1  0  0  0
 18 24  1  0  0  0
 19 23  1  0  0  0
 20 25  1  0  0  0
 20 36  1  0  0  0
 20 37  1  0  0  0
 21 38  1  0  0  0
 22 39  1  0  0  0
 23 40  1  0  0  0
 23 41  1  0  0  0
 23 42  1  0  0  0
 24 43  1  0  0  0
 24 44  1  0  0  0
 24 45  1  0  0  0
 25 26  1  0  0  0
 25 46  1  0  0  0
 25 47  1  0  0  0
 26 48  1  0  0  0
 26 49  1  0  0  0
 26 50  1  0  0  0
M  CHG  1   6   1
M  END
> <s_m_entry_id>
8685

> <s_m_entry_name>
dock_pv.195

> <s_m_Source_Path>
/home/csk/Desktop/cluster/DUD-E-result/aces

> <s_m_Source_File>
dock_pv.maegz

> <i_m_Source_File_Index>
195

> <chembl_id>
CHEMBL87295

> <chembl_pref_name>
None

> <i_lp_mmshare_version>
53161

> <i_f3d_flags>
0

> <r_lp_tautomer_probability>
0.99990000499975

> <s_lp_Force_Field>
OPLS_2005

> <r_lp_Energy>
28.744659

> <b_lp_Chiralities_Consistent>
1

> <s_lp_Variant>
CHEMBL220_lig227-1

> <s_i_glide_gridfile>
glide-grid_1e66

> <i_i_glide_lignum>
257

> <i_i_glide_rotatable_bonds>
8

> <r_i_docking_score>
-7.34182915786909

> <r_i_glide_ligand_efficiency>
-0.282378044533427

> <r_i_glide_ligand_efficiency_sa>
-0.836543845826324

> <r_i_glide_ligand_efficiency_ln>
-1.72420448721918

> <r_i_glide_gscore>
-7.34182915786909

> <r_i_glide_lipo>
-4.13612956297012

> <r_i_glide_hbond>
0

> <r_i_glide_metal>
0

> <r_i_glide_rewards>
-1.93027093985748

> <r_i_glide_evdw>
-28.0133018493652

> <r_i_glide_ecoul>
-3.6616473197937

> <r_i_glide_erotb>
0.702776526482721

> <r_i_glide_esite>
-0.0282929910868993

> <r_i_glide_emodel>
-43.5315809186444

> <r_i_glide_energy>
-31.6749491691589

> <r_i_glide_einternal>
8.95168113708496

> <i_i_glide_confnum>
16

> <i_i_glide_posenum>
197

> <r_i_glide_eff_state_penalty>
0

> <s_user_duplicate_titles>
CHEMBL220_lig227

> <s_m_subgroup_title>
dock_pv

> <s_m_subgroupid>
dock_pv

> <b_m_subgroup_collapsed>
0

$$$$
CHEMBL220_lig979
                    3D
 Schrodinger Suite 2021-1.
 57 58  0  0  1  0            999 V2000
    6.2775   69.5419   65.8181 C   0  0  0  0  0  0
    4.8555   69.5572   66.3309 C   0  0  2  0  0  0
    6.7408   70.7907   65.5679 O   0  0  0  0  0  0
    6.8831   68.5079   65.5682 O   0  0  0  0  0  0
    3.8313   69.8838   65.2207 C   0  0  0  0  0  0
    4.7609   70.4242   67.6050 C   0  0  0  0  0  0
    3.4127   70.2713   68.2972 C   0  0  0  0  0  0
    3.4242   70.7679   69.7190 C   0  0  0  0  0  0
    3.6716   68.8827   64.0037 C   0  0  0  0  0  0
    2.1767   68.7623   63.5655 C   0  0  0  0  0  0
    1.2985   68.5083   64.5605 N   0  0  0  0  0  0
    1.8539   68.8430   62.3786 O   0  0  0  0  0  0
    4.4257   66.8039   62.8447 C   0  0  0  0  0  0
    4.8225   67.9954   61.9682 C   0  0  0  0  0  0
    4.5853   69.2652   62.8053 C   0  0  0  0  0  0
    4.0963   67.3925   64.2238 C   0  0  0  0  0  0
   -0.1284   68.1888   64.4954 C   0  0  1  0  0  0
   -0.8579   68.6023   65.8138 C   0  0  0  0  0  0
   -0.8600   68.7167   63.2167 C   0  0  0  0  0  0
   -0.4188   67.8695   67.0794 C   0  0  0  0  0  0
   -2.2558   68.9056   63.3358 O   0  0  0  0  0  0
    0.6656   68.3422   67.8103 C   0  0  0  0  0  0
    1.0743   67.6877   68.9729 C   0  0  0  0  0  0
    0.3838   66.5669   69.4143 C   0  0  0  0  0  0
   -0.7221   66.1089   68.7118 C   0  0  0  0  0  0
   -1.1268   66.7587   67.5435 C   0  0  0  0  0  0
    4.6383   68.5437   66.6322 H   0  0  0  0  0  0
    7.5748   70.6594   65.0875 H   0  0  0  0  0  0
    2.8793   69.9695   65.7353 H   0  0  0  0  0  0
    4.0290   70.9046   64.8659 H   0  0  0  0  0  0
    4.9527   71.4751   67.3941 H   0  0  0  0  0  0
    5.5417   70.1219   68.3083 H   0  0  0  0  0  0
    3.1603   69.2213   68.3042 H   0  0  0  0  0  0
    2.6324   70.7977   67.7539 H   0  0  0  0  0  0
    2.4134   70.9077   70.1020 H   0  0  0  0  0  0
    3.9297   71.7080   69.7388 H   0  0  0  0  0  0
    3.9891   70.1073   70.3674 H   0  0  0  0  0  0
    1.6908   68.4325   65.4873 H   0  0  0  0  0  0
    3.5440   66.3242   62.4264 H   0  0  0  0  0  0
    5.2131   66.0533   62.8970 H   0  0  0  0  0  0
    4.2075   68.0210   61.0683 H   0  0  0  0  0  0
    5.8607   67.9214   61.6433 H   0  0  0  0  0  0
    4.2162   70.1215   62.2331 H   0  0  0  0  0  0
    5.5589   69.5884   63.1743 H   0  0  0  0  0  0
    5.0118   67.3138   64.7900 H   0  0  0  0  0  0
    3.3886   66.7930   64.8005 H   0  0  0  0  0  0
   -0.0570   67.1096   64.4766 H   0  0  0  0  0  0
   -0.7729   69.6778   65.9724 H   0  0  0  0  0  0
   -1.9305   68.4253   65.7273 H   0  0  0  0  0  0
   -0.4786   69.7042   62.9524 H   0  0  0  0  0  0
   -0.6593   68.0594   62.3710 H   0  0  0  0  0  0
   -2.3965   69.8236   63.6242 H   0  0  0  0  0  0
    1.1596   69.2342   67.4726 H   0  0  0  0  0  0
    1.8934   68.0604   69.5677 H   0  0  0  0  0  0
    0.6926   66.0677   70.3212 H   0  0  0  0  0  0
   -1.2486   65.2431   69.0779 H   0  0  0  0  0  0
   -1.9847   66.3952   66.9961 H   0  0  0  0  0  0
  1  4  2  0  0  0
  1  3  1  0  0  0
  1  2  1  0  0  0
  2  5  1  0  0  0
  2  6  1  0  0  0
  2 27  1  0  0  0
  3 28  1  0  0  0
  5  9  1  0  0  0
  5 29  1  0  0  0
  5 30  1  0  0  0
  6  7  1  0  0  0
  6 31  1  0  0  0
  6 32  1  0  0  0
  7  8  1  0  0  0
  7 33  1  0  0  0
  7 34  1  0  0  0
  8 35  1  0  0  0
  8 36  1  0  0  0
  8 37  1  0  0  0
  9 15  1  0  0  0
  9 16  1  0  0  0
  9 10  1  0  0  0
 10 11  1  0  0  0
 10 12  2  0  0  0
 11 17  1  0  0  0
 11 38  1  0  0  0
 13 16  1  0  0  0
 13 14  1  0  0  0
 13 39  1  0  0  0
 13 40  1  0  0  0
 14 15  1  0  0  0
 14 41  1  0  0  0
 14 42  1  0  0  0
 15 43  1  0  0  0
 15 44  1  0  0  0
 16 45  1  0  0  0
 16 46  1  0  0  0
 17 18  1  0  0  0
 17 19  1  0  0  0
 17 47  1  0  0  0
 18 20  1  0  0  0
 18 48  1  0  0  0
 18 49  1  0  0  0
 19 21  1  0  0  0
 19 50  1  0  0  0
 19 51  1  0  0  0
 20 22  2  0  0  0
 20 26  1  0  0  0
 21 52  1  0  0  0
 22 23  1  0  0  0
 22 53  1  0  0  0
 23 24  2  0  0  0
 23 54  1  0  0  0
 24 25  1  0  0  0
 24 55  1  0  0  0
 25 26  2  0  0  0
 25 56  1  0  0  0
 26 57  1  0  0  0
M  END
> <s_m_entry_id>
8686

> <s_m_entry_name>
dock_pv.196

> <s_m_Source_Path>
/home/csk/Desktop/cluster/DUD-E-result/aces

> <s_m_Source_File>
dock_pv.maegz

> <i_m_Source_File_Index>
196

> <chembl_id>
CHEMBL377431

> <chembl_pref_name>
None

> <i_lp_mmshare_version>
53161

> <i_f3d_flags>
0

> <r_lp_tautomer_probability>
1

> <s_lp_Force_Field>
OPLS_2005

> <r_lp_Energy>
36.417789

> <b_lp_Chiralities_Consistent>
1

> <s_lp_Variant>
CHEMBL220_lig979-1

> <s_i_glide_gridfile>
glide-grid_1e66

> <i_i_glide_lignum>
1346

> <i_i_glide_rotatable_bonds>
13

> <r_i_docking_score>
-7.34121124856217

> <r_i_glide_ligand_efficiency>
-0.282354278790853

> <r_i_glide_ligand_efficiency_sa>
-0.836473439907463

> <r_i_glide_ligand_efficiency_ln>
-1.72405937324598

> <r_i_glide_gscore>
-7.34121124856217

> <r_i_glide_lipo>
-3.06972331920346

> <r_i_glide_hbond>
-0.307786812399249

> <r_i_glide_metal>
0

> <r_i_glide_rewards>
-2.11155825262896

> <r_i_glide_evdw>
-22.8281860351562

> <r_i_glide_ecoul>
-13.5505504608154

> <r_i_glide_erotb>
1.32184900654962

> <r_i_glide_esite>
0

> <r_i_glide_emodel>
-40.3945423967797

> <r_i_glide_energy>
-36.3787364959717

> <r_i_glide_einternal>
15.6639337539673

> <i_i_glide_confnum>
208

> <i_i_glide_posenum>
272

> <r_i_glide_eff_state_penalty>
0

> <s_user_duplicate_titles>
CHEMBL220_lig979

> <s_m_subgroup_title>
dock_pv

> <s_m_subgroupid>
dock_pv

> <b_m_subgroup_collapsed>
0

$$$$
CHEMBL220_lig1009
                    3D
 Schrodinger Suite 2021-1.
 74 77  0  0  1  0            999 V2000
    0.3763   59.3608   74.6409 C   0  0  0  0  0  0
   -0.1877   60.2478   73.7135 C   0  0  0  0  0  0
    0.6297   60.7938   72.7132 C   0  0  0  0  0  0
    1.9959   60.4798   72.6269 C   0  0  0  0  0  0
    2.5356   59.6045   73.5805 C   0  0  0  0  0  0
    1.7406   59.0477   74.5955 C   0  0  0  0  0  0
    2.2249   58.1981   75.5770 O   0  0  0  0  0  0
    3.6164   57.9002   75.6340 C   0  0  0  0  0  0
   -0.4006   58.8144   75.6392 O   0  0  0  0  0  0
   -1.5330   60.5416   73.8489 O   0  0  0  0  0  0
   -2.1206   61.5432   73.0279 C   0  0  0  0  0  0
   -1.2951   57.7989   75.2045 C   0  0  0  0  0  0
    2.8887   61.0922   71.5651 C   0  0  0  0  0  0
    4.1086   60.9003   71.5697 O   0  0  0  0  0  0
    2.2822   61.8692   70.6449 N   0  0  0  0  0  0
    2.9678   62.7101   69.6687 C   0  0  0  0  0  0
    3.3382   64.0955   70.2426 C   0  0  0  0  0  0
    2.4595   65.2617   69.7513 C   0  0  0  0  0  0
    0.9640   65.2303   70.1274 C   0  0  0  0  0  0
    0.2433   66.5887   69.9057 C   0  0  0  0  0  0
    0.3420   67.1620   68.4803 C   0  0  0  0  0  0
   -0.0711   66.5082   67.5242 O   0  0  0  0  0  0
    0.8486   68.3985   68.3673 N   0  0  0  0  0  0
    0.9126   69.0286   67.1117 N   0  0  0  0  0  0
    2.1706   69.2287   66.5073 C   0  0  0  0  0  0
    4.6754   69.5845   65.2541 N   0  0  0  0  0  0
    4.5190   69.9370   66.5495 C   0  0  0  0  0  0
    3.2649   69.8171   67.2218 C   0  0  0  0  0  0
    3.1663   70.3447   68.5443 C   0  0  0  0  0  0
    4.2749   70.9080   69.1657 C   0  0  0  0  0  0
    5.5053   70.9588   68.5174 C   0  0  0  0  0  0
    5.6377   70.4910   67.2165 C   0  0  0  0  0  0
    2.3453   68.9080   65.1430 C   0  0  0  0  0  0
    3.5985   69.1734   64.5472 C   0  0  0  0  0  0
    3.8197   69.0602   63.0408 C   0  0  0  0  0  0
    2.8651   68.0640   62.3792 C   0  0  0  0  0  0
    1.4199   68.3774   62.7926 C   0  0  0  0  0  0
    1.2296   68.2409   64.3157 C   0  0  0  0  0  0
    0.1925   61.4782   72.0034 H   0  0  0  0  0  0
    3.5884   59.3643   73.5328 H   0  0  0  0  0  0
    3.8175   57.2872   76.5122 H   0  0  0  0  0  0
    3.9346   57.3344   74.7612 H   0  0  0  0  0  0
    4.2208   58.8055   75.7199 H   0  0  0  0  0  0
   -3.1766   61.6452   73.2802 H   0  0  0  0  0  0
   -1.6418   62.5077   73.1932 H   0  0  0  0  0  0
   -2.0563   61.2962   71.9687 H   0  0  0  0  0  0
   -1.6701   57.2569   76.0726 H   0  0  0  0  0  0
   -2.1549   58.2208   74.6822 H   0  0  0  0  0  0
   -0.8057   57.0832   74.5428 H   0  0  0  0  0  0
    1.2756   61.8985   70.6357 H   0  0  0  0  0  0
    2.3525   62.8096   68.7722 H   0  0  0  0  0  0
    3.8745   62.2044   69.3255 H   0  0  0  0  0  0
    4.3704   64.3160   69.9684 H   0  0  0  0  0  0
    3.3425   64.0787   71.3351 H   0  0  0  0  0  0
    2.5369   65.3077   68.6664 H   0  0  0  0  0  0
    2.8915   66.1836   70.1413 H   0  0  0  0  0  0
    0.8664   64.9616   71.1803 H   0  0  0  0  0  0
    0.4551   64.4431   69.5698 H   0  0  0  0  0  0
    0.6414   67.3086   70.6232 H   0  0  0  0  0  0
   -0.8162   66.5076   70.1460 H   0  0  0  0  0  0
    0.8705   69.0354   69.1573 H   0  0  0  0  0  0
    0.2276   68.5725   66.5231 H   0  0  0  0  0  0
    2.2270   70.3412   69.0765 H   0  0  0  0  0  0
    4.1635   71.2729   70.1732 H   0  0  0  0  0  0
    6.3574   71.3913   69.0233 H   0  0  0  0  0  0
    6.5843   70.5609   66.6990 H   0  0  0  0  0  0
    3.6555   70.0472   62.6062 H   0  0  0  0  0  0
    4.8557   68.8030   62.8119 H   0  0  0  0  0  0
    3.1475   67.0527   62.6750 H   0  0  0  0  0  0
    2.9689   68.1130   61.2937 H   0  0  0  0  0  0
    0.7234   67.7159   62.2742 H   0  0  0  0  0  0
    1.1603   69.3919   62.4789 H   0  0  0  0  0  0
    1.2131   67.1807   64.5736 H   0  0  0  0  0  0
    0.2467   68.6326   64.5856 H   0  0  0  0  0  0
  1  6  1  0  0  0
  1  2  2  0  0  0
  1  9  1  0  0  0
  2 10  1  0  0  0
  2  3  1  0  0  0
  3  4  2  0  0  0
  3 39  1  0  0  0
  4  5  1  0  0  0
  4 13  1  0  0  0
  5  6  2  0  0  0
  5 40  1  0  0  0
  6  7  1  0  0  0
  7  8  1  0  0  0
  8 41  1  0  0  0
  8 42  1  0  0  0
  8 43  1  0  0  0
  9 12  1  0  0  0
 10 11  1  0  0  0
 11 44  1  0  0  0
 11 45  1  0  0  0
 11 46  1  0  0  0
 12 47  1  0  0  0
 12 48  1  0  0  0
 12 49  1  0  0  0
 13 14  2  0  0  0
 13 15  1  0  0  0
 15 16  1  0  0  0
 15 50  1  0  0  0
 16 17  1  0  0  0
 16 51  1  0  0  0
 16 52  1  0  0  0
 17 18  1  0  0  0
 17 53  1  0  0  0
 17 54  1  0  0  0
 18 19  1  0  0  0
 18 55  1  0  0  0
 18 56  1  0  0  0
 19 20  1  0  0  0
 19 57  1  0  0  0
 19 58  1  0  0  0
 20 21  1  0  0  0
 20 59  1  0  0  0
 20 60  1  0  0  0
 21 22  2  0  0  0
 21 23  1  0  0  0
 23 24  1  0  0  0
 23 61  1  0  0  0
 24 25  1  0  0  0
 24 62  1  0  0  0
 25 28  2  0  0  0
 25 33  1  0  0  0
 26 27  2  0  0  0
 26 34  1  0  0  0
 27 28  1  0  0  0
 27 32  1  0  0  0
 28 29  1  0  0  0
 29 30  2  0  0  0
 29 63  1  0  0  0
 30 31  1  0  0  0
 30 64  1  0  0  0
 31 32  2  0  0  0
 31 65  1  0  0  0
 32 66  1  0  0  0
 33 34  2  0  0  0
 33 38  1  0  0  0
 34 35  1  0  0  0
 35 36  1  0  0  0
 35 67  1  0  0  0
 35 68  1  0  0  0
 36 37  1  0  0  0
 36 69  1  0  0  0
 36 70  1  0  0  0
 37 38  1  0  0  0
 37 71  1  0  0  0
 37 72  1  0  0  0
 38 73  1  0  0  0
 38 74  1  0  0  0
M  END
> <s_m_entry_id>
8687

> <s_m_entry_name>
dock_pv.197

> <s_m_Source_Path>
/home/csk/Desktop/cluster/DUD-E-result/aces

> <s_m_Source_File>
dock_pv.maegz

> <i_m_Source_File_Index>
197

> <chembl_id>
CHEMBL434378

> <chembl_pref_name>
None

> <i_lp_mmshare_version>
53161

> <i_f3d_flags>
0

> <r_lp_tautomer_probability>
1

> <s_lp_Force_Field>
OPLS_2005

> <r_lp_Energy>
40.411809

> <b_lp_Chiralities_Consistent>
1

> <s_lp_Variant>
CHEMBL220_lig1009-1

> <s_i_glide_gridfile>
glide-grid_1e66

> <i_i_glide_lignum>
1398

> <i_i_glide_rotatable_bonds>
14

> <r_i_docking_score>
-7.33901024982737

> <r_i_glide_ligand_efficiency>
-0.193131848679668

> <r_i_glide_ligand_efficiency_sa>
-0.649304524743361

> <r_i_glide_ligand_efficiency_ln>
-1.5825065016712

> <r_i_glide_gscore>
-7.33901024982737

> <r_i_glide_lipo>
-4.28954155025624

> <r_i_glide_hbond>
-0.142311861330584

> <r_i_glide_metal>
0

> <r_i_glide_rewards>
-1.2797448252754

> <r_i_glide_evdw>
-50.5880508422852

> <r_i_glide_ecoul>
1.30589890480042

> <r_i_glide_erotb>
0.758262470630366

> <r_i_glide_esite>
-0.0521567772013139

> <r_i_glide_emodel>
-64.2102278525832

> <r_i_glide_energy>
-49.2821519374847

> <r_i_glide_einternal>
9.09725189208984

> <i_i_glide_confnum>
6

> <i_i_glide_posenum>
181

> <r_i_glide_eff_state_penalty>
0

> <s_user_duplicate_titles>
CHEMBL220_lig1009,364791

> <s_m_subgroup_title>
dock_pv

> <s_m_subgroupid>
dock_pv

> <b_m_subgroup_collapsed>
0

$$$$
CHEMBL220_lig890
                    3D
 Schrodinger Suite 2021-1.
 63 66  0  0  1  0            999 V2000
    2.9843   69.3079   65.5505 C   0  0  0  0  0  0
    2.3911   69.7527   68.2555 N   0  0  0  0  0  0
    1.7372   68.9074   66.0742 C   0  0  0  0  0  0
    3.9857   69.8254   66.4295 C   0  0  0  0  0  0
    1.4897   69.1520   67.4422 C   0  0  0  0  0  0
    3.6099   70.0978   67.7779 C   0  0  0  0  0  0
    3.9424   60.9711   70.5472 S   0  0  0  0  0  0
    1.9421   60.9081   70.8779 S   0  0  0  0  0  0
    4.5246   64.5821   63.7538 C   0  0  0  0  0  0
    3.1602   69.3762   64.1557 N   0  0  0  0  0  0
    3.9432   64.1010   62.7992 O   0  0  0  0  0  0
    5.1330   65.7635   63.6574 N   0  0  0  0  0  0
    3.8573   62.6567   69.8694 C   0  0  2  0  0  0
    0.6502   68.2566   65.1960 C   0  0  0  0  0  0
    2.7626   63.4532   70.6255 C   0  0  0  0  0  0
    5.3262   70.1080   66.0404 C   0  0  0  0  0  0
    4.7835   68.0465   62.8760 C   0  0  0  0  0  0
    2.0265   62.5456   71.6240 C   0  0  0  0  0  0
    0.1571   68.7997   68.0976 C   0  0  0  0  0  0
    4.5382   70.6886   68.6691 C   0  0  0  0  0  0
    4.6528   63.8022   65.0660 C   0  0  0  0  0  0
    3.3423   68.1621   63.3934 C   0  0  0  0  0  0
    5.1426   66.6275   62.4719 C   0  0  0  0  0  0
    3.6518   62.5611   68.3401 C   0  0  0  0  0  0
    3.5431   64.0064   66.1055 C   0  0  0  0  0  0
    3.9337   63.8918   67.6118 C   0  0  0  0  0  0
   -0.7563   68.3206   65.8119 C   0  0  0  0  0  0
    6.2455   70.5891   66.9663 C   0  0  0  0  0  0
   -0.7103   67.8427   67.2647 C   0  0  0  0  0  0
    5.8503   70.9106   68.2604 C   0  0  0  0  0  0
    3.7485   70.1321   63.8339 H   0  0  0  0  0  0
    5.5454   66.1527   64.4909 H   0  0  0  0  0  0
    4.8334   63.0990   70.0774 H   0  0  0  0  0  0
    0.6162   68.7148   64.2069 H   0  0  0  0  0  0
    0.9152   67.2094   65.0419 H   0  0  0  0  0  0
    2.0368   63.8796   69.9308 H   0  0  0  0  0  0
    3.2097   64.2897   71.1651 H   0  0  0  0  0  0
    5.6504   69.9340   65.0285 H   0  0  0  0  0  0
    5.5043   68.3687   63.6254 H   0  0  0  0  0  0
    4.9229   68.7208   62.0292 H   0  0  0  0  0  0
    1.0263   62.9123   71.8590 H   0  0  0  0  0  0
    2.5791   62.4546   72.5612 H   0  0  0  0  0  0
   -0.3911   69.7287   68.2670 H   0  0  0  0  0  0
    0.3432   68.3648   69.0798 H   0  0  0  0  0  0
    4.2371   70.9020   69.6856 H   0  0  0  0  0  0
    5.5430   64.1517   65.5463 H   0  0  0  0  0  0
    4.7898   62.7522   64.8181 H   0  0  0  0  0  0
    2.6604   68.1558   62.5413 H   0  0  0  0  0  0
    3.0623   67.3031   64.0036 H   0  0  0  0  0  0
    6.1098   66.6186   61.9712 H   0  0  0  0  0  0
    4.4138   66.2959   61.7290 H   0  0  0  0  0  0
    4.3432   61.8088   67.9680 H   0  0  0  0  0  0
    2.6424   62.2054   68.1257 H   0  0  0  0  0  0
    2.7461   63.3092   65.8768 H   0  0  0  0  0  0
    3.1220   65.0039   65.9583 H   0  0  0  0  0  0
    3.3975   64.6763   68.1460 H   0  0  0  0  0  0
    4.9879   64.1081   67.7628 H   0  0  0  0  0  0
   -1.1420   69.3403   65.7646 H   0  0  0  0  0  0
   -1.4452   67.7079   65.2311 H   0  0  0  0  0  0
    7.2689   70.7495   66.6594 H   0  0  0  0  0  0
   -1.7187   67.7929   67.6792 H   0  0  0  0  0  0
   -0.3080   66.8288   67.3123 H   0  0  0  0  0  0
    6.5694   71.3174   68.9560 H   0  0  0  0  0  0
  1  3  2  0  0  0
  1  4  1  0  0  0
  1 10  1  0  0  0
  2  6  1  0  0  0
  2  5  2  0  0  0
  3  5  1  0  0  0
  3 14  1  0  0  0
  4  6  1  0  0  0
  4 16  2  0  0  0
  5 19  1  0  0  0
  6 20  2  0  0  0
  7 13  1  0  0  0
  7  8  1  0  0  0
  8 18  1  0  0  0
  9 12  1  0  0  0
  9 11  2  0  0  0
  9 21  1  0  0  0
 10 22  1  0  0  0
 10 31  1  0  0  0
 12 23  1  0  0  0
 12 32  1  0  0  0
 13 24  1  0  0  0
 13 15  1  0  0  0
 13 33  1  0  0  0
 14 27  1  0  0  0
 14 34  1  0  0  0
 14 35  1  0  0  0
 15 18  1  0  0  0
 15 36  1  0  0  0
 15 37  1  0  0  0
 16 28  1  0  0  0
 16 38  1  0  0  0
 17 22  1  0  0  0
 17 23  1  0  0  0
 17 39  1  0  0  0
 17 40  1  0  0  0
 18 41  1  0  0  0
 18 42  1  0  0  0
 19 29  1  0  0  0
 19 43  1  0  0  0
 19 44  1  0  0  0
 20 30  1  0  0  0
 20 45  1  0  0  0
 21 25  1  0  0  0
 21 46  1  0  0  0
 21 47  1  0  0  0
 22 48  1  0  0  0
 22 49  1  0  0  0
 23 50  1  0  0  0
 23 51  1  0  0  0
 24 26  1  0  0  0
 24 52  1  0  0  0
 24 53  1  0  0  0
 25 26  1  0  0  0
 25 54  1  0  0  0
 25 55  1  0  0  0
 26 56  1  0  0  0
 26 57  1  0  0  0
 27 29  1  0  0  0
 27 58  1  0  0  0
 27 59  1  0  0  0
 28 30  2  0  0  0
 28 60  1  0  0  0
 29 61  1  0  0  0
 29 62  1  0  0  0
 30 63  1  0  0  0
M  END
> <s_m_entry_id>
8688

> <s_m_entry_name>
dock_pv.198

> <s_m_Source_Path>
/home/csk/Desktop/cluster/DUD-E-result/aces

> <s_m_Source_File>
dock_pv.maegz

> <i_m_Source_File_Index>
198

> <chembl_id>
CHEMBL195179

> <chembl_pref_name>
None

> <i_lp_mmshare_version>
53161

> <i_f3d_flags>
0

> <r_lp_tautomer_probability>
1

> <s_lp_Force_Field>
OPLS_2005

> <r_lp_Energy>
27.803746

> <b_lp_Chiralities_Consistent>
1

> <s_lp_Variant>
CHEMBL220_lig890-2

> <s_i_glide_gridfile>
glide-grid_1e66

> <i_i_glide_lignum>
1199

> <i_i_glide_rotatable_bonds>
11

> <r_i_docking_score>
-7.33481989682754

> <r_i_glide_ligand_efficiency>
-0.244493996560918

> <r_i_glide_ligand_efficiency_sa>
-0.75969969276336

> <r_i_glide_ligand_efficiency_ln>
-1.66655099982302

> <r_i_glide_gscore>
-7.33481989682754

> <r_i_glide_lipo>
-4.04698150004944

> <r_i_glide_hbond>
-0.298186375073695

> <r_i_glide_metal>
0

> <r_i_glide_rewards>
-1.48233073101476

> <r_i_glide_evdw>
-33.8633346557617

> <r_i_glide_ecoul>
-4.58966541290283

> <r_i_glide_erotb>
0.914139746255635

> <r_i_glide_esite>
-0.0398444922217758

> <r_i_glide_emodel>
-37.678779126575

> <r_i_glide_energy>
-38.4530000686646

> <r_i_glide_einternal>
14.2463541030884

> <i_i_glide_confnum>
19

> <i_i_glide_posenum>
276

> <r_i_glide_eff_state_penalty>
0

> <s_user_duplicate_titles>
CHEMBL220_lig890,323597

> <s_m_subgroup_title>
dock_pv

> <s_m_subgroupid>
dock_pv

> <b_m_subgroup_collapsed>
0

$$$$
CHEMBL220_lig205
                    3D
 Schrodinger Suite 2021-1.
 58 60  0  0  1  0            999 V2000
    1.7832   68.7547   63.0919 C   0  0  0  0  0  0
    3.0973   69.0459   62.9559 C   0  0  0  0  0  0
    3.2877   62.8838   69.9470 N   0  0  2  0  0  0
    1.0443   68.2858   64.1821 N   0  0  0  0  0  0
    1.6356   64.8114   70.2434 C   0  0  0  0  0  0
    4.0867   68.8596   63.9672 C   0  0  0  0  0  0
    3.5938   69.5981   61.7434 C   0  0  0  0  0  0
    0.4514   64.9094   69.5675 O   0  0  0  0  0  0
    0.8055   68.9161   62.1248 N   0  0  0  0  0  0
    4.9276   68.6872   64.7475 N   0  0  0  0  0  0
    3.9402   70.1063   60.7647 N   0  0  0  0  0  0
    2.1193   63.4258   70.7006 C   0  0  0  0  0  0
    0.2958   66.2147   69.1709 C   0  0  0  0  0  0
    2.1415   66.0945   70.3522 C   0  0  0  0  0  0
    1.2950   66.9742   69.7147 C   0  0  0  0  0  0
    3.2056   61.4528   69.5769 C   0  0  1  0  0  0
    4.6154   63.1854   70.5305 C   0  0  2  0  0  0
   -0.2885   69.5481   62.8186 C   0  0  0  0  0  0
   -0.2804   67.5131   67.1361 N   0  0  1  0  0  0
   -0.3617   68.6126   63.9987 C   0  0  0  0  0  0
    1.5719   67.9413   65.5005 C   0  0  0  0  0  0
   -0.7736   66.5786   68.1588 C   0  0  0  0  0  0
    4.8454   60.8042   71.4383 C   0  0  0  0  0  0
    4.9379   62.2945   71.7661 C   0  0  0  0  0  0
    3.5161   60.4875   70.7502 C   0  0  0  0  0  0
    0.7635   66.9060   66.3051 C   0  0  0  0  0  0
    4.9129   64.6522   70.7673 C   0  0  0  0  0  0
    1.9430   61.0222   68.8457 C   0  0  0  0  0  0
    1.0619   69.4366   61.2952 H   0  0  0  0  0  0
    2.3501   63.4488   71.7656 H   0  0  0  0  0  0
    1.2677   62.7518   70.6355 H   0  0  0  0  0  0
    3.0724   66.4134   70.7678 H   0  0  0  0  0  0
    1.4491   68.0336   69.5626 H   0  0  0  0  0  0
    4.0294   61.3177   68.8726 H   0  0  0  0  0  0
    5.3258   62.9089   69.7613 H   0  0  0  0  0  0
   -1.2204   69.5704   62.2590 H   0  0  0  0  0  0
   -0.0516   70.5733   63.1106 H   0  0  0  0  0  0
   -1.0524   67.8045   66.5520 H   0  0  0  0  0  0
   -0.8151   69.0901   64.8698 H   0  0  0  0  0  0
   -0.9245   67.7094   63.7549 H   0  0  0  0  0  0
    2.5503   67.4897   65.3505 H   0  0  0  0  0  0
    1.7409   68.8479   66.0835 H   0  0  0  0  0  0
   -1.6238   67.0332   68.6646 H   0  0  0  0  0  0
   -1.1623   65.7081   67.6693 H   0  0  0  0  0  0
    5.6730   60.5357   70.7798 H   0  0  0  0  0  0
    4.9645   60.2044   72.3434 H   0  0  0  0  0  0
    5.9405   62.4923   72.1446 H   0  0  0  0  0  0
    4.2594   62.5100   72.5912 H   0  0  0  0  0  0
    3.5539   59.4592   70.3878 H   0  0  0  0  0  0
    2.7107   60.5286   71.4857 H   0  0  0  0  0  0
    0.3381   66.1440   65.6496 H   0  0  0  0  0  0
    1.4845   66.3970   66.9453 H   0  0  0  0  0  0
    5.9417   64.8325   71.0482 H   0  0  0  0  0  0
    4.7219   65.2369   69.8721 H   0  0  0  0  0  0
    4.2909   65.0112   71.5679 H   0  0  0  0  0  0
    2.0638   60.0500   68.3695 H   0  0  0  0  0  0
    1.1427   60.9195   69.5686 H   0  0  0  0  0  0
    1.6429   61.7405   68.0859 H   0  0  0  0  0  0
  1  2  2  0  0  0
  1  4  1  0  0  0
  1  9  1  0  0  0
  2  6  1  0  0  0
  2  7  1  0  0  0
  3 12  1  0  0  0
  3 16  1  0  0  0
  3 17  1  0  0  0
  4 20  1  0  0  0
  4 21  1  0  0  0
  5  8  1  0  0  0
  5 12  1  0  0  0
  5 14  2  0  0  0
  6 10  3  0  0  0
  7 11  3  0  0  0
  8 13  1  0  0  0
  9 18  1  0  0  0
  9 29  1  0  0  0
 12 30  1  0  0  0
 12 31  1  0  0  0
 13 22  1  0  0  0
 13 15  2  0  0  0
 14 15  1  0  0  0
 14 32  1  0  0  0
 15 33  1  0  0  0
 16 25  1  0  0  0
 16 28  1  0  0  0
 16 34  1  0  0  0
 17 24  1  0  0  0
 17 27  1  0  0  0
 17 35  1  0  0  0
 18 20  1  0  0  0
 18 36  1  0  0  0
 18 37  1  0  0  0
 19 26  1  0  0  0
 19 22  1  0  0  0
 19 38  1  0  0  0
 20 39  1  0  0  0
 20 40  1  0  0  0
 21 26  1  0  0  0
 21 41  1  0  0  0
 21 42  1  0  0  0
 22 43  1  0  0  0
 22 44  1  0  0  0
 23 24  1  0  0  0
 23 25  1  0  0  0
 23 45  1  0  0  0
 23 46  1  0  0  0
 24 47  1  0  0  0
 24 48  1  0  0  0
 25 49  1  0  0  0
 25 50  1  0  0  0
 26 51  1  0  0  0
 26 52  1  0  0  0
 27 53  1  0  0  0
 27 54  1  0  0  0
 27 55  1  0  0  0
 28 56  1  0  0  0
 28 57  1  0  0  0
 28 58  1  0  0  0
M  END
> <s_m_entry_id>
8689

> <s_m_entry_name>
dock_pv.199

> <s_m_Source_Path>
/home/csk/Desktop/cluster/DUD-E-result/aces

> <s_m_Source_File>
dock_pv.maegz

> <i_m_Source_File_Index>
199

> <chembl_id>
CHEMBL153821

> <chembl_pref_name>
None

> <i_lp_mmshare_version>
53161

> <i_f3d_flags>
0

> <r_lp_tautomer_probability>
0.5

> <s_lp_Force_Field>
OPLS_2005

> <r_lp_Energy>
50.091287

> <b_lp_Chiralities_Consistent>
1

> <s_lp_Variant>
CHEMBL220_lig205-2

> <s_i_glide_gridfile>
glide-grid_1e66

> <i_i_glide_lignum>
224

> <i_i_glide_rotatable_bonds>
7

> <r_i_docking_score>
-7.32890170047343

> <r_i_glide_ligand_efficiency>
-0.261746489302623

> <r_i_glide_ligand_efficiency_sa>
-0.794816501960685

> <r_i_glide_ligand_efficiency_ln>
-1.69172569837361

> <r_i_glide_gscore>
-7.32890170047343

> <r_i_glide_lipo>
-3.49633175393083

> <r_i_glide_hbond>
-0.216781974969435

> <r_i_glide_metal>
0

> <r_i_glide_rewards>
-2.39997730999103

> <r_i_glide_evdw>
-32.1303558349609

> <r_i_glide_ecoul>
-3.59025311470032

> <r_i_glide_erotb>
0.929245097370959

> <r_i_glide_esite>
0

> <r_i_glide_emodel>
-33.3164497441015

> <r_i_glide_energy>
-35.7206089496613

> <r_i_glide_einternal>
5.12877130508423

> <i_i_glide_confnum>
5

> <i_i_glide_posenum>
197

> <r_i_glide_eff_state_penalty>
0

> <s_user_duplicate_titles>
CHEMBL220_lig205

> <s_m_subgroup_title>
dock_pv

> <s_m_subgroupid>
dock_pv

> <b_m_subgroup_collapsed>
0

$$$$
CHEMBL220_lig693
                    3D
 Schrodinger Suite 2021-1.
 46 49  0  0  1  0            999 V2000
    1.7979   68.4562   65.4524 C   0  0  1  0  0  0
    1.0891   68.6252   63.2416 C   0  0  0  0  0  0
   -0.0484   68.9080   63.9707 O   0  0  0  0  0  0
    2.1775   68.2597   64.0115 C   0  0  0  0  0  0
    0.2671   68.8084   65.3718 C   0  0  1  0  0  0
    3.4275   68.0407   63.3983 C   0  0  0  0  0  0
    1.9430   67.2414   66.3597 C   0  0  0  0  0  0
    5.1060   69.1383   64.9980 N   0  3  0  0  0  0
    4.6885   67.8650   64.2123 C   0  0  0  0  0  0
    2.6761   69.6357   65.9743 C   0  0  0  0  0  0
   -0.7531   67.8704   66.0588 C   0  0  0  0  0  0
    1.2206   68.7614   61.8572 C   0  0  0  0  0  0
    1.0657   66.9080   67.3308 C   0  0  0  0  0  0
    3.5342   68.1199   62.0073 C   0  0  0  0  0  0
    4.1813   69.4140   66.2149 C   0  0  0  0  0  0
    2.4434   68.5080   61.2460 C   0  0  0  0  0  0
   -0.2964   67.5492   67.4853 C   0  0  2  0  0  0
    5.2129   70.3509   64.0464 C   0  0  0  0  0  0
    6.5253   68.9201   65.5669 C   0  0  0  0  0  0
    0.1772   69.1300   61.0727 O   0  0  0  0  0  0
   -1.1960   66.6482   68.0959 O   0  0  0  0  0  0
   -0.1117   70.5080   61.0795 C   0  0  0  0  0  0
    0.0900   69.7080   65.9680 H   0  0  0  0  0  0
    2.8553   66.6741   66.3135 H   0  0  0  0  0  0
    5.5299   67.6568   63.5489 H   0  0  0  0  0  0
    4.5972   67.0412   64.9109 H   0  0  0  0  0  0
    2.2413   70.0435   66.8885 H   0  0  0  0  0  0
    2.6614   70.4250   65.2409 H   0  0  0  0  0  0
   -0.8032   66.9080   65.5680 H   0  0  0  0  0  0
   -1.7473   68.3193   66.0740 H   0  0  0  0  0  0
    1.3283   66.1080   68.0045 H   0  0  0  0  0  0
    4.4845   67.9685   61.5126 H   0  0  0  0  0  0
    4.6288   70.2478   66.7593 H   0  0  0  0  0  0
    4.2950   68.5080   66.7680 H   0  0  0  0  0  0
    2.5410   68.6116   60.1759 H   0  0  0  0  0  0
   -0.2294   68.4410   68.1114 H   0  0  0  0  0  0
    5.9430   70.1095   63.2720 H   0  0  0  0  0  0
    4.2332   70.5114   63.6031 H   0  0  0  0  0  0
    5.5430   71.2092   64.6328 H   0  0  0  0  0  0
    7.1430   68.5080   64.7738 H   0  0  0  0  0  0
    6.9160   69.8666   65.9469 H   0  0  0  0  0  0
    6.4554   68.2125   66.3680 H   0  0  0  0  0  0
   -2.0486   67.0818   68.1850 H   0  0  0  0  0  0
   -0.9087   70.6780   60.3572 H   0  0  0  0  0  0
   -0.4526   70.8459   62.0602 H   0  0  0  0  0  0
    0.7430   71.1091   60.7680 H   0  0  0  0  0  0
  1  4  1  0  0  0
  1  5  1  0  0  0
  1  7  1  0  0  0
  1 10  1  0  0  0
  2  4  2  0  0  0
  2 12  1  0  0  0
  2  3  1  0  0  0
  3  5  1  0  0  0
  4  6  1  0  0  0
  5 11  1  0  0  0
  5 23  1  0  0  0
  6  9  1  0  0  0
  6 14  2  0  0  0
  7 13  2  0  0  0
  7 24  1  0  0  0
  8 15  1  0  0  0
  8 18  1  0  0  0
  8 19  1  0  0  0
  8  9  1  0  0  0
  9 25  1  0  0  0
  9 26  1  0  0  0
 10 15  1  0  0  0
 10 27  1  0  0  0
 10 28  1  0  0  0
 11 17  1  0  0  0
 11 29  1  0  0  0
 11 30  1  0  0  0
 12 20  1  0  0  0
 12 16  2  0  0  0
 13 17  1  0  0  0
 13 31  1  0  0  0
 14 16  1  0  0  0
 14 32  1  0  0  0
 15 33  1  0  0  0
 15 34  1  0  0  0
 16 35  1  0  0  0
 17 21  1  0  0  0
 17 36  1  0  0  0
 18 37  1  0  0  0
 18 38  1  0  0  0
 18 39  1  0  0  0
 19 40  1  0  0  0
 19 41  1  0  0  0
 19 42  1  0  0  0
 20 22  1  0  0  0
 21 43  1  0  0  0
 22 44  1  0  0  0
 22 45  1  0  0  0
 22 46  1  0  0  0
M  CHG  1   8   1
M  END
> <s_m_entry_id>
8690

> <s_m_entry_name>
dock_pv.200

> <s_m_Source_Path>
/home/csk/Desktop/cluster/DUD-E-result/aces

> <s_m_Source_File>
dock_pv.maegz

> <i_m_Source_File_Index>
200

> <chembl_id>
CHEMBL85404

> <chembl_pref_name>
None

> <i_lp_mmshare_version>
53161

> <i_f3d_flags>
0

> <r_lp_tautomer_probability>
1

> <s_lp_Force_Field>
OPLS_2005

> <r_lp_Energy>
49.468381

> <b_lp_Chiralities_Consistent>
1

> <s_lp_Variant>
CHEMBL220_lig693-1

> <s_i_glide_gridfile>
glide-grid_1e66

> <i_i_glide_lignum>
819

> <i_i_glide_rotatable_bonds>
2

> <r_i_docking_score>
-7.32822473280538

> <r_i_glide_ligand_efficiency>
-0.333101124218426

> <r_i_glide_ligand_efficiency_sa>
-0.933362450183869

> <r_i_glide_ligand_efficiency_ln>
-1.7912854281895

> <r_i_glide_gscore>
-7.32822473280538

> <r_i_glide_lipo>
-3.34358376235666

> <r_i_glide_hbond>
0

> <r_i_glide_metal>
0

> <r_i_glide_rewards>
-3.11325438282894

> <r_i_glide_evdw>
-8.32040405273438

> <r_i_glide_ecoul>
-3.03577589988708

> <r_i_glide_erotb>
0

> <r_i_glide_esite>
0

> <r_i_glide_emodel>
-29.6469152122236

> <r_i_glide_energy>
-11.3561799526215

> <r_i_glide_einternal>
5.20656585693359

> <i_i_glide_confnum>
1

> <i_i_glide_posenum>
71

> <r_i_glide_eff_state_penalty>
0

> <s_user_duplicate_titles>
CHEMBL220_lig693

> <s_m_subgroup_title>
dock_pv

> <s_m_subgroupid>
dock_pv

> <b_m_subgroup_collapsed>
0

$$$$
CHEMBL220_lig897
                    3D
 Schrodinger Suite 2021-1.
 40 42  0  0  1  0            999 V2000
    6.4901   70.5080   66.2505 C   0  0  0  0  0  0
    5.8551   70.5039   67.4801 C   0  0  0  0  0  0
    4.5215   70.1307   67.5714 C   0  0  0  0  0  0
    5.8126   70.1353   65.0978 C   0  0  0  0  0  0
    4.4639   69.6844   65.1609 C   0  0  0  0  0  0
    3.8164   69.7064   66.4269 C   0  0  0  0  0  0
    2.5361   69.3049   66.5892 N   0  0  0  0  0  0
    3.7012   69.2408   64.0333 C   0  0  0  0  0  0
    2.3416   68.9077   64.2063 C   0  0  0  0  0  0
    1.8303   68.8700   65.5212 C   0  0  0  0  0  0
    0.4174   68.3635   65.8225 C   0  0  0  0  0  0
   -0.5447   68.5204   64.6369 C   0  0  0  0  0  0
    0.1048   67.9450   63.3767 C   0  0  0  0  0  0
    1.4051   68.6698   63.0080 C   0  0  0  0  0  0
    4.2537   69.1443   62.7431 N   0  0  0  0  0  0
    6.7432   70.9102   68.8984 Cl  0  0  0  0  0  0
    5.4014   68.2602   62.5488 C   0  0  0  0  0  0
    5.0259   66.8001   62.2534 C   0  0  0  0  0  0
    4.3894   66.0560   63.4388 C   0  0  0  0  0  0
    4.3430   64.6294   63.1683 N   0  0  0  0  0  0
    7.5277   70.7999   66.1778 H   0  0  0  0  0  0
    4.0245   70.1223   68.5312 H   0  0  0  0  0  0
    6.3341   70.1958   64.1524 H   0  0  0  0  0  0
    0.0058   68.8512   66.7089 H   0  0  0  0  0  0
    0.4891   67.3037   66.0722 H   0  0  0  0  0  0
   -0.8245   69.5615   64.4849 H   0  0  0  0  0  0
   -1.4806   68.0044   64.8516 H   0  0  0  0  0  0
   -0.5943   67.9613   62.5397 H   0  0  0  0  0  0
    0.3444   66.9033   63.5679 H   0  0  0  0  0  0
    1.1524   69.6440   62.5856 H   0  0  0  0  0  0
    1.9023   68.1117   62.2127 H   0  0  0  0  0  0
    3.5823   69.0888   61.9925 H   0  0  0  0  0  0
    6.0349   68.2498   63.4323 H   0  0  0  0  0  0
    6.0288   68.6703   61.7570 H   0  0  0  0  0  0
    5.9429   66.2972   61.9681 H   0  0  0  0  0  0
    4.3660   66.7601   61.3860 H   0  0  0  0  0  0
    3.3797   66.4239   63.6168 H   0  0  0  0  0  0
    4.9536   66.2254   64.3583 H   0  0  0  0  0  0
    5.1624   64.1923   63.5677 H   0  0  0  0  0  0
    3.5635   64.2302   63.6757 H   0  0  0  0  0  0
  1  4  1  0  0  0
  1  2  2  0  0  0
  1 21  1  0  0  0
  2  3  1  0  0  0
  2 16  1  0  0  0
  3  6  2  0  0  0
  3 22  1  0  0  0
  4  5  2  0  0  0
  4 23  1  0  0  0
  5  6  1  0  0  0
  5  8  1  0  0  0
  6  7  1  0  0  0
  7 10  2  0  0  0
  8 15  1  0  0  0
  8  9  2  0  0  0
  9 14  1  0  0  0
  9 10  1  0  0  0
 10 11  1  0  0  0
 11 12  1  0  0  0
 11 24  1  0  0  0
 11 25  1  0  0  0
 12 13  1  0  0  0
 12 26  1  0  0  0
 12 27  1  0  0  0
 13 14  1  0  0  0
 13 28  1  0  0  0
 13 29  1  0  0  0
 14 30  1  0  0  0
 14 31  1  0  0  0
 15 17  1  0  0  0
 15 32  1  0  0  0
 17 18  1  0  0  0
 17 33  1  0  0  0
 17 34  1  0  0  0
 18 19  1  0  0  0
 18 35  1  0  0  0
 18 36  1  0  0  0
 19 20  1  0  0  0
 19 37  1  0  0  0
 19 38  1  0  0  0
 20 39  1  0  0  0
 20 40  1  0  0  0
M  END
> <s_m_entry_id>
8691

> <s_m_entry_name>
dock_pv.201

> <s_m_Source_Path>
/home/csk/Desktop/cluster/DUD-E-result/aces

> <s_m_Source_File>
dock_pv.maegz

> <i_m_Source_File_Index>
201

> <chembl_id>
CHEMBL191758

> <chembl_pref_name>
None

> <i_lp_mmshare_version>
53161

> <i_f3d_flags>
0

> <r_lp_tautomer_probability>
1

> <s_lp_Force_Field>
OPLS_2005

> <r_lp_Energy>
18.913024

> <b_lp_Chiralities_Consistent>
1

> <s_lp_Variant>
CHEMBL220_lig897-1

> <s_i_glide_gridfile>
glide-grid_1e66

> <i_i_glide_lignum>
1214

> <i_i_glide_rotatable_bonds>
4

> <r_i_docking_score>
-7.32374947192642

> <r_i_glide_ligand_efficiency>
-0.366187473596321

> <r_i_glide_ligand_efficiency_sa>
-0.993985728313664

> <r_i_glide_ligand_efficiency_ln>
-1.83289293939915

> <r_i_glide_gscore>
-7.32374947192642

> <r_i_glide_lipo>
-2.96665245039939

> <r_i_glide_hbond>
-0.32

> <r_i_glide_metal>
0

> <r_i_glide_rewards>
-2.05042724648808

> <r_i_glide_evdw>
-32.9093894958496

> <r_i_glide_ecoul>
-5.16639566421509

> <r_i_glide_erotb>
0.433759049385799

> <r_i_glide_esite>
0

> <r_i_glide_emodel>
-52.3956007227085

> <r_i_glide_energy>
-38.0757851600647

> <r_i_glide_einternal>
3.0555374622345

> <i_i_glide_confnum>
16

> <i_i_glide_posenum>
367

> <r_i_glide_eff_state_penalty>
0

> <s_user_duplicate_titles>
CHEMBL220_lig897,323661

> <s_m_subgroup_title>
dock_pv

> <s_m_subgroupid>
dock_pv

> <b_m_subgroup_collapsed>
0

$$$$
CHEMBL220_lig578
                    3D
 Schrodinger Suite 2021-1.
 30 32  0  0  1  0            999 V2000
    3.1482   69.0866   65.5866 N   0  0  0  0  0  0
    3.3908   69.0407   64.2518 C   0  0  0  0  0  0
    2.3675   68.7392   63.3182 C   0  0  0  0  0  0
    1.0787   68.4453   63.8030 C   0  0  0  0  0  0
    0.8283   68.4666   65.2050 C   0  0  0  0  0  0
    1.9101   68.8204   66.0631 C   0  0  0  0  0  0
    4.8246   69.4052   63.8087 C   0  0  1  0  0  0
    0.0582   68.1174   62.9026 N   0  0  0  0  0  0
    2.6734   68.6821   61.8154 C   0  0  0  0  0  0
    5.8616   68.8742   64.6187 O   0  0  0  0  0  0
   -0.4370   68.1726   65.7927 C   0  0  0  0  0  0
    1.6993   68.9064   67.4537 C   0  0  0  0  0  0
    3.9435   69.4360   61.4360 C   0  0  0  0  0  0
    5.0995   69.0206   62.3526 C   0  0  0  0  0  0
   -0.6007   68.2206   67.1712 C   0  0  0  0  0  0
    0.4628   68.5772   67.9917 C   0  0  0  0  0  0
    4.9118   70.4897   63.9016 H   0  0  0  0  0  0
    0.2650   68.0620   61.9175 H   0  0  0  0  0  0
   -0.7779   67.6814   63.2725 H   0  0  0  0  0  0
    2.7989   67.6384   61.5407 H   0  0  0  0  0  0
    1.8431   69.0688   61.2207 H   0  0  0  0  0  0
    6.6880   69.3072   64.3732 H   0  0  0  0  0  0
   -1.2792   67.9057   65.1740 H   0  0  0  0  0  0
    2.5178   69.1858   68.1054 H   0  0  0  0  0  0
    4.1962   69.2488   60.3915 H   0  0  0  0  0  0
    3.7823   70.5059   61.5168 H   0  0  0  0  0  0
    5.2547   67.9413   62.2772 H   0  0  0  0  0  0
    6.0467   69.4343   62.0152 H   0  0  0  0  0  0
   -1.5610   67.9826   67.6071 H   0  0  0  0  0  0
    0.3428   68.5963   69.0660 H   0  0  0  0  0  0
  1  2  2  0  0  0
  1  6  1  0  0  0
  2  3  1  0  0  0
  2  7  1  0  0  0
  3  9  1  0  0  0
  3  4  2  0  0  0
  4  5  1  0  0  0
  4  8  1  0  0  0
  5  6  1  0  0  0
  5 11  2  0  0  0
  6 12  2  0  0  0
  7 10  1  0  0  0
  7 14  1  0  0  0
  7 17  1  0  0  0
  8 18  1  0  0  0
  8 19  1  0  0  0
  9 13  1  0  0  0
  9 20  1  0  0  0
  9 21  1  0  0  0
 10 22  1  0  0  0
 11 15  1  0  0  0
 11 23  1  0  0  0
 12 16  1  0  0  0
 12 24  1  0  0  0
 13 14  1  0  0  0
 13 25  1  0  0  0
 13 26  1  0  0  0
 14 27  1  0  0  0
 14 28  1  0  0  0
 15 16  2  0  0  0
 15 29  1  0  0  0
 16 30  1  0  0  0
M  END
> <s_m_entry_id>
8692

> <s_m_entry_name>
dock_pv.202

> <s_m_Source_Path>
/home/csk/Desktop/cluster/DUD-E-result/aces

> <s_m_Source_File>
dock_pv.maegz

> <i_m_Source_File_Index>
202

> <chembl_id>
CHEMBL319451

> <chembl_pref_name>
None

> <i_lp_mmshare_version>
53161

> <i_f3d_flags>
0

> <r_lp_tautomer_probability>
1

> <s_lp_Force_Field>
OPLS_2005

> <r_lp_Energy>
17.024408

> <b_lp_Chiralities_Consistent>
1

> <s_lp_Variant>
CHEMBL220_lig578-2

> <s_i_glide_gridfile>
glide-grid_1e66

> <i_i_glide_lignum>
667

> <i_i_glide_rotatable_bonds>
1

> <r_i_docking_score>
-7.31812783620699

> <r_i_glide_ligand_efficiency>
-0.457382989762937

> <r_i_glide_ligand_efficiency_sa>
-1.15253291226718

> <r_i_glide_ligand_efficiency_ln>
-1.93981596590848

> <r_i_glide_gscore>
-7.31812783620699

> <r_i_glide_lipo>
-2.55468857529411

> <r_i_glide_hbond>
-0.447374830653762

> <r_i_glide_metal>
0

> <r_i_glide_rewards>
-2.12538941004122

> <r_i_glide_evdw>
-29.3994979858398

> <r_i_glide_ecoul>
-4.80466747283936

> <r_i_glide_erotb>
0

> <r_i_glide_esite>
0

> <r_i_glide_emodel>
-49.675766560247

> <r_i_glide_energy>
-34.2041654586792

> <r_i_glide_einternal>
0.040809266269207

> <i_i_glide_confnum>
1

> <i_i_glide_posenum>
251

> <r_i_glide_eff_state_penalty>
0

> <s_user_duplicate_titles>
CHEMBL220_lig578,167716

> <s_m_subgroup_title>
dock_pv

> <s_m_subgroupid>
dock_pv

> <b_m_subgroup_collapsed>
0

$$$$
CHEMBL220_lig341
                    3D
 Schrodinger Suite 2021-1.
 38 39  0  0  1  0            999 V2000
    3.8929   68.3737   64.0265 N   0  3  0  0  0  0
    2.9415   67.4542   64.8539 C   0  0  0  0  0  0
    4.0361   69.7839   64.6565 C   0  0  0  0  0  0
    1.5278   67.9623   65.1456 C   0  0  0  0  0  0
    1.1678   68.3191   66.4509 C   0  0  0  0  0  0
   -0.1007   68.8300   66.7230 C   0  0  0  0  0  0
    4.7433   69.9385   66.0034 C   0  0  0  0  0  0
   -0.4128   69.2998   67.9676 O   0  0  0  0  0  0
    5.2785   67.6992   63.9286 C   0  0  0  0  0  0
    3.3736   68.5493   62.5754 C   0  0  0  0  0  0
   -0.7201   68.5080   64.4156 C   0  0  0  0  0  0
    0.5649   68.0449   64.1336 C   0  0  0  0  0  0
   -1.0510   68.9075   65.7090 C   0  0  0  0  0  0
    6.1292   70.1088   66.0521 C   0  0  0  0  0  0
    3.9900   70.1081   67.1680 C   0  0  0  0  0  0
    4.5995   70.5160   68.3504 C   0  0  0  0  0  0
    6.7433   70.4842   67.2418 C   0  0  0  0  0  0
    5.9761   70.7173   68.3778 C   0  0  0  0  0  0
    3.4783   67.2932   65.7882 H   0  0  0  0  0  0
    2.9016   66.5019   64.3250 H   0  0  0  0  0  0
    4.5477   70.3951   63.9095 H   0  0  0  0  0  0
    3.0065   70.1300   64.7199 H   0  0  0  0  0  0
    1.8781   68.2192   67.2565 H   0  0  0  0  0  0
    0.2933   69.2908   68.6215 H   0  0  0  0  0  0
    5.9383   68.3550   63.3563 H   0  0  0  0  0  0
    5.6537   67.5655   64.9435 H   0  0  0  0  0  0
    5.1446   66.7398   63.4278 H   0  0  0  0  0  0
    4.1465   69.0549   61.9926 H   0  0  0  0  0  0
    3.1677   67.5622   62.1610 H   0  0  0  0  0  0
    2.4747   69.1648   62.6014 H   0  0  0  0  0  0
   -1.4607   68.5667   63.6312 H   0  0  0  0  0  0
    0.7886   67.7308   63.1258 H   0  0  0  0  0  0
   -2.0373   69.2963   65.9189 H   0  0  0  0  0  0
    6.7399   70.0040   65.1673 H   0  0  0  0  0  0
    2.9156   70.0685   67.1391 H   0  0  0  0  0  0
    4.0052   70.6969   69.2349 H   0  0  0  0  0  0
    7.8128   70.6211   67.2728 H   0  0  0  0  0  0
    6.4535   71.0355   69.2932 H   0  0  0  0  0  0
  1  2  1  0  0  0
  1  3  1  0  0  0
  1  9  1  0  0  0
  1 10  1  0  0  0
  2  4  1  0  0  0
  2 19  1  0  0  0
  2 20  1  0  0  0
  3  7  1  0  0  0
  3 21  1  0  0  0
  3 22  1  0  0  0
  4  5  1  0  0  0
  4 12  2  0  0  0
  5  6  2  0  0  0
  5 23  1  0  0  0
  6  8  1  0  0  0
  6 13  1  0  0  0
  7 14  1  0  0  0
  7 15  2  0  0  0
  8 24  1  0  0  0
  9 25  1  0  0  0
  9 26  1  0  0  0
  9 27  1  0  0  0
 10 28  1  0  0  0
 10 29  1  0  0  0
 10 30  1  0  0  0
 11 12  1  0  0  0
 11 13  2  0  0  0
 11 31  1  0  0  0
 12 32  1  0  0  0
 13 33  1  0  0  0
 14 17  2  0  0  0
 14 34  1  0  0  0
 15 16  1  0  0  0
 15 35  1  0  0  0
 16 18  2  0  0  0
 16 36  1  0  0  0
 17 18  1  0  0  0
 17 37  1  0  0  0
 18 38  1  0  0  0
M  CHG  1   1   1
M  END
> <s_m_entry_id>
8693

> <s_m_entry_name>
dock_pv.203

> <s_m_Source_Path>
/home/csk/Desktop/cluster/DUD-E-result/aces

> <s_m_Source_File>
dock_pv.maegz

> <i_m_Source_File_Index>
203

> <chembl_id>
CHEMBL61180

> <chembl_pref_name>
None

> <i_lp_mmshare_version>
53161

> <i_f3d_flags>
0

> <r_lp_tautomer_probability>
0.999999999997365

> <s_lp_Force_Field>
OPLS_2005

> <r_lp_Energy>
16.570242

> <b_lp_Chiralities_Consistent>
1

> <s_lp_Variant>
CHEMBL220_lig341-1

> <s_i_glide_gridfile>
glide-grid_1e66

> <i_i_glide_lignum>
395

> <i_i_glide_rotatable_bonds>
5

> <r_i_docking_score>
-7.31602667529945

> <r_i_glide_ligand_efficiency>
-0.406445926405525

> <r_i_glide_ligand_efficiency_sa>
-1.06518966281228

> <r_i_glide_ligand_efficiency_ln>
-1.88054693242371

> <r_i_glide_gscore>
-7.31602667529945

> <r_i_glide_lipo>
-3.05701889453884

> <r_i_glide_hbond>
0

> <r_i_glide_metal>
0

> <r_i_glide_rewards>
-3.5524939719704

> <r_i_glide_evdw>
-26.5801525115967

> <r_i_glide_ecoul>
-1.75647401809692

> <r_i_glide_erotb>
0.885964919504165

> <r_i_glide_esite>
0

> <r_i_glide_emodel>
-43.5227944306046

> <r_i_glide_energy>
-28.3366265296936

> <r_i_glide_einternal>
1.8733241558075

> <i_i_glide_confnum>
4

> <i_i_glide_posenum>
368

> <r_i_glide_eff_state_penalty>
0

> <s_user_duplicate_titles>
CHEMBL220_lig341

> <s_m_subgroup_title>
dock_pv

> <s_m_subgroupid>
dock_pv

> <b_m_subgroup_collapsed>
0

$$$$
CHEMBL220_lig347
                    3D
 Schrodinger Suite 2021-1.
 28 28  0  0  1  0            999 V2000
    3.3853   68.5641   64.2280 N   0  3  0  0  0  0
    2.4525   68.5299   65.4384 C   0  0  0  0  0  0
    2.6912   69.3083   66.5902 C   0  0  0  0  0  0
    1.7797   69.2953   67.6488 C   0  0  0  0  0  0
    2.0058   70.0573   68.7680 O   0  0  0  0  0  0
    4.5927   69.5469   64.4023 C   0  0  0  0  0  0
    2.5948   68.9872   62.9593 C   0  0  0  0  0  0
    3.9725   67.1557   63.9507 C   0  0  0  0  0  0
    1.3055   67.7190   65.3810 C   0  0  0  0  0  0
    0.4074   67.7065   66.4447 C   0  0  0  0  0  0
    0.6437   68.4947   67.5679 C   0  0  0  0  0  0
    5.5426   69.6979   63.1894 C   0  0  0  0  0  0
    3.5546   69.9452   66.6987 H   0  0  0  0  0  0
    1.3194   70.0013   69.4566 H   0  0  0  0  0  0
    5.1388   69.1957   65.2788 H   0  0  0  0  0  0
    4.1376   70.5081   64.6345 H   0  0  0  0  0  0
    3.2420   68.9411   62.0855 H   0  0  0  0  0  0
    1.7555   68.3095   62.8136 H   0  0  0  0  0  0
    2.2351   70.0016   63.1313 H   0  0  0  0  0  0
    4.4997   67.1675   62.9974 H   0  0  0  0  0  0
    4.6518   66.9179   64.7678 H   0  0  0  0  0  0
    3.1523   66.4392   63.9189 H   0  0  0  0  0  0
    1.0791   67.1033   64.5247 H   0  0  0  0  0  0
   -0.4732   67.0837   66.3959 H   0  0  0  0  0  0
   -0.0635   68.4765   68.3738 H   0  0  0  0  0  0
    6.3412   70.3915   63.4530 H   0  0  0  0  0  0
    5.0591   70.1254   62.3100 H   0  0  0  0  0  0
    6.0290   68.7671   62.9009 H   0  0  0  0  0  0
  1  2  1  0  0  0
  1  6  1  0  0  0
  1  7  1  0  0  0
  1  8  1  0  0  0
  2  3  1  0  0  0
  2  9  2  0  0  0
  3  4  2  0  0  0
  3 13  1  0  0  0
  4  5  1  0  0  0
  4 11  1  0  0  0
  5 14  1  0  0  0
  6 12  1  0  0  0
  6 15  1  0  0  0
  6 16  1  0  0  0
  7 17  1  0  0  0
  7 18  1  0  0  0
  7 19  1  0  0  0
  8 20  1  0  0  0
  8 21  1  0  0  0
  8 22  1  0  0  0
  9 10  1  0  0  0
  9 23  1  0  0  0
 10 11  2  0  0  0
 10 24  1  0  0  0
 11 25  1  0  0  0
 12 26  1  0  0  0
 12 27  1  0  0  0
 12 28  1  0  0  0
M  CHG  1   1   1
M  END
> <s_m_entry_id>
8694

> <s_m_entry_name>
dock_pv.204

> <s_m_Source_Path>
/home/csk/Desktop/cluster/DUD-E-result/aces

> <s_m_Source_File>
dock_pv.maegz

> <i_m_Source_File_Index>
204

> <chembl_id>
CHEMBL60745

> <chembl_pref_name>
EDROPHONIUM BROMIDE

> <i_lp_mmshare_version>
53161

> <i_f3d_flags>
0

> <r_lp_tautomer_probability>
1

> <s_lp_Force_Field>
OPLS_2005

> <r_lp_Energy>
20.940013

> <b_lp_Chiralities_Consistent>
1

> <s_lp_Variant>
CHEMBL220_lig347-1

> <s_i_glide_gridfile>
glide-grid_1e66

> <i_i_glide_lignum>
401

> <i_i_glide_rotatable_bonds>
3

> <r_i_docking_score>
-7.31532772231793

> <r_i_glide_ligand_efficiency>
-0.609610643526494

> <r_i_glide_ligand_efficiency_sa>
-1.39565997095773

> <r_i_glide_ligand_efficiency_ln>
-2.09914596213444

> <r_i_glide_gscore>
-7.31532772231793

> <r_i_glide_lipo>
-2.10074986864525

> <r_i_glide_hbond>
-0.16

> <r_i_glide_metal>
0

> <r_i_glide_rewards>
-3.4378483347164

> <r_i_glide_evdw>
-23.5787448883057

> <r_i_glide_ecoul>
-6.60894680023193

> <r_i_glide_erotb>
0.553549745493792

> <r_i_glide_esite>
0

> <r_i_glide_emodel>
-48.4071400566596

> <r_i_glide_energy>
-30.1876916885376

> <r_i_glide_einternal>
1.04296791553497

> <i_i_glide_confnum>
3

> <i_i_glide_posenum>
317

> <r_i_glide_eff_state_penalty>
0

> <s_user_duplicate_titles>
CHEMBL220_lig347,CHEMBL220_lig628,91266

> <s_m_subgroup_title>
dock_pv

> <s_m_subgroupid>
dock_pv

> <b_m_subgroup_collapsed>
0

$$$$
CHEMBL220_lig675
                    3D
 Schrodinger Suite 2021-1.
 63 64  0  0  1  0            999 V2000
    0.6019   68.8784   63.1606 C   0  0  0  0  0  0
   -0.9657   68.5080   65.0321 C   0  0  0  0  0  0
   -2.3660   68.6100   65.5541 N   0  3  0  0  0  0
    0.8099   69.3973   61.7769 N   0  3  0  0  0  0
   -0.6884   68.9080   63.7123 C   0  0  0  0  0  0
    1.6593   68.4033   63.9627 C   0  0  0  0  0  0
    0.0964   67.9960   65.8002 C   0  0  0  0  0  0
    1.3869   67.9709   65.2635 C   0  0  0  0  0  0
    3.3207   61.7142   70.5293 C   0  0  0  0  0  0
    2.8896   62.8467   71.1511 O   0  0  0  0  0  0
    1.6521   63.1353   70.6651 C   0  0  0  0  0  0
    2.3439   61.2729   69.6511 C   0  0  0  0  0  0
   -3.2570   68.9080   64.7683 O   0  5  0  0  0  0
    1.8414   69.1319   61.1680 O   0  5  0  0  0  0
    1.3021   62.1922   69.7269 C   0  0  0  0  0  0
   -2.6113   68.4062   66.7397 O   0  0  0  0  0  0
   -0.0609   70.1040   61.2819 O   0  0  0  0  0  0
    4.6802   61.1726   70.9406 C   0  0  0  0  0  0
   -0.1503   67.4619   67.0747 N   0  0  0  0  0  0
    2.9764   68.4023   63.4673 N   0  0  0  0  0  0
    4.6478   60.2146   72.0511 N   0  0  0  0  0  0
    1.5991   65.8498   70.3680 S   0  0  0  0  0  0
    0.9614   64.3691   71.1803 C   0  0  0  0  0  0
    0.8823   66.9734   67.9701 C   0  0  0  0  0  0
    4.1702   68.1740   64.2671 C   0  0  0  0  0  0
    0.3059   66.2360   69.1742 C   0  0  0  0  0  0
    4.1506   60.8062   73.2922 C   0  0  0  0  0  0
    3.9320   58.9800   71.7337 C   0  0  0  0  0  0
    4.6883   69.4695   64.9059 C   0  0  0  0  0  0
    6.5590   70.5156   66.3250 C   0  0  0  0  0  0
    5.9977   69.2507   65.6711 C   0  0  0  0  0  0
    5.7771   70.9822   67.5653 C   0  0  0  0  0  0
   -1.5012   69.2688   63.0979 H   0  0  0  0  0  0
    2.1909   67.6042   65.8737 H   0  0  0  0  0  0
    2.3810   60.3887   69.0334 H   0  0  0  0  0  0
    0.3824   62.1989   69.1687 H   0  0  0  0  0  0
    5.1429   60.6786   70.0870 H   0  0  0  0  0  0
    5.3476   61.9944   71.2061 H   0  0  0  0  0  0
   -1.0846   67.5955   67.4449 H   0  0  0  0  0  0
    3.1067   68.8273   62.5562 H   0  0  0  0  0  0
    1.1425   64.4851   72.2473 H   0  0  0  0  0  0
   -0.1208   64.3065   71.0784 H   0  0  0  0  0  0
    1.5432   66.2968   67.4301 H   0  0  0  0  0  0
    1.5010   67.8148   68.2924 H   0  0  0  0  0  0
    4.9359   67.7444   63.6200 H   0  0  0  0  0  0
    4.0326   67.4073   65.0273 H   0  0  0  0  0  0
   -0.4348   66.8553   69.6814 H   0  0  0  0  0  0
   -0.1988   65.3211   68.8573 H   0  0  0  0  0  0
    4.2337   60.0941   74.1142 H   0  0  0  0  0  0
    4.7265   61.6926   73.5642 H   0  0  0  0  0  0
    3.1009   61.0956   73.2121 H   0  0  0  0  0  0
    4.0351   58.2539   72.5427 H   0  0  0  0  0  0
    2.8652   59.1573   71.5818 H   0  0  0  0  0  0
    4.3326   58.5213   70.8269 H   0  0  0  0  0  0
    3.9255   69.8725   65.5733 H   0  0  0  0  0  0
    4.8320   70.2291   64.1357 H   0  0  0  0  0  0
    6.5988   71.3074   65.5746 H   0  0  0  0  0  0
    7.5902   70.3259   66.6209 H   0  0  0  0  0  0
    6.7428   68.8329   64.9933 H   0  0  0  0  0  0
    5.8511   68.5082   66.4450 H   0  0  0  0  0  0
    6.2353   71.8689   68.0052 H   0  0  0  0  0  0
    5.7591   70.2081   68.3340 H   0  0  0  0  0  0
    4.7444   71.2322   67.3234 H   0  0  0  0  0  0
  1  4  1  0  0  0
  1  5  1  0  0  0
  1  6  2  0  0  0
  2  5  2  0  0  0
  2  3  1  0  0  0
  2  7  1  0  0  0
  3 13  1  0  0  0
  3 16  2  0  0  0
  4 14  1  0  0  0
  4 17  2  0  0  0
  5 33  1  0  0  0
  6  8  1  0  0  0
  6 20  1  0  0  0
  7  8  2  0  0  0
  7 19  1  0  0  0
  8 34  1  0  0  0
  9 10  1  0  0  0
  9 18  1  0  0  0
  9 12  2  0  0  0
 10 11  1  0  0  0
 11 23  1  0  0  0
 11 15  2  0  0  0
 12 15  1  0  0  0
 12 35  1  0  0  0
 15 36  1  0  0  0
 18 21  1  0  0  0
 18 37  1  0  0  0
 18 38  1  0  0  0
 19 24  1  0  0  0
 19 39  1  0  0  0
 20 25  1  0  0  0
 20 40  1  0  0  0
 21 27  1  0  0  0
 21 28  1  0  0  0
 22 26  1  0  0  0
 22 23  1  0  0  0
 23 41  1  0  0  0
 23 42  1  0  0  0
 24 26  1  0  0  0
 24 43  1  0  0  0
 24 44  1  0  0  0
 25 29  1  0  0  0
 25 45  1  0  0  0
 25 46  1  0  0  0
 26 47  1  0  0  0
 26 48  1  0  0  0
 27 49  1  0  0  0
 27 50  1  0  0  0
 27 51  1  0  0  0
 28 52  1  0  0  0
 28 53  1  0  0  0
 28 54  1  0  0  0
 29 31  1  0  0  0
 29 55  1  0  0  0
 29 56  1  0  0  0
 30 31  1  0  0  0
 30 32  1  0  0  0
 30 57  1  0  0  0
 30 58  1  0  0  0
 31 59  1  0  0  0
 31 60  1  0  0  0
 32 61  1  0  0  0
 32 62  1  0  0  0
 32 63  1  0  0  0
M  CHG  4   3   1   4   1  13  -1  14  -1
M  END
> <s_m_entry_id>
8696

> <s_m_entry_name>
dock_pv.206

> <s_m_Source_Path>
/home/csk/Desktop/cluster/DUD-E-result/aces

> <s_m_Source_File>
dock_pv.maegz

> <i_m_Source_File_Index>
206

> <chembl_id>
CHEMBL106418

> <chembl_pref_name>
None

> <i_lp_mmshare_version>
53161

> <i_f3d_flags>
0

> <r_lp_tautomer_probability>
1

> <s_lp_Force_Field>
OPLS_2005

> <r_lp_Energy>
26.179755

> <b_lp_Chiralities_Consistent>
1

> <s_lp_Variant>
CHEMBL220_lig675-1

> <s_i_glide_gridfile>
glide-grid_1e66

> <i_i_glide_lignum>
797

> <i_i_glide_rotatable_bonds>
15

> <r_i_docking_score>
-7.31283176172662

> <r_i_glide_ligand_efficiency>
-0.228525992553957

> <r_i_glide_ligand_efficiency_sa>
-0.725524801126297

> <r_i_glide_ligand_efficiency_ln>
-1.6375423717157

> <r_i_glide_gscore>
-7.31283176172662

> <r_i_glide_lipo>
-3.93957269228251

> <r_i_glide_hbond>
0

> <r_i_glide_metal>
0

> <r_i_glide_rewards>
-1.700889487483

> <r_i_glide_evdw>
-55.1268157958984

> <r_i_glide_ecoul>
0.403077065944672

> <r_i_glide_erotb>
1.02350964794211

> <r_i_glide_esite>
0

> <r_i_glide_emodel>
-68.3923294301604

> <r_i_glide_energy>
-54.7237387299538

> <r_i_glide_einternal>
16.0706100463867

> <i_i_glide_confnum>
85

> <i_i_glide_posenum>
203

> <r_i_glide_eff_state_penalty>
0

> <s_user_duplicate_titles>
CHEMBL220_lig675

> <s_m_subgroup_title>
dock_pv

> <s_m_subgroupid>
dock_pv

> <b_m_subgroup_collapsed>
0

$$$$
CHEMBL220_lig205
                    3D
 Schrodinger Suite 2021-1.
 58 60  0  0  1  0            999 V2000
    1.5572   68.9525   62.3064 C   0  0  0  0  0  0
    2.9021   68.8527   62.2471 C   0  0  0  0  0  0
    2.4552   63.9165   70.1102 N   0  0  1  0  0  0
    0.6541   68.5079   63.2693 N   0  0  0  0  0  0
    0.9218   65.8652   69.6646 C   0  0  0  0  0  0
    3.7193   68.1515   63.1802 C   0  0  0  0  0  0
    3.6074   69.4977   61.2038 C   0  0  0  0  0  0
    1.2090   67.0725   69.1166 O   0  0  0  0  0  0
    0.7428   69.6031   61.3941 N   0  0  0  0  0  0
    4.4060   67.5471   63.8901 N   0  0  0  0  0  0
    4.1107   70.1080   60.3680 N   0  0  0  0  0  0
    1.9944   65.2540   70.5399 C   0  0  0  0  0  0
    0.1453   67.4538   68.3680 C   0  0  0  0  0  0
   -0.3596   65.5042   69.2945 C   0  0  0  0  0  0
   -0.8570   66.5080   68.4738 C   0  0  0  0  0  0
    3.8238   63.5963   70.5913 C   0  0  1  0  0  0
    1.4404   62.8571   70.3517 C   0  0  1  0  0  0
   -0.3628   70.1625   62.1261 C   0  0  0  0  0  0
    0.9410   68.4751   66.2915 N   0  0  1  0  0  0
   -0.6904   68.9395   62.9344 C   0  0  0  0  0  0
    0.8234   67.3385   64.1187 C   0  0  0  0  0  0
    0.2861   68.7291   67.5714 C   0  0  0  0  0  0
    3.2728   61.0825   70.3877 C   0  0  0  0  0  0
    1.9265   61.4984   69.7997 C   0  0  0  0  0  0
    4.2822   62.1979   70.1078 C   0  0  0  0  0  0
    0.2082   67.4847   65.5059 C   0  0  0  0  0  0
    0.9370   62.7114   71.8080 C   0  0  0  0  0  0
    4.9158   64.6239   70.2200 C   0  0  0  0  0  0
    1.1690   70.2304   60.7219 H   0  0  0  0  0  0
    2.8184   65.9631   70.5463 H   0  0  0  0  0  0
    1.6539   65.2247   71.5680 H   0  0  0  0  0  0
   -0.8570   64.5899   69.5680 H   0  0  0  0  0  0
   -1.8194   66.5355   67.9841 H   0  0  0  0  0  0
    3.7399   63.5239   71.6761 H   0  0  0  0  0  0
    0.5858   63.0828   69.7190 H   0  0  0  0  0  0
   -1.1846   70.4869   61.4877 H   0  0  0  0  0  0
   -0.0570   70.9996   62.7561 H   0  0  0  0  0  0
    1.0463   69.3315   65.7671 H   0  0  0  0  0  0
   -1.2862   69.1878   63.8125 H   0  0  0  0  0  0
   -1.2113   68.1676   62.3680 H   0  0  0  0  0  0
    0.3430   66.5095   63.6067 H   0  0  0  0  0  0
    1.8634   67.0555   64.2408 H   0  0  0  0  0  0
    0.9053   69.4408   68.1199 H   0  0  0  0  0  0
   -0.6807   69.2116   67.4177 H   0  0  0  0  0  0
    3.6077   60.1444   69.9432 H   0  0  0  0  0  0
    3.1868   60.9056   71.4607 H   0  0  0  0  0  0
    2.0632   61.5880   68.7205 H   0  0  0  0  0  0
    1.1798   60.7221   69.9679 H   0  0  0  0  0  0
    4.4450   62.2385   69.0299 H   0  0  0  0  0  0
    5.2250   61.9338   70.5859 H   0  0  0  0  0  0
   -0.8498   67.7423   65.4339 H   0  0  0  0  0  0
    0.2710   66.5077   65.9868 H   0  0  0  0  0  0
    0.2389   61.8783   71.8969 H   0  0  0  0  0  0
    1.7533   62.5299   72.5069 H   0  0  0  0  0  0
    0.3981   63.5953   72.1461 H   0  0  0  0  0  0
    5.9244   64.2522   70.3680 H   0  0  0  0  0  0
    4.8456   64.8911   69.1681 H   0  0  0  0  0  0
    4.8460   65.5375   70.8081 H   0  0  0  0  0  0
  1  2  2  0  0  0
  1  4  1  0  0  0
  1  9  1  0  0  0
  2  6  1  0  0  0
  2  7  1  0  0  0
  3 12  1  0  0  0
  3 16  1  0  0  0
  3 17  1  0  0  0
  4 20  1  0  0  0
  4 21  1  0  0  0
  5  8  1  0  0  0
  5 12  1  0  0  0
  5 14  2  0  0  0
  6 10  3  0  0  0
  7 11  3  0  0  0
  8 13  1  0  0  0
  9 18  1  0  0  0
  9 29  1  0  0  0
 12 30  1  0  0  0
 12 31  1  0  0  0
 13 22  1  0  0  0
 13 15  2  0  0  0
 14 15  1  0  0  0
 14 32  1  0  0  0
 15 33  1  0  0  0
 16 25  1  0  0  0
 16 28  1  0  0  0
 16 34  1  0  0  0
 17 24  1  0  0  0
 17 27  1  0  0  0
 17 35  1  0  0  0
 18 20  1  0  0  0
 18 36  1  0  0  0
 18 37  1  0  0  0
 19 26  1  0  0  0
 19 22  1  0  0  0
 19 38  1  0  0  0
 20 39  1  0  0  0
 20 40  1  0  0  0
 21 26  1  0  0  0
 21 41  1  0  0  0
 21 42  1  0  0  0
 22 43  1  0  0  0
 22 44  1  0  0  0
 23 24  1  0  0  0
 23 25  1  0  0  0
 23 45  1  0  0  0
 23 46  1  0  0  0
 24 47  1  0  0  0
 24 48  1  0  0  0
 25 49  1  0  0  0
 25 50  1  0  0  0
 26 51  1  0  0  0
 26 52  1  0  0  0
 27 53  1  0  0  0
 27 54  1  0  0  0
 27 55  1  0  0  0
 28 56  1  0  0  0
 28 57  1  0  0  0
 28 58  1  0  0  0
M  END
> <s_m_entry_id>
8697

> <s_m_entry_name>
dock_pv.207

> <s_m_Source_Path>
/home/csk/Desktop/cluster/DUD-E-result/aces

> <s_m_Source_File>
dock_pv.maegz

> <i_m_Source_File_Index>
207

> <chembl_id>
CHEMBL153821

> <chembl_pref_name>
None

> <i_lp_mmshare_version>
53161

> <i_f3d_flags>
0

> <r_lp_tautomer_probability>
0.5

> <s_lp_Force_Field>
OPLS_2005

> <r_lp_Energy>
49.45103

> <b_lp_Chiralities_Consistent>
1

> <s_lp_Variant>
CHEMBL220_lig205-3

> <s_i_glide_gridfile>
glide-grid_1e66

> <i_i_glide_lignum>
225

> <i_i_glide_rotatable_bonds>
7

> <r_i_docking_score>
-7.30860737714719

> <r_i_glide_ligand_efficiency>
-0.261021692040971

> <r_i_glide_ligand_efficiency_sa>
-0.792615590591552

> <r_i_glide_ligand_efficiency_ln>
-1.68704117268268

> <r_i_glide_gscore>
-7.30860737714719

> <r_i_glide_lipo>
-3.05989064070431

> <r_i_glide_hbond>
-0.516476200690759

> <r_i_glide_metal>
0

> <r_i_glide_rewards>
-2.09140196727531

> <r_i_glide_evdw>
-35.4626998901367

> <r_i_glide_ecoul>
-5.31299114227295

> <r_i_glide_erotb>
0.929245097370959

> <r_i_glide_esite>
0

> <r_i_glide_emodel>
-51.8378641726398

> <r_i_glide_energy>
-40.7756910324097

> <r_i_glide_einternal>
4.19331979751587

> <i_i_glide_confnum>
59

> <i_i_glide_posenum>
148

> <r_i_glide_eff_state_penalty>
0

> <s_user_duplicate_titles>
CHEMBL220_lig205

> <s_m_subgroup_title>
dock_pv

> <s_m_subgroupid>
dock_pv

> <b_m_subgroup_collapsed>
0

$$$$
CHEMBL220_lig673
                    3D
 Schrodinger Suite 2021-1.
 55 58  0  0  1  0            999 V2000
    0.6570   68.2624   64.3317 N   0  3  1  0  0  0
    1.6622   62.1108   70.5274 C   0  0  0  0  0  0
    1.7630   64.4593   70.0345 C   0  0  0  0  0  0
    0.9909   63.3004   70.2598 C   0  0  0  0  0  0
    1.1452   65.8035   69.7873 C   0  0  0  0  0  0
    3.0249   62.0371   70.5653 C   0  0  0  0  0  0
    1.1431   60.8801   70.7698 O   0  0  0  0  0  0
    3.4046   60.7549   70.8078 O   0  0  0  0  0  0
    2.2262   60.0724   71.1473 C   0  0  0  0  0  0
    1.8161   69.3080   64.2023 C   0  0  0  0  0  0
    3.1743   64.3697   70.1070 C   0  0  0  0  0  0
    1.7805   66.8387   69.9680 O   0  0  0  0  0  0
    3.8218   63.1539   70.3568 C   0  0  0  0  0  0
   -0.2795   65.9159   69.1972 C   0  0  0  0  0  0
    1.1728   66.9314   64.9431 C   0  0  0  0  0  0
   -0.5272   68.7677   65.2057 C   0  0  0  0  0  0
   -0.4558   66.5755   67.7902 C   0  0  0  0  0  0
    0.0338   68.0457   62.9253 C   0  0  0  0  0  0
    3.1156   68.8529   63.5712 C   0  0  0  0  0  0
    0.5332   67.6972   67.3479 C   0  0  1  0  0  0
    1.6170   67.1338   66.3979 C   0  0  0  0  0  0
   -0.1650   68.9080   66.6981 C   0  0  0  0  0  0
    3.1758   68.6683   62.1923 C   0  0  0  0  0  0
    4.2604   68.6915   64.3560 C   0  0  0  0  0  0
    5.4509   68.2952   63.7588 C   0  0  0  0  0  0
    4.3374   68.2002   61.6154 C   0  0  0  0  0  0
    5.4791   68.0259   62.3924 C   0  0  0  0  0  0
   -0.0884   63.3107   70.2507 H   0  0  0  0  0  0
    2.1982   59.9194   72.2283 H   0  0  0  0  0  0
    2.1780   59.1073   70.6402 H   0  0  0  0  0  0
    1.4370   70.1081   63.5679 H   0  0  0  0  0  0
    2.0031   69.7028   65.2004 H   0  0  0  0  0  0
    3.7891   65.2492   69.9679 H   0  0  0  0  0  0
    4.8997   63.1011   70.3945 H   0  0  0  0  0  0
   -0.7674   64.9447   69.1863 H   0  0  0  0  0  0
   -0.8383   66.5110   69.9188 H   0  0  0  0  0  0
    2.0088   66.5581   64.3621 H   0  0  0  0  0  0
    0.3572   66.2176   64.8988 H   0  0  0  0  0  0
   -0.8574   69.7080   64.7801 H   0  0  0  0  0  0
   -1.3335   68.0399   65.0948 H   0  0  0  0  0  0
   -0.4579   65.7903   67.0361 H   0  0  0  0  0  0
   -1.4751   66.9639   67.7599 H   0  0  0  0  0  0
   -0.3662   69.0016   62.5825 H   0  0  0  0  0  0
    0.7990   67.7080   62.2431 H   0  0  0  0  0  0
   -0.7598   67.3081   62.9671 H   0  0  0  0  0  0
    1.0339   68.1493   68.1999 H   0  0  0  0  0  0
    2.4761   67.8008   66.4047 H   0  0  0  0  0  0
    1.9980   66.1859   66.7732 H   0  0  0  0  0  0
   -1.0454   69.1976   67.2751 H   0  0  0  0  0  0
    0.5073   69.7505   66.8165 H   0  0  0  0  0  0
    2.3371   68.8805   61.5486 H   0  0  0  0  0  0
    4.2425   68.8929   65.4173 H   0  0  0  0  0  0
    6.3456   68.2017   64.3553 H   0  0  0  0  0  0
    4.3430   68.0109   60.5552 H   0  0  0  0  0  0
    6.4015   67.7080   61.9290 H   0  0  0  0  0  0
  1 10  1  0  0  0
  1 15  1  0  0  0
  1 16  1  0  0  0
  1 18  1  0  0  0
  2  4  1  0  0  0
  2  7  1  0  0  0
  2  6  2  0  0  0
  3  5  1  0  0  0
  3  4  2  0  0  0
  3 11  1  0  0  0
  4 28  1  0  0  0
  5 14  1  0  0  0
  5 12  2  0  0  0
  6 13  1  0  0  0
  6  8  1  0  0  0
  7  9  1  0  0  0
  8  9  1  0  0  0
  9 29  1  0  0  0
  9 30  1  0  0  0
 10 19  1  0  0  0
 10 31  1  0  0  0
 10 32  1  0  0  0
 11 13  2  0  0  0
 11 33  1  0  0  0
 13 34  1  0  0  0
 14 17  1  0  0  0
 14 35  1  0  0  0
 14 36  1  0  0  0
 15 21  1  0  0  0
 15 37  1  0  0  0
 15 38  1  0  0  0
 16 22  1  0  0  0
 16 39  1  0  0  0
 16 40  1  0  0  0
 17 20  1  0  0  0
 17 41  1  0  0  0
 17 42  1  0  0  0
 18 43  1  0  0  0
 18 44  1  0  0  0
 18 45  1  0  0  0
 19 23  2  0  0  0
 19 24  1  0  0  0
 20 22  1  0  0  0
 20 21  1  0  0  0
 20 46  1  0  0  0
 21 47  1  0  0  0
 21 48  1  0  0  0
 22 49  1  0  0  0
 22 50  1  0  0  0
 23 26  1  0  0  0
 23 51  1  0  0  0
 24 25  2  0  0  0
 24 52  1  0  0  0
 25 27  1  0  0  0
 25 53  1  0  0  0
 26 27  2  0  0  0
 26 54  1  0  0  0
 27 55  1  0  0  0
M  CHG  1   1   1
M  END
> <s_m_entry_id>
8698

> <s_m_entry_name>
dock_pv.208

> <s_m_Source_Path>
/home/csk/Desktop/cluster/DUD-E-result/aces

> <s_m_Source_File>
dock_pv.maegz

> <i_m_Source_File_Index>
208

> <chembl_id>
CHEMBL313231

> <chembl_pref_name>
None

> <i_lp_mmshare_version>
53161

> <i_f3d_flags>
0

> <r_lp_tautomer_probability>
0.99990000499975

> <s_lp_Force_Field>
OPLS_2005

> <r_lp_Energy>
50.867437

> <b_lp_Chiralities_Consistent>
1

> <s_lp_Variant>
CHEMBL220_lig673-1

> <s_i_glide_gridfile>
glide-grid_1e66

> <i_i_glide_lignum>
794

> <i_i_glide_rotatable_bonds>
6

> <r_i_docking_score>
-7.28916794753071

> <r_i_glide_ligand_efficiency>
-0.269969183241878

> <r_i_glide_ligand_efficiency_sa>
-0.809907548835861

> <r_i_glide_ligand_efficiency_ln>
-1.69679812685964

> <r_i_glide_gscore>
-7.28916794753071

> <r_i_glide_lipo>
-3.37947778427745

> <r_i_glide_hbond>
0

> <r_i_glide_metal>
0

> <r_i_glide_rewards>
-2.22126794154705

> <r_i_glide_evdw>
-32.9073181152344

> <r_i_glide_ecoul>
-5.06426668167114

> <r_i_glide_erotb>
0.716583686306174

> <r_i_glide_esite>
0

> <r_i_glide_emodel>
-49.1890372952011

> <r_i_glide_energy>
-37.9715847969055

> <r_i_glide_einternal>
11.7938680648804

> <i_i_glide_confnum>
56

> <i_i_glide_posenum>
82

> <r_i_glide_eff_state_penalty>
0

> <s_user_duplicate_titles>
CHEMBL220_lig673,139380

> <s_m_subgroup_title>
dock_pv

> <s_m_subgroupid>
dock_pv

> <b_m_subgroup_collapsed>
0

$$$$
CHEMBL220_lig690
                    3D
 Schrodinger Suite 2021-1.
 51 52  0  0  1  0            999 V2000
    3.6475   69.3074   63.0449 C   0  0  0  0  0  0
    4.0377   69.5964   65.4575 C   0  0  0  0  0  0
    4.9482   70.1073   66.5249 N   0  3  0  0  0  0
    4.1750   69.5196   61.6719 N   0  3  0  0  0  0
    4.4591   69.6805   64.1264 C   0  0  0  0  0  0
    2.3562   68.8044   63.3120 C   0  0  0  0  0  0
    2.7655   69.0417   65.7079 C   0  0  0  0  0  0
    1.9604   68.6369   64.6399 C   0  0  0  0  0  0
    2.1692   62.3089   71.4581 C   0  0  0  0  0  0
    2.5394   63.5735   71.1295 O   0  0  0  0  0  0
    1.4831   64.1750   70.5246 C   0  0  0  0  0  0
    0.8592   62.0971   71.0596 C   0  0  0  0  0  0
    4.5597   70.1790   67.6858 O   0  5  0  0  0  0
    5.2430   70.1079   61.5647 O   0  5  0  0  0  0
    0.4252   63.2802   70.4578 C   0  0  0  0  0  0
    6.0784   70.4695   66.2068 O   0  0  0  0  0  0
    3.5422   69.1322   60.6952 O   0  0  0  0  0  0
    3.2316   61.4462   72.1091 C   0  0  0  0  0  0
    1.4552   68.5082   62.2713 N   0  0  0  0  0  0
    2.2912   68.9097   67.0185 N   0  0  0  0  0  0
    4.2317   60.9786   71.1406 N   0  0  0  0  0  0
    0.2314   66.4961   69.5683 S   0  0  0  0  0  0
    1.7280   65.5827   70.0398 C   0  0  0  0  0  0
    1.2340   67.9781   67.3924 C   0  0  0  0  0  0
    0.9815   68.0018   68.8964 C   0  0  0  0  0  0
    5.4207   60.5156   71.8477 C   0  0  0  0  0  0
    3.6976   59.9042   70.3031 C   0  0  0  0  0  0
    0.0580   68.1459   62.4846 C   0  0  0  0  0  0
    5.4392   70.0925   63.9250 H   0  0  0  0  0  0
    0.9805   68.2399   64.8455 H   0  0  0  0  0  0
    0.2911   61.1858   71.1727 H   0  0  0  0  0  0
   -0.5391   63.4619   70.0114 H   0  0  0  0  0  0
    3.7220   62.0385   72.8841 H   0  0  0  0  0  0
    2.7794   60.5965   72.6265 H   0  0  0  0  0  0
    1.7636   68.6942   61.3252 H   0  0  0  0  0  0
    2.9319   69.2009   67.7494 H   0  0  0  0  0  0
    2.3487   65.5253   69.1565 H   0  0  0  0  0  0
    2.2946   66.1613   70.7682 H   0  0  0  0  0  0
    0.3094   68.1945   66.8532 H   0  0  0  0  0  0
    1.5360   66.9760   67.0795 H   0  0  0  0  0  0
    1.9111   68.1819   69.4414 H   0  0  0  0  0  0
    0.3430   68.8498   69.1186 H   0  0  0  0  0  0
    6.1764   60.1594   71.1467 H   0  0  0  0  0  0
    5.8719   61.3266   72.4232 H   0  0  0  0  0  0
    5.1743   59.7074   72.5371 H   0  0  0  0  0  0
    4.4330   59.5933   69.5621 H   0  0  0  0  0  0
    3.4154   59.0298   70.8935 H   0  0  0  0  0  0
    2.8167   60.2397   69.7561 H   0  0  0  0  0  0
   -0.3950   67.8336   61.5459 H   0  0  0  0  0  0
   -0.5092   68.9910   62.8732 H   0  0  0  0  0  0
   -0.0452   67.3090   63.1719 H   0  0  0  0  0  0
  1  4  1  0  0  0
  1  5  1  0  0  0
  1  6  2  0  0  0
  2  5  2  0  0  0
  2  3  1  0  0  0
  2  7  1  0  0  0
  3 13  1  0  0  0
  3 16  2  0  0  0
  4 14  1  0  0  0
  4 17  2  0  0  0
  5 29  1  0  0  0
  6  8  1  0  0  0
  6 19  1  0  0  0
  7  8  2  0  0  0
  7 20  1  0  0  0
  8 30  1  0  0  0
  9 10  1  0  0  0
  9 18  1  0  0  0
  9 12  2  0  0  0
 10 11  1  0  0  0
 11 23  1  0  0  0
 11 15  2  0  0  0
 12 15  1  0  0  0
 12 31  1  0  0  0
 15 32  1  0  0  0
 18 21  1  0  0  0
 18 33  1  0  0  0
 18 34  1  0  0  0
 19 28  1  0  0  0
 19 35  1  0  0  0
 20 24  1  0  0  0
 20 36  1  0  0  0
 21 26  1  0  0  0
 21 27  1  0  0  0
 22 25  1  0  0  0
 22 23  1  0  0  0
 23 37  1  0  0  0
 23 38  1  0  0  0
 24 25  1  0  0  0
 24 39  1  0  0  0
 24 40  1  0  0  0
 25 41  1  0  0  0
 25 42  1  0  0  0
 26 43  1  0  0  0
 26 44  1  0  0  0
 26 45  1  0  0  0
 27 46  1  0  0  0
 27 47  1  0  0  0
 27 48  1  0  0  0
 28 49  1  0  0  0
 28 50  1  0  0  0
 28 51  1  0  0  0
M  CHG  4   3   1   4   1  13  -1  14  -1
M  END
> <s_m_entry_id>
8699

> <s_m_entry_name>
dock_pv.209

> <s_m_Source_Path>
/home/csk/Desktop/cluster/DUD-E-result/aces

> <s_m_Source_File>
dock_pv.maegz

> <i_m_Source_File_Index>
209

> <chembl_id>
CHEMBL320291

> <chembl_pref_name>
None

> <i_lp_mmshare_version>
53161

> <i_f3d_flags>
0

> <r_lp_tautomer_probability>
1

> <s_lp_Force_Field>
OPLS_2005

> <r_lp_Energy>
24.114879

> <b_lp_Chiralities_Consistent>
1

> <s_lp_Variant>
CHEMBL220_lig690-1

> <s_i_glide_gridfile>
glide-grid_1e66

> <i_i_glide_lignum>
815

> <i_i_glide_rotatable_bonds>
11

> <r_i_docking_score>
-7.28897333595331

> <r_i_glide_ligand_efficiency>
-0.260320476284047

> <r_i_glide_ligand_efficiency_sa>
-0.790486286559536

> <r_i_glide_ligand_efficiency_ln>
-1.68250905949464

> <r_i_glide_gscore>
-7.28897333595331

> <r_i_glide_lipo>
-3.5053793603645

> <r_i_glide_hbond>
0

> <r_i_glide_metal>
0

> <r_i_glide_rewards>
-1.61269007229971

> <r_i_glide_evdw>
-49.3527412414551

> <r_i_glide_ecoul>
-2.94384407997131

> <r_i_glide_erotb>
0.822130195915797

> <r_i_glide_esite>
-0.0838204251364399

> <r_i_glide_emodel>
-68.3069940457346

> <r_i_glide_energy>
-52.2965853214264

> <r_i_glide_einternal>
9.31495189666748

> <i_i_glide_confnum>
115

> <i_i_glide_posenum>
72

> <r_i_glide_eff_state_penalty>
0

> <s_user_duplicate_titles>
CHEMBL220_lig690,174467

> <s_m_subgroup_title>
dock_pv

> <s_m_subgroupid>
dock_pv

> <b_m_subgroup_collapsed>
0

$$$$
CHEMBL220_lig826
                    3D
 Schrodinger Suite 2021-1.
 32 34  0  0  1  0            999 V2000
    2.6232   68.1213   65.6115 N   0  0  0  0  0  0
    2.5650   68.3055   63.2597 N   0  0  0  0  0  0
    1.1775   68.5640   63.1736 C   0  0  0  0  0  0
    3.2375   68.2355   64.4996 C   0  0  0  0  0  0
    0.4515   68.4022   64.4878 C   0  0  0  0  0  0
    1.2224   68.1643   65.6420 C   0  0  0  0  0  0
   -0.9418   68.5085   64.6265 C   0  0  0  0  0  0
    0.5264   68.9451   62.0506 C   0  0  0  0  0  0
    0.6158   68.0284   66.8921 C   0  0  0  0  0  0
   -1.5447   68.3793   65.8779 C   0  0  0  0  0  0
    3.3395   68.1273   62.0215 C   0  0  0  0  0  0
    4.7617   68.3666   64.5383 C   0  0  0  0  0  0
   -0.7682   68.1327   67.0056 C   0  0  0  0  0  0
   -3.2568   68.5113   66.0222 Cl  0  0  0  0  0  0
    4.0978   69.3896   61.5992 C   0  0  0  0  0  0
    5.3311   69.6488   63.9007 C   0  0  0  0  0  0
    5.4051   69.6466   62.3671 C   0  0  0  0  0  0
   -1.5820   68.6907   63.7780 H   0  0  0  0  0  0
   -0.5296   69.1457   62.0333 H   0  0  0  0  0  0
    1.0364   69.0786   61.1088 H   0  0  0  0  0  0
    1.2129   67.8584   67.7752 H   0  0  0  0  0  0
    2.7310   67.7625   61.1964 H   0  0  0  0  0  0
    4.0552   67.3155   62.1604 H   0  0  0  0  0  0
    5.2299   67.4762   64.1191 H   0  0  0  0  0  0
    5.0863   68.3706   65.5788 H   0  0  0  0  0  0
   -1.2426   68.0285   67.9678 H   0  0  0  0  0  0
    3.4344   70.2495   61.6737 H   0  0  0  0  0  0
    4.3389   69.3116   60.5394 H   0  0  0  0  0  0
    4.7508   70.5098   64.2379 H   0  0  0  0  0  0
    6.3424   69.8169   64.2852 H   0  0  0  0  0  0
    5.7942   70.6126   62.0448 H   0  0  0  0  0  0
    6.1475   68.9085   62.0510 H   0  0  0  0  0  0
  1  4  2  0  0  0
  1  6  1  0  0  0
  2  4  1  0  0  0
  2 11  1  0  0  0
  2  3  1  0  0  0
  3  5  1  0  0  0
  3  8  2  0  0  0
  4 12  1  0  0  0
  5  6  1  0  0  0
  5  7  2  0  0  0
  6  9  2  0  0  0
  7 10  1  0  0  0
  7 18  1  0  0  0
  8 19  1  0  0  0
  8 20  1  0  0  0
  9 13  1  0  0  0
  9 21  1  0  0  0
 10 13  2  0  0  0
 10 14  1  0  0  0
 11 15  1  0  0  0
 11 22  1  0  0  0
 11 23  1  0  0  0
 12 16  1  0  0  0
 12 24  1  0  0  0
 12 25  1  0  0  0
 13 26  1  0  0  0
 15 17  1  0  0  0
 15 27  1  0  0  0
 15 28  1  0  0  0
 16 17  1  0  0  0
 16 29  1  0  0  0
 16 30  1  0  0  0
 17 31  1  0  0  0
 17 32  1  0  0  0
M  END
> <s_m_entry_id>
8700

> <s_m_entry_name>
dock_pv.210

> <s_m_Source_Path>
/home/csk/Desktop/cluster/DUD-E-result/aces

> <s_m_Source_File>
dock_pv.maegz

> <i_m_Source_File_Index>
210

> <chembl_id>
CHEMBL1161718

> <chembl_pref_name>
None

> <i_lp_mmshare_version>
53161

> <i_f3d_flags>
0

> <r_lp_tautomer_probability>
0.999601159137504

> <s_lp_Force_Field>
OPLS_2005

> <r_lp_Energy>
21.981659

> <b_lp_Chiralities_Consistent>
1

> <s_lp_Variant>
CHEMBL220_lig826-1

> <s_i_glide_gridfile>
glide-grid_1e66

> <i_i_glide_lignum>
1022

> <i_i_glide_rotatable_bonds>
0

> <r_i_docking_score>
-7.28314194918999

> <r_i_glide_ligand_efficiency>
-0.428420114658235

> <r_i_glide_ligand_efficiency_sa>
-1.10158875284806

> <r_i_glide_ligand_efficiency_ln>
-1.90000954694662

> <r_i_glide_gscore>
-7.28314194918999

> <r_i_glide_lipo>
-3.22066518818279

> <r_i_glide_hbond>
0

> <r_i_glide_metal>
0

> <r_i_glide_rewards>
-2.36777049686898

> <r_i_glide_evdw>
-36.0577583312988

> <r_i_glide_ecoul>
0.721211016178131

> <r_i_glide_erotb>
0

> <r_i_glide_esite>
0

> <r_i_glide_emodel>
-50.4725740404883

> <r_i_glide_energy>
-35.3365473151207

> <r_i_glide_einternal>
0

> <i_i_glide_confnum>
2

> <i_i_glide_posenum>
126

> <r_i_glide_eff_state_penalty>
0

> <s_user_duplicate_titles>
CHEMBL220_lig826

> <s_m_subgroup_title>
dock_pv

> <s_m_subgroupid>
dock_pv

> <b_m_subgroup_collapsed>
0

$$$$
CHEMBL220_lig346
                    3D
 Schrodinger Suite 2021-1.
 40 41  0  0  1  0            999 V2000
    1.7951   68.0446   65.0387 N   0  3  0  0  0  0
    3.0953   68.7045   64.5975 C   0  0  0  0  0  0
    4.0350   69.0740   65.5669 C   0  0  0  0  0  0
    5.8977   70.5090   67.3936 C   0  0  0  0  0  0
    1.2591   68.6266   66.3932 C   0  0  0  0  0  0
    5.2315   69.7065   65.2122 C   0  0  0  0  0  0
    6.1943   70.0804   66.1312 O   0  0  0  0  0  0
    4.7912   70.7620   67.8703 O   0  0  0  0  0  0
   -0.0684   68.1108   66.9226 C   0  0  0  0  0  0
    0.6533   68.1950   63.9912 C   0  0  0  0  0  0
    2.0255   66.5263   65.2406 C   0  0  0  0  0  0
    3.3957   68.9060   63.2394 C   0  0  0  0  0  0
    4.6012   69.5087   62.8782 C   0  0  0  0  0  0
    7.1454   70.6804   68.2282 C   0  0  0  0  0  0
    5.5022   69.9184   63.8598 C   0  0  0  0  0  0
   -0.0781   66.9818   67.7399 C   0  0  0  0  0  0
   -1.2527   68.7984   66.6454 C   0  0  0  0  0  0
   -2.4541   68.3327   67.1664 C   0  0  0  0  0  0
   -1.2732   66.5141   68.2620 C   0  0  0  0  0  0
   -2.4563   67.1962   67.9679 C   0  0  0  0  0  0
    3.8749   68.8788   66.6113 H   0  0  0  0  0  0
    2.0000   68.4000   67.1557 H   0  0  0  0  0  0
    1.2500   69.7079   66.2851 H   0  0  0  0  0  0
   -0.2499   67.7103   64.3629 H   0  0  0  0  0  0
    0.4859   69.2603   63.8334 H   0  0  0  0  0  0
    0.9441   67.7080   63.0633 H   0  0  0  0  0  0
    1.0580   66.0403   65.3834 H   0  0  0  0  0  0
    2.5350   66.1372   64.3664 H   0  0  0  0  0  0
    2.6602   66.3977   66.1160 H   0  0  0  0  0  0
    2.7314   68.6164   62.4404 H   0  0  0  0  0  0
    4.8394   69.6685   61.8354 H   0  0  0  0  0  0
    7.9260   71.1081   67.5992 H   0  0  0  0  0  0
    7.4921   69.7102   68.5917 H   0  0  0  0  0  0
    6.9627   71.3415   69.0767 H   0  0  0  0  0  0
    6.4182   70.4074   63.5680 H   0  0  0  0  0  0
    0.8390   66.4627   67.9825 H   0  0  0  0  0  0
   -1.2477   69.6896   66.0347 H   0  0  0  0  0  0
   -3.3754   68.8604   66.9670 H   0  0  0  0  0  0
   -1.2585   65.6526   68.9115 H   0  0  0  0  0  0
   -3.3878   66.8765   68.4033 H   0  0  0  0  0  0
  1  2  1  0  0  0
  1  5  1  0  0  0
  1 10  1  0  0  0
  1 11  1  0  0  0
  2  3  1  0  0  0
  2 12  2  0  0  0
  3  6  2  0  0  0
  3 21  1  0  0  0
  4  7  1  0  0  0
  4  8  2  0  0  0
  4 14  1  0  0  0
  5  9  1  0  0  0
  5 22  1  0  0  0
  5 23  1  0  0  0
  6  7  1  0  0  0
  6 15  1  0  0  0
  9 16  2  0  0  0
  9 17  1  0  0  0
 10 24  1  0  0  0
 10 25  1  0  0  0
 10 26  1  0  0  0
 11 27  1  0  0  0
 11 28  1  0  0  0
 11 29  1  0  0  0
 12 13  1  0  0  0
 12 30  1  0  0  0
 13 15  2  0  0  0
 13 31  1  0  0  0
 14 32  1  0  0  0
 14 33  1  0  0  0
 14 34  1  0  0  0
 15 35  1  0  0  0
 16 19  1  0  0  0
 16 36  1  0  0  0
 17 18  2  0  0  0
 17 37  1  0  0  0
 18 20  1  0  0  0
 18 38  1  0  0  0
 19 20  2  0  0  0
 19 39  1  0  0  0
 20 40  1  0  0  0
M  CHG  1   1   1
M  END
> <s_m_entry_id>
8701

> <s_m_entry_name>
dock_pv.211

> <s_m_Source_Path>
/home/csk/Desktop/cluster/DUD-E-result/aces

> <s_m_Source_File>
dock_pv.maegz

> <i_m_Source_File_Index>
211

> <chembl_id>
CHEMBL58190

> <chembl_pref_name>
None

> <i_lp_mmshare_version>
53161

> <i_f3d_flags>
0

> <r_lp_tautomer_probability>
1

> <s_lp_Force_Field>
OPLS_2005

> <r_lp_Energy>
25.173061

> <b_lp_Chiralities_Consistent>
1

> <s_lp_Variant>
CHEMBL220_lig346-1

> <s_i_glide_gridfile>
glide-grid_1e66

> <i_i_glide_lignum>
400

> <i_i_glide_rotatable_bonds>
5

> <r_i_docking_score>
-7.28236544593426

> <r_i_glide_ligand_efficiency>
-0.364118272296713

> <r_i_glide_ligand_efficiency_sa>
-0.988369051859336

> <r_i_glide_ligand_efficiency_ln>
-1.82253588262984

> <r_i_glide_gscore>
-7.28236544593426

> <r_i_glide_lipo>
-3.83649683465736

> <r_i_glide_hbond>
0

> <r_i_glide_metal>
0

> <r_i_glide_rewards>
-2.1832937287473

> <r_i_glide_evdw>
-36.009880065918

> <r_i_glide_ecoul>
-2.93926525115967

> <r_i_glide_erotb>
0.978808908440251

> <r_i_glide_esite>
0

> <r_i_glide_emodel>
-56.7264006683417

> <r_i_glide_energy>
-38.9491453170776

> <r_i_glide_einternal>
5.41771650314331

> <i_i_glide_confnum>
28

> <i_i_glide_posenum>
144

> <r_i_glide_eff_state_penalty>
0

> <s_user_duplicate_titles>
CHEMBL220_lig346

> <s_m_subgroup_title>
dock_pv

> <s_m_subgroupid>
dock_pv

> <b_m_subgroup_collapsed>
0

$$$$
CHEMBL220_lig576
                    3D
 Schrodinger Suite 2021-1.
 30 32  0  0  1  0            999 V2000
    2.1949   68.9080   63.4364 C   0  0  0  0  0  0
    3.3393   69.2197   64.1983 C   0  0  0  0  0  0
    1.0284   68.5059   63.9879 N   0  0  0  0  0  0
    3.1964   69.2807   65.5945 C   0  0  0  0  0  0
    1.9569   68.9080   66.1956 C   0  0  0  0  0  0
    0.8973   68.4999   65.3337 C   0  0  0  0  0  0
    2.2035   69.0209   61.9246 C   0  0  0  0  0  0
    4.7098   69.4106   63.5255 C   0  0  0  0  0  0
    4.2818   69.7080   66.3700 N   0  0  0  0  0  0
    3.5627   68.6485   61.3462 C   0  0  2  0  0  0
    4.6776   69.4811   61.9899 C   0  0  0  0  0  0
    1.7176   68.9120   67.5955 C   0  0  0  0  0  0
    3.5430   68.9080   59.9680 O   0  0  0  0  0  0
   -0.3474   68.1064   65.8757 C   0  0  0  0  0  0
    0.4920   68.4947   68.0991 C   0  0  0  0  0  0
   -0.5356   68.0985   67.2519 C   0  0  0  0  0  0
    1.4156   68.4122   61.4764 H   0  0  0  0  0  0
    1.9688   70.0542   61.6650 H   0  0  0  0  0  0
    5.2116   70.2999   63.9106 H   0  0  0  0  0  0
    5.3333   68.5636   63.8157 H   0  0  0  0  0  0
    5.1026   70.0666   65.9056 H   0  0  0  0  0  0
    4.1679   69.8118   67.3672 H   0  0  0  0  0  0
    3.7352   67.5796   61.4825 H   0  0  0  0  0  0
    4.5501   70.5155   61.6901 H   0  0  0  0  0  0
    5.6516   69.1905   61.5931 H   0  0  0  0  0  0
    2.4927   69.2225   68.2801 H   0  0  0  0  0  0
    4.4643   68.8074   59.6534 H   0  0  0  0  0  0
   -1.1455   67.8016   65.2129 H   0  0  0  0  0  0
    0.3430   68.4900   69.1680 H   0  0  0  0  0  0
   -1.4850   67.7885   67.6642 H   0  0  0  0  0  0
  1  2  1  0  0  0
  1  3  2  0  0  0
  1  7  1  0  0  0
  2  4  2  0  0  0
  2  8  1  0  0  0
  3  6  1  0  0  0
  4  9  1  0  0  0
  4  5  1  0  0  0
  5  6  1  0  0  0
  5 12  2  0  0  0
  6 14  2  0  0  0
  7 10  1  0  0  0
  7 17  1  0  0  0
  7 18  1  0  0  0
  8 11  1  0  0  0
  8 19  1  0  0  0
  8 20  1  0  0  0
  9 21  1  0  0  0
  9 22  1  0  0  0
 10 11  1  0  0  0
 10 13  1  0  0  0
 10 23  1  0  0  0
 11 24  1  0  0  0
 11 25  1  0  0  0
 12 15  1  0  0  0
 12 26  1  0  0  0
 13 27  1  0  0  0
 14 16  1  0  0  0
 14 28  1  0  0  0
 15 16  2  0  0  0
 15 29  1  0  0  0
 16 30  1  0  0  0
M  END
> <s_m_entry_id>
8702

> <s_m_entry_name>
dock_pv.212

> <s_m_Source_Path>
/home/csk/Desktop/cluster/DUD-E-result/aces

> <s_m_Source_File>
dock_pv.maegz

> <i_m_Source_File_Index>
212

> <chembl_id>
CHEMBL1127

> <chembl_pref_name>
7-HYDROXYTACRINE

> <i_lp_mmshare_version>
53161

> <i_f3d_flags>
0

> <r_lp_tautomer_probability>
1

> <s_lp_Force_Field>
OPLS_2005

> <r_lp_Energy>
17.953942

> <b_lp_Chiralities_Consistent>
1

> <s_lp_Variant>
CHEMBL220_lig576-1

> <s_i_glide_gridfile>
glide-grid_1e66

> <i_i_glide_lignum>
662

> <i_i_glide_rotatable_bonds>
1

> <r_i_docking_score>
-7.27580010599198

> <r_i_glide_ligand_efficiency>
-0.454737506624499

> <r_i_glide_ligand_efficiency_sa>
-1.14586671248683

> <r_i_glide_ligand_efficiency_ln>
-1.92859615549939

> <r_i_glide_gscore>
-7.27580010599198

> <r_i_glide_lipo>
-2.61977513421491

> <r_i_glide_hbond>
-0.214280811255327

> <r_i_glide_metal>
0

> <r_i_glide_rewards>
-2.12317328440023

> <r_i_glide_evdw>
-25.777681350708

> <r_i_glide_ecoul>
-6.86457872390747

> <r_i_glide_erotb>
0

> <r_i_glide_esite>
0

> <r_i_glide_emodel>
-46.6853546850156

> <r_i_glide_energy>
-32.6422600746155

> <r_i_glide_einternal>
0.3460813164711

> <i_i_glide_confnum>
1

> <i_i_glide_posenum>
253

> <r_i_glide_eff_state_penalty>
0

> <s_user_duplicate_titles>
CHEMBL220_lig576

> <s_m_subgroup_title>
dock_pv

> <s_m_subgroupid>
dock_pv

> <b_m_subgroup_collapsed>
0

$$$$
CHEMBL220_lig946
                    3D
 Schrodinger Suite 2021-1.
 43 45  0  0  1  0            999 V2000
   -1.6870   68.1075   65.7306 C   0  0  0  0  0  0
   -0.5459   67.6600   66.4002 C   0  0  0  0  0  0
    0.6791   67.6166   65.7227 C   0  0  0  0  0  0
   -1.5912   68.5089   64.3915 C   0  0  0  0  0  0
   -0.3478   68.6132   63.7393 C   0  0  0  0  0  0
    0.8218   68.1401   64.4038 C   0  0  0  0  0  0
    2.0519   68.2887   63.6839 C   0  0  0  0  0  0
    2.1448   68.8426   62.4479 N   0  0  0  0  0  0
    1.0228   69.3069   61.8654 C   0  0  0  0  0  0
   -0.2272   69.2243   62.4621 C   0  0  0  0  0  0
    3.3970   67.8401   64.2581 C   0  0  1  0  0  0
    4.0875   68.8654   65.1780 C   0  0  0  0  0  0
    5.3659   69.3550   64.8633 C   0  0  0  0  0  0
    6.0623   70.1485   65.7831 C   0  0  0  0  0  0
    5.4829   70.5081   66.9933 C   0  0  0  0  0  0
    4.1836   70.1078   67.2730 C   0  0  0  0  0  0
    3.4905   69.3050   66.3683 C   0  0  0  0  0  0
    3.3929   66.5203   64.7678 O   0  0  0  0  0  0
    5.9429   69.0536   63.6584 O   0  0  0  0  0  0
    5.5455   69.9279   62.6081 C   0  0  0  0  0  0
   -2.8690   68.1337   66.4457 O   0  0  0  0  0  0
   -4.0820   68.5087   65.7987 C   0  0  0  0  0  0
   -0.7059   67.2725   67.7199 O   0  0  0  0  0  0
    0.4341   66.9809   68.5204 C   0  0  0  0  0  0
    1.5348   67.2274   66.2391 H   0  0  0  0  0  0
   -2.4515   68.8583   63.8455 H   0  0  0  0  0  0
    1.1423   69.7667   60.8939 H   0  0  0  0  0  0
   -1.0868   69.6590   61.9703 H   0  0  0  0  0  0
    4.0453   67.6967   63.3928 H   0  0  0  0  0  0
    7.0590   70.5021   65.5680 H   0  0  0  0  0  0
    6.0250   71.1226   67.6964 H   0  0  0  0  0  0
    3.7118   70.4096   68.1950 H   0  0  0  0  0  0
    2.4927   69.0311   66.6466 H   0  0  0  0  0  0
    2.8607   66.5056   65.5642 H   0  0  0  0  0  0
    5.9425   69.5637   61.6601 H   0  0  0  0  0  0
    4.4651   70.0135   62.5056 H   0  0  0  0  0  0
    5.9431   70.9277   62.7724 H   0  0  0  0  0  0
   -4.8453   68.7288   66.5428 H   0  0  0  0  0  0
   -3.9853   69.3891   65.1715 H   0  0  0  0  0  0
   -4.4574   67.7074   65.1699 H   0  0  0  0  0  0
    0.1097   66.7625   69.5373 H   0  0  0  0  0  0
    0.9761   66.1080   68.1550 H   0  0  0  0  0  0
    1.1135   67.8333   68.5713 H   0  0  0  0  0  0
  1  2  2  0  0  0
  1  4  1  0  0  0
  1 21  1  0  0  0
  2  3  1  0  0  0
  2 23  1  0  0  0
  3  6  2  0  0  0
  3 25  1  0  0  0
  4  5  2  0  0  0
  4 26  1  0  0  0
  5  6  1  0  0  0
  5 10  1  0  0  0
  6  7  1  0  0  0
  7  8  2  0  0  0
  7 11  1  0  0  0
  8  9  1  0  0  0
  9 10  2  0  0  0
  9 27  1  0  0  0
 10 28  1  0  0  0
 11 12  1  0  0  0
 11 18  1  0  0  0
 11 29  1  0  0  0
 12 13  2  0  0  0
 12 17  1  0  0  0
 13 14  1  0  0  0
 13 19  1  0  0  0
 14 15  2  0  0  0
 14 30  1  0  0  0
 15 16  1  0  0  0
 15 31  1  0  0  0
 16 17  2  0  0  0
 16 32  1  0  0  0
 17 33  1  0  0  0
 18 34  1  0  0  0
 19 20  1  0  0  0
 20 35  1  0  0  0
 20 36  1  0  0  0
 20 37  1  0  0  0
 21 22  1  0  0  0
 22 38  1  0  0  0
 22 39  1  0  0  0
 22 40  1  0  0  0
 23 24  1  0  0  0
 24 41  1  0  0  0
 24 42  1  0  0  0
 24 43  1  0  0  0
M  END
> <s_m_entry_id>
8703

> <s_m_entry_name>
dock_pv.213

> <s_m_Source_Path>
/home/csk/Desktop/cluster/DUD-E-result/aces

> <s_m_Source_File>
dock_pv.maegz

> <i_m_Source_File_Index>
213

> <chembl_id>
CHEMBL208132

> <chembl_pref_name>
None

> <i_lp_mmshare_version>
53161

> <i_f3d_flags>
0

> <r_lp_tautomer_probability>
1

> <s_lp_Force_Field>
OPLS_2005

> <r_lp_Energy>
25.308508

> <b_lp_Chiralities_Consistent>
1

> <s_lp_Variant>
CHEMBL220_lig946-2

> <s_i_glide_gridfile>
glide-grid_1e66

> <i_i_glide_lignum>
1282

> <i_i_glide_rotatable_bonds>
6

> <r_i_docking_score>
-7.27403249709106

> <r_i_glide_ligand_efficiency>
-0.303084687378794

> <r_i_glide_ligand_efficiency_sa>
-0.874247519351506

> <r_i_glide_ligand_efficiency_ln>
-1.74100976015555

> <r_i_glide_gscore>
-7.27403249709106

> <r_i_glide_lipo>
-3.94119709317493

> <r_i_glide_hbond>
0

> <r_i_glide_metal>
0

> <r_i_glide_rewards>
-1.59073777272727

> <r_i_glide_evdw>
-38.8496589660645

> <r_i_glide_ecoul>
-1.02450895309448

> <r_i_glide_erotb>
0.354061660078544

> <r_i_glide_esite>
0

> <r_i_glide_emodel>
-50.4008579588116

> <r_i_glide_energy>
-39.8741679191589

> <r_i_glide_einternal>
10.6911754608154

> <i_i_glide_confnum>
4

> <i_i_glide_posenum>
94

> <r_i_glide_eff_state_penalty>
0

> <s_user_duplicate_titles>
CHEMBL220_lig946

> <s_m_subgroup_title>
dock_pv

> <s_m_subgroupid>
dock_pv

> <b_m_subgroup_collapsed>
0

$$$$
CHEMBL220_lig235
                    3D
 Schrodinger Suite 2021-1.
 60 62  0  0  1  0            999 V2000
    1.1085   65.3082   69.8165 C   0  0  0  0  0  0
   -0.0570   64.0114   69.9682 S   0  0  0  0  0  0
    1.1258   62.9663   70.7267 C   0  0  0  0  0  0
    2.3513   64.9242   70.3014 C   0  0  0  0  0  0
    2.3974   63.5882   70.7815 C   0  0  0  0  0  0
    3.1015   68.5440   64.4062 N   0  3  2  0  0  0
    0.9160   61.6768   71.2283 C   0  0  0  0  0  0
    0.7512   66.6050   69.2246 C   0  0  0  0  0  0
    1.9999   60.9818   71.7816 C   0  0  0  0  0  0
    3.4779   62.8541   71.2864 C   0  0  0  0  0  0
    3.2776   61.5551   71.7827 C   0  0  0  0  0  0
    1.4705   67.5789   69.4359 O   0  0  0  0  0  0
   -0.4600   66.7901   68.2721 C   0  0  0  0  0  0
    2.8938   67.0023   64.3533 C   0  0  0  0  0  0
    2.8269   69.0418   65.8551 C   0  0  0  0  0  0
    1.8857   59.7247   72.3528 O   0  0  0  0  0  0
    4.2981   60.7780   72.3002 O   0  0  0  0  0  0
   -0.2074   66.6979   66.7439 C   0  0  0  0  0  0
    2.1627   69.3048   63.4178 C   0  0  0  0  0  0
    4.5877   68.8573   64.0949 C   0  0  0  0  0  0
    1.1869   67.1164   66.2263 C   0  0  2  0  0  0
    1.4153   68.6377   66.3347 C   0  0  0  0  0  0
    1.4597   66.6268   64.7943 C   0  0  0  0  0  0
    1.1827   68.9121   61.2015 O   0  0  0  0  0  0
    2.4109   69.0244   61.9146 C   0  0  0  0  0  0
    0.6007   59.1400   72.5247 C   0  0  0  0  0  0
    5.6156   61.2979   72.3654 C   0  0  0  0  0  0
    0.3819   70.0916   61.1467 C   0  0  0  0  0  0
    3.2107   65.5771   70.3139 H   0  0  0  0  0  0
   -0.0718   61.2425   71.1834 H   0  0  0  0  0  0
    4.4542   63.3109   71.2992 H   0  0  0  0  0  0
   -1.2814   66.1423   68.5755 H   0  0  0  0  0  0
   -0.8291   67.8059   68.3814 H   0  0  0  0  0  0
    3.6235   66.5705   65.0382 H   0  0  0  0  0  0
    3.1457   66.6685   63.3510 H   0  0  0  0  0  0
    3.5852   68.5858   66.4904 H   0  0  0  0  0  0
    2.9806   70.1164   65.8794 H   0  0  0  0  0  0
   -0.4567   65.7079   66.3967 H   0  0  0  0  0  0
   -0.9549   67.3160   66.2411 H   0  0  0  0  0  0
    1.1394   69.0630   63.6932 H   0  0  0  0  0  0
    2.3353   70.3520   63.6390 H   0  0  0  0  0  0
    4.7162   69.9410   64.1344 H   0  0  0  0  0  0
    5.2138   68.3686   64.8450 H   0  0  0  0  0  0
    4.8247   68.4823   63.0980 H   0  0  0  0  0  0
    1.9430   66.6129   66.8207 H   0  0  0  0  0  0
    0.6358   69.1720   65.7977 H   0  0  0  0  0  0
    1.2795   68.9713   67.3607 H   0  0  0  0  0  0
    1.3359   65.5430   64.7676 H   0  0  0  0  0  0
    0.7066   66.9979   64.1008 H   0  0  0  0  0  0
    3.0333   69.8044   61.4705 H   0  0  0  0  0  0
    2.9396   68.0882   61.7461 H   0  0  0  0  0  0
    0.7066   58.1818   73.0343 H   0  0  0  0  0  0
   -0.0489   59.7707   73.1340 H   0  0  0  0  0  0
    0.1242   58.9530   71.5676 H   0  0  0  0  0  0
    6.2820   60.5361   72.7678 H   0  0  0  0  0  0
    5.6643   62.1647   73.0251 H   0  0  0  0  0  0
    5.9894   61.5709   71.3794 H   0  0  0  0  0  0
   -0.4472   69.9328   60.4585 H   0  0  0  0  0  0
   -0.0403   70.3508   62.1185 H   0  0  0  0  0  0
    0.9385   70.9498   60.7685 H   0  0  0  0  0  0
  1  2  1  0  0  0
  1  4  2  0  0  0
  1  8  1  0  0  0
  2  3  1  0  0  0
  3  7  2  0  0  0
  3  5  1  0  0  0
  4  5  1  0  0  0
  4 29  1  0  0  0
  5 10  2  0  0  0
  6 15  1  0  0  0
  6 19  1  0  0  0
  6 20  1  0  0  0
  6 14  1  0  0  0
  7  9  1  0  0  0
  7 30  1  0  0  0
  8 12  2  0  0  0
  8 13  1  0  0  0
  9 16  1  0  0  0
  9 11  2  0  0  0
 10 11  1  0  0  0
 10 31  1  0  0  0
 11 17  1  0  0  0
 13 18  1  0  0  0
 13 32  1  0  0  0
 13 33  1  0  0  0
 14 23  1  0  0  0
 14 34  1  0  0  0
 14 35  1  0  0  0
 15 22  1  0  0  0
 15 36  1  0  0  0
 15 37  1  0  0  0
 16 26  1  0  0  0
 17 27  1  0  0  0
 18 21  1  0  0  0
 18 38  1  0  0  0
 18 39  1  0  0  0
 19 25  1  0  0  0
 19 40  1  0  0  0
 19 41  1  0  0  0
 20 42  1  0  0  0
 20 43  1  0  0  0
 20 44  1  0  0  0
 21 22  1  0  0  0
 21 23  1  0  0  0
 21 45  1  0  0  0
 22 46  1  0  0  0
 22 47  1  0  0  0
 23 48  1  0  0  0
 23 49  1  0  0  0
 24 25  1  0  0  0
 24 28  1  0  0  0
 25 50  1  0  0  0
 25 51  1  0  0  0
 26 52  1  0  0  0
 26 53  1  0  0  0
 26 54  1  0  0  0
 27 55  1  0  0  0
 27 56  1  0  0  0
 27 57  1  0  0  0
 28 58  1  0  0  0
 28 59  1  0  0  0
 28 60  1  0  0  0
M  CHG  1   6   1
M  END
> <s_m_entry_id>
8704

> <s_m_entry_name>
dock_pv.214

> <s_m_Source_Path>
/home/csk/Desktop/cluster/DUD-E-result/aces

> <s_m_Source_File>
dock_pv.maegz

> <i_m_Source_File_Index>
214

> <chembl_id>
CHEMBL87320

> <chembl_pref_name>
None

> <i_lp_mmshare_version>
53161

> <i_f3d_flags>
0

> <r_lp_tautomer_probability>
0.99990000499975

> <s_lp_Force_Field>
OPLS_2005

> <r_lp_Energy>
45.246224

> <b_lp_Chiralities_Consistent>
1

> <s_lp_Variant>
CHEMBL220_lig235-2

> <s_i_glide_gridfile>
glide-grid_1e66

> <i_i_glide_lignum>
268

> <i_i_glide_rotatable_bonds>
9

> <r_i_docking_score>
-7.27362352806558

> <r_i_glide_ligand_efficiency>
-0.259772268859485

> <r_i_glide_ligand_efficiency_sa>
-0.78882160594166

> <r_i_glide_ligand_efficiency_ln>
-1.67896587314421

> <r_i_glide_gscore>
-7.27362352806558

> <r_i_glide_lipo>
-3.98603629542021

> <r_i_glide_hbond>
0

> <r_i_glide_metal>
0

> <r_i_glide_rewards>
-1.7762210767331

> <r_i_glide_evdw>
-38.4890670776367

> <r_i_glide_ecoul>
-2.00459504127502

> <r_i_glide_erotb>
0.713776454160822

> <r_i_glide_esite>
0

> <r_i_glide_emodel>
-52.6322005267823

> <r_i_glide_energy>
-40.4936621189117

> <r_i_glide_einternal>
12.6440286636353

> <i_i_glide_confnum>
14

> <i_i_glide_posenum>
16

> <r_i_glide_eff_state_penalty>
0

> <s_user_duplicate_titles>
CHEMBL220_lig235,138018

> <s_m_subgroup_title>
dock_pv

> <s_m_subgroupid>
dock_pv

> <b_m_subgroup_collapsed>
0

$$$$
CHEMBL220_lig668
                    3D
 Schrodinger Suite 2021-1.
 40 43  0  0  1  0            999 V2000
    4.2694   70.0530   67.0740 C   0  0  0  0  0  0
    3.2259   69.4844   66.2871 C   0  0  0  0  0  0
    3.5004   69.0367   64.9835 C   0  0  0  0  0  0
    4.8036   69.2186   64.4752 C   0  0  0  0  0  0
    5.8169   69.6849   65.2364 N   0  0  0  0  0  0
    5.5744   70.0865   66.5037 C   0  0  0  0  0  0
    4.1065   70.5086   68.4128 C   0  0  0  0  0  0
    2.4605   68.2633   64.1583 C   0  0  2  0  0  0
    5.2136   70.9049   69.1450 C   0  0  0  0  0  0
    6.6742   70.5081   67.2791 C   0  0  0  0  0  0
    3.5514   65.9372   64.0785 C   0  0  0  0  0  0
    4.1888   67.7970   62.4362 C   0  0  2  0  0  0
    4.3432   66.4141   63.0818 C   0  0  0  0  0  0
    5.1655   68.8257   63.0411 C   0  0  0  0  0  0
    2.4027   66.7894   64.6544 C   0  0  0  0  0  0
    2.7437   68.2947   62.6454 C   0  0  0  0  0  0
    6.4857   70.9082   68.5949 C   0  0  0  0  0  0
    1.9423   69.3075   66.8183 N   0  0  0  0  0  0
    2.9022   70.5080   69.0302 F   0  0  0  0  0  0
    7.5428   71.2546   69.3598 F   0  0  0  0  0  0
    3.6179   64.4979   64.5931 C   0  0  0  0  0  0
    4.4952   63.5075   63.8102 C   0  0  0  0  0  0
    1.4911   68.7352   64.3230 H   0  0  0  0  0  0
    5.0735   71.0838   70.1945 H   0  0  0  0  0  0
    7.6607   70.4997   66.8446 H   0  0  0  0  0  0
    4.3788   67.7005   61.3653 H   0  0  0  0  0  0
    5.1259   65.7836   62.6948 H   0  0  0  0  0  0
    6.1970   68.4755   62.9731 H   0  0  0  0  0  0
    5.1286   69.7346   62.4384 H   0  0  0  0  0  0
    1.4563   66.3309   64.3682 H   0  0  0  0  0  0
    2.4085   66.7203   65.7432 H   0  0  0  0  0  0
    2.6421   69.3157   62.2724 H   0  0  0  0  0  0
    2.0189   67.7085   62.0826 H   0  0  0  0  0  0
    1.7607   69.6296   67.7621 H   0  0  0  0  0  0
    1.2175   68.8786   66.2642 H   0  0  0  0  0  0
    2.5990   64.1077   64.5996 H   0  0  0  0  0  0
    3.9366   64.5079   65.6342 H   0  0  0  0  0  0
    4.4207   62.5084   64.2377 H   0  0  0  0  0  0
    5.5434   63.7989   63.8362 H   0  0  0  0  0  0
    4.1858   63.4369   62.7681 H   0  0  0  0  0  0
  1  2  2  0  0  0
  1  6  1  0  0  0
  1  7  1  0  0  0
  2  3  1  0  0  0
  2 18  1  0  0  0
  3  8  1  0  0  0
  3  4  2  0  0  0
  4  5  1  0  0  0
  4 14  1  0  0  0
  5  6  2  0  0  0
  6 10  1  0  0  0
  7  9  2  0  0  0
  7 19  1  0  0  0
  8 15  1  0  0  0
  8 16  1  0  0  0
  8 23  1  0  0  0
  9 17  1  0  0  0
  9 24  1  0  0  0
 10 17  2  0  0  0
 10 25  1  0  0  0
 11 15  1  0  0  0
 11 21  1  0  0  0
 11 13  2  0  0  0
 12 14  1  0  0  0
 12 13  1  0  0  0
 12 16  1  0  0  0
 12 26  1  0  0  0
 13 27  1  0  0  0
 14 28  1  0  0  0
 14 29  1  0  0  0
 15 30  1  0  0  0
 15 31  1  0  0  0
 16 32  1  0  0  0
 16 33  1  0  0  0
 17 20  1  0  0  0
 18 34  1  0  0  0
 18 35  1  0  0  0
 21 22  1  0  0  0
 21 36  1  0  0  0
 21 37  1  0  0  0
 22 38  1  0  0  0
 22 39  1  0  0  0
 22 40  1  0  0  0
M  END
> <s_m_entry_id>
8705

> <s_m_entry_name>
dock_pv.215

> <s_m_Source_Path>
/home/csk/Desktop/cluster/DUD-E-result/aces

> <s_m_Source_File>
dock_pv.maegz

> <i_m_Source_File_Index>
215

> <chembl_id>
CHEMBL335355

> <chembl_pref_name>
None

> <i_lp_mmshare_version>
53161

> <i_f3d_flags>
0

> <r_lp_tautomer_probability>
1

> <s_lp_Force_Field>
OPLS_2005

> <r_lp_Energy>
24.481544

> <b_lp_Chiralities_Consistent>
1

> <s_lp_Variant>
CHEMBL220_lig668-2

> <s_i_glide_gridfile>
glide-grid_1e66

> <i_i_glide_lignum>
788

> <i_i_glide_rotatable_bonds>
1

> <r_i_docking_score>
-7.27053951513654

> <r_i_glide_ligand_efficiency>
-0.330479068869843

> <r_i_glide_ligand_efficiency_sa>
-0.926015347977553

> <r_i_glide_ligand_efficiency_ln>
-1.7771850568718

> <r_i_glide_gscore>
-7.27053951513654

> <r_i_glide_lipo>
-3.8816645749169

> <r_i_glide_hbond>
0

> <r_i_glide_metal>
0

> <r_i_glide_rewards>
-1.96894439870429

> <r_i_glide_evdw>
-31.4190292358398

> <r_i_glide_ecoul>
1.00680613517761

> <r_i_glide_erotb>
0

> <r_i_glide_esite>
0

> <r_i_glide_emodel>
-34.8734703863229

> <r_i_glide_energy>
-30.4122231006622

> <r_i_glide_einternal>
0.557925462722778

> <i_i_glide_confnum>
1

> <i_i_glide_posenum>
54

> <r_i_glide_eff_state_penalty>
0

> <s_user_duplicate_titles>
CHEMBL220_lig668,236655

> <s_m_subgroup_title>
dock_pv

> <s_m_subgroupid>
dock_pv

> <b_m_subgroup_collapsed>
0

$$$$
CHEMBL220_lig523
                    3D
 Schrodinger Suite 2021-1.
 29 31  0  0  1  0            999 V2000
    2.3546   69.7083   67.8193 N   0  0  0  0  0  0
    3.5868   69.8902   67.2933 C   0  0  0  0  0  0
    3.9167   69.4814   65.9682 C   0  0  0  0  0  0
    2.8846   68.8725   65.1927 C   0  0  0  0  0  0
    1.5986   68.7082   65.7427 C   0  0  0  0  0  0
    1.3760   69.1674   67.0590 C   0  0  0  0  0  0
    4.5613   70.5106   68.1056 C   0  0  0  0  0  0
    5.2462   69.7052   65.5061 C   0  0  0  0  0  0
    3.1351   68.4360   63.8853 N   0  0  0  0  0  0
    5.8498   70.6968   67.6278 C   0  0  0  0  0  0
    6.1931   70.2996   66.3399 C   0  0  0  0  0  0
    7.1428   71.4896   68.7680 Br  0  0  0  0  0  0
    0.4524   68.0509   64.9577 C   0  0  0  0  0  0
   -0.0011   69.1164   67.7119 C   0  0  0  0  0  0
   -0.9419   68.3474   65.5420 C   0  0  0  0  0  0
   -0.9537   68.1173   67.0525 C   0  0  0  0  0  0
    4.3011   70.8129   69.1095 H   0  0  0  0  0  0
    5.5332   69.4119   64.5068 H   0  0  0  0  0  0
    2.3551   68.1183   63.3294 H   0  0  0  0  0  0
    4.0088   68.6887   63.4475 H   0  0  0  0  0  0
    7.1989   70.4577   65.9768 H   0  0  0  0  0  0
    0.4684   68.3558   63.9115 H   0  0  0  0  0  0
    0.6147   66.9720   64.9692 H   0  0  0  0  0  0
    0.1051   68.8830   68.7675 H   0  0  0  0  0  0
   -0.4442   70.1107   67.6680 H   0  0  0  0  0  0
   -1.2405   69.3711   65.3143 H   0  0  0  0  0  0
   -1.6843   67.7086   65.0701 H   0  0  0  0  0  0
   -1.9617   68.2470   67.4484 H   0  0  0  0  0  0
   -0.6565   67.0919   67.2818 H   0  0  0  0  0  0
  1  2  1  0  0  0
  1  6  2  0  0  0
  2  3  1  0  0  0
  2  7  2  0  0  0
  3  8  2  0  0  0
  3  4  1  0  0  0
  4  5  2  0  0  0
  4  9  1  0  0  0
  5  6  1  0  0  0
  5 13  1  0  0  0
  6 14  1  0  0  0
  7 10  1  0  0  0
  7 17  1  0  0  0
  8 11  1  0  0  0
  8 18  1  0  0  0
  9 19  1  0  0  0
  9 20  1  0  0  0
 10 11  2  0  0  0
 10 12  1  0  0  0
 11 21  1  0  0  0
 13 15  1  0  0  0
 13 22  1  0  0  0
 13 23  1  0  0  0
 14 16  1  0  0  0
 14 24  1  0  0  0
 14 25  1  0  0  0
 15 16  1  0  0  0
 15 26  1  0  0  0
 15 27  1  0  0  0
 16 28  1  0  0  0
 16 29  1  0  0  0
M  END
> <s_m_entry_id>
8706

> <s_m_entry_name>
dock_pv.216

> <s_m_Source_Path>
/home/csk/Desktop/cluster/DUD-E-result/aces

> <s_m_Source_File>
dock_pv.maegz

> <i_m_Source_File_Index>
216

> <chembl_id>
CHEMBL61850

> <chembl_pref_name>
None

> <i_lp_mmshare_version>
53161

> <i_f3d_flags>
0

> <r_lp_tautomer_probability>
1

> <s_lp_Force_Field>
OPLS_2005

> <r_lp_Energy>
15.385227

> <b_lp_Chiralities_Consistent>
1

> <s_lp_Variant>
CHEMBL220_lig523-1

> <s_i_glide_gridfile>
glide-grid_1e66

> <i_i_glide_lignum>
604

> <i_i_glide_rotatable_bonds>
0

> <r_i_docking_score>
-7.26436307263413

> <r_i_glide_ligand_efficiency>
-0.454022692039633

> <r_i_glide_ligand_efficiency_sa>
-1.144065492604

> <r_i_glide_ligand_efficiency_ln>
-1.92556454134796

> <r_i_glide_gscore>
-7.26436307263413

> <r_i_glide_lipo>
-3.3603437124789

> <r_i_glide_hbond>
0

> <r_i_glide_metal>
0

> <r_i_glide_rewards>
-2.25254428824818

> <r_i_glide_evdw>
-29.2302074432373

> <r_i_glide_ecoul>
-1.26643133163452

> <r_i_glide_erotb>
0

> <r_i_glide_esite>
0

> <r_i_glide_emodel>
-43.6719181208596

> <r_i_glide_energy>
-30.4966387748718

> <r_i_glide_einternal>
0

> <i_i_glide_confnum>
2

> <i_i_glide_posenum>
311

> <r_i_glide_eff_state_penalty>
0

> <s_user_duplicate_titles>
CHEMBL220_lig523,96220

> <s_m_subgroup_title>
dock_pv

> <s_m_subgroupid>
dock_pv

> <b_m_subgroup_collapsed>
0

$$$$
CHEMBL220_lig1023
                    3D
 Schrodinger Suite 2021-1.
 29 31  0  0  1  0            999 V2000
    5.9430   69.4100   64.1957 N   0  0  0  0  0  0
    4.8474   68.9085   63.5561 C   0  0  0  0  0  0
    3.7574   68.9663   64.4051 C   0  0  0  0  0  0
    4.2340   69.5129   65.6443 C   0  0  0  0  0  0
    5.6205   69.7864   65.4759 C   0  0  0  0  0  0
    3.6404   69.8180   66.8736 C   0  0  0  0  0  0
    3.5429   67.7080   61.8840 N   0  0  2  0  0  0
    6.4060   70.3405   66.4882 C   0  0  0  0  0  0
    4.8123   68.3990   62.1262 C   0  0  0  0  0  0
    4.4004   70.4671   67.8648 C   0  0  0  0  0  0
    2.3843   68.5096   63.9320 C   0  0  0  0  0  0
    5.7558   70.7042   67.6626 C   0  0  0  0  0  0
    3.8949   70.8840   69.0726 O   0  0  0  0  0  0
    2.3847   68.4598   62.3795 C   0  0  0  0  0  0
    2.5610   70.5243   69.3886 C   0  0  0  0  0  0
    6.8594   69.4871   63.7671 H   0  0  0  0  0  0
    2.5905   69.6154   67.0106 H   0  0  0  0  0  0
    3.5907   66.8243   62.3651 H   0  0  0  0  0  0
    7.4656   70.5080   66.3680 H   0  0  0  0  0  0
    4.8802   69.2376   61.4318 H   0  0  0  0  0  0
    5.6610   67.7492   61.9112 H   0  0  0  0  0  0
    2.0979   67.5428   64.3481 H   0  0  0  0  0  0
    1.5989   69.1890   64.2613 H   0  0  0  0  0  0
    6.3240   71.1714   68.4530 H   0  0  0  0  0  0
    2.4027   69.4716   61.9714 H   0  0  0  0  0  0
    1.4599   68.0123   62.0124 H   0  0  0  0  0  0
    2.3429   70.9263   70.3680 H   0  0  0  0  0  0
    2.4223   69.4424   69.4311 H   0  0  0  0  0  0
    1.8383   70.9562   68.6949 H   0  0  0  0  0  0
  1  2  1  0  0  0
  1  5  1  0  0  0
  1 16  1  0  0  0
  2  3  2  0  0  0
  2  9  1  0  0  0
  3 11  1  0  0  0
  3  4  1  0  0  0
  4  5  1  0  0  0
  4  6  2  0  0  0
  5  8  2  0  0  0
  6 10  1  0  0  0
  6 17  1  0  0  0
  7  9  1  0  0  0
  7 14  1  0  0  0
  7 18  1  0  0  0
  8 12  1  0  0  0
  8 19  1  0  0  0
  9 20  1  0  0  0
  9 21  1  0  0  0
 10 12  2  0  0  0
 10 13  1  0  0  0
 11 14  1  0  0  0
 11 22  1  0  0  0
 11 23  1  0  0  0
 12 24  1  0  0  0
 13 15  1  0  0  0
 14 25  1  0  0  0
 14 26  1  0  0  0
 15 27  1  0  0  0
 15 28  1  0  0  0
 15 29  1  0  0  0
M  END
> <s_m_entry_id>
8707

> <s_m_entry_name>
dock_pv.217

> <s_m_Source_Path>
/home/csk/Desktop/cluster/DUD-E-result/aces

> <s_m_Source_File>
dock_pv.maegz

> <i_m_Source_File_Index>
217

> <chembl_id>
CHEMBL266084

> <chembl_pref_name>
None

> <i_lp_mmshare_version>
53161

> <i_f3d_flags>
0

> <r_lp_tautomer_probability>
1

> <s_lp_Force_Field>
OPLS_2005

> <r_lp_Energy>
18.246405

> <b_lp_Chiralities_Consistent>
1

> <s_lp_Variant>
CHEMBL220_lig1023-1

> <s_i_glide_gridfile>
glide-grid_1e66

> <i_i_glide_lignum>
1421

> <i_i_glide_rotatable_bonds>
1

> <r_i_docking_score>
-7.25971362908544

> <r_i_glide_ligand_efficiency>
-0.483980908605696

> <r_i_glide_ligand_efficiency_sa>
-1.19359955947136

> <r_i_glide_ligand_efficiency_ln>
-1.95782506583312

> <r_i_glide_gscore>
-7.25971362908544

> <r_i_glide_lipo>
-2.53711664911563

> <r_i_glide_hbond>
-0.268860760038109

> <r_i_glide_metal>
0

> <r_i_glide_rewards>
-2.76714968337142

> <r_i_glide_evdw>
-24.0294055938721

> <r_i_glide_ecoul>
-3.15633916854858

> <r_i_glide_erotb>
0

> <r_i_glide_esite>
-0.0116653815843976

> <r_i_glide_emodel>
-39.9503752916804

> <r_i_glide_energy>
-27.1857447624207

> <r_i_glide_einternal>
0.00151295633986592

> <i_i_glide_confnum>
2

> <i_i_glide_posenum>
186

> <r_i_glide_eff_state_penalty>
0

> <s_user_duplicate_titles>
CHEMBL220_lig1023

> <s_m_subgroup_title>
dock_pv

> <s_m_subgroupid>
dock_pv

> <b_m_subgroup_collapsed>
0

$$$$
CHEMBL220_lig793
                    3D
 Schrodinger Suite 2021-1.
 62 64  0  0  1  0            999 V2000
    4.5067   67.0119   63.0468 C   0  0  0  0  0  0
    1.9429   60.6775   70.5508 C   0  0  0  0  0  0
    3.2787   67.3462   63.4971 O   0  0  0  0  0  0
    1.7778   61.9113   70.0037 O   0  0  0  0  0  0
    3.1676   68.6926   63.4553 C   0  0  0  0  0  0
    0.7579   62.5240   70.6600 C   0  0  0  0  0  0
    5.2221   68.1672   62.7681 C   0  0  0  0  0  0
    1.0088   60.5054   71.5664 C   0  0  0  0  0  0
    4.3685   69.2394   63.0325 C   0  0  0  0  0  0
    0.2708   61.6828   71.6448 C   0  0  0  0  0  0
    4.7405   65.5434   62.8014 C   0  0  0  0  0  0
    3.0013   59.7929   69.9037 C   0  0  0  0  0  0
    0.4367   68.1085   63.7015 S   0  0  0  0  0  0
    1.6962   65.1169   70.2738 S   0  0  0  0  0  0
    4.0527   59.3082   70.8070 N   0  0  0  0  0  0
    4.7445   64.6651   63.9742 N   0  0  0  0  0  0
    0.3646   67.1558   68.8941 C   0  0  0  0  0  0
   -0.3605   68.1243   66.3792 C   0  0  0  0  0  0
    1.8416   69.2621   63.8777 C   0  0  0  0  0  0
    0.3576   63.8952   70.1856 C   0  0  0  0  0  0
    0.9977   68.2826   68.3677 C   0  0  0  0  0  0
    0.6152   68.7838   67.1309 C   0  0  0  0  0  0
   -0.6610   66.5396   68.1795 C   0  0  0  0  0  0
   -1.0096   67.0102   66.9172 C   0  0  0  0  0  0
   -0.7428   68.6289   64.9935 C   0  0  0  0  0  0
    0.7462   66.6693   70.2844 C   0  0  0  0  0  0
    4.7767   60.3897   71.4748 C   0  0  0  0  0  0
    3.5424   58.3345   71.7726 C   0  0  0  0  0  0
    3.4472   64.5774   64.6446 C   0  0  0  0  0  0
    5.1433   63.3173   63.5681 C   0  0  0  0  0  0
    6.2236   68.2275   62.3631 H   0  0  0  0  0  0
    0.8590   59.6235   72.1705 H   0  0  0  0  0  0
    4.5913   70.2901   62.9084 H   0  0  0  0  0  0
   -0.5493   61.8884   72.3179 H   0  0  0  0  0  0
    5.7319   65.4834   62.3678 H   0  0  0  0  0  0
    4.0190   65.1802   62.0683 H   0  0  0  0  0  0
    2.5268   58.9357   69.4235 H   0  0  0  0  0  0
    3.4916   60.3415   69.0995 H   0  0  0  0  0  0
    1.9431   69.6317   64.8902 H   0  0  0  0  0  0
    1.5963   70.1086   63.2422 H   0  0  0  0  0  0
   -0.4570   64.2493   70.8119 H   0  0  0  0  0  0
   -0.0297   63.8532   69.1692 H   0  0  0  0  0  0
    1.7563   68.8019   68.9369 H   0  0  0  0  0  0
    1.0758   69.6938   66.7801 H   0  0  0  0  0  0
   -1.1950   65.7083   68.6057 H   0  0  0  0  0  0
   -1.7918   66.5085   66.3670 H   0  0  0  0  0  0
   -0.8571   69.7072   65.0070 H   0  0  0  0  0  0
   -1.7230   68.2381   64.7196 H   0  0  0  0  0  0
    1.3645   67.4228   70.7677 H   0  0  0  0  0  0
   -0.1444   66.5686   70.9064 H   0  0  0  0  0  0
    5.6169   59.9960   72.0478 H   0  0  0  0  0  0
    5.1806   61.0964   70.7494 H   0  0  0  0  0  0
    4.1350   60.9442   72.1617 H   0  0  0  0  0  0
    4.3430   57.9114   72.3681 H   0  0  0  0  0  0
    2.8456   58.7812   72.4778 H   0  0  0  0  0  0
    3.0392   57.5075   71.2702 H   0  0  0  0  0  0
    3.1465   65.5374   65.0638 H   0  0  0  0  0  0
    3.4967   63.8794   65.4819 H   0  0  0  0  0  0
    2.6612   64.2352   63.9703 H   0  0  0  0  0  0
    6.1493   63.3111   63.1479 H   0  0  0  0  0  0
    5.1603   62.6449   64.4225 H   0  0  0  0  0  0
    4.4624   62.8956   62.8265 H   0  0  0  0  0  0
  1  3  1  0  0  0
  1  7  2  0  0  0
  1 11  1  0  0  0
  2  4  1  0  0  0
  2 12  1  0  0  0
  2  8  2  0  0  0
  3  5  1  0  0  0
  4  6  1  0  0  0
  5 19  1  0  0  0
  5  9  2  0  0  0
  6 20  1  0  0  0
  6 10  2  0  0  0
  7  9  1  0  0  0
  7 31  1  0  0  0
  8 10  1  0  0  0
  8 32  1  0  0  0
  9 33  1  0  0  0
 10 34  1  0  0  0
 11 16  1  0  0  0
 11 35  1  0  0  0
 11 36  1  0  0  0
 12 15  1  0  0  0
 12 37  1  0  0  0
 12 38  1  0  0  0
 13 19  1  0  0  0
 13 25  1  0  0  0
 14 26  1  0  0  0
 14 20  1  0  0  0
 15 27  1  0  0  0
 15 28  1  0  0  0
 16 29  1  0  0  0
 16 30  1  0  0  0
 17 23  2  0  0  0
 17 26  1  0  0  0
 17 21  1  0  0  0
 18 25  1  0  0  0
 18 22  1  0  0  0
 18 24  2  0  0  0
 19 39  1  0  0  0
 19 40  1  0  0  0
 20 41  1  0  0  0
 20 42  1  0  0  0
 21 22  2  0  0  0
 21 43  1  0  0  0
 22 44  1  0  0  0
 23 24  1  0  0  0
 23 45  1  0  0  0
 24 46  1  0  0  0
 25 47  1  0  0  0
 25 48  1  0  0  0
 26 49  1  0  0  0
 26 50  1  0  0  0
 27 51  1  0  0  0
 27 52  1  0  0  0
 27 53  1  0  0  0
 28 54  1  0  0  0
 28 55  1  0  0  0
 28 56  1  0  0  0
 29 57  1  0  0  0
 29 58  1  0  0  0
 29 59  1  0  0  0
 30 60  1  0  0  0
 30 61  1  0  0  0
 30 62  1  0  0  0
M  END
> <s_m_entry_id>
8708

> <s_m_entry_name>
dock_pv.218

> <s_m_Source_Path>
/home/csk/Desktop/cluster/DUD-E-result/aces

> <s_m_Source_File>
dock_pv.maegz

> <i_m_Source_File_Index>
218

> <chembl_id>
CHEMBL12472

> <chembl_pref_name>
None

> <i_lp_mmshare_version>
53161

> <i_f3d_flags>
0

> <r_lp_tautomer_probability>
1

> <s_lp_Force_Field>
OPLS_2005

> <r_lp_Energy>
5.497441

> <b_lp_Chiralities_Consistent>
1

> <s_lp_Variant>
CHEMBL220_lig793-1

> <s_i_glide_gridfile>
glide-grid_1e66

> <i_i_glide_lignum>
975

> <i_i_glide_rotatable_bonds>
12

> <r_i_docking_score>
-7.25872150921899

> <r_i_glide_ligand_efficiency>
-0.241957383640633

> <r_i_glide_ligand_efficiency_sa>
-0.751817846651363

> <r_i_glide_ligand_efficiency_ln>
-1.64926061700002

> <r_i_glide_gscore>
-7.25872150921899

> <r_i_glide_lipo>
-4.21639561099518

> <r_i_glide_hbond>
-0.0297805768037407

> <r_i_glide_metal>
0

> <r_i_glide_rewards>
-1.27735172727273

> <r_i_glide_evdw>
-52.8813133239746

> <r_i_glide_ecoul>
-0.685046136379242

> <r_i_glide_erotb>
1.01162899250827

> <r_i_glide_esite>
0

> <r_i_glide_emodel>
-71.6684313276867

> <r_i_glide_energy>
-53.5663594603539

> <r_i_glide_einternal>
12.0295190811157

> <i_i_glide_confnum>
121

> <i_i_glide_posenum>
270

> <r_i_glide_eff_state_penalty>
0

> <s_user_duplicate_titles>
CHEMBL220_lig793,11507

> <s_m_subgroup_title>
dock_pv

> <s_m_subgroupid>
dock_pv

> <b_m_subgroup_collapsed>
0

$$$$
CHEMBL220_lig365
                    3D
 Schrodinger Suite 2021-1.
 48 51  0  0  1  0            999 V2000
    0.4076   68.1413   65.8356 C   0  0  0  0  0  0
    2.2312   68.6874   64.1280 C   0  0  0  0  0  0
    0.8787   68.4661   64.6058 C   0  0  0  0  0  0
    3.3882   69.2150   64.8174 C   0  0  0  0  0  0
    3.9802   68.7643   62.6875 N   0  0  0  0  0  0
    2.6507   68.4715   62.8254 C   0  0  0  0  0  0
    0.6944   66.8647   68.0647 N   0  0  2  0  0  0
   -1.0611   68.1080   66.0007 C   0  0  0  0  0  0
    1.2457   67.8327   67.0974 C   0  0  0  0  0  0
    4.4681   69.2196   63.8886 C   0  0  0  0  0  0
   -1.5974   67.2956   67.1703 C   0  0  0  0  0  0
    3.6375   69.7080   66.1108 C   0  0  0  0  0  0
   -1.8506   68.6364   65.2178 O   0  0  0  0  0  0
   -0.6468   67.3080   68.3680 C   0  0  0  0  0  0
    1.4102   66.7978   69.3657 C   0  0  0  0  0  0
    5.7424   69.6515   64.2348 C   0  0  0  0  0  0
    4.9124   70.1079   66.4904 C   0  0  0  0  0  0
    5.9430   70.0802   65.5490 C   0  0  0  0  0  0
    1.6235   65.3692   69.8840 C   0  0  0  0  0  0
    5.0497   70.5138   67.8031 O   0  0  0  0  0  0
    2.8801   64.9906   70.3680 C   0  0  0  0  0  0
    0.5593   64.4612   69.9680 C   0  0  0  0  0  0
    6.3460   70.7642   68.3324 C   0  0  0  0  0  0
    3.0883   63.7078   70.8671 C   0  0  0  0  0  0
    0.7627   63.1787   70.4703 C   0  0  0  0  0  0
    2.0288   62.8055   70.9134 C   0  0  0  0  0  0
    0.1676   68.6204   63.8027 H   0  0  0  0  0  0
    4.4848   68.6677   61.8151 H   0  0  0  0  0  0
    2.0964   68.1087   61.9705 H   0  0  0  0  0  0
    2.2327   67.5160   66.7671 H   0  0  0  0  0  0
    1.3384   68.7791   67.6307 H   0  0  0  0  0  0
   -1.7140   66.2706   66.8204 H   0  0  0  0  0  0
   -2.5935   67.6555   67.4291 H   0  0  0  0  0  0
    2.8511   69.8165   66.8306 H   0  0  0  0  0  0
   -0.4570   68.3078   68.7680 H   0  0  0  0  0  0
   -1.0958   66.7017   69.1551 H   0  0  0  0  0  0
    0.8802   67.3168   70.1686 H   0  0  0  0  0  0
    2.3430   67.3522   69.3508 H   0  0  0  0  0  0
    6.5404   69.6566   63.5092 H   0  0  0  0  0  0
    6.9326   70.4137   65.8213 H   0  0  0  0  0  0
    3.7017   65.6922   70.3657 H   0  0  0  0  0  0
   -0.4236   64.7298   69.6154 H   0  0  0  0  0  0
    6.2775   70.8411   69.4176 H   0  0  0  0  0  0
    7.0520   69.9640   68.1053 H   0  0  0  0  0  0
    6.7434   71.7081   67.9680 H   0  0  0  0  0  0
    4.0644   63.4201   71.2289 H   0  0  0  0  0  0
   -0.0578   62.4769   70.5128 H   0  0  0  0  0  0
    2.1867   61.8112   71.3048 H   0  0  0  0  0  0
  1  3  2  0  0  0
  1  8  1  0  0  0
  1  9  1  0  0  0
  2  3  1  0  0  0
  2  4  1  0  0  0
  2  6  2  0  0  0
  3 27  1  0  0  0
  4 10  2  0  0  0
  4 12  1  0  0  0
  5  6  1  0  0  0
  5 10  1  0  0  0
  5 28  1  0  0  0
  6 29  1  0  0  0
  7  9  1  0  0  0
  7 14  1  0  0  0
  7 15  1  0  0  0
  8 11  1  0  0  0
  8 13  2  0  0  0
  9 30  1  0  0  0
  9 31  1  0  0  0
 10 16  1  0  0  0
 11 14  1  0  0  0
 11 32  1  0  0  0
 11 33  1  0  0  0
 12 17  2  0  0  0
 12 34  1  0  0  0
 14 35  1  0  0  0
 14 36  1  0  0  0
 15 19  1  0  0  0
 15 37  1  0  0  0
 15 38  1  0  0  0
 16 18  2  0  0  0
 16 39  1  0  0  0
 17 18  1  0  0  0
 17 20  1  0  0  0
 18 40  1  0  0  0
 19 21  1  0  0  0
 19 22  2  0  0  0
 20 23  1  0  0  0
 21 24  2  0  0  0
 21 41  1  0  0  0
 22 25  1  0  0  0
 22 42  1  0  0  0
 23 43  1  0  0  0
 23 44  1  0  0  0
 23 45  1  0  0  0
 24 26  1  0  0  0
 24 46  1  0  0  0
 25 26  2  0  0  0
 25 47  1  0  0  0
 26 48  1  0  0  0
M  END
> <s_m_entry_id>
8709

> <s_m_entry_name>
dock_pv.219

> <s_m_Source_Path>
/home/csk/Desktop/cluster/DUD-E-result/aces

> <s_m_Source_File>
dock_pv.maegz

> <i_m_Source_File_Index>
219

> <chembl_id>
CHEMBL340216

> <chembl_pref_name>
None

> <i_lp_mmshare_version>
53161

> <i_f3d_flags>
0

> <r_lp_tautomer_probability>
1

> <s_lp_Force_Field>
OPLS_2005

> <r_lp_Energy>
22.032429

> <b_lp_Chiralities_Consistent>
1

> <s_lp_Variant>
CHEMBL220_lig365-1

> <s_i_glide_gridfile>
glide-grid_1e66

> <i_i_glide_lignum>
421

> <i_i_glide_rotatable_bonds>
4

> <r_i_docking_score>
-7.25470842353641

> <r_i_glide_ligand_efficiency>
-0.279027247059093

> <r_i_glide_ligand_efficiency_sa>
-0.826617121493361

> <r_i_glide_ligand_efficiency_ln>
-1.70374446862759

> <r_i_glide_gscore>
-7.25470842353641

> <r_i_glide_lipo>
-4.17606933820778

> <r_i_glide_hbond>
0

> <r_i_glide_metal>
0

> <r_i_glide_rewards>
-2.2063971729679

> <r_i_glide_evdw>
-36.4646415710449

> <r_i_glide_ecoul>
3.17150235176086

> <r_i_glide_erotb>
0.47526481342739

> <r_i_glide_esite>
0

> <r_i_glide_emodel>
-43.7720366989283

> <r_i_glide_energy>
-33.2931392192841

> <r_i_glide_einternal>
8.40921306610107

> <i_i_glide_confnum>
12

> <i_i_glide_posenum>
339

> <r_i_glide_eff_state_penalty>
0

> <s_user_duplicate_titles>
CHEMBL220_lig365

> <s_m_subgroup_title>
dock_pv

> <s_m_subgroupid>
dock_pv

> <b_m_subgroup_collapsed>
0

$$$$
CHEMBL220_lig81
                    3D
 Schrodinger Suite 2021-1.
 68 72  0  0  1  0            999 V2000
    3.8099   70.1080   67.5679 C   0  0  0  0  0  0
    4.7573   70.7443   68.4045 C   0  0  0  0  0  0
    6.0651   70.9246   67.9681 C   0  0  0  0  0  0
    6.4445   70.5059   66.6986 C   0  0  0  0  0  0
    5.5221   69.9250   65.8354 C   0  0  0  0  0  0
    4.1741   69.7080   66.2504 C   0  0  0  0  0  0
    3.1704   69.1036   65.4286 C   0  0  0  0  0  0
    3.5002   68.8209   64.0848 N   0  0  0  0  0  0
    3.2845   67.5055   63.5010 C   0  0  0  0  0  0
    4.4887   66.5548   63.5790 C   0  0  0  0  0  0
    4.1227   65.1982   62.9463 C   0  0  0  0  0  0
    4.9672   63.9799   63.3049 C   0  0  0  0  0  0
    4.9213   63.5572   64.7706 C   0  0  0  0  0  0
    3.5430   63.2106   65.3734 C   0  0  0  0  0  0
    3.3566   62.9080   66.9113 C   0  0  0  0  0  0
    3.6183   64.1081   67.6658 N   0  0  1  0  0  0
    2.8644   64.4487   68.8823 C   0  0  0  0  0  0
    2.9225   63.3613   69.8840 C   0  0  0  0  0  0
    1.9729   62.6084   70.5582 C   0  0  0  0  0  0
    2.7155   61.7453   71.4112 C   0  0  0  0  0  0
    4.0681   62.0646   71.1424 C   0  0  0  0  0  0
    4.1895   63.0436   70.2329 O   0  0  0  0  0  0
    5.1429   61.4532   71.7508 C   0  0  0  0  0  0
    4.8240   60.5080   72.6963 C   0  0  0  0  0  0
    3.5136   60.1415   73.0095 C   0  0  0  0  0  0
    2.4345   60.7511   72.3616 C   0  0  0  0  0  0
    1.8726   68.8899   65.9633 C   0  0  0  0  0  0
    1.6304   69.2889   67.2981 C   0  0  0  0  0  0
    0.2606   69.1389   67.9680 C   0  0  0  0  0  0
   -0.7562   68.3082   67.1690 C   0  0  0  0  0  0
   -0.6768   68.6488   65.6826 C   0  0  0  0  0  0
    0.7148   68.2749   65.1512 C   0  0  0  0  0  0
    2.5736   69.8802   68.0669 N   0  0  0  0  0  0
    4.4643   71.0470   69.3991 H   0  0  0  0  0  0
    6.7908   71.3848   68.6228 H   0  0  0  0  0  0
    7.4660   70.6307   66.3701 H   0  0  0  0  0  0
    5.8479   69.6225   64.8510 H   0  0  0  0  0  0
    4.3323   69.2823   63.7462 H   0  0  0  0  0  0
    2.9783   67.6384   62.4626 H   0  0  0  0  0  0
    2.4500   66.9962   63.9679 H   0  0  0  0  0  0
    4.7735   66.4424   64.6225 H   0  0  0  0  0  0
    5.3517   66.9923   63.0746 H   0  0  0  0  0  0
    4.0455   65.3195   61.8682 H   0  0  0  0  0  0
    3.1430   64.9080   63.2780 H   0  0  0  0  0  0
    6.0041   64.1589   63.0512 H   0  0  0  0  0  0
    4.6416   63.1269   62.7074 H   0  0  0  0  0  0
    5.4052   64.3205   65.3715 H   0  0  0  0  0  0
    5.5430   62.6643   64.7680 H   0  0  0  0  0  0
    3.2047   62.3794   64.7618 H   0  0  0  0  0  0
    2.8421   64.0149   65.1532 H   0  0  0  0  0  0
    3.9766   62.1431   67.3505 H   0  0  0  0  0  0
    2.3704   62.5080   67.1540 H   0  0  0  0  0  0
    4.6068   64.2056   67.8675 H   0  0  0  0  0  0
    1.8447   64.8051   68.7680 H   0  0  0  0  0  0
    3.3707   65.3079   69.3206 H   0  0  0  0  0  0
    0.9016   62.6893   70.4466 H   0  0  0  0  0  0
    6.1660   61.7080   71.5247 H   0  0  0  0  0  0
    5.6802   60.1080   73.1680 H   0  0  0  0  0  0
    3.3350   59.3860   73.7622 H   0  0  0  0  0  0
    1.4163   60.4784   72.5977 H   0  0  0  0  0  0
   -0.1479   70.1366   68.1394 H   0  0  0  0  0  0
    0.3822   68.6825   68.9496 H   0  0  0  0  0  0
   -1.7640   68.4869   67.5481 H   0  0  0  0  0  0
   -0.5625   67.2434   67.3132 H   0  0  0  0  0  0
   -0.8780   69.7080   65.5298 H   0  0  0  0  0  0
   -1.4467   68.1080   65.1306 H   0  0  0  0  0  0
    0.7792   68.5570   64.0997 H   0  0  0  0  0  0
    0.7912   67.1881   65.2035 H   0  0  0  0  0  0
  1  2  2  0  0  0
  1  6  1  0  0  0
  1 33  1  0  0  0
  2  3  1  0  0  0
  2 34  1  0  0  0
  3  4  2  0  0  0
  3 35  1  0  0  0
  4  5  1  0  0  0
  4 36  1  0  0  0
  5  6  2  0  0  0
  5 37  1  0  0  0
  6  7  1  0  0  0
  7  8  1  0  0  0
  7 27  2  0  0  0
  8  9  1  0  0  0
  8 38  1  0  0  0
  9 10  1  0  0  0
  9 39  1  0  0  0
  9 40  1  0  0  0
 10 11  1  0  0  0
 10 41  1  0  0  0
 10 42  1  0  0  0
 11 12  1  0  0  0
 11 43  1  0  0  0
 11 44  1  0  0  0
 12 13  1  0  0  0
 12 45  1  0  0  0
 12 46  1  0  0  0
 13 14  1  0  0  0
 13 47  1  0  0  0
 13 48  1  0  0  0
 14 15  1  0  0  0
 14 49  1  0  0  0
 14 50  1  0  0  0
 15 16  1  0  0  0
 15 51  1  0  0  0
 15 52  1  0  0  0
 16 17  1  0  0  0
 16 53  1  0  0  0
 17 18  1  0  0  0
 17 54  1  0  0  0
 17 55  1  0  0  0
 18 19  2  0  0  0
 18 22  1  0  0  0
 19 20  1  0  0  0
 19 56  1  0  0  0
 20 21  2  0  0  0
 20 26  1  0  0  0
 21 22  1  0  0  0
 21 23  1  0  0  0
 23 24  2  0  0  0
 23 57  1  0  0  0
 24 25  1  0  0  0
 24 58  1  0  0  0
 25 26  2  0  0  0
 25 59  1  0  0  0
 26 60  1  0  0  0
 27 28  1  0  0  0
 27 32  1  0  0  0
 28 29  1  0  0  0
 28 33  2  0  0  0
 29 30  1  0  0  0
 29 61  1  0  0  0
 29 62  1  0  0  0
 30 31  1  0  0  0
 30 63  1  0  0  0
 30 64  1  0  0  0
 31 32  1  0  0  0
 31 65  1  0  0  0
 31 66  1  0  0  0
 32 67  1  0  0  0
 32 68  1  0  0  0
M  END
> <s_m_entry_id>
8710

> <s_m_entry_name>
dock_pv.220

> <s_m_Source_Path>
/home/csk/Desktop/cluster/DUD-E-result/aces

> <s_m_Source_File>
dock_pv.maegz

> <i_m_Source_File_Index>
220

> <chembl_id>
CHEMBL3752467

> <chembl_pref_name>
None

> <i_lp_mmshare_version>
53161

> <i_f3d_flags>
0

> <r_lp_tautomer_probability>
1

> <s_lp_Force_Field>
OPLS_2005

> <r_lp_Energy>
30.071625

> <b_lp_Chiralities_Consistent>
1

> <s_lp_Variant>
CHEMBL220_lig81-1

> <s_i_glide_gridfile>
glide-grid_1e66

> <i_i_glide_lignum>
90

> <i_i_glide_rotatable_bonds>
11

> <r_i_docking_score>
-7.24564886404956

> <r_i_glide_ligand_efficiency>
-0.219565117092411

> <r_i_glide_ligand_efficiency_sa>
-0.704262649922641

> <r_i_glide_ligand_efficiency_ln>
-1.61139479140261

> <r_i_glide_gscore>
-7.24564886404956

> <r_i_glide_lipo>
-4.97119137565787

> <r_i_glide_hbond>
-0.222532949729697

> <r_i_glide_metal>
0

> <r_i_glide_rewards>
-1.29812931818182

> <r_i_glide_evdw>
-22.3708648681641

> <r_i_glide_ecoul>
-3.71439337730408

> <r_i_glide_erotb>
0.921907029523642

> <r_i_glide_esite>
0

> <r_i_glide_emodel>
-27.9964952652431

> <r_i_glide_energy>
-26.0852582454681

> <r_i_glide_einternal>
17.1407737731934

> <i_i_glide_confnum>
9

> <i_i_glide_posenum>
241

> <r_i_glide_eff_state_penalty>
0

> <s_user_duplicate_titles>
CHEMBL220_lig81

> <s_m_subgroup_title>
dock_pv

> <s_m_subgroupid>
dock_pv

> <b_m_subgroup_collapsed>
0

$$$$
CHEMBL220_lig912
                    3D
 Schrodinger Suite 2021-1.
 42 44  0  0  1  0            999 V2000
    2.2392   68.3940   64.5277 C   0  0  0  0  0  0
    0.0265   68.1512   66.3504 C   0  0  2  0  0  0
    2.4067   68.9462   65.8279 C   0  0  0  0  0  0
    1.3361   68.8740   66.7677 C   0  0  0  0  0  0
    3.2503   68.6111   63.5812 C   0  0  0  0  0  0
   -0.1437   68.1080   64.9587 O   0  0  0  0  0  0
    3.6090   69.6040   66.2040 C   0  0  0  0  0  0
   -1.2678   68.8060   66.8674 C   0  0  0  0  0  0
    0.9724   67.5994   64.2378 C   0  0  0  0  0  0
    4.4266   69.2988   63.9342 C   0  0  0  0  0  0
    4.6242   69.7501   65.2369 C   0  0  0  0  0  0
    1.4565   69.3898   68.0166 N   0  0  0  0  0  0
    0.1089   66.9080   66.9189 O   0  0  0  0  0  0
    3.0613   68.1079   62.3122 O   0  0  0  0  0  0
    5.4016   69.5834   63.0135 O   0  0  0  0  0  0
    2.6160   69.9895   68.3736 C   0  0  0  0  0  0
   -2.5321   67.9126   66.6636 C   0  0  1  0  0  0
    3.7153   70.1080   67.5246 C   0  0  0  0  0  0
   -2.8570   67.3080   67.8956 O   0  0  0  0  0  0
   -3.6324   68.9514   64.7680 O   0  0  0  0  0  0
   -3.7664   68.6656   66.1399 C   0  0  0  0  0  0
    2.9813   69.0711   61.2669 C   0  0  0  0  0  0
    6.2294   68.4867   62.6740 C   0  0  0  0  0  0
   -1.3841   69.7453   66.3243 H   0  0  0  0  0  0
   -1.1533   69.0949   67.9139 H   0  0  0  0  0  0
    0.7213   67.6414   63.1777 H   0  0  0  0  0  0
    1.1319   66.5495   64.4882 H   0  0  0  0  0  0
    5.5322   70.2755   65.4947 H   0  0  0  0  0  0
   -0.7497   66.7284   67.3130 H   0  0  0  0  0  0
    2.6484   70.3774   69.3823 H   0  0  0  0  0  0
   -2.3198   67.1016   65.9680 H   0  0  0  0  0  0
    4.6181   70.6069   67.8447 H   0  0  0  0  0  0
   -3.7357   66.9080   67.7928 H   0  0  0  0  0  0
   -4.3284   68.5080   64.2573 H   0  0  0  0  0  0
   -4.6883   68.1080   66.2441 H   0  0  0  0  0  0
   -3.9247   69.5546   66.7351 H   0  0  0  0  0  0
    2.5754   68.5943   60.3749 H   0  0  0  0  0  0
    2.3201   69.9002   61.5260 H   0  0  0  0  0  0
    3.9590   69.4719   61.0003 H   0  0  0  0  0  0
    6.9861   68.8140   61.9680 H   0  0  0  0  0  0
    6.7430   68.1080   63.5552 H   0  0  0  0  0  0
    5.6728   67.6735   62.2065 H   0  0  0  0  0  0
  1  3  2  0  0  0
  1  5  1  0  0  0
  1  9  1  0  0  0
  2  6  1  0  0  0
  2  8  1  0  0  0
  2 13  1  0  0  0
  2  4  1  0  0  0
  3  4  1  0  0  0
  3  7  1  0  0  0
  4 12  2  0  0  0
  5 10  2  0  0  0
  5 14  1  0  0  0
  6  9  1  0  0  0
  7 18  1  0  0  0
  7 11  2  0  0  0
  8 17  1  0  0  0
  8 24  1  0  0  0
  8 25  1  0  0  0
  9 26  1  0  0  0
  9 27  1  0  0  0
 10 11  1  0  0  0
 10 15  1  0  0  0
 11 28  1  0  0  0
 12 16  1  0  0  0
 13 29  1  0  0  0
 14 22  1  0  0  0
 15 23  1  0  0  0
 16 18  2  0  0  0
 16 30  1  0  0  0
 17 19  1  0  0  0
 17 21  1  0  0  0
 17 31  1  0  0  0
 18 32  1  0  0  0
 19 33  1  0  0  0
 20 21  1  0  0  0
 20 34  1  0  0  0
 21 35  1  0  0  0
 21 36  1  0  0  0
 22 37  1  0  0  0
 22 38  1  0  0  0
 22 39  1  0  0  0
 23 40  1  0  0  0
 23 41  1  0  0  0
 23 42  1  0  0  0
M  END
> <s_m_entry_id>
8711

> <s_m_entry_name>
dock_pv.221

> <s_m_Source_Path>
/home/csk/Desktop/cluster/DUD-E-result/aces

> <s_m_Source_File>
dock_pv.maegz

> <i_m_Source_File_Index>
221

> <chembl_id>
CHEMBL196699

> <chembl_pref_name>
None

> <i_lp_mmshare_version>
53161

> <i_f3d_flags>
0

> <r_lp_tautomer_probability>
1

> <s_lp_Force_Field>
OPLS_2005

> <r_lp_Energy>
39.253315

> <b_lp_Chiralities_Consistent>
1

> <s_lp_Variant>
CHEMBL220_lig912-3

> <s_i_glide_gridfile>
glide-grid_1e66

> <i_i_glide_lignum>
1244

> <i_i_glide_rotatable_bonds>
8

> <r_i_docking_score>
-7.24524133073763

> <r_i_glide_ligand_efficiency>
-0.315010492640766

> <r_i_glide_ligand_efficiency_sa>
-0.895847937391542

> <r_i_glide_ligand_efficiency_ln>
-1.75196504998854

> <r_i_glide_gscore>
-7.24524133073763

> <r_i_glide_lipo>
-3.08402812005573

> <r_i_glide_hbond>
-0.304

> <r_i_glide_metal>
0

> <r_i_glide_rewards>
-1.70965208987214

> <r_i_glide_evdw>
-32.5953407287598

> <r_i_glide_ecoul>
-7.07133865356445

> <r_i_glide_erotb>
0.542906713662895

> <r_i_glide_esite>
0

> <r_i_glide_emodel>
-47.7792597774324

> <r_i_glide_energy>
-39.6666793823242

> <r_i_glide_einternal>
14.8043098449707

> <i_i_glide_confnum>
25

> <i_i_glide_posenum>
212

> <r_i_glide_eff_state_penalty>
0

> <s_user_duplicate_titles>
CHEMBL220_lig912

> <s_m_subgroup_title>
dock_pv

> <s_m_subgroupid>
dock_pv

> <b_m_subgroup_collapsed>
0

$$$$
CHEMBL220_lig781
                    3D
 Schrodinger Suite 2021-1.
 66 67  0  0  1  0            999 V2000
   -1.6855   68.5370   67.1354 N   0  0  0  0  0  0
   -2.8876   68.5074   66.5644 C   0  0  0  0  0  0
   -0.6054   68.3849   66.4644 C   0  0  0  0  0  0
    4.8793   66.9833   62.9662 C   0  0  0  0  0  0
    2.0754   62.4260   71.4361 C   0  0  0  0  0  0
   -3.8775   68.5091   65.9679 N   0  0  0  0  0  0
    1.9830   63.7772   71.3698 O   0  0  0  0  0  0
    3.8893   67.2334   62.0701 O   0  0  0  0  0  0
    0.6795   64.1053   71.1936 C   0  0  0  0  0  0
    3.8292   68.5845   61.8952 C   0  0  0  0  0  0
    0.8066   61.8781   71.3218 C   0  0  0  0  0  0
    5.5305   68.1795   63.2421 C   0  0  0  0  0  0
   -0.0814   62.9450   71.1761 C   0  0  0  0  0  0
    4.8857   69.1891   62.5435 C   0  0  0  0  0  0
    3.4737   61.8480   71.5816 C   0  0  0  0  0  0
    5.1429   65.5440   63.3992 C   0  0  0  0  0  0
    0.6836   68.5060   67.0603 N   0  0  0  0  0  0
   -0.5357   68.1086   65.0568 N   0  0  0  0  0  0
    4.3432   62.0658   70.4165 N   0  0  0  0  0  0
    4.0238   64.6046   63.3620 N   0  0  0  0  0  0
    0.2390   66.1514   69.3508 S   0  0  0  0  0  0
    1.1599   69.3050   62.3254 S   0  0  0  0  0  0
    0.3872   65.5825   71.0769 C   0  0  0  0  0  0
    2.6075   69.1362   61.2144 C   0  0  0  0  0  0
    0.6344   67.4979   64.4353 C   0  0  0  0  0  0
    0.8533   68.8814   68.4520 C   0  0  0  0  0  0
    1.1887   67.7063   69.4026 C   0  0  0  0  0  0
    1.6207   68.5500   63.9400 C   0  0  0  0  0  0
    4.5039   63.2375   63.5642 C   0  0  0  0  0  0
    3.0944   64.8985   64.4456 C   0  0  0  0  0  0
    3.8025   61.4764   69.1944 C   0  0  0  0  0  0
    4.7107   63.4707   70.2244 C   0  0  0  0  0  0
    0.5536   60.8277   71.3364 H   0  0  0  0  0  0
    6.3658   68.3407   63.9062 H   0  0  0  0  0  0
   -1.1513   62.8728   71.0577 H   0  0  0  0  0  0
    5.1066   70.2464   62.5797 H   0  0  0  0  0  0
    3.4061   60.7736   71.7587 H   0  0  0  0  0  0
    3.9616   62.2602   72.4669 H   0  0  0  0  0  0
    5.9422   65.1565   62.7726 H   0  0  0  0  0  0
    5.5440   65.5464   64.4123 H   0  0  0  0  0  0
    1.4653   68.0514   66.6173 H   0  0  0  0  0  0
   -1.3962   67.7963   64.6281 H   0  0  0  0  0  0
   -0.4570   65.9072   71.6714 H   0  0  0  0  0  0
    1.2188   66.1082   71.5349 H   0  0  0  0  0  0
    2.3079   68.5073   60.3780 H   0  0  0  0  0  0
    2.8264   70.1060   60.7724 H   0  0  0  0  0  0
    1.0848   66.7913   65.1308 H   0  0  0  0  0  0
    0.3403   66.9157   63.5668 H   0  0  0  0  0  0
   -0.0442   69.4156   68.7715 H   0  0  0  0  0  0
    1.6587   69.6151   68.5096 H   0  0  0  0  0  0
    1.1716   68.0663   70.4189 H   0  0  0  0  0  0
    2.2309   67.4518   69.2836 H   0  0  0  0  0  0
    1.7423   69.3241   64.6870 H   0  0  0  0  0  0
    2.5911   68.0800   63.9284 H   0  0  0  0  0  0
    3.6688   62.5391   63.5866 H   0  0  0  0  0  0
    5.1735   62.9184   62.7668 H   0  0  0  0  0  0
    5.0375   63.1317   64.5096 H   0  0  0  0  0  0
    2.1999   64.2772   64.3716 H   0  0  0  0  0  0
    3.5414   64.7473   65.4297 H   0  0  0  0  0  0
    2.7867   65.9362   64.3813 H   0  0  0  0  0  0
    3.5894   60.4166   69.3380 H   0  0  0  0  0  0
    4.5148   61.5619   68.3745 H   0  0  0  0  0  0
    2.8801   61.9711   68.8839 H   0  0  0  0  0  0
    5.0552   63.9156   71.1566 H   0  0  0  0  0  0
    5.5207   63.5775   69.5057 H   0  0  0  0  0  0
    3.8740   64.0658   69.8576 H   0  0  0  0  0  0
  1  2  1  0  0  0
  1  3  2  0  0  0
  2  6  3  0  0  0
  3 17  1  0  0  0
  3 18  1  0  0  0
  4  8  1  0  0  0
  4 16  1  0  0  0
  4 12  2  0  0  0
  5  7  1  0  0  0
  5 15  1  0  0  0
  5 11  2  0  0  0
  7  9  1  0  0  0
  8 10  1  0  0  0
  9 23  1  0  0  0
  9 13  2  0  0  0
 10 24  1  0  0  0
 10 14  2  0  0  0
 11 13  1  0  0  0
 11 33  1  0  0  0
 12 14  1  0  0  0
 12 34  1  0  0  0
 13 35  1  0  0  0
 14 36  1  0  0  0
 15 19  1  0  0  0
 15 37  1  0  0  0
 15 38  1  0  0  0
 16 20  1  0  0  0
 16 39  1  0  0  0
 16 40  1  0  0  0
 17 26  1  0  0  0
 17 41  1  0  0  0
 18 25  1  0  0  0
 18 42  1  0  0  0
 19 31  1  0  0  0
 19 32  1  0  0  0
 20 29  1  0  0  0
 20 30  1  0  0  0
 21 27  1  0  0  0
 21 23  1  0  0  0
 22 28  1  0  0  0
 22 24  1  0  0  0
 23 43  1  0  0  0
 23 44  1  0  0  0
 24 45  1  0  0  0
 24 46  1  0  0  0
 25 28  1  0  0  0
 25 47  1  0  0  0
 25 48  1  0  0  0
 26 27  1  0  0  0
 26 49  1  0  0  0
 26 50  1  0  0  0
 27 51  1  0  0  0
 27 52  1  0  0  0
 28 53  1  0  0  0
 28 54  1  0  0  0
 29 55  1  0  0  0
 29 56  1  0  0  0
 29 57  1  0  0  0
 30 58  1  0  0  0
 30 59  1  0  0  0
 30 60  1  0  0  0
 31 61  1  0  0  0
 31 62  1  0  0  0
 31 63  1  0  0  0
 32 64  1  0  0  0
 32 65  1  0  0  0
 32 66  1  0  0  0
M  END
> <s_m_entry_id>
8712

> <s_m_entry_name>
dock_pv.222

> <s_m_Source_Path>
/home/csk/Desktop/cluster/DUD-E-result/aces

> <s_m_Source_File>
dock_pv.maegz

> <i_m_Source_File_Index>
222

> <chembl_id>
CHEMBL12858

> <chembl_pref_name>
None

> <i_lp_mmshare_version>
53161

> <i_f3d_flags>
0

> <r_lp_tautomer_probability>
1

> <s_lp_Force_Field>
OPLS_2005

> <r_lp_Energy>
11.288766

> <b_lp_Chiralities_Consistent>
1

> <s_lp_Variant>
CHEMBL220_lig781-1

> <s_i_glide_gridfile>
glide-grid_1e66

> <i_i_glide_lignum>
961

> <i_i_glide_rotatable_bonds>
16

> <r_i_docking_score>
-7.24415962934495

> <r_i_glide_ligand_efficiency>
-0.22637998841703

> <r_i_glide_ligand_efficiency_sa>
-0.718711662685195

> <r_i_glide_ligand_efficiency_ln>
-1.62216480934381

> <r_i_glide_gscore>
-7.24415962934495

> <r_i_glide_lipo>
-3.81310316387718

> <r_i_glide_hbond>
-0.190881447786314

> <r_i_glide_metal>
0

> <r_i_glide_rewards>
-1.33799086419375

> <r_i_glide_evdw>
-56.1581192016602

> <r_i_glide_ecoul>
-2.2170078754425

> <r_i_glide_erotb>
1.23827298791169

> <r_i_glide_esite>
0

> <r_i_glide_emodel>
-73.2083392483779

> <r_i_glide_energy>
-58.3751270771027

> <r_i_glide_einternal>
17.4296474456787

> <i_i_glide_confnum>
38

> <i_i_glide_posenum>
333

> <r_i_glide_eff_state_penalty>
0

> <s_user_duplicate_titles>
CHEMBL220_lig781,11558

> <s_m_subgroup_title>
dock_pv

> <s_m_subgroupid>
dock_pv

> <b_m_subgroup_collapsed>
0

$$$$
CHEMBL220_lig1153
                    3D
 Schrodinger Suite 2021-1.
 43 46  0  0  1  0            999 V2000
   -0.4554   68.9079   65.9809 N   0  0  2  0  0  0
   -0.3056   67.9914   64.8556 C   0  0  0  0  0  0
    0.9297   68.1046   63.9190 C   0  0  2  0  0  0
    2.3225   67.8431   64.5801 C   0  0  2  0  0  0
    2.6613   68.7594   65.7313 C   0  0  0  0  0  0
    1.9431   69.1420   66.8789 C   0  0  0  0  0  0
    0.4843   68.7596   67.0917 C   0  0  0  0  0  0
    2.6293   69.8329   67.8868 C   0  0  0  0  0  0
    3.9806   70.1584   67.7530 C   0  0  0  0  0  0
    4.6870   69.8051   66.5942 C   0  0  0  0  0  0
    3.9931   69.1243   65.5978 C   0  0  0  0  0  0
    4.5798   68.6624   64.4517 O   0  0  0  0  0  0
    3.5570   68.1023   63.6369 C   0  0  1  0  0  0
    2.3381   66.3985   65.0995 C   0  0  0  0  0  0
    3.2341   65.4527   64.7680 C   0  0  0  0  0  0
    4.4344   65.6886   63.8700 C   0  0  2  0  0  0
    4.1892   66.8811   62.9262 C   0  0  0  0  0  0
    6.0294   70.0399   66.3738 O   0  0  0  0  0  0
    3.3072   68.8548   62.8874 H   0  0  0  0  0  0
    4.7367   64.5076   63.1680 O   0  0  0  0  0  0
    6.8356   70.4417   67.4722 C   0  0  0  0  0  0
   -1.8415   69.0897   66.4063 C   0  0  0  0  0  0
    0.8729   69.3079   63.1679 O   0  0  0  0  0  0
   -1.1695   68.1170   64.2000 H   0  0  0  0  0  0
   -0.3740   66.9880   65.2709 H   0  0  0  0  0  0
    0.7714   67.3315   63.1670 H   0  0  0  0  0  0
    0.1196   69.3617   67.9270 H   0  0  0  0  0  0
    0.4642   67.7298   67.4514 H   0  0  0  0  0  0
    2.1118   70.1158   68.7936 H   0  0  0  0  0  0
    4.4642   70.6833   68.5618 H   0  0  0  0  0  0
    1.5669   66.1084   65.7988 H   0  0  0  0  0  0
    3.1317   64.4900   65.2452 H   0  0  0  0  0  0
    5.3050   65.9000   64.4864 H   0  0  0  0  0  0
    3.5430   66.5558   62.1195 H   0  0  0  0  0  0
    5.1166   67.1776   62.4333 H   0  0  0  0  0  0
    4.9166   63.8168   63.8123 H   0  0  0  0  0  0
    7.8699   70.5169   67.1432 H   0  0  0  0  0  0
    6.5348   71.4128   67.8671 H   0  0  0  0  0  0
    6.8070   69.7084   68.2764 H   0  0  0  0  0  0
   -1.9278   69.9175   67.1116 H   0  0  0  0  0  0
   -2.4886   69.3192   65.5589 H   0  0  0  0  0  0
   -2.2236   68.1890   66.8891 H   0  0  0  0  0  0
   -0.0173   69.4107   62.8230 H   0  0  0  0  0  0
  1  2  1  0  0  0
  1  7  1  0  0  0
  1 22  1  0  0  0
  2  3  1  0  0  0
  2 24  1  0  0  0
  2 25  1  0  0  0
  3  4  1  0  0  0
  3 23  1  0  0  0
  3 26  1  0  0  0
  4  5  1  0  0  0
  4 13  1  0  0  0
  4 14  1  0  0  0
  5  6  2  0  0  0
  5 11  1  0  0  0
  6  7  1  0  0  0
  6  8  1  0  0  0
  7 27  1  0  0  0
  7 28  1  0  0  0
  8  9  2  0  0  0
  8 29  1  0  0  0
  9 10  1  0  0  0
  9 30  1  0  0  0
 10 11  2  0  0  0
 10 18  1  0  0  0
 11 12  1  0  0  0
 12 13  1  0  0  0
 13 17  1  0  0  0
 13 19  1  0  0  0
 14 15  2  0  0  0
 14 31  1  0  0  0
 15 16  1  0  0  0
 15 32  1  0  0  0
 16 17  1  0  0  0
 16 20  1  0  0  0
 16 33  1  0  0  0
 17 34  1  0  0  0
 17 35  1  0  0  0
 18 21  1  0  0  0
 20 36  1  0  0  0
 21 37  1  0  0  0
 21 38  1  0  0  0
 21 39  1  0  0  0
 22 40  1  0  0  0
 22 41  1  0  0  0
 22 42  1  0  0  0
 23 43  1  0  0  0
M  END
> <s_m_entry_id>
8713

> <s_m_entry_name>
dock_pv.223

> <s_m_Source_Path>
/home/csk/Desktop/cluster/DUD-E-result/aces

> <s_m_Source_File>
dock_pv.maegz

> <i_m_Source_File_Index>
223

> <chembl_id>
CHEMBL251076

> <chembl_pref_name>
EPINORGALANTAMINE

> <i_lp_mmshare_version>
53161

> <i_f3d_flags>
0

> <r_lp_tautomer_probability>
1

> <s_lp_Force_Field>
OPLS_2005

> <r_lp_Energy>
54.446873

> <b_lp_Chiralities_Consistent>
1

> <s_lp_Variant>
CHEMBL220_lig1153-1

> <s_i_glide_gridfile>
glide-grid_1e66

> <i_i_glide_lignum>
1567

> <i_i_glide_rotatable_bonds>
3

> <r_i_docking_score>
-7.24073289755768

> <r_i_glide_ligand_efficiency>
-0.329124222616258

> <r_i_glide_ligand_efficiency_sa>
-0.922219015491929

> <r_i_glide_ligand_efficiency_ln>
-1.76989923231273

> <r_i_glide_gscore>
-7.24073289755768

> <r_i_glide_lipo>
-2.97699748503646

> <r_i_glide_hbond>
-0.32

> <r_i_glide_metal>
0

> <r_i_glide_rewards>
-1.7205804146956

> <r_i_glide_evdw>
-28.4641265869141

> <r_i_glide_ecoul>
-5.33299112319946

> <r_i_glide_erotb>
0

> <r_i_glide_esite>
0

> <r_i_glide_emodel>
-43.3570548335704

> <r_i_glide_energy>
-33.7971177101135

> <r_i_glide_einternal>
1.02464270591736

> <i_i_glide_confnum>
1

> <i_i_glide_posenum>
143

> <r_i_glide_eff_state_penalty>
0

> <s_user_duplicate_titles>
CHEMBL220_lig1153

> <s_m_subgroup_title>
dock_pv

> <s_m_subgroupid>
dock_pv

> <b_m_subgroup_collapsed>
0

$$$$
CHEMBL220_lig1188
                    3D
 Schrodinger Suite 2021-1.
 51 53  0  0  1  0            999 V2000
    4.3600   69.7190   66.2616 C   0  0  0  0  0  0
    4.0560   70.1080   67.5629 C   0  0  0  0  0  0
    2.7804   69.8887   68.0765 C   0  0  0  0  0  0
    3.3774   69.1675   65.4425 C   0  0  0  0  0  0
    2.0573   68.9586   65.9094 C   0  0  0  0  0  0
    1.7781   69.3169   67.2593 C   0  0  0  0  0  0
    0.5444   69.1941   67.7846 N   0  0  0  0  0  0
    0.9652   68.5080   65.0934 C   0  0  0  0  0  0
   -0.3352   68.5080   65.6331 C   0  0  0  0  0  0
   -0.4777   68.7982   66.9978 C   0  0  0  0  0  0
   -1.8375   68.7739   67.6569 C   0  0  0  0  0  0
   -2.9743   69.0528   66.7145 C   0  0  0  0  0  0
   -2.8862   68.1080   65.5679 C   0  0  0  0  0  0
   -1.6009   68.3732   64.7631 C   0  0  0  0  0  0
    1.1093   68.1079   63.7533 N   0  0  0  0  0  0
    0.7453   69.1218   62.7613 C   0  0  0  0  0  0
    1.9319   69.6906   61.9763 C   0  0  0  0  0  0
    2.5483   68.6528   61.0278 C   0  0  0  0  0  0
    4.0515   68.4184   61.1679 C   0  0  0  0  0  0
    4.4395   67.9050   62.4717 N   0  0  0  0  0  0
    4.4842   66.6083   62.7931 C   0  0  0  0  0  0
    4.7104   66.2590   64.2642 C   0  0  0  0  0  0
    4.3430   65.7104   61.9680 O   0  0  0  0  0  0
    5.2243   64.9175   64.3665 O   0  0  0  0  0  0
    4.2502   63.8904   64.2272 N   0  3  0  0  0  0
    4.7010   62.9080   63.6968 O   0  0  0  0  0  0
    3.1429   64.1148   64.6576 O   0  5  0  0  0  0
    5.3528   69.8923   65.8722 H   0  0  0  0  0  0
    4.8178   70.5582   68.1828 H   0  0  0  0  0  0
    2.5390   70.1737   69.0918 H   0  0  0  0  0  0
    3.5920   68.9618   64.4189 H   0  0  0  0  0  0
   -1.8642   69.5871   68.3680 H   0  0  0  0  0  0
   -1.9929   67.8108   68.1480 H   0  0  0  0  0  0
   -2.8570   70.0772   66.3681 H   0  0  0  0  0  0
   -3.9375   68.9080   67.2052 H   0  0  0  0  0  0
   -3.7735   68.2444   64.9493 H   0  0  0  0  0  0
   -2.9085   67.0902   65.9680 H   0  0  0  0  0  0
   -1.7486   69.3080   64.2511 H   0  0  0  0  0  0
   -1.4786   67.7080   63.9202 H   0  0  0  0  0  0
    0.4382   67.3590   63.6423 H   0  0  0  0  0  0
    0.1286   69.9240   63.1679 H   0  0  0  0  0  0
    0.0938   68.6133   62.0487 H   0  0  0  0  0  0
    2.6724   70.1079   62.6569 H   0  0  0  0  0  0
    1.5688   70.5080   61.3580 H   0  0  0  0  0  0
    2.3212   68.9080   59.9937 H   0  0  0  0  0  0
    2.0487   67.7080   61.1791 H   0  0  0  0  0  0
    4.5888   69.3566   61.0201 H   0  0  0  0  0  0
    4.3430   67.7285   60.3762 H   0  0  0  0  0  0
    4.6995   68.5945   63.1599 H   0  0  0  0  0  0
    3.7750   66.4090   64.8045 H   0  0  0  0  0  0
    5.4337   66.9499   64.6996 H   0  0  0  0  0  0
  1  2  2  0  0  0
  1  4  1  0  0  0
  1 28  1  0  0  0
  2  3  1  0  0  0
  2 29  1  0  0  0
  3  6  2  0  0  0
  3 30  1  0  0  0
  4  5  2  0  0  0
  4 31  1  0  0  0
  5  8  1  0  0  0
  5  6  1  0  0  0
  6  7  1  0  0  0
  7 10  2  0  0  0
  8 15  1  0  0  0
  8  9  2  0  0  0
  9 10  1  0  0  0
  9 14  1  0  0  0
 10 11  1  0  0  0
 11 12  1  0  0  0
 11 32  1  0  0  0
 11 33  1  0  0  0
 12 13  1  0  0  0
 12 34  1  0  0  0
 12 35  1  0  0  0
 13 14  1  0  0  0
 13 36  1  0  0  0
 13 37  1  0  0  0
 14 38  1  0  0  0
 14 39  1  0  0  0
 15 16  1  0  0  0
 15 40  1  0  0  0
 16 17  1  0  0  0
 16 41  1  0  0  0
 16 42  1  0  0  0
 17 18  1  0  0  0
 17 43  1  0  0  0
 17 44  1  0  0  0
 18 19  1  0  0  0
 18 45  1  0  0  0
 18 46  1  0  0  0
 19 20  1  0  0  0
 19 47  1  0  0  0
 19 48  1  0  0  0
 20 21  1  0  0  0
 20 49  1  0  0  0
 21 22  1  0  0  0
 21 23  2  0  0  0
 22 24  1  0  0  0
 22 50  1  0  0  0
 22 51  1  0  0  0
 24 25  1  0  0  0
 25 26  2  0  0  0
 25 27  1  0  0  0
M  CHG  2  25   1  27  -1
M  END
> <s_m_entry_id>
8714

> <s_m_entry_name>
dock_pv.224

> <s_m_Source_Path>
/home/csk/Desktop/cluster/DUD-E-result/aces

> <s_m_Source_File>
dock_pv.maegz

> <i_m_Source_File_Index>
224

> <chembl_id>
CHEMBL273078

> <chembl_pref_name>
None

> <i_lp_mmshare_version>
53161

> <i_f3d_flags>
0

> <r_lp_tautomer_probability>
1

> <s_lp_Force_Field>
OPLS_2005

> <r_lp_Energy>
21.535128

> <b_lp_Chiralities_Consistent>
1

> <s_lp_Variant>
CHEMBL220_lig1188-1

> <s_i_glide_gridfile>
glide-grid_1e66

> <i_i_glide_lignum>
1603

> <i_i_glide_rotatable_bonds>
10

> <r_i_docking_score>
-7.22797551747984

> <r_i_glide_ligand_efficiency>
-0.267702796943698

> <r_i_glide_ligand_efficiency_sa>
-0.803108389948788

> <r_i_glide_ligand_efficiency_ln>
-1.68255353797985

> <r_i_glide_gscore>
-7.22797551747984

> <r_i_glide_lipo>
-3.57656948415247

> <r_i_glide_hbond>
-0.479085537115556

> <r_i_glide_metal>
0

> <r_i_glide_rewards>
-1.19265878977063

> <r_i_glide_evdw>
-27.6070156097412

> <r_i_glide_ecoul>
-11.1764574050903

> <r_i_glide_erotb>
1.11403395740953

> <r_i_glide_esite>
-0.0368762726001029

> <r_i_glide_emodel>
-31.9566998248118

> <r_i_glide_energy>
-38.7834730148315

> <r_i_glide_einternal>
16.412239074707

> <i_i_glide_confnum>
96

> <i_i_glide_posenum>
47

> <r_i_glide_eff_state_penalty>
0

> <s_user_duplicate_titles>
CHEMBL220_lig1188,442190

> <s_m_subgroup_title>
dock_pv

> <s_m_subgroupid>
dock_pv

> <b_m_subgroup_collapsed>
0

$$$$
CHEMBL220_lig301
                    3D
 Schrodinger Suite 2021-1.
 29 31  0  0  1  0            999 V2000
    2.3751   68.3381   65.1672 N   0  0  0  0  0  0
    2.4788   69.7747   67.5675 C   0  0  0  0  0  0
    3.6589   69.6510   66.7686 C   0  0  0  0  0  0
    3.5394   68.8956   65.5646 C   0  0  0  0  0  0
    1.2657   69.2120   67.1355 C   0  0  0  0  0  0
    1.2612   68.5198   65.9078 C   0  0  0  0  0  0
    4.9480   70.1751   67.1072 C   0  0  0  0  0  0
    2.5072   70.4511   68.7870 N   0  0  0  0  0  0
    5.1436   70.9094   68.2280 F   0  0  0  0  0  0
    4.6643   68.6748   64.7470 C   0  0  0  0  0  0
   -0.0213   69.3059   67.9675 C   0  0  0  0  0  0
   -0.0189   67.9503   65.3144 C   0  0  0  0  0  0
    5.8997   69.1709   65.1239 C   0  0  0  0  0  0
    6.0419   69.9222   66.2847 C   0  0  0  0  0  0
   -1.3001   68.9964   67.1681 C   0  0  0  0  0  0
   -1.1117   67.7101   66.3668 C   0  0  0  0  0  0
    1.7188   70.3527   69.4202 H   0  0  0  0  0  0
    3.4024   70.7743   69.1266 H   0  0  0  0  0  0
    4.5598   68.0983   63.8385 H   0  0  0  0  0  0
    0.0746   68.5751   68.7682 H   0  0  0  0  0  0
   -0.1202   70.2861   68.4364 H   0  0  0  0  0  0
   -0.3930   68.6512   64.5682 H   0  0  0  0  0  0
    0.2166   67.0275   64.7801 H   0  0  0  0  0  0
    6.7423   68.9551   64.4928 H   0  0  0  0  0  0
    7.0170   70.3029   66.5525 H   0  0  0  0  0  0
   -2.1462   68.8946   67.8490 H   0  0  0  0  0  0
   -1.5478   69.8296   66.5067 H   0  0  0  0  0  0
   -0.8382   66.8822   67.0249 H   0  0  0  0  0  0
   -2.0468   67.4238   65.8855 H   0  0  0  0  0  0
  1  4  1  0  0  0
  1  6  2  0  0  0
  2  5  2  0  0  0
  2  8  1  0  0  0
  2  3  1  0  0  0
  3  4  1  0  0  0
  3  7  2  0  0  0
  4 10  2  0  0  0
  5  6  1  0  0  0
  5 11  1  0  0  0
  6 12  1  0  0  0
  7  9  1  0  0  0
  7 14  1  0  0  0
  8 17  1  0  0  0
  8 18  1  0  0  0
 10 13  1  0  0  0
 10 19  1  0  0  0
 11 15  1  0  0  0
 11 20  1  0  0  0
 11 21  1  0  0  0
 12 16  1  0  0  0
 12 22  1  0  0  0
 12 23  1  0  0  0
 13 14  2  0  0  0
 13 24  1  0  0  0
 14 25  1  0  0  0
 15 16  1  0  0  0
 15 26  1  0  0  0
 15 27  1  0  0  0
 16 28  1  0  0  0
 16 29  1  0  0  0
M  END
> <s_m_entry_id>
8715

> <s_m_entry_name>
dock_pv.225

> <s_m_Source_Path>
/home/csk/Desktop/cluster/DUD-E-result/aces

> <s_m_Source_File>
dock_pv.maegz

> <i_m_Source_File_Index>
225

> <chembl_id>
CHEMBL132030

> <chembl_pref_name>
None

> <i_lp_mmshare_version>
53161

> <i_f3d_flags>
0

> <r_lp_tautomer_probability>
1

> <s_lp_Force_Field>
OPLS_2005

> <r_lp_Energy>
19.070369

> <b_lp_Chiralities_Consistent>
1

> <s_lp_Variant>
CHEMBL220_lig301-1

> <s_i_glide_gridfile>
glide-grid_1e66

> <i_i_glide_lignum>
355

> <i_i_glide_rotatable_bonds>
0

> <r_i_docking_score>
-7.22008541935697

> <r_i_glide_ligand_efficiency>
-0.451255338709811

> <r_i_glide_ligand_efficiency_sa>
-1.13709219918497

> <r_i_glide_ligand_efficiency_ln>
-1.91382786488065

> <r_i_glide_gscore>
-7.22008541935697

> <r_i_glide_lipo>
-2.43935785252207

> <r_i_glide_hbond>
-0.140437641537731

> <r_i_glide_metal>
0

> <r_i_glide_rewards>
-2.85085668440667

> <r_i_glide_evdw>
-25.6121921539307

> <r_i_glide_ecoul>
-3.39215755462646

> <r_i_glide_erotb>
0

> <r_i_glide_esite>
0

> <r_i_glide_emodel>
-41.9998845847705

> <r_i_glide_energy>
-29.0043497085571

> <r_i_glide_einternal>
0

> <i_i_glide_confnum>
1

> <i_i_glide_posenum>
102

> <r_i_glide_eff_state_penalty>
0

> <s_user_duplicate_titles>
CHEMBL220_lig301,219123

> <s_m_subgroup_title>
dock_pv

> <s_m_subgroupid>
dock_pv

> <b_m_subgroup_collapsed>
0

$$$$
CHEMBL220_lig689
                    3D
 Schrodinger Suite 2021-1.
 59 61  0  0  1  0            999 V2000
    0.0461   68.5080   63.7224 C   0  0  0  0  0  0
   -1.4152   68.1960   65.6783 C   0  0  0  0  0  0
    0.2193   69.0238   62.3412 N   0  3  0  0  0  0
   -2.7689   68.3873   66.2774 N   0  3  0  0  0  0
    4.5423   69.2548   62.2109 N   0  3  0  0  0  0
    1.1414   68.1069   64.4957 C   0  0  0  0  0  0
   -1.2165   68.5312   64.3259 C   0  0  0  0  0  0
    4.5582   69.3765   63.6884 C   0  0  0  0  0  0
    3.5597   68.8515   64.5313 C   0  0  0  0  0  0
    2.4338   68.2324   63.9739 N   0  0  0  0  0  0
   -0.3074   67.7232   66.4142 C   0  0  0  0  0  0
    0.9466   67.6848   65.8068 C   0  0  0  0  0  0
    3.6407   63.3081   67.7565 C   0  0  0  0  0  0
    3.1433   64.4131   68.3668 O   0  0  0  0  0  0
    3.1105   64.1639   69.6995 C   0  0  0  0  0  0
    3.9431   62.3786   68.7550 C   0  0  0  0  0  0
    3.5880   69.0291   65.8797 N   0  0  0  0  0  0
    1.0637   68.5109   61.6159 O   0  5  0  0  0  0
   -2.9656   68.1082   67.4556 O   0  5  0  0  0  0
    3.9421   68.3190   61.6895 O   0  5  0  0  0  0
    3.6698   62.9429   69.9823 C   0  0  0  0  0  0
   -3.6576   68.8457   65.5674 O   0  0  0  0  0  0
   -0.4691   69.9689   61.9762 O   0  0  0  0  0  0
    5.1431   70.1078   61.5670 O   0  0  0  0  0  0
    3.6132   63.2000   66.2104 C   0  0  0  0  0  0
   -0.4500   67.3036   67.7461 N   0  0  0  0  0  0
    4.3416   64.1079   65.3116 N   0  0  0  0  0  0
    0.6232   65.0376   70.3683 S   0  0  0  0  0  0
    5.5833   70.1078   64.2963 C   0  0  0  0  0  0
    2.4190   65.1574   70.5552 C   0  0  0  0  0  0
    4.6163   69.7081   66.4354 C   0  0  0  0  0  0
    0.6507   67.3098   68.7014 C   0  0  0  0  0  0
    0.2305   66.7703   70.0724 C   0  0  0  0  0  0
    4.7466   63.4193   64.0856 C   0  0  0  0  0  0
    3.5113   65.2551   64.9401 C   0  0  0  0  0  0
    5.6411   70.2550   65.6783 C   0  0  0  0  0  0
   -2.0521   68.8875   63.7379 H   0  0  0  0  0  0
    2.4604   68.2387   62.9602 H   0  0  0  0  0  0
    1.7997   67.3498   66.3662 H   0  0  0  0  0  0
    4.3431   61.3860   68.6211 H   0  0  0  0  0  0
    3.7812   62.4862   70.9550 H   0  0  0  0  0  0
    2.6300   63.3080   65.8658 H   0  0  0  0  0  0
    3.9211   62.1907   65.9669 H   0  0  0  0  0  0
   -1.3760   67.4509   68.1317 H   0  0  0  0  0  0
    6.3428   70.5758   63.6908 H   0  0  0  0  0  0
    2.6718   64.9082   71.5704 H   0  0  0  0  0  0
    2.7748   66.1701   70.3675 H   0  0  0  0  0  0
    4.6007   69.8217   67.5097 H   0  0  0  0  0  0
    0.9885   68.3437   68.8038 H   0  0  0  0  0  0
    1.5197   66.7629   68.3318 H   0  0  0  0  0  0
   -0.8307   66.9082   70.2723 H   0  0  0  0  0  0
    0.7448   67.3430   70.8340 H   0  0  0  0  0  0
    5.3882   62.5629   64.3037 H   0  0  0  0  0  0
    5.3159   64.0901   63.4415 H   0  0  0  0  0  0
    3.8857   63.0526   63.5245 H   0  0  0  0  0  0
    3.1428   65.7673   65.8291 H   0  0  0  0  0  0
    4.0821   65.9744   64.3516 H   0  0  0  0  0  0
    2.6348   64.9551   64.3652 H   0  0  0  0  0  0
    6.4461   70.8012   66.1431 H   0  0  0  0  0  0
  1  3  1  0  0  0
  1  6  2  0  0  0
  1  7  1  0  0  0
  2  7  2  0  0  0
  2  4  1  0  0  0
  2 11  1  0  0  0
  3 18  1  0  0  0
  3 23  2  0  0  0
  4 19  1  0  0  0
  4 22  2  0  0  0
  5  8  1  0  0  0
  5 20  1  0  0  0
  5 24  2  0  0  0
  6 10  1  0  0  0
  6 12  1  0  0  0
  7 37  1  0  0  0
  8  9  1  0  0  0
  8 29  2  0  0  0
  9 10  1  0  0  0
  9 17  2  0  0  0
 10 38  1  0  0  0
 11 26  1  0  0  0
 11 12  2  0  0  0
 12 39  1  0  0  0
 13 14  1  0  0  0
 13 25  1  0  0  0
 13 16  2  0  0  0
 14 15  1  0  0  0
 15 30  1  0  0  0
 15 21  2  0  0  0
 16 21  1  0  0  0
 16 40  1  0  0  0
 17 31  1  0  0  0
 21 41  1  0  0  0
 25 27  1  0  0  0
 25 42  1  0  0  0
 25 43  1  0  0  0
 26 32  1  0  0  0
 26 44  1  0  0  0
 27 34  1  0  0  0
 27 35  1  0  0  0
 28 33  1  0  0  0
 28 30  1  0  0  0
 29 36  1  0  0  0
 29 45  1  0  0  0
 30 46  1  0  0  0
 30 47  1  0  0  0
 31 36  2  0  0  0
 31 48  1  0  0  0
 32 33  1  0  0  0
 32 49  1  0  0  0
 32 50  1  0  0  0
 33 51  1  0  0  0
 33 52  1  0  0  0
 34 53  1  0  0  0
 34 54  1  0  0  0
 34 55  1  0  0  0
 35 56  1  0  0  0
 35 57  1  0  0  0
 35 58  1  0  0  0
 36 59  1  0  0  0
M  CHG  6   3   1   4   1   5   1  18  -1  19  -1  20  -1
M  END
> <s_m_entry_id>
8716

> <s_m_entry_name>
dock_pv.226

> <s_m_Source_Path>
/home/csk/Desktop/cluster/DUD-E-result/aces

> <s_m_Source_File>
dock_pv.maegz

> <i_m_Source_File_Index>
226

> <chembl_id>
CHEMBL104334

> <chembl_pref_name>
None

> <i_lp_mmshare_version>
53161

> <i_f3d_flags>
0

> <r_lp_tautomer_probability>
0.999999772200052

> <s_lp_Force_Field>
OPLS_2005

> <r_lp_Energy>
35.78996

> <b_lp_Chiralities_Consistent>
1

> <s_lp_Variant>
CHEMBL220_lig689-1

> <s_i_glide_gridfile>
glide-grid_1e66

> <i_i_glide_lignum>
814

> <i_i_glide_rotatable_bonds>
13

> <r_i_docking_score>
-7.21735135268719

> <r_i_glide_ligand_efficiency>
-0.200481982019089

> <r_i_glide_ligand_efficiency_sa>
-0.661976918550496

> <r_i_glide_ligand_efficiency_ln>
-1.5746310748567

> <r_i_glide_gscore>
-7.21735135268719

> <r_i_glide_lipo>
-3.74455126357303

> <r_i_glide_hbond>
-0.0590281199674478

> <r_i_glide_metal>
0

> <r_i_glide_rewards>
-2.03605005118129

> <r_i_glide_evdw>
-42.669246673584

> <r_i_glide_ecoul>
0.700967490673065

> <r_i_glide_erotb>
0.689980102475586

> <r_i_glide_esite>
-0.0393848103627712

> <r_i_glide_emodel>
-44.4838411389812

> <r_i_glide_energy>
-41.9682791829109

> <r_i_glide_einternal>
17.2363548278809

> <i_i_glide_confnum>
268

> <i_i_glide_posenum>
204

> <r_i_glide_eff_state_penalty>
0

> <s_user_duplicate_titles>
CHEMBL220_lig689,174112

> <s_m_subgroup_title>
dock_pv

> <s_m_subgroupid>
dock_pv

> <b_m_subgroup_collapsed>
0

$$$$
CHEMBL220_lig998
                    3D
 Schrodinger Suite 2021-1.
 45 48  0  0  1  0            999 V2000
    0.9713   66.9191   67.7712 C   0  0  1  0  0  0
    0.3663   67.0359   66.3343 C   0  0  2  0  0  0
    1.1270   68.3900   68.2830 C   0  0  1  0  0  0
    1.2816   67.9410   65.4588 C   0  0  0  0  0  0
    2.2786   69.0840   67.5451 C   0  0  0  0  0  0
    2.2965   68.7258   66.0627 C   0  0  0  0  0  0
    1.1600   68.0577   64.0623 C   0  0  0  0  0  0
    3.3144   69.2685   65.3698 N   0  0  0  0  0  0
    2.2252   68.5927   63.3089 C   0  0  0  0  0  0
    3.3112   69.1619   64.0289 C   0  0  0  0  0  0
    4.3935   69.7078   63.3394 C   0  0  0  0  0  0
    4.3695   69.7081   61.9598 C   0  0  0  0  0  0
    3.3504   69.1262   61.2257 C   0  0  0  0  0  0
    2.2664   68.5795   61.8876 C   0  0  0  0  0  0
   -0.1208   69.2293   67.9679 C   0  0  0  0  0  0
   -1.0920   68.8635   67.1059 C   0  0  0  0  0  0
   -2.2453   69.7377   66.7679 C   0  0  0  0  0  0
   -1.0867   67.5349   66.3929 C   0  0  0  0  0  0
   -0.0147   67.7080   63.4007 N   0  0  0  0  0  0
    5.5430   70.6184   61.1680 Cl  0  0  0  0  0  0
    0.0467   66.2601   68.7375 N   0  0  2  0  0  0
    0.7097   65.5643   70.2094 S   0  0  0  0  0  0
    0.2838   63.7420   70.0477 C   0  0  0  0  0  0
   -0.0569   66.1078   71.3334 O   0  0  0  0  0  0
    2.1687   65.6981   70.1677 O   0  0  0  0  0  0
    1.9332   66.3941   67.7522 H   0  0  0  0  0  0
    0.3640   66.0508   65.8759 H   0  0  0  0  0  0
    1.3197   68.4133   69.3567 H   0  0  0  0  0  0
    2.1763   70.1683   67.6312 H   0  0  0  0  0  0
    3.2369   68.9080   68.0125 H   0  0  0  0  0  0
    5.1921   70.1949   63.8825 H   0  0  0  0  0  0
    3.3830   69.1387   60.1465 H   0  0  0  0  0  0
    1.4603   68.1443   61.3158 H   0  0  0  0  0  0
   -0.2033   70.1990   68.4408 H   0  0  0  0  0  0
   -3.1597   69.3080   67.1681 H   0  0  0  0  0  0
   -2.0570   70.7384   67.1633 H   0  0  0  0  0  0
   -2.3627   69.7820   65.6871 H   0  0  0  0  0  0
   -1.7230   66.8510   66.9551 H   0  0  0  0  0  0
   -1.5456   67.6495   65.4149 H   0  0  0  0  0  0
   -0.0814   67.8590   62.4068 H   0  0  0  0  0  0
   -0.6661   67.0640   63.8573 H   0  0  0  0  0  0
   -0.6439   65.6652   68.2778 H   0  0  0  0  0  0
    0.6318   63.2286   70.9424 H   0  0  0  0  0  0
    0.7816   63.3372   69.1692 H   0  0  0  0  0  0
   -0.7960   63.6394   69.9541 H   0  0  0  0  0  0
  1  2  1  0  0  0
  1  3  1  0  0  0
  1 21  1  0  0  0
  1 26  1  0  0  0
  2 18  1  0  0  0
  2  4  1  0  0  0
  2 27  1  0  0  0
  3 15  1  0  0  0
  3  5  1  0  0  0
  3 28  1  0  0  0
  4  7  2  0  0  0
  4  6  1  0  0  0
  5  6  1  0  0  0
  5 29  1  0  0  0
  5 30  1  0  0  0
  6  8  2  0  0  0
  7  9  1  0  0  0
  7 19  1  0  0  0
  8 10  1  0  0  0
  9 14  2  0  0  0
  9 10  1  0  0  0
 10 11  2  0  0  0
 11 12  1  0  0  0
 11 31  1  0  0  0
 12 13  2  0  0  0
 12 20  1  0  0  0
 13 14  1  0  0  0
 13 32  1  0  0  0
 14 33  1  0  0  0
 15 16  2  0  0  0
 15 34  1  0  0  0
 16 17  1  0  0  0
 16 18  1  0  0  0
 17 35  1  0  0  0
 17 36  1  0  0  0
 17 37  1  0  0  0
 18 38  1  0  0  0
 18 39  1  0  0  0
 19 40  1  0  0  0
 19 41  1  0  0  0
 21 22  1  0  0  0
 21 42  1  0  0  0
 22 23  1  0  0  0
 22 24  2  0  0  0
 22 25  2  0  0  0
 23 43  1  0  0  0
 23 44  1  0  0  0
 23 45  1  0  0  0
M  END
> <s_m_entry_id>
8717

> <s_m_entry_name>
dock_pv.227

> <s_m_Source_Path>
/home/csk/Desktop/cluster/DUD-E-result/aces

> <s_m_Source_File>
dock_pv.maegz

> <i_m_Source_File_Index>
227

> <chembl_id>
CHEMBL386541

> <chembl_pref_name>
None

> <i_lp_mmshare_version>
53161

> <i_f3d_flags>
0

> <r_lp_tautomer_probability>
1

> <s_lp_Force_Field>
OPLS_2005

> <r_lp_Energy>
15.414001

> <b_lp_Chiralities_Consistent>
1

> <s_lp_Variant>
CHEMBL220_lig998-4

> <s_i_glide_gridfile>
glide-grid_1e66

> <i_i_glide_lignum>
1387

> <i_i_glide_rotatable_bonds>
2

> <r_i_docking_score>
-7.20407780265683

> <r_i_glide_ligand_efficiency>
-0.288163112106273

> <r_i_glide_ligand_efficiency_sa>
-0.842594050393297

> <r_i_glide_ligand_efficiency_ln>
-1.70758232802026

> <r_i_glide_gscore>
-7.20407780265683

> <r_i_glide_lipo>
-3.07672343525864

> <r_i_glide_hbond>
-0.32

> <r_i_glide_metal>
0

> <r_i_glide_rewards>
-1.41845425399782

> <r_i_glide_evdw>
-27.3637104034424

> <r_i_glide_ecoul>
-7.70921182632446

> <r_i_glide_erotb>
0.135667180720418

> <r_i_glide_esite>
0

> <r_i_glide_emodel>
-63.2608898380375

> <r_i_glide_energy>
-35.0729222297668

> <r_i_glide_einternal>
5.08654451370239

> <i_i_glide_confnum>
3

> <i_i_glide_posenum>
181

> <r_i_glide_eff_state_penalty>
0

> <s_user_duplicate_titles>
CHEMBL220_lig998

> <s_m_subgroup_title>
dock_pv

> <s_m_subgroupid>
dock_pv

> <b_m_subgroup_collapsed>
0

$$$$
CHEMBL220_lig159
                    3D
 Schrodinger Suite 2021-1.
 42 44  0  0  1  0            999 V2000
    3.5470   67.6128   64.1194 N   0  0  0  0  0  0
    2.3590   68.1836   64.2777 N   0  0  0  0  0  0
    1.6930   67.2868   64.9561 C   0  0  0  0  0  0
    2.2927   66.1080   65.0772 N   0  0  0  0  0  0
    3.4240   66.2753   64.4193 C   0  0  0  0  0  0
    4.6372   68.3089   63.5567 C   0  0  0  0  0  0
    4.9762   69.4954   64.1638 N   0  0  0  0  0  0
    5.1783   67.8466   62.5475 O   0  0  0  0  0  0
    4.5788   64.9955   63.9680 S   0  0  0  0  0  0
    0.3475   67.6236   65.5049 C   0  0  0  0  0  0
    5.8217   70.3675   63.3482 C   0  0  0  0  0  0
    5.0188   69.7241   65.5803 C   0  0  0  0  0  0
   -0.4785   68.4679   64.7538 C   0  0  0  0  0  0
   -1.7738   68.7161   65.1736 C   0  0  0  0  0  0
   -2.2371   68.1856   66.3680 C   0  0  0  0  0  0
   -1.4058   67.3886   67.1575 C   0  0  0  0  0  0
   -0.1125   67.1028   66.7200 C   0  0  0  0  0  0
    6.2365   70.1120   66.1693 C   0  0  0  0  0  0
    6.3085   70.5080   67.5009 C   0  0  0  0  0  0
    5.1554   70.5186   68.2741 C   0  0  0  0  0  0
    3.9430   70.1080   67.7328 C   0  0  0  0  0  0
    3.8771   69.7134   66.4012 C   0  0  0  0  0  0
   -3.6569   68.4970   66.7718 C   0  0  0  0  0  0
    3.6205   63.5168   64.3940 C   0  0  0  0  0  0
    6.7430   69.8319   63.1680 H   0  0  0  0  0  0
    5.3543   70.5986   62.3897 H   0  0  0  0  0  0
    6.0596   71.3080   63.8442 H   0  0  0  0  0  0
   -0.1487   68.8776   63.8104 H   0  0  0  0  0  0
   -2.4312   69.3080   64.5569 H   0  0  0  0  0  0
   -1.7632   66.9765   68.0898 H   0  0  0  0  0  0
    0.5251   66.4693   67.3175 H   0  0  0  0  0  0
    7.1430   70.1476   65.5890 H   0  0  0  0  0  0
    7.2515   70.8166   67.9271 H   0  0  0  0  0  0
    5.2018   70.8347   69.3059 H   0  0  0  0  0  0
    3.0461   70.1304   68.3354 H   0  0  0  0  0  0
    2.8835   69.5475   66.0438 H   0  0  0  0  0  0
   -3.8039   69.5667   66.7680 H   0  0  0  0  0  0
   -4.3603   68.1080   66.0361 H   0  0  0  0  0  0
   -3.8873   68.1082   67.7620 H   0  0  0  0  0  0
    4.1103   62.6285   63.9953 H   0  0  0  0  0  0
    3.5430   63.4118   65.4758 H   0  0  0  0  0  0
    2.6206   63.5699   63.9681 H   0  0  0  0  0  0
  1  6  1  0  0  0
  1  5  1  0  0  0
  1  2  1  0  0  0
  2  3  2  0  0  0
  3  4  1  0  0  0
  3 10  1  0  0  0
  4  5  2  0  0  0
  5  9  1  0  0  0
  6  7  1  0  0  0
  6  8  2  0  0  0
  7 12  1  0  0  0
  7 11  1  0  0  0
  9 24  1  0  0  0
 10 13  2  0  0  0
 10 17  1  0  0  0
 11 25  1  0  0  0
 11 26  1  0  0  0
 11 27  1  0  0  0
 12 18  2  0  0  0
 12 22  1  0  0  0
 13 14  1  0  0  0
 13 28  1  0  0  0
 14 15  2  0  0  0
 14 29  1  0  0  0
 15 16  1  0  0  0
 15 23  1  0  0  0
 16 17  2  0  0  0
 16 30  1  0  0  0
 17 31  1  0  0  0
 18 19  1  0  0  0
 18 32  1  0  0  0
 19 20  2  0  0  0
 19 33  1  0  0  0
 20 21  1  0  0  0
 20 34  1  0  0  0
 21 22  2  0  0  0
 21 35  1  0  0  0
 22 36  1  0  0  0
 23 37  1  0  0  0
 23 38  1  0  0  0
 23 39  1  0  0  0
 24 40  1  0  0  0
 24 41  1  0  0  0
 24 42  1  0  0  0
M  END
> <s_m_entry_id>
8718

> <s_m_entry_name>
dock_pv.228

> <s_m_Source_Path>
/home/csk/Desktop/cluster/DUD-E-result/aces

> <s_m_Source_File>
dock_pv.maegz

> <i_m_Source_File_Index>
228

> <chembl_id>
CHEMBL130112

> <chembl_pref_name>
None

> <i_lp_mmshare_version>
53161

> <i_f3d_flags>
0

> <r_lp_tautomer_probability>
1

> <s_lp_Force_Field>
OPLS_2005

> <r_lp_Energy>
43.156359

> <b_lp_Chiralities_Consistent>
1

> <s_lp_Variant>
CHEMBL220_lig159-1

> <s_i_glide_gridfile>
glide-grid_1e66

> <i_i_glide_lignum>
175

> <i_i_glide_rotatable_bonds>
5

> <r_i_docking_score>
-7.2036428906642

> <r_i_glide_ligand_efficiency>
-0.300151787111008

> <r_i_glide_ligand_efficiency_sa>
-0.865787571058532

> <r_i_glide_ligand_efficiency_ln>
-1.72416229736903

> <r_i_glide_gscore>
-7.2036428906642

> <r_i_glide_lipo>
-3.20503416595137

> <r_i_glide_hbond>
0

> <r_i_glide_metal>
0

> <r_i_glide_rewards>
-2.1878167720521

> <r_i_glide_evdw>
-41.4242057800293

> <r_i_glide_ecoul>
-2.6671028137207

> <r_i_glide_erotb>
0.660483758398838

> <r_i_glide_esite>
0

> <r_i_glide_emodel>
-49.6430993285776

> <r_i_glide_energy>
-44.09130859375

> <r_i_glide_einternal>
7.37658452987671

> <i_i_glide_confnum>
5

> <i_i_glide_posenum>
303

> <r_i_glide_eff_state_penalty>
0

> <s_user_duplicate_titles>
CHEMBL220_lig159

> <s_m_subgroup_title>
dock_pv

> <s_m_subgroupid>
dock_pv

> <b_m_subgroup_collapsed>
0

$$$$
CHEMBL220_lig511
                    3D
 Schrodinger Suite 2021-1.
 33 36  0  0  1  0            999 V2000
    0.8440   68.4940   63.9974 C   0  0  0  0  0  0
    1.4052   67.9869   65.1578 C   0  0  0  0  0  0
    2.7337   67.8502   65.3594 N   0  0  0  0  0  0
    1.6624   68.8405   62.9249 C   0  0  0  0  0  0
    0.3363   67.6826   66.1251 C   0  0  0  0  0  0
   -0.8731   68.1170   65.5829 C   0  0  0  0  0  0
   -0.6393   68.6459   64.1820 C   0  0  0  0  0  0
    3.0748   68.7335   63.0981 C   0  0  0  0  0  0
    3.5626   68.2469   64.3556 C   0  0  0  0  0  0
   -2.0613   68.0058   66.3195 C   0  0  0  0  0  0
    1.0763   69.3079   61.7446 N   0  0  0  0  0  0
    0.3655   67.0828   67.3830 C   0  0  0  0  0  0
    4.0185   69.1066   62.1047 C   0  0  0  0  0  0
    4.9546   68.1842   64.5834 C   0  0  0  0  0  0
   -0.8225   66.9078   68.0899 C   0  0  0  0  0  0
   -2.0280   67.3795   67.5679 C   0  0  0  0  0  0
   -3.3900   68.5290   65.8003 C   0  0  0  0  0  0
    5.3808   69.0231   62.3680 C   0  0  0  0  0  0
    5.8444   68.5653   63.5899 C   0  0  0  0  0  0
   -1.2219   68.1120   63.4308 H   0  0  0  0  0  0
   -0.8572   69.7044   64.0891 H   0  0  0  0  0  0
    1.6524   69.5931   60.9663 H   0  0  0  0  0  0
    0.0710   69.3829   61.7000 H   0  0  0  0  0  0
    1.2915   66.7299   67.8089 H   0  0  0  0  0  0
    3.6858   69.4693   61.1445 H   0  0  0  0  0  0
    5.3261   67.8561   65.5404 H   0  0  0  0  0  0
   -0.8055   66.4299   69.0579 H   0  0  0  0  0  0
   -2.9380   67.2640   68.1398 H   0  0  0  0  0  0
   -3.2698   69.1518   64.9142 H   0  0  0  0  0  0
   -4.0679   67.7089   65.5681 H   0  0  0  0  0  0
   -3.8731   69.1379   66.5642 H   0  0  0  0  0  0
    6.0863   69.3074   61.6004 H   0  0  0  0  0  0
    6.9057   68.5080   63.7653 H   0  0  0  0  0  0
  1  2  1  0  0  0
  1  4  2  0  0  0
  1  7  1  0  0  0
  2  3  2  0  0  0
  2  5  1  0  0  0
  3  9  1  0  0  0
  4  8  1  0  0  0
  4 11  1  0  0  0
  5 12  1  0  0  0
  5  6  2  0  0  0
  6  7  1  0  0  0
  6 10  1  0  0  0
  7 20  1  0  0  0
  7 21  1  0  0  0
  8  9  1  0  0  0
  8 13  2  0  0  0
  9 14  2  0  0  0
 10 16  2  0  0  0
 10 17  1  0  0  0
 11 22  1  0  0  0
 11 23  1  0  0  0
 12 15  2  0  0  0
 12 24  1  0  0  0
 13 18  1  0  0  0
 13 25  1  0  0  0
 14 19  1  0  0  0
 14 26  1  0  0  0
 15 16  1  0  0  0
 15 27  1  0  0  0
 16 28  1  0  0  0
 17 29  1  0  0  0
 17 30  1  0  0  0
 17 31  1  0  0  0
 18 19  2  0  0  0
 18 32  1  0  0  0
 19 33  1  0  0  0
M  END
> <s_m_entry_id>
8719

> <s_m_entry_name>
dock_pv.229

> <s_m_Source_Path>
/home/csk/Desktop/cluster/DUD-E-result/aces

> <s_m_Source_File>
dock_pv.maegz

> <i_m_Source_File_Index>
229

> <chembl_id>
CHEMBL292122

> <chembl_pref_name>
None

> <i_lp_mmshare_version>
53161

> <i_f3d_flags>
0

> <r_lp_tautomer_probability>
1

> <s_lp_Force_Field>
OPLS_2005

> <r_lp_Energy>
36.535939

> <b_lp_Chiralities_Consistent>
1

> <s_lp_Variant>
CHEMBL220_lig511-1

> <s_i_glide_gridfile>
glide-grid_1e66

> <i_i_glide_lignum>
589

> <i_i_glide_rotatable_bonds>
0

> <r_i_docking_score>
-7.20162874448419

> <r_i_glide_ligand_efficiency>
-0.379033091814958

> <r_i_glide_ligand_efficiency_sa>
-1.01141252612653

> <r_i_glide_ligand_efficiency_ln>
-1.82576756352968

> <r_i_glide_gscore>
-7.20162874448419

> <r_i_glide_lipo>
-3.22214380862142

> <r_i_glide_hbond>
0

> <r_i_glide_metal>
0

> <r_i_glide_rewards>
-2.05744482503629

> <r_i_glide_evdw>
-33.9910621643066

> <r_i_glide_ecoul>
-1.4832466840744

> <r_i_glide_erotb>
0

> <r_i_glide_esite>
0

> <r_i_glide_emodel>
-47.6856074007719

> <r_i_glide_energy>
-35.474308848381

> <r_i_glide_einternal>
0

> <i_i_glide_confnum>
1

> <i_i_glide_posenum>
349

> <r_i_glide_eff_state_penalty>
0

> <s_user_duplicate_titles>
CHEMBL220_lig511

> <s_m_subgroup_title>
dock_pv

> <s_m_subgroupid>
dock_pv

> <b_m_subgroup_collapsed>
0

$$$$
CHEMBL220_lig363
                    3D
 Schrodinger Suite 2021-1.
 36 38  0  0  1  0            999 V2000
    5.1035   69.4838   65.0014 C   0  0  0  0  0  0
    3.5847   69.2437   64.9274 C   0  0  2  0  0  0
    5.3810   70.0389   66.3362 C   0  0  0  0  0  0
    3.0727   69.4593   66.3615 C   0  0  0  0  0  0
    4.2193   70.0660   67.1018 C   0  0  0  0  0  0
    1.5491   68.5047   61.9500 N   0  0  1  0  0  0
    3.1799   67.8561   64.3367 C   0  0  0  0  0  0
    5.9323   69.2568   64.1242 O   0  0  0  0  0  0
    1.6378   67.7061   64.3250 C   0  0  0  0  0  0
    3.6647   67.5806   62.8876 C   0  0  0  0  0  0
    3.0154   68.5427   61.8713 C   0  0  0  0  0  0
    0.9738   68.6476   63.2901 C   0  0  0  0  0  0
    6.5935   70.4755   66.8692 C   0  0  0  0  0  0
    4.2590   70.5106   68.4182 C   0  0  0  0  0  0
    0.9353   69.4143   61.0000 C   0  0  0  0  0  0
    6.6343   70.9103   68.1920 C   0  0  0  0  0  0
    5.4757   70.9077   68.9600 C   0  0  0  0  0  0
    3.1914   70.0385   64.2941 H   0  0  0  0  0  0
    2.1715   70.0671   66.3883 H   0  0  0  0  0  0
    2.8161   68.5078   66.8245 H   0  0  0  0  0  0
    3.5820   67.0609   64.9676 H   0  0  0  0  0  0
    1.2228   67.9659   65.2976 H   0  0  0  0  0  0
    1.3119   66.6691   64.2319 H   0  0  0  0  0  0
    3.5426   66.5407   62.5912 H   0  0  0  0  0  0
    4.7391   67.7097   62.7980 H   0  0  0  0  0  0
    3.3663   69.5624   62.0389 H   0  0  0  0  0  0
    3.3268   68.2808   60.8585 H   0  0  0  0  0  0
    1.0810   69.6921   63.5761 H   0  0  0  0  0  0
   -0.0983   68.4495   63.2428 H   0  0  0  0  0  0
    7.5010   70.4607   66.2822 H   0  0  0  0  0  0
    3.3750   70.4957   69.0399 H   0  0  0  0  0  0
   -0.1439   69.4085   61.1008 H   0  0  0  0  0  0
    1.2766   70.4387   61.1570 H   0  0  0  0  0  0
    1.1635   69.0968   59.9818 H   0  0  0  0  0  0
    7.5554   71.2330   68.6423 H   0  0  0  0  0  0
    5.5335   71.1673   69.9975 H   0  0  0  0  0  0
  1  2  1  0  0  0
  1  3  1  0  0  0
  1  8  2  0  0  0
  2  4  1  0  0  0
  2  7  1  0  0  0
  2 18  1  0  0  0
  3  5  1  0  0  0
  3 13  2  0  0  0
  4  5  1  0  0  0
  4 19  1  0  0  0
  4 20  1  0  0  0
  5 14  2  0  0  0
  6 11  1  0  0  0
  6 15  1  0  0  0
  6 12  1  0  0  0
  7  9  1  0  0  0
  7 10  1  0  0  0
  7 21  1  0  0  0
  9 12  1  0  0  0
  9 22  1  0  0  0
  9 23  1  0  0  0
 10 11  1  0  0  0
 10 24  1  0  0  0
 10 25  1  0  0  0
 11 26  1  0  0  0
 11 27  1  0  0  0
 12 28  1  0  0  0
 12 29  1  0  0  0
 13 16  1  0  0  0
 13 30  1  0  0  0
 14 17  1  0  0  0
 14 31  1  0  0  0
 15 32  1  0  0  0
 15 33  1  0  0  0
 15 34  1  0  0  0
 16 17  2  0  0  0
 16 35  1  0  0  0
 17 36  1  0  0  0
M  END
> <s_m_entry_id>
8720

> <s_m_entry_name>
dock_pv.230

> <s_m_Source_Path>
/home/csk/Desktop/cluster/DUD-E-result/aces

> <s_m_Source_File>
dock_pv.maegz

> <i_m_Source_File_Index>
230

> <chembl_id>
CHEMBL348318

> <chembl_pref_name>
None

> <i_lp_mmshare_version>
53161

> <i_f3d_flags>
0

> <r_lp_tautomer_probability>
0.99995

> <s_lp_Force_Field>
OPLS_2005

> <r_lp_Energy>
35.956588

> <b_lp_Chiralities_Consistent>
1

> <s_lp_Variant>
CHEMBL220_lig363-1

> <s_i_glide_gridfile>
glide-grid_1e66

> <i_i_glide_lignum>
417

> <i_i_glide_rotatable_bonds>
1

> <r_i_docking_score>
-7.19276169229768

> <r_i_glide_ligand_efficiency>
-0.423103628958687

> <r_i_glide_ligand_efficiency_sa>
-1.08791857105473

> <r_i_glide_ligand_efficiency_ln>
-1.87643135059278

> <r_i_glide_gscore>
-7.19276169229768

> <r_i_glide_lipo>
-3.46574987717286

> <r_i_glide_hbond>
0

> <r_i_glide_metal>
0

> <r_i_glide_rewards>
-2.94265468685569

> <r_i_glide_evdw>
-24.999568939209

> <r_i_glide_ecoul>
0.941309332847595

> <r_i_glide_erotb>
0.324424918764176

> <r_i_glide_esite>
0

> <r_i_glide_emodel>
-31.8888958613099

> <r_i_glide_energy>
-24.0582596063614

> <r_i_glide_einternal>
0.0383917912840843

> <i_i_glide_confnum>
4

> <i_i_glide_posenum>
151

> <r_i_glide_eff_state_penalty>
0

> <s_user_duplicate_titles>
CHEMBL220_lig363

> <s_m_subgroup_title>
dock_pv

> <s_m_subgroupid>
dock_pv

> <b_m_subgroup_collapsed>
0

$$$$
CHEMBL220_lig912
                    3D
 Schrodinger Suite 2021-1.
 42 44  0  0  1  0            999 V2000
    3.6587   68.6839   65.5758 C   0  0  0  0  0  0
    1.0987   67.7084   64.7099 C   0  0  2  0  0  0
    2.5412   69.0258   66.3703 C   0  0  0  0  0  0
    1.2472   68.5552   66.0043 C   0  0  0  0  0  0
    4.8809   69.3079   65.8561 C   0  0  0  0  0  0
    2.2448   67.7075   63.8970 O   0  0  0  0  0  0
    2.6890   69.8262   67.5294 C   0  0  0  0  0  0
   -0.0494   68.1782   63.7744 C   0  0  0  0  0  0
    3.4831   67.5709   64.5610 C   0  0  0  0  0  0
    5.0539   70.1084   66.9965 C   0  0  0  0  0  0
    3.9611   70.3393   67.8477 C   0  0  0  0  0  0
    0.1563   68.8209   66.7731 N   0  0  0  0  0  0
    0.7870   66.4558   65.1618 O   0  0  0  0  0  0
    5.9422   69.0532   65.0274 O   0  0  0  0  0  0
    6.3138   70.6263   67.2382 O   0  0  0  0  0  0
    0.3181   69.5691   67.8903 C   0  0  0  0  0  0
    0.4040   69.2617   62.7516 C   0  0  2  0  0  0
    1.5425   70.0977   68.2972 C   0  0  0  0  0  0
   -0.6795   70.0706   62.3672 O   0  0  0  0  0  0
    2.1872   69.3088   61.0723 O   0  0  0  0  0  0
    1.0154   68.6510   61.4727 C   0  0  0  0  0  0
    5.9303   69.8129   63.8216 C   0  0  0  0  0  0
    6.5136   71.4383   68.3924 C   0  0  0  0  0  0
   -0.8803   68.5353   64.3842 H   0  0  0  0  0  0
   -0.4341   67.3172   63.2102 H   0  0  0  0  0  0
    4.2753   67.5689   63.8138 H   0  0  0  0  0  0
    3.5272   66.6057   65.0677 H   0  0  0  0  0  0
    4.0485   70.9436   68.7372 H   0  0  0  0  0  0
   -0.1335   66.2782   64.9102 H   0  0  0  0  0  0
   -0.5785   69.7841   68.4501 H   0  0  0  0  0  0
    1.1333   69.9360   63.1974 H   0  0  0  0  0  0
    1.6099   70.7290   69.1680 H   0  0  0  0  0  0
   -1.1191   70.4440   63.1484 H   0  0  0  0  0  0
    1.9452   69.8981   60.3453 H   0  0  0  0  0  0
    1.3661   67.6586   61.6718 H   0  0  0  0  0  0
    0.3098   68.5727   60.6459 H   0  0  0  0  0  0
    6.5485   69.3063   63.0804 H   0  0  0  0  0  0
    4.9354   69.9267   63.3854 H   0  0  0  0  0  0
    6.3414   70.8092   63.9924 H   0  0  0  0  0  0
    7.5431   71.7807   68.4250 H   0  0  0  0  0  0
    5.8813   72.3277   68.3707 H   0  0  0  0  0  0
    6.3249   70.8833   69.3122 H   0  0  0  0  0  0
  1  3  2  0  0  0
  1  5  1  0  0  0
  1  9  1  0  0  0
  2  6  1  0  0  0
  2  8  1  0  0  0
  2 13  1  0  0  0
  2  4  1  0  0  0
  3  4  1  0  0  0
  3  7  1  0  0  0
  4 12  2  0  0  0
  5 10  2  0  0  0
  5 14  1  0  0  0
  6  9  1  0  0  0
  7 18  1  0  0  0
  7 11  2  0  0  0
  8 17  1  0  0  0
  8 24  1  0  0  0
  8 25  1  0  0  0
  9 26  1  0  0  0
  9 27  1  0  0  0
 10 11  1  0  0  0
 10 15  1  0  0  0
 11 28  1  0  0  0
 12 16  1  0  0  0
 13 29  1  0  0  0
 14 22  1  0  0  0
 15 23  1  0  0  0
 16 18  2  0  0  0
 16 30  1  0  0  0
 17 19  1  0  0  0
 17 21  1  0  0  0
 17 31  1  0  0  0
 18 32  1  0  0  0
 19 33  1  0  0  0
 20 21  1  0  0  0
 20 34  1  0  0  0
 21 35  1  0  0  0
 21 36  1  0  0  0
 22 37  1  0  0  0
 22 38  1  0  0  0
 22 39  1  0  0  0
 23 40  1  0  0  0
 23 41  1  0  0  0
 23 42  1  0  0  0
M  END
> <s_m_entry_id>
8721

> <s_m_entry_name>
dock_pv.231

> <s_m_Source_Path>
/home/csk/Desktop/cluster/DUD-E-result/aces

> <s_m_Source_File>
dock_pv.maegz

> <i_m_Source_File_Index>
231

> <chembl_id>
CHEMBL196699

> <chembl_pref_name>
None

> <i_lp_mmshare_version>
53161

> <i_f3d_flags>
0

> <r_lp_tautomer_probability>
1

> <s_lp_Force_Field>
OPLS_2005

> <r_lp_Energy>
39.485625

> <b_lp_Chiralities_Consistent>
1

> <s_lp_Variant>
CHEMBL220_lig912-1

> <s_i_glide_gridfile>
glide-grid_1e66

> <i_i_glide_lignum>
1242

> <i_i_glide_rotatable_bonds>
8

> <r_i_docking_score>
-7.19164913495573

> <r_i_glide_ligand_efficiency>
-0.312680397171988

> <r_i_glide_ligand_efficiency_sa>
-0.889221455834907

> <r_i_glide_ligand_efficiency_ln>
-1.73900597110131

> <r_i_glide_gscore>
-7.19164913495573

> <r_i_glide_lipo>
-2.93806156143412

> <r_i_glide_hbond>
0

> <r_i_glide_metal>
0

> <r_i_glide_rewards>
-1.71380838745001

> <r_i_glide_evdw>
-24.680944442749

> <r_i_glide_ecoul>
-12.324257850647

> <r_i_glide_erotb>
0.542906713662895

> <r_i_glide_esite>
0

> <r_i_glide_emodel>
-42.1036523122278

> <r_i_glide_energy>
-37.005202293396

> <r_i_glide_einternal>
9.09423732757568

> <i_i_glide_confnum>
18

> <i_i_glide_posenum>
59

> <r_i_glide_eff_state_penalty>
0

> <s_user_duplicate_titles>
CHEMBL220_lig912

> <s_m_subgroup_title>
dock_pv

> <s_m_subgroupid>
dock_pv

> <b_m_subgroup_collapsed>
0

$$$$
CHEMBL220_lig280
                    3D
 Schrodinger Suite 2021-1.
 30 33  0  0  1  0            999 V2000
    2.8675   68.8201   65.9740 N   0  0  0  0  0  0
    1.5883   68.4923   66.2545 C   0  0  0  0  0  0
    0.6104   68.2530   65.3026 C   0  0  0  0  0  0
    0.9325   68.3431   63.9505 C   0  0  0  0  0  0
    3.2275   68.9060   64.6570 C   0  0  0  0  0  0
    2.2817   68.6779   63.5982 C   0  0  0  0  0  0
   -0.6733   67.9818   66.0879 C   0  0  1  0  0  0
    0.9168   68.3633   67.6149 C   0  0  2  0  0  0
   -0.0827   67.2544   67.2943 C   0  0  0  0  0  0
    4.5780   69.2260   64.3283 C   0  0  0  0  0  0
   -1.1371   69.3060   66.7367 C   0  0  0  0  0  0
   -0.0225   69.5747   67.7818 C   0  0  0  0  0  0
   -0.0585   68.1080   62.9980 N   0  0  0  0  0  0
    5.7719   69.5052   65.5523 Cl  0  0  0  0  0  0
    2.7273   68.7920   62.2518 C   0  0  0  0  0  0
    4.0514   69.1043   61.9678 C   0  0  0  0  0  0
    4.9657   69.3150   62.9934 C   0  0  0  0  0  0
   -1.4583   67.4338   65.5682 H   0  0  0  0  0  0
    1.5711   68.1735   68.4666 H   0  0  0  0  0  0
   -0.8057   67.0714   68.0927 H   0  0  0  0  0  0
    0.3813   66.3012   67.0377 H   0  0  0  0  0  0
   -1.2424   70.0968   65.9985 H   0  0  0  0  0  0
   -2.1065   69.1851   67.2243 H   0  0  0  0  0  0
   -0.4568   69.6236   68.7680 H   0  0  0  0  0  0
    0.5204   70.5067   67.6581 H   0  0  0  0  0  0
    0.1994   68.0808   62.0237 H   0  0  0  0  0  0
   -0.8628   67.5813   63.3218 H   0  0  0  0  0  0
    2.0363   68.6325   61.4372 H   0  0  0  0  0  0
    4.3739   69.1845   60.9394 H   0  0  0  0  0  0
    5.9897   69.5566   62.7468 H   0  0  0  0  0  0
  1  2  2  0  0  0
  1  5  1  0  0  0
  2  3  1  0  0  0
  2  8  1  0  0  0
  3  7  1  0  0  0
  3  4  2  0  0  0
  4  6  1  0  0  0
  4 13  1  0  0  0
  5  6  1  0  0  0
  5 10  2  0  0  0
  6 15  2  0  0  0
  7  9  1  0  0  0
  7 11  1  0  0  0
  7 18  1  0  0  0
  8  9  1  0  0  0
  8 12  1  0  0  0
  8 19  1  0  0  0
  9 20  1  0  0  0
  9 21  1  0  0  0
 10 14  1  0  0  0
 10 17  1  0  0  0
 11 12  1  0  0  0
 11 22  1  0  0  0
 11 23  1  0  0  0
 12 24  1  0  0  0
 12 25  1  0  0  0
 13 26  1  0  0  0
 13 27  1  0  0  0
 15 16  1  0  0  0
 15 28  1  0  0  0
 16 17  2  0  0  0
 16 29  1  0  0  0
 17 30  1  0  0  0
M  END
> <s_m_entry_id>
8722

> <s_m_entry_name>
dock_pv.232

> <s_m_Source_Path>
/home/csk/Desktop/cluster/DUD-E-result/aces

> <s_m_Source_File>
dock_pv.maegz

> <i_m_Source_File_Index>
232

> <chembl_id>
CHEMBL355740

> <chembl_pref_name>
None

> <i_lp_mmshare_version>
53161

> <i_f3d_flags>
0

> <r_lp_tautomer_probability>
1

> <s_lp_Force_Field>
OPLS_2005

> <r_lp_Energy>
64.687624

> <b_lp_Chiralities_Consistent>
1

> <s_lp_Variant>
CHEMBL220_lig280-2

> <s_i_glide_gridfile>
glide-grid_1e66

> <i_i_glide_lignum>
332

> <i_i_glide_rotatable_bonds>
0

> <r_i_docking_score>
-7.19016827112801

> <r_i_glide_ligand_efficiency>
-0.422951074772236

> <r_i_glide_ligand_efficiency_sa>
-1.0875263112839

> <r_i_glide_ligand_efficiency_ln>
-1.87575478476226

> <r_i_glide_gscore>
-7.19016827112801

> <r_i_glide_lipo>
-3.21148647713766

> <r_i_glide_hbond>
-0.23005897725415

> <r_i_glide_metal>
0

> <r_i_glide_rewards>
-1.81178023212621

> <r_i_glide_evdw>
-30.4973373413086

> <r_i_glide_ecoul>
-2.74650478363037

> <r_i_glide_erotb>
0

> <r_i_glide_esite>
0

> <r_i_glide_emodel>
-48.1027704027778

> <r_i_glide_energy>
-33.243842124939

> <r_i_glide_einternal>
0

> <i_i_glide_confnum>
1

> <i_i_glide_posenum>
270

> <r_i_glide_eff_state_penalty>
0

> <s_user_duplicate_titles>
CHEMBL220_lig280

> <s_m_subgroup_title>
dock_pv

> <s_m_subgroupid>
dock_pv

> <b_m_subgroup_collapsed>
0

$$$$
CHEMBL220_lig946
                    3D
 Schrodinger Suite 2021-1.
 43 45  0  0  1  0            999 V2000
    5.0315   69.7080   66.2499 C   0  0  0  0  0  0
    3.7267   69.7347   66.7348 C   0  0  0  0  0  0
    2.6691   69.4563   65.8723 C   0  0  0  0  0  0
    5.2777   69.3932   64.9058 C   0  0  0  0  0  0
    4.2111   69.0940   64.0248 C   0  0  0  0  0  0
    2.8661   69.0954   64.5131 C   0  0  0  0  0  0
    1.8221   68.7455   63.5781 C   0  0  0  0  0  0
    2.0873   68.5080   62.2643 N   0  0  0  0  0  0
    3.3661   68.5413   61.8302 C   0  0  0  0  0  0
    4.4487   68.8072   62.6589 C   0  0  0  0  0  0
    0.3091   68.6256   63.9737 C   0  0  2  0  0  0
   -0.0814   68.0327   65.3511 C   0  0  0  0  0  0
   -1.3547   68.2705   65.9115 C   0  0  0  0  0  0
   -1.6381   67.8284   67.2140 C   0  0  0  0  0  0
   -0.6708   67.1763   67.9664 C   0  0  0  0  0  0
    0.5641   66.9080   67.4020 C   0  0  0  0  0  0
    0.8204   67.2441   66.0784 C   0  0  0  0  0  0
   -0.5212   68.1079   62.9548 O   0  0  0  0  0  0
   -2.2949   68.9080   65.1350 O   0  0  0  0  0  0
   -3.6666   68.8186   65.4958 C   0  0  0  0  0  0
    6.0125   70.0211   67.1652 O   0  0  0  0  0  0
    7.3636   69.9964   66.7679 C   0  0  0  0  0  0
    3.5534   70.1080   68.0578 O   0  0  0  0  0  0
    2.2510   70.1759   68.6267 C   0  0  0  0  0  0
    1.6678   69.5813   66.2407 H   0  0  0  0  0  0
    6.2823   69.3893   64.5090 H   0  0  0  0  0  0
    3.5215   68.3436   60.7790 H   0  0  0  0  0  0
    5.4551   68.8192   62.2625 H   0  0  0  0  0  0
   -0.0573   69.6478   63.9679 H   0  0  0  0  0  0
   -2.5993   68.0006   67.6728 H   0  0  0  0  0  0
   -0.8828   66.8614   68.9770 H   0  0  0  0  0  0
    1.3010   66.3646   67.9741 H   0  0  0  0  0  0
    1.7710   66.9560   65.6564 H   0  0  0  0  0  0
   -0.8494   67.2482   63.2595 H   0  0  0  0  0  0
   -4.2388   69.3079   64.7136 H   0  0  0  0  0  0
   -4.0086   67.7850   65.5680 H   0  0  0  0  0  0
   -3.8854   69.3080   66.4418 H   0  0  0  0  0  0
    7.9430   70.2185   67.6580 H   0  0  0  0  0  0
    7.6705   69.0181   66.3943 H   0  0  0  0  0  0
    7.5549   70.7607   66.0138 H   0  0  0  0  0  0
    2.3438   70.5066   69.6601 H   0  0  0  0  0  0
    1.6120   70.8957   68.1136 H   0  0  0  0  0  0
    1.7631   69.2011   68.6345 H   0  0  0  0  0  0
  1  2  2  0  0  0
  1  4  1  0  0  0
  1 21  1  0  0  0
  2  3  1  0  0  0
  2 23  1  0  0  0
  3  6  2  0  0  0
  3 25  1  0  0  0
  4  5  2  0  0  0
  4 26  1  0  0  0
  5  6  1  0  0  0
  5 10  1  0  0  0
  6  7  1  0  0  0
  7  8  2  0  0  0
  7 11  1  0  0  0
  8  9  1  0  0  0
  9 10  2  0  0  0
  9 27  1  0  0  0
 10 28  1  0  0  0
 11 12  1  0  0  0
 11 18  1  0  0  0
 11 29  1  0  0  0
 12 13  2  0  0  0
 12 17  1  0  0  0
 13 14  1  0  0  0
 13 19  1  0  0  0
 14 15  2  0  0  0
 14 30  1  0  0  0
 15 16  1  0  0  0
 15 31  1  0  0  0
 16 17  2  0  0  0
 16 32  1  0  0  0
 17 33  1  0  0  0
 18 34  1  0  0  0
 19 20  1  0  0  0
 20 35  1  0  0  0
 20 36  1  0  0  0
 20 37  1  0  0  0
 21 22  1  0  0  0
 22 38  1  0  0  0
 22 39  1  0  0  0
 22 40  1  0  0  0
 23 24  1  0  0  0
 24 41  1  0  0  0
 24 42  1  0  0  0
 24 43  1  0  0  0
M  END
> <s_m_entry_id>
8723

> <s_m_entry_name>
dock_pv.233

> <s_m_Source_Path>
/home/csk/Desktop/cluster/DUD-E-result/aces

> <s_m_Source_File>
dock_pv.maegz

> <i_m_Source_File_Index>
233

> <chembl_id>
CHEMBL208132

> <chembl_pref_name>
None

> <i_lp_mmshare_version>
53161

> <i_f3d_flags>
0

> <r_lp_tautomer_probability>
1

> <s_lp_Force_Field>
OPLS_2005

> <r_lp_Energy>
25.308495

> <b_lp_Chiralities_Consistent>
1

> <s_lp_Variant>
CHEMBL220_lig946-1

> <s_i_glide_gridfile>
glide-grid_1e66

> <i_i_glide_lignum>
1281

> <i_i_glide_rotatable_bonds>
6

> <r_i_docking_score>
-7.1838010594441

> <r_i_glide_ligand_efficiency>
-0.299325044143504

> <r_i_glide_ligand_efficiency_sa>
-0.863402831681783

> <r_i_glide_ligand_efficiency_ln>
-1.71941323667576

> <r_i_glide_gscore>
-7.1838010594441

> <r_i_glide_lipo>
-3.73678434795884

> <r_i_glide_hbond>
0

> <r_i_glide_metal>
0

> <r_i_glide_rewards>
-1.33031849102105

> <r_i_glide_evdw>
-38.413818359375

> <r_i_glide_ecoul>
-3.66712641716003

> <r_i_glide_erotb>
0.354061660078544

> <r_i_glide_esite>
0

> <r_i_glide_emodel>
-54.4621910314171

> <r_i_glide_energy>
-42.080944776535

> <r_i_glide_einternal>
8.61573314666748

> <i_i_glide_confnum>
1

> <i_i_glide_posenum>
88

> <r_i_glide_eff_state_penalty>
0

> <s_user_duplicate_titles>
CHEMBL220_lig946

> <s_m_subgroup_title>
dock_pv

> <s_m_subgroupid>
dock_pv

> <b_m_subgroup_collapsed>
0

$$$$
CHEMBL220_lig130
                    3D
 Schrodinger Suite 2021-1.
 47 50  0  0  1  0            999 V2000
    1.5426   65.1984   70.4371 C   0  0  0  0  0  0
    0.3489   65.6423   71.0045 C   0  0  0  0  0  0
   -0.4564   66.5080   70.2619 C   0  0  0  0  0  0
    1.8986   65.6268   69.1680 C   0  0  0  0  0  0
    1.0616   66.4778   68.4229 C   0  0  0  0  0  0
   -0.1183   66.9080   68.9633 C   0  0  0  0  0  0
   -0.8296   67.8082   67.9680 C   0  0  0  0  0  0
    0.0344   67.7801   66.7361 C   0  0  0  0  0  0
    1.1430   66.9080   66.9999 C   0  0  0  0  0  0
   -0.0573   65.2905   72.2749 O   0  0  0  0  0  0
    0.3022   63.9990   72.7605 C   0  0  0  0  0  0
    1.9596   66.5356   66.1562 O   0  0  0  0  0  0
   -0.1416   68.4395   65.5714 C   0  0  0  0  0  0
    0.7255   68.5080   64.3612 C   0  0  0  0  0  0
    2.1051   68.9080   64.2980 C   0  0  0  0  0  0
    2.6483   69.0877   63.0085 C   0  0  0  0  0  0
    1.9099   68.9011   61.8477 C   0  0  0  0  0  0
    0.5857   68.5097   61.9347 C   0  0  0  0  0  0
    0.0043   68.3140   63.1769 C   0  0  0  0  0  0
    3.0096   69.2683   65.4742 C   0  0  0  0  0  0
    4.4139   69.2424   65.3458 C   0  0  0  0  0  0
    5.2598   69.7080   66.3540 C   0  0  0  0  0  0
    4.7246   70.1528   67.5680 C   0  0  0  0  0  0
    3.3485   70.1080   67.7482 C   0  0  0  0  0  0
    2.5139   69.7080   66.7120 C   0  0  0  0  0  0
    5.4565   70.6323   68.6372 O   0  0  0  0  0  0
    6.8770   70.6433   68.5795 C   0  0  0  0  0  0
    2.2084   64.5385   70.9706 H   0  0  0  0  0  0
   -1.3405   66.9080   70.7340 H   0  0  0  0  0  0
    2.8063   65.2306   68.7440 H   0  0  0  0  0  0
   -1.8527   67.4854   67.7683 H   0  0  0  0  0  0
   -0.8570   68.8408   68.3193 H   0  0  0  0  0  0
   -0.1943   63.8261   73.7153 H   0  0  0  0  0  0
    1.3727   63.8879   72.9275 H   0  0  0  0  0  0
   -0.0253   63.2158   72.0746 H   0  0  0  0  0  0
   -1.0331   69.0490   65.5054 H   0  0  0  0  0  0
    3.6574   69.4413   62.8687 H   0  0  0  0  0  0
    2.3640   69.0666   60.8818 H   0  0  0  0  0  0
    0.0056   68.3595   61.0370 H   0  0  0  0  0  0
   -1.0394   68.0320   63.2118 H   0  0  0  0  0  0
    4.8859   68.8867   64.4440 H   0  0  0  0  0  0
    6.3243   69.7069   66.1771 H   0  0  0  0  0  0
    2.9179   70.4501   68.6783 H   0  0  0  0  0  0
    1.4624   69.8326   66.8881 H   0  0  0  0  0  0
    7.2690   70.8004   69.5844 H   0  0  0  0  0  0
    7.2991   69.7083   68.2093 H   0  0  0  0  0  0
    7.2317   71.4678   67.9680 H   0  0  0  0  0  0
  1  2  2  0  0  0
  1  4  1  0  0  0
  1 28  1  0  0  0
  2  3  1  0  0  0
  2 10  1  0  0  0
  3  6  2  0  0  0
  3 29  1  0  0  0
  4  5  2  0  0  0
  4 30  1  0  0  0
  5  6  1  0  0  0
  5  9  1  0  0  0
  6  7  1  0  0  0
  7  8  1  0  0  0
  7 31  1  0  0  0
  7 32  1  0  0  0
  8  9  1  0  0  0
  8 13  2  0  0  0
  9 12  2  0  0  0
 10 11  1  0  0  0
 11 33  1  0  0  0
 11 34  1  0  0  0
 11 35  1  0  0  0
 13 14  1  0  0  0
 13 36  1  0  0  0
 14 15  2  0  0  0
 14 19  1  0  0  0
 15 16  1  0  0  0
 15 20  1  0  0  0
 16 17  2  0  0  0
 16 37  1  0  0  0
 17 18  1  0  0  0
 17 38  1  0  0  0
 18 19  2  0  0  0
 18 39  1  0  0  0
 19 40  1  0  0  0
 20 21  2  0  0  0
 20 25  1  0  0  0
 21 22  1  0  0  0
 21 41  1  0  0  0
 22 23  2  0  0  0
 22 42  1  0  0  0
 23 24  1  0  0  0
 23 26  1  0  0  0
 24 25  2  0  0  0
 24 43  1  0  0  0
 25 44  1  0  0  0
 26 27  1  0  0  0
 27 45  1  0  0  0
 27 46  1  0  0  0
 27 47  1  0  0  0
M  END
> <s_m_entry_id>
8724

> <s_m_entry_name>
dock_pv.234

> <s_m_Source_Path>
/home/csk/Desktop/cluster/DUD-E-result/aces

> <s_m_Source_File>
dock_pv.maegz

> <i_m_Source_File_Index>
234

> <chembl_id>
CHEMBL4244803

> <chembl_pref_name>
None

> <i_lp_mmshare_version>
53161

> <i_f3d_flags>
0

> <r_lp_tautomer_probability>
1

> <s_lp_Force_Field>
OPLS_2005

> <r_lp_Energy>
44.162838

> <b_lp_Chiralities_Consistent>
1

> <s_lp_Variant>
CHEMBL220_lig130-1

> <s_i_glide_gridfile>
glide-grid_1e66

> <i_i_glide_lignum>
146

> <i_i_glide_rotatable_bonds>
4

> <r_i_docking_score>
-7.16594839002942

> <r_i_glide_ligand_efficiency>
-0.265405495927015

> <r_i_glide_ligand_efficiency_sa>
-0.796216486906313

> <r_i_glide_ligand_efficiency_ln>
-1.6681146453065

> <r_i_glide_gscore>
-7.16594839002942

> <r_i_glide_lipo>
-4.9877979685035

> <r_i_glide_hbond>
0

> <r_i_glide_metal>
0

> <r_i_glide_rewards>
-1.55163815265098

> <r_i_glide_evdw>
-13.7950601577759

> <r_i_glide_ecoul>
-1.58652377128601

> <r_i_glide_erotb>
0.301219304706758

> <r_i_glide_esite>
0

> <r_i_glide_emodel>
-8.99497398735096

> <r_i_glide_energy>
-15.3815839290619

> <r_i_glide_einternal>
22.055004119873

> <i_i_glide_confnum>
8

> <i_i_glide_posenum>
272

> <r_i_glide_eff_state_penalty>
0

> <s_user_duplicate_titles>
CHEMBL220_lig130

> <s_m_subgroup_title>
dock_pv

> <s_m_subgroupid>
dock_pv

> <b_m_subgroup_collapsed>
0

$$$$
CHEMBL220_lig1147
                    3D
 Schrodinger Suite 2021-1.
 76 81  0  0  1  0            999 V2000
   -0.0755   68.6478   63.0276 N   0  0  0  0  0  0
    2.2665   68.8998   64.5198 C   0  0  0  0  0  0
    1.0561   68.5178   65.1754 C   0  0  0  0  0  0
   -0.1222   68.5080   64.3789 C   0  0  0  0  0  0
   -1.3857   68.4866   65.0181 C   0  0  0  0  0  0
   -1.4756   68.3262   66.3994 C   0  0  0  0  0  0
   -0.3240   68.2235   67.1691 C   0  0  0  0  0  0
    0.9349   68.3268   66.5820 C   0  0  0  0  0  0
    1.0987   68.9795   62.4346 C   0  0  0  0  0  0
    2.2968   69.1605   63.1479 C   0  0  0  0  0  0
    3.6056   69.6232   62.4557 C   0  0  0  0  0  0
    3.4840   69.8541   60.9529 C   0  0  0  0  0  0
    2.4995   68.8557   60.3678 C   0  0  0  0  0  0
    1.0920   69.1459   60.9290 C   0  0  0  0  0  0
    3.4390   69.1539   65.2211 N   0  0  0  0  0  0
    4.3320   68.0403   65.4206 C   0  0  0  0  0  0
    4.2995   66.8086   64.4615 C   0  0  0  0  0  0
    3.1927   65.9642   64.7758 O   0  0  0  0  0  0
    3.3120   64.6075   64.3609 C   0  0  0  0  0  0
    4.2043   63.7073   65.2513 C   0  0  0  0  0  0
    3.5431   63.1631   66.3877 O   0  0  0  0  0  0
    3.5430   63.8660   67.6273 C   0  0  0  0  0  0
    4.6618   63.5451   68.6140 C   0  0  0  0  0  0
    4.4340   63.7972   70.0375 N   0  0  0  0  0  0
    3.2698   63.2276   70.5870 C   0  0  0  0  0  0
    0.8964   62.2283   71.7056 N   0  0  0  0  0  0
    1.9312   61.3863   71.4857 C   0  0  0  0  0  0
    3.1635   61.8404   70.9293 C   0  0  0  0  0  0
    4.1908   60.8818   70.7248 C   0  0  0  0  0  0
    3.9684   59.5355   70.9912 C   0  0  0  0  0  0
    2.7631   59.1025   71.5307 C   0  0  0  0  0  0
    1.7506   60.0176   71.7961 C   0  0  0  0  0  0
    2.1658   64.0725   70.7724 C   0  0  0  0  0  0
    0.9933   63.5192   71.3182 C   0  0  0  0  0  0
   -0.2644   64.3481   71.4756 C   0  0  0  0  0  0
    0.0029   65.8719   71.5457 C   0  0  0  0  0  0
    0.8886   66.2827   70.3718 C   0  0  0  0  0  0
    2.2431   65.5687   70.4333 C   0  0  0  0  0  0
   -2.2804   68.5515   64.4190 H   0  0  0  0  0  0
   -2.4459   68.2815   66.8761 H   0  0  0  0  0  0
   -0.4071   68.1061   68.2397 H   0  0  0  0  0  0
    1.8145   68.3298   67.2062 H   0  0  0  0  0  0
    3.9990   70.5082   62.9445 H   0  0  0  0  0  0
    4.3967   68.8950   62.5883 H   0  0  0  0  0  0
    3.1351   70.8700   60.7680 H   0  0  0  0  0  0
    4.4587   69.7697   60.4733 H   0  0  0  0  0  0
    2.5301   68.9053   59.2829 H   0  0  0  0  0  0
    2.8260   67.8514   60.6413 H   0  0  0  0  0  0
    0.3402   68.5082   60.4674 H   0  0  0  0  0  0
    0.7854   70.1731   60.7300 H   0  0  0  0  0  0
    3.3789   69.7937   66.0002 H   0  0  0  0  0  0
    5.3466   68.4232   65.5301 H   0  0  0  0  0  0
    3.9432   67.7075   66.3679 H   0  0  0  0  0  0
    4.2887   67.0419   63.4033 H   0  0  0  0  0  0
    5.2293   66.2663   64.6283 H   0  0  0  0  0  0
    2.3026   64.1940   64.3676 H   0  0  0  0  0  0
    3.6392   64.5612   63.3205 H   0  0  0  0  0  0
    4.4989   62.8595   64.6348 H   0  0  0  0  0  0
    5.1423   64.1552   65.5598 H   0  0  0  0  0  0
    3.2873   64.9089   67.5106 H   0  0  0  0  0  0
    2.7412   63.3717   68.1277 H   0  0  0  0  0  0
    4.7430   62.4657   68.5037 H   0  0  0  0  0  0
    5.5504   64.1082   68.3355 H   0  0  0  0  0  0
    5.2521   63.5556   70.5761 H   0  0  0  0  0  0
    5.1394   61.1984   70.3334 H   0  0  0  0  0  0
    4.7390   58.8162   70.7723 H   0  0  0  0  0  0
    2.6125   58.0542   71.7421 H   0  0  0  0  0  0
    0.8095   59.6850   72.2128 H   0  0  0  0  0  0
   -0.8399   64.0157   72.3423 H   0  0  0  0  0  0
   -0.8557   64.1085   70.5895 H   0  0  0  0  0  0
    0.4599   66.1083   72.4994 H   0  0  0  0  0  0
   -0.8822   66.5079   71.5293 H   0  0  0  0  0  0
    1.0422   67.3626   70.3663 H   0  0  0  0  0  0
    0.3865   66.0371   69.4326 H   0  0  0  0  0  0
    2.8914   66.0360   71.1679 H   0  0  0  0  0  0
    2.7417   65.7084   69.4842 H   0  0  0  0  0  0
  1  4  2  0  0  0
  1  9  1  0  0  0
  2  3  2  0  0  0
  2 10  1  0  0  0
  2 15  1  0  0  0
  3  8  1  0  0  0
  3  4  1  0  0  0
  4  5  1  0  0  0
  5  6  2  0  0  0
  5 39  1  0  0  0
  6  7  1  0  0  0
  6 40  1  0  0  0
  7  8  2  0  0  0
  7 41  1  0  0  0
  8 42  1  0  0  0
  9 10  2  0  0  0
  9 14  1  0  0  0
 10 11  1  0  0  0
 11 12  1  0  0  0
 11 43  1  0  0  0
 11 44  1  0  0  0
 12 13  1  0  0  0
 12 45  1  0  0  0
 12 46  1  0  0  0
 13 14  1  0  0  0
 13 47  1  0  0  0
 13 48  1  0  0  0
 14 49  1  0  0  0
 14 50  1  0  0  0
 15 16  1  0  0  0
 15 51  1  0  0  0
 16 17  1  0  0  0
 16 52  1  0  0  0
 16 53  1  0  0  0
 17 18  1  0  0  0
 17 54  1  0  0  0
 17 55  1  0  0  0
 18 19  1  0  0  0
 19 20  1  0  0  0
 19 56  1  0  0  0
 19 57  1  0  0  0
 20 21  1  0  0  0
 20 58  1  0  0  0
 20 59  1  0  0  0
 21 22  1  0  0  0
 22 23  1  0  0  0
 22 60  1  0  0  0
 22 61  1  0  0  0
 23 24  1  0  0  0
 23 62  1  0  0  0
 23 63  1  0  0  0
 24 25  1  0  0  0
 24 64  1  0  0  0
 25 28  2  0  0  0
 25 33  1  0  0  0
 26 27  2  0  0  0
 26 34  1  0  0  0
 27 28  1  0  0  0
 27 32  1  0  0  0
 28 29  1  0  0  0
 29 30  2  0  0  0
 29 65  1  0  0  0
 30 31  1  0  0  0
 30 66  1  0  0  0
 31 32  2  0  0  0
 31 67  1  0  0  0
 32 68  1  0  0  0
 33 34  2  0  0  0
 33 38  1  0  0  0
 34 35  1  0  0  0
 35 36  1  0  0  0
 35 69  1  0  0  0
 35 70  1  0  0  0
 36 37  1  0  0  0
 36 71  1  0  0  0
 36 72  1  0  0  0
 37 38  1  0  0  0
 37 73  1  0  0  0
 37 74  1  0  0  0
 38 75  1  0  0  0
 38 76  1  0  0  0
M  END
> <s_m_entry_id>
8725

> <s_m_entry_name>
dock_pv.235

> <s_m_Source_Path>
/home/csk/Desktop/cluster/DUD-E-result/aces

> <s_m_Source_File>
dock_pv.maegz

> <i_m_Source_File_Index>
235

> <chembl_id>
CHEMBL235014

> <chembl_pref_name>
None

> <i_lp_mmshare_version>
53161

> <i_f3d_flags>
0

> <r_lp_tautomer_probability>
1

> <s_lp_Force_Field>
OPLS_2005

> <r_lp_Energy>
35.507968

> <b_lp_Chiralities_Consistent>
1

> <s_lp_Variant>
CHEMBL220_lig1147-1

> <s_i_glide_gridfile>
glide-grid_1e66

> <i_i_glide_lignum>
1561

> <i_i_glide_rotatable_bonds>
11

> <r_i_docking_score>
-7.165381305069

> <r_i_glide_ligand_efficiency>
-0.188562665922869

> <r_i_glide_ligand_efficiency_sa>
-0.633943044704459

> <r_i_glide_ligand_efficiency_ln>
-1.54506699353522

> <r_i_glide_gscore>
-7.165381305069

> <r_i_glide_lipo>
-4.95238047250866

> <r_i_glide_hbond>
-0.32

> <r_i_glide_metal>
0

> <r_i_glide_rewards>
-0.9

> <r_i_glide_evdw>
-34.3350563049316

> <r_i_glide_ecoul>
0.111216589808464

> <r_i_glide_erotb>
0.707069494214965

> <r_i_glide_esite>
0

> <r_i_glide_emodel>
-42.3259688426913

> <r_i_glide_energy>
-34.2238397151232

> <r_i_glide_einternal>
23.301456451416

> <i_i_glide_confnum>
35

> <i_i_glide_posenum>
148

> <r_i_glide_eff_state_penalty>
0

> <s_user_duplicate_titles>
CHEMBL220_lig1147

> <s_m_subgroup_title>
dock_pv

> <s_m_subgroupid>
dock_pv

> <b_m_subgroup_collapsed>
0

$$$$
CHEMBL220_lig312
                    3D
 Schrodinger Suite 2021-1.
 27 29  0  0  1  0            999 V2000
    2.5125   69.5574   67.3438 C   0  0  0  0  0  0
    1.2759   68.9825   67.0037 C   0  0  0  0  0  0
    3.5882   69.5740   66.3803 C   0  0  0  0  0  0
    1.1185   68.5073   65.6940 C   0  0  0  0  0  0
    2.0924   68.4977   64.7658 N   0  0  0  0  0  0
    3.3012   69.0095   65.0937 C   0  0  0  0  0  0
   -0.0554   67.9652   65.2117 O   0  0  0  0  0  0
    4.9124   70.1083   66.5873 C   0  0  0  0  0  0
    2.6359   70.1073   68.6252 N   0  0  0  0  0  0
    5.4305   70.9076   68.0388 Cl  0  0  0  0  0  0
    0.0923   68.9002   67.9679 C   0  0  0  0  0  0
    4.2850   68.9812   64.0828 C   0  0  0  0  0  0
    5.5432   69.5047   64.3244 C   0  0  0  0  0  0
    5.8503   70.0559   65.5596 C   0  0  0  0  0  0
   -1.2421   68.2979   65.9324 C   0  0  0  0  0  0
   -1.0333   68.0110   67.4192 C   0  0  0  0  0  0
    1.8497   70.0795   69.2681 H   0  0  0  0  0  0
    3.5215   70.5078   68.9009 H   0  0  0  0  0  0
    0.4160   68.5082   68.9335 H   0  0  0  0  0  0
   -0.2901   69.9076   68.1436 H   0  0  0  0  0  0
    4.0478   68.5622   63.1147 H   0  0  0  0  0  0
    6.2943   69.4934   63.5465 H   0  0  0  0  0  0
    6.8353   70.4720   65.7137 H   0  0  0  0  0  0
   -2.0763   67.7069   65.5595 H   0  0  0  0  0  0
   -1.4892   69.3506   65.7827 H   0  0  0  0  0  0
   -0.7782   66.9581   67.5505 H   0  0  0  0  0  0
   -1.9599   68.1801   67.9678 H   0  0  0  0  0  0
  1  2  2  0  0  0
  1  3  1  0  0  0
  1  9  1  0  0  0
  2  4  1  0  0  0
  2 11  1  0  0  0
  3  6  1  0  0  0
  3  8  2  0  0  0
  4  7  1  0  0  0
  4  5  2  0  0  0
  5  6  1  0  0  0
  6 12  2  0  0  0
  7 15  1  0  0  0
  8 10  1  0  0  0
  8 14  1  0  0  0
  9 17  1  0  0  0
  9 18  1  0  0  0
 11 16  1  0  0  0
 11 19  1  0  0  0
 11 20  1  0  0  0
 12 13  1  0  0  0
 12 21  1  0  0  0
 13 14  2  0  0  0
 13 22  1  0  0  0
 14 23  1  0  0  0
 15 16  1  0  0  0
 15 24  1  0  0  0
 15 25  1  0  0  0
 16 26  1  0  0  0
 16 27  1  0  0  0
M  END
> <s_m_entry_id>
8726

> <s_m_entry_name>
dock_pv.236

> <s_m_Source_Path>
/home/csk/Desktop/cluster/DUD-E-result/aces

> <s_m_Source_File>
dock_pv.maegz

> <i_m_Source_File_Index>
236

> <chembl_id>
CHEMBL337453

> <chembl_pref_name>
None

> <i_lp_mmshare_version>
53161

> <i_f3d_flags>
0

> <r_lp_tautomer_probability>
1

> <s_lp_Force_Field>
OPLS_2005

> <r_lp_Energy>
22.475445

> <b_lp_Chiralities_Consistent>
1

> <s_lp_Variant>
CHEMBL220_lig312-1

> <s_i_glide_gridfile>
glide-grid_1e66

> <i_i_glide_lignum>
366

> <i_i_glide_rotatable_bonds>
0

> <r_i_docking_score>
-7.15709554677192

> <r_i_glide_ligand_efficiency>
-0.447318471673245

> <r_i_glide_ligand_efficiency_sa>
-1.12717191589412

> <r_i_glide_ligand_efficiency_ln>
-1.89713114090071

> <r_i_glide_gscore>
-7.15709554677192

> <r_i_glide_lipo>
-2.80876645377363

> <r_i_glide_hbond>
-0.074810600204375

> <r_i_glide_metal>
0

> <r_i_glide_rewards>
-2.46732487878788

> <r_i_glide_evdw>
-30.3593730926514

> <r_i_glide_ecoul>
-1.92149972915649

> <r_i_glide_erotb>
0

> <r_i_glide_esite>
0

> <r_i_glide_emodel>
-46.539629078239

> <r_i_glide_energy>
-32.2808728218079

> <r_i_glide_einternal>
0

> <i_i_glide_confnum>
2

> <i_i_glide_posenum>
320

> <r_i_glide_eff_state_penalty>
0

> <s_user_duplicate_titles>
CHEMBL220_lig312,219121

> <s_m_subgroup_title>
dock_pv

> <s_m_subgroupid>
dock_pv

> <b_m_subgroup_collapsed>
0

$$$$
CHEMBL220_lig895
                    3D
 Schrodinger Suite 2021-1.
 63 66  0  0  1  0            999 V2000
    6.1919   70.5082   66.7735 C   0  0  0  0  0  0
    5.8849   70.7771   68.0999 C   0  0  0  0  0  0
    4.5865   70.6151   68.5788 C   0  0  0  0  0  0
    5.2092   70.0577   65.9050 C   0  0  0  0  0  0
    3.8933   69.7835   66.3801 C   0  0  0  0  0  0
    3.5772   70.1076   67.7291 C   0  0  0  0  0  0
    2.3354   69.9099   68.2352 N   0  0  0  0  0  0
    2.8494   69.2356   65.5792 C   0  0  0  0  0  0
    1.6034   68.9083   66.1458 C   0  0  0  0  0  0
    1.3817   69.3082   67.4781 C   0  0  0  0  0  0
    0.0024   69.1752   68.1092 C   0  0  0  0  0  0
   -1.1301   69.1159   67.0751 C   0  0  0  0  0  0
   -0.8299   67.9975   66.0766 C   0  0  0  0  0  0
    0.4783   68.2589   65.3080 C   0  0  0  0  0  0
    7.1430   71.2553   69.1681 Cl  0  0  0  0  0  0
    3.0265   69.0135   64.2106 N   0  0  0  0  0  0
    3.8519   67.8546   63.9901 C   0  0  0  0  0  0
    3.9166   67.4431   62.5244 C   0  0  0  0  0  0
    4.5385   66.0607   62.3692 C   0  0  0  0  0  0
    4.0136   65.1174   63.3634 N   0  0  0  0  0  0
    4.6100   63.9975   63.7610 C   0  0  0  0  0  0
    3.9684   63.2046   64.8959 C   0  0  0  0  0  0
    5.6089   63.5583   63.1992 O   0  0  0  0  0  0
    3.7490   63.8521   66.2865 C   0  0  0  0  0  0
    3.2819   62.9078   67.4267 C   0  0  0  0  0  0
    3.1442   63.5602   68.8175 C   0  0  0  0  0  0
    2.8161   62.5169   69.9162 C   0  0  1  0  0  0
    2.7547   63.3074   71.5497 S   0  0  0  0  0  0
    0.7912   62.9178   71.9165 S   0  0  0  0  0  0
    0.9090   61.3491   71.0428 C   0  0  0  0  0  0
    1.5242   61.7093   69.6902 C   0  0  0  0  0  0
    7.2011   70.6446   66.4103 H   0  0  0  0  0  0
    4.3499   70.8292   69.6116 H   0  0  0  0  0  0
    5.4656   69.8934   64.8696 H   0  0  0  0  0  0
   -0.1759   70.0228   68.7682 H   0  0  0  0  0  0
   -0.0085   68.2751   68.7243 H   0  0  0  0  0  0
   -1.2318   70.0723   66.5590 H   0  0  0  0  0  0
   -2.0827   68.9355   67.5758 H   0  0  0  0  0  0
   -1.6575   67.8869   65.3740 H   0  0  0  0  0  0
   -0.7574   67.0460   66.6075 H   0  0  0  0  0  0
    0.2474   68.9076   64.4632 H   0  0  0  0  0  0
    0.8261   67.3214   64.8733 H   0  0  0  0  0  0
    2.1420   68.9258   63.7321 H   0  0  0  0  0  0
    3.4079   67.0640   64.5947 H   0  0  0  0  0  0
    4.8519   67.9341   64.4127 H   0  0  0  0  0  0
    4.4810   68.1790   61.9488 H   0  0  0  0  0  0
    2.9159   67.4482   62.0929 H   0  0  0  0  0  0
    5.6176   66.1551   62.4922 H   0  0  0  0  0  0
    4.3424   65.7073   61.3629 H   0  0  0  0  0  0
    3.1662   65.3941   63.8373 H   0  0  0  0  0  0
    4.7430   62.5080   65.0941 H   0  0  0  0  0  0
    3.1431   62.6505   64.4778 H   0  0  0  0  0  0
    3.1449   64.7604   66.2227 H   0  0  0  0  0  0
    4.7429   64.1080   66.6255 H   0  0  0  0  0  0
    4.0074   62.1107   67.5722 H   0  0  0  0  0  0
    2.3506   62.4014   67.1697 H   0  0  0  0  0  0
    2.3795   64.3390   68.8016 H   0  0  0  0  0  0
    4.0773   64.0665   69.0736 H   0  0  0  0  0  0
    3.6476   61.8155   69.9922 H   0  0  0  0  0  0
    1.5310   60.6587   71.6138 H   0  0  0  0  0  0
   -0.0845   60.9133   70.9392 H   0  0  0  0  0  0
    1.7311   60.8069   69.1150 H   0  0  0  0  0  0
    0.8046   62.2995   69.1230 H   0  0  0  0  0  0
  1  2  2  0  0  0
  1  4  1  0  0  0
  1 32  1  0  0  0
  2 15  1  0  0  0
  2  3  1  0  0  0
  3  6  2  0  0  0
  3 33  1  0  0  0
  4  5  2  0  0  0
  4 34  1  0  0  0
  5  8  1  0  0  0
  5  6  1  0  0  0
  6  7  1  0  0  0
  7 10  2  0  0  0
  8 16  1  0  0  0
  8  9  2  0  0  0
  9 10  1  0  0  0
  9 14  1  0  0  0
 10 11  1  0  0  0
 11 12  1  0  0  0
 11 35  1  0  0  0
 11 36  1  0  0  0
 12 13  1  0  0  0
 12 37  1  0  0  0
 12 38  1  0  0  0
 13 14  1  0  0  0
 13 39  1  0  0  0
 13 40  1  0  0  0
 14 41  1  0  0  0
 14 42  1  0  0  0
 16 17  1  0  0  0
 16 43  1  0  0  0
 17 18  1  0  0  0
 17 44  1  0  0  0
 17 45  1  0  0  0
 18 19  1  0  0  0
 18 46  1  0  0  0
 18 47  1  0  0  0
 19 20  1  0  0  0
 19 48  1  0  0  0
 19 49  1  0  0  0
 20 21  1  0  0  0
 20 50  1  0  0  0
 21 22  1  0  0  0
 21 23  2  0  0  0
 22 24  1  0  0  0
 22 51  1  0  0  0
 22 52  1  0  0  0
 24 25  1  0  0  0
 24 53  1  0  0  0
 24 54  1  0  0  0
 25 26  1  0  0  0
 25 55  1  0  0  0
 25 56  1  0  0  0
 26 27  1  0  0  0
 26 57  1  0  0  0
 26 58  1  0  0  0
 27 28  1  0  0  0
 27 31  1  0  0  0
 27 59  1  0  0  0
 28 29  1  0  0  0
 29 30  1  0  0  0
 30 31  1  0  0  0
 30 60  1  0  0  0
 30 61  1  0  0  0
 31 62  1  0  0  0
 31 63  1  0  0  0
M  END
> <s_m_entry_id>
8727

> <s_m_entry_name>
dock_pv.237

> <s_m_Source_Path>
/home/csk/Desktop/cluster/DUD-E-result/aces

> <s_m_Source_File>
dock_pv.maegz

> <i_m_Source_File_Index>
237

> <chembl_id>
CHEMBL194823

> <chembl_pref_name>
LIPOCRINE

> <i_lp_mmshare_version>
53161

> <i_f3d_flags>
0

> <r_lp_tautomer_probability>
1

> <s_lp_Force_Field>
OPLS_2005

> <r_lp_Energy>
26.301477

> <b_lp_Chiralities_Consistent>
1

> <s_lp_Variant>
CHEMBL220_lig895-2

> <s_i_glide_gridfile>
glide-grid_1e66

> <i_i_glide_lignum>
1209

> <i_i_glide_rotatable_bonds>
11

> <r_i_docking_score>
-7.15262108598011

> <r_i_glide_ligand_efficiency>
-0.230729712450971

> <r_i_glide_ligand_efficiency_sa>
-0.724809853795648

> <r_i_glide_ligand_efficiency_ln>
-1.6131352563997

> <r_i_glide_gscore>
-7.15262108598011

> <r_i_glide_lipo>
-4.45251343131843

> <r_i_glide_hbond>
-0.12376202307619

> <r_i_glide_metal>
0

> <r_i_glide_rewards>
-1.40148588634465

> <r_i_glide_evdw>
-33.8907814025879

> <r_i_glide_ecoul>
-1.68480336666107

> <r_i_glide_erotb>
0.797740891214162

> <r_i_glide_esite>
-0.0253410613264423

> <r_i_glide_emodel>
-28.7041636122229

> <r_i_glide_energy>
-35.575584769249

> <r_i_glide_einternal>
18.4319610595703

> <i_i_glide_confnum>
41

> <i_i_glide_posenum>
340

> <r_i_glide_eff_state_penalty>
0

> <s_user_duplicate_titles>
CHEMBL220_lig895

> <s_m_subgroup_title>
dock_pv

> <s_m_subgroupid>
dock_pv

> <b_m_subgroup_collapsed>
0

$$$$
CHEMBL220_lig1151
                    3D
 Schrodinger Suite 2021-1.
 37 40  0  0  1  0            999 V2000
    0.8470   69.3811   61.4425 C   0  0  0  0  0  0
    0.2362   69.0142   62.6490 C   0  0  0  0  0  0
    3.0064   68.7044   62.2839 C   0  0  0  0  0  0
    2.2300   69.2403   61.2720 C   0  0  0  0  0  0
    2.3719   68.3582   63.4572 C   0  0  0  0  0  0
    1.0088   68.5079   63.7055 C   0  0  0  0  0  0
    2.8677   67.2670   65.5711 C   0  0  0  0  0  0
    3.3181   67.9813   64.3893 N   0  0  0  0  0  0
    1.3871   67.4617   65.9305 C   0  0  0  0  0  0
    0.4955   68.1061   65.0514 C   0  0  0  0  0  0
   -0.8287   68.3152   65.4541 C   0  0  0  0  0  0
   -1.3133   67.8283   66.6836 C   0  0  0  0  0  0
   -0.4412   67.1345   67.5317 C   0  0  0  0  0  0
    0.8888   66.9785   67.1377 C   0  0  0  0  0  0
    4.4941   68.4518   62.3989 C   0  0  0  0  0  0
    4.5688   67.6758   63.7196 C   0  0  0  0  0  0
   -0.9170   66.6127   68.7250 O   0  0  0  0  0  0
    0.0242   66.2283   69.7324 C   0  0  0  0  0  0
   -2.6201   67.9956   67.1076 O   0  0  0  0  0  0
   -3.5122   68.7331   66.2830 C   0  0  0  0  0  0
    0.2522   69.7867   60.6375 H   0  0  0  0  0  0
   -0.8308   69.1417   62.7531 H   0  0  0  0  0  0
    2.7192   69.5349   60.3678 H   0  0  0  0  0  0
    3.1075   66.2060   65.4956 H   0  0  0  0  0  0
    3.4638   67.7060   66.3673 H   0  0  0  0  0  0
   -1.4935   68.8284   64.7804 H   0  0  0  0  0  0
    1.5432   66.4211   67.7787 H   0  0  0  0  0  0
    5.0519   69.3859   62.4732 H   0  0  0  0  0  0
    4.9106   67.8722   61.5729 H   0  0  0  0  0  0
    4.6534   66.6029   63.5465 H   0  0  0  0  0  0
    5.4167   67.9838   64.3341 H   0  0  0  0  0  0
   -0.4570   66.1091   70.6988 H   0  0  0  0  0  0
    0.4997   65.2807   69.4802 H   0  0  0  0  0  0
    0.7946   66.9878   69.8766 H   0  0  0  0  0  0
   -4.4569   68.9026   66.7900 H   0  0  0  0  0  0
   -3.0872   69.7073   66.0519 H   0  0  0  0  0  0
   -3.7263   68.2054   65.3537 H   0  0  0  0  0  0
  1  4  1  0  0  0
  1  2  2  0  0  0
  1 21  1  0  0  0
  2  6  1  0  0  0
  2 22  1  0  0  0
  3  5  1  0  0  0
  3 15  1  0  0  0
  3  4  2  0  0  0
  4 23  1  0  0  0
  5  6  2  0  0  0
  5  8  1  0  0  0
  6 10  1  0  0  0
  7  9  1  0  0  0
  7  8  1  0  0  0
  7 24  1  0  0  0
  7 25  1  0  0  0
  8 16  1  0  0  0
  9 10  2  0  0  0
  9 14  1  0  0  0
 10 11  1  0  0  0
 11 12  2  0  0  0
 11 26  1  0  0  0
 12 13  1  0  0  0
 12 19  1  0  0  0
 13 14  2  0  0  0
 13 17  1  0  0  0
 14 27  1  0  0  0
 15 16  1  0  0  0
 15 28  1  0  0  0
 15 29  1  0  0  0
 16 30  1  0  0  0
 16 31  1  0  0  0
 17 18  1  0  0  0
 18 32  1  0  0  0
 18 33  1  0  0  0
 18 34  1  0  0  0
 19 20  1  0  0  0
 20 35  1  0  0  0
 20 36  1  0  0  0
 20 37  1  0  0  0
M  END
> <s_m_entry_id>
8728

> <s_m_entry_name>
dock_pv.238

> <s_m_Source_Path>
/home/csk/Desktop/cluster/DUD-E-result/aces

> <s_m_Source_File>
dock_pv.maegz

> <i_m_Source_File_Index>
238

> <chembl_id>
CHEMBL402484

> <chembl_pref_name>
ASSOANINE

> <i_lp_mmshare_version>
53161

> <i_f3d_flags>
0

> <r_lp_tautomer_probability>
1

> <s_lp_Force_Field>
OPLS_2005

> <r_lp_Energy>
33.48797

> <b_lp_Chiralities_Consistent>
1

> <s_lp_Variant>
CHEMBL220_lig1151-1

> <s_i_glide_gridfile>
glide-grid_1e66

> <i_i_glide_lignum>
1565

> <i_i_glide_rotatable_bonds>
2

> <r_i_docking_score>
-7.15159858262705

> <r_i_glide_ligand_efficiency>
-0.357579929131353

> <r_i_glide_ligand_efficiency_sa>
-0.970621258005661

> <r_i_glide_ligand_efficiency_ln>
-1.78980924972385

> <r_i_glide_gscore>
-7.15159858262705

> <r_i_glide_lipo>
-3.74746022268416

> <r_i_glide_hbond>
0

> <r_i_glide_metal>
0

> <r_i_glide_rewards>
-1.93965270868824

> <r_i_glide_evdw>
-32.4047966003418

> <r_i_glide_ecoul>
1.03836119174957

> <r_i_glide_erotb>
0

> <r_i_glide_esite>
0

> <r_i_glide_emodel>
-41.452184438977

> <r_i_glide_energy>
-31.3664354085922

> <r_i_glide_einternal>
0.901137411594391

> <i_i_glide_confnum>
1

> <i_i_glide_posenum>
195

> <r_i_glide_eff_state_penalty>
0

> <s_user_duplicate_titles>
CHEMBL220_lig1151

> <s_m_subgroup_title>
dock_pv

> <s_m_subgroupid>
dock_pv

> <b_m_subgroup_collapsed>
0

$$$$
CHEMBL220_lig844
                    3D
 Schrodinger Suite 2021-1.
 46 48  0  0  1  0            999 V2000
    1.8841   69.0190   66.3673 S   0  0  0  0  0  0
    2.7870   68.0537   65.2019 C   0  0  0  0  0  0
    2.4445   63.3203   71.3612 N   0  3  0  0  0  0
    2.3635   66.7347   65.1803 C   0  0  0  0  0  0
    0.5128   67.8474   66.2912 C   0  0  1  0  0  0
    3.8629   68.4473   64.4222 C   0  0  0  0  0  0
    1.1509   66.5081   66.0158 C   0  0  0  0  0  0
    4.5614   67.4962   63.6567 C   0  0  0  0  0  0
    3.1435   65.7626   64.5698 C   0  0  0  0  0  0
    4.2593   66.1297   63.8015 C   0  0  0  0  0  0
   -0.2792   67.8371   67.5994 C   0  0  0  0  0  0
   -1.5049   67.9228   67.5679 O   0  0  0  0  0  0
    0.4754   67.5553   68.9189 C   0  0  0  0  0  0
    1.2633   63.5795   71.9696 C   0  0  0  0  0  0
    2.8469   64.0168   70.2719 C   0  0  0  0  0  0
    0.8201   65.3529   70.3680 C   0  0  0  0  0  0
   -0.1294   66.4249   69.8117 C   0  0  0  0  0  0
    5.5544   67.8427   62.7678 O   0  0  0  0  0  0
    5.0680   65.1977   63.1711 O   0  0  0  0  0  0
    3.2805   62.2146   71.8696 C   0  0  0  0  0  0
    2.0389   65.0360   69.7602 C   0  0  0  0  0  0
    0.4453   64.6078   71.4943 C   0  0  0  0  0  0
    4.9700   63.8286   63.5686 C   0  0  0  0  0  0
    5.7124   69.2194   62.4397 C   0  0  0  0  0  0
   -0.1421   68.1438   65.4702 H   0  0  0  0  0  0
    4.1474   69.4887   64.4217 H   0  0  0  0  0  0
    1.5236   66.1081   66.9476 H   0  0  0  0  0  0
    0.4424   65.8094   65.5691 H   0  0  0  0  0  0
    2.8465   64.7291   64.6578 H   0  0  0  0  0  0
    0.5007   68.4893   69.4718 H   0  0  0  0  0  0
    1.5252   67.3906   68.6992 H   0  0  0  0  0  0
    1.0107   62.9706   72.8277 H   0  0  0  0  0  0
    3.7924   63.7364   69.8290 H   0  0  0  0  0  0
   -0.9328   65.9007   69.2909 H   0  0  0  0  0  0
   -0.5937   66.9077   70.6731 H   0  0  0  0  0  0
    2.8749   61.2885   71.4620 H   0  0  0  0  0  0
    4.3142   62.3637   71.5519 H   0  0  0  0  0  0
    3.2329   62.2107   72.9605 H   0  0  0  0  0  0
    2.3484   65.5528   68.8740 H   0  0  0  0  0  0
   -0.4700   64.8211   72.0141 H   0  0  0  0  0  0
    5.8147   63.2689   63.1673 H   0  0  0  0  0  0
    4.9961   63.7127   64.6535 H   0  0  0  0  0  0
    4.0569   63.3710   63.1845 H   0  0  0  0  0  0
    6.3435   69.3053   61.5680 H   0  0  0  0  0  0
    4.7665   69.6967   62.1760 H   0  0  0  0  0  0
    6.1831   69.7722   63.2537 H   0  0  0  0  0  0
  1  2  1  0  0  0
  1  5  1  0  0  0
  2  4  2  0  0  0
  2  6  1  0  0  0
  3 14  2  0  0  0
  3 20  1  0  0  0
  3 15  1  0  0  0
  4  9  1  0  0  0
  4  7  1  0  0  0
  5  7  1  0  0  0
  5 11  1  0  0  0
  5 25  1  0  0  0
  6  8  2  0  0  0
  6 26  1  0  0  0
  7 27  1  0  0  0
  7 28  1  0  0  0
  8 10  1  0  0  0
  8 18  1  0  0  0
  9 10  2  0  0  0
  9 29  1  0  0  0
 10 19  1  0  0  0
 11 12  2  0  0  0
 11 13  1  0  0  0
 13 17  1  0  0  0
 13 30  1  0  0  0
 13 31  1  0  0  0
 14 22  1  0  0  0
 14 32  1  0  0  0
 15 21  2  0  0  0
 15 33  1  0  0  0
 16 17  1  0  0  0
 16 21  1  0  0  0
 16 22  2  0  0  0
 17 34  1  0  0  0
 17 35  1  0  0  0
 18 24  1  0  0  0
 19 23  1  0  0  0
 20 36  1  0  0  0
 20 37  1  0  0  0
 20 38  1  0  0  0
 21 39  1  0  0  0
 22 40  1  0  0  0
 23 41  1  0  0  0
 23 42  1  0  0  0
 23 43  1  0  0  0
 24 44  1  0  0  0
 24 45  1  0  0  0
 24 46  1  0  0  0
M  CHG  1   3   1
M  END
> <s_m_entry_id>
8729

> <s_m_entry_name>
dock_pv.239

> <s_m_Source_Path>
/home/csk/Desktop/cluster/DUD-E-result/aces

> <s_m_Source_File>
dock_pv.maegz

> <i_m_Source_File_Index>
239

> <chembl_id>
CHEMBL366114

> <chembl_pref_name>
None

> <i_lp_mmshare_version>
53161

> <i_f3d_flags>
0

> <r_lp_tautomer_probability>
0.999999960000001

> <s_lp_Force_Field>
OPLS_2005

> <r_lp_Energy>
35.110035

> <b_lp_Chiralities_Consistent>
1

> <s_lp_Variant>
CHEMBL220_lig844-2

> <s_i_glide_gridfile>
glide-grid_1e66

> <i_i_glide_lignum>
1093

> <i_i_glide_rotatable_bonds>
6

> <r_i_docking_score>
-7.14950925428355

> <r_i_glide_ligand_efficiency>
-0.297896218928481

> <r_i_glide_ligand_efficiency_sa>
-0.859281386581327

> <r_i_glide_ligand_efficiency_ln>
-1.71120563415243

> <r_i_glide_gscore>
-7.14950925428355

> <r_i_glide_lipo>
-2.82694682522676

> <r_i_glide_hbond>
-0.322114852639262

> <r_i_glide_metal>
0

> <r_i_glide_rewards>
-2.37429210195072

> <r_i_glide_evdw>
-33.4952964782715

> <r_i_glide_ecoul>
-3.94358205795288

> <r_i_glide_erotb>
0.640146658139697

> <r_i_glide_esite>
0

> <r_i_glide_emodel>
-42.570317436451

> <r_i_glide_energy>
-37.4388785362244

> <r_i_glide_einternal>
8.81008052825928

> <i_i_glide_confnum>
48

> <i_i_glide_posenum>
315

> <r_i_glide_eff_state_penalty>
0

> <s_user_duplicate_titles>
CHEMBL220_lig844,314323

> <s_m_subgroup_title>
dock_pv

> <s_m_subgroupid>
dock_pv

> <b_m_subgroup_collapsed>
0

$$$$
CHEMBL220_lig552
                    3D
 Schrodinger Suite 2021-1.
 46 49  0  0  1  0            999 V2000
    2.5533   68.5064   61.8969 N   0  0  0  0  0  0
    2.0268   68.7890   63.0742 C   0  0  0  0  0  0
    3.9457   68.5647   61.9792 O   0  0  0  0  0  0
    3.0887   69.0784   64.0112 C   0  0  0  0  0  0
    0.5688   68.8157   63.2080 C   0  0  0  0  0  0
   -0.1117   66.6230   68.1562 N   0  0  2  0  0  0
    4.2605   68.9284   63.2474 C   0  0  0  0  0  0
   -0.3001   68.6553   64.2313 C   0  0  0  0  0  0
    0.1190   66.4912   69.6063 C   0  0  0  0  0  0
    1.1316   66.9195   67.4218 C   0  0  0  0  0  0
   -1.1374   67.6356   67.8828 C   0  0  0  0  0  0
   -0.0760   68.2783   65.6927 C   0  0  0  0  0  0
    0.8713   65.2207   69.9909 C   0  0  0  0  0  0
   -1.3888   67.8715   66.3805 C   0  0  0  0  0  0
    0.8924   67.1020   65.9092 C   0  0  0  0  0  0
    3.2303   69.4629   65.3590 C   0  0  0  0  0  0
    5.5464   69.1449   63.7517 C   0  0  0  0  0  0
    2.2361   65.2854   70.2807 C   0  0  0  0  0  0
    0.2184   63.9837   69.9860 C   0  0  0  0  0  0
    4.5081   69.6971   65.8759 C   0  0  0  0  0  0
    5.6468   69.5410   65.0874 C   0  0  0  0  0  0
    0.9213   62.8238   70.3069 C   0  0  0  0  0  0
    2.9418   64.1255   70.5926 C   0  0  0  0  0  0
    2.2794   62.8995   70.6095 C   0  0  0  0  0  0
    0.1007   69.0496   62.2608 H   0  0  0  0  0  0
   -1.3385   68.8423   63.9892 H   0  0  0  0  0  0
    0.6713   67.3640   69.9637 H   0  0  0  0  0  0
   -0.8265   66.4915   70.1519 H   0  0  0  0  0  0
    1.5628   67.8273   67.8453 H   0  0  0  0  0  0
    1.8454   66.1114   67.5780 H   0  0  0  0  0  0
   -0.8027   68.5635   68.3659 H   0  0  0  0  0  0
   -2.0742   67.3684   68.3700 H   0  0  0  0  0  0
    0.2975   69.1676   66.2004 H   0  0  0  0  0  0
   -2.1405   68.6547   66.2708 H   0  0  0  0  0  0
   -1.8155   66.9560   65.9717 H   0  0  0  0  0  0
    0.4795   66.1728   65.5139 H   0  0  0  0  0  0
    1.8473   67.2402   65.4180 H   0  0  0  0  0  0
    2.3730   69.6146   65.9931 H   0  0  0  0  0  0
    6.4291   69.0278   63.1366 H   0  0  0  0  0  0
    2.7459   66.2380   70.2733 H   0  0  0  0  0  0
   -0.8280   63.9208   69.7251 H   0  0  0  0  0  0
    4.6117   70.0090   66.9049 H   0  0  0  0  0  0
    6.6195   69.7323   65.5210 H   0  0  0  0  0  0
    0.4184   61.8668   70.3113 H   0  0  0  0  0  0
    3.9965   64.1799   70.8250 H   0  0  0  0  0  0
    2.8246   62.0001   70.8564 H   0  0  0  0  0  0
  1  2  2  0  0  0
  1  3  1  0  0  0
  2  4  1  0  0  0
  2  5  1  0  0  0
  3  7  1  0  0  0
  4 16  1  0  0  0
  4  7  2  0  0  0
  5  8  2  0  0  0
  5 25  1  0  0  0
  6 10  1  0  0  0
  6  9  1  0  0  0
  6 11  1  0  0  0
  7 17  1  0  0  0
  8 12  1  0  0  0
  8 26  1  0  0  0
  9 13  1  0  0  0
  9 27  1  0  0  0
  9 28  1  0  0  0
 10 15  1  0  0  0
 10 29  1  0  0  0
 10 30  1  0  0  0
 11 14  1  0  0  0
 11 31  1  0  0  0
 11 32  1  0  0  0
 12 14  1  0  0  0
 12 15  1  0  0  0
 12 33  1  0  0  0
 13 18  1  0  0  0
 13 19  2  0  0  0
 14 34  1  0  0  0
 14 35  1  0  0  0
 15 36  1  0  0  0
 15 37  1  0  0  0
 16 20  2  0  0  0
 16 38  1  0  0  0
 17 21  2  0  0  0
 17 39  1  0  0  0
 18 23  2  0  0  0
 18 40  1  0  0  0
 19 22  1  0  0  0
 19 41  1  0  0  0
 20 21  1  0  0  0
 20 42  1  0  0  0
 21 43  1  0  0  0
 22 24  2  0  0  0
 22 44  1  0  0  0
 23 24  1  0  0  0
 23 45  1  0  0  0
 24 46  1  0  0  0
M  END
> <s_m_entry_id>
8730

> <s_m_entry_name>
dock_pv.240

> <s_m_Source_Path>
/home/csk/Desktop/cluster/DUD-E-result/aces

> <s_m_Source_File>
dock_pv.maegz

> <i_m_Source_File_Index>
240

> <chembl_id>
CHEMBL96246

> <chembl_pref_name>
None

> <i_lp_mmshare_version>
53161

> <i_f3d_flags>
0

> <r_lp_tautomer_probability>
1

> <s_lp_Force_Field>
OPLS_2005

> <r_lp_Energy>
35.032733

> <b_lp_Chiralities_Consistent>
1

> <s_lp_Variant>
CHEMBL220_lig552-1

> <s_i_glide_gridfile>
glide-grid_1e66

> <i_i_glide_lignum>
637

> <i_i_glide_rotatable_bonds>
4

> <r_i_docking_score>
-7.14950244506044

> <r_i_glide_ligand_efficiency>
-0.297895935210852

> <r_i_glide_ligand_efficiency_sa>
-0.859280568198068

> <r_i_glide_ligand_efficiency_ln>
-1.71120400439289

> <r_i_glide_gscore>
-7.14950244506044

> <r_i_glide_lipo>
-3.94436899918221

> <r_i_glide_hbond>
0

> <r_i_glide_metal>
0

> <r_i_glide_rewards>
-2.13809877272727

> <r_i_glide_evdw>
-34.826904296875

> <r_i_glide_ecoul>
-0.408487588167191

> <r_i_glide_erotb>
0.735583679917873

> <r_i_glide_esite>
0

> <r_i_glide_emodel>
-34.7423518438544

> <r_i_glide_energy>
-35.2353918850422

> <r_i_glide_einternal>
7.52903747558594

> <i_i_glide_confnum>
40

> <i_i_glide_posenum>
60

> <r_i_glide_eff_state_penalty>
0

> <s_user_duplicate_titles>
CHEMBL220_lig552,150025

> <s_m_subgroup_title>
dock_pv

> <s_m_subgroupid>
dock_pv

> <b_m_subgroup_collapsed>
0

$$$$
CHEMBL220_lig387
                    3D
 Schrodinger Suite 2021-1.
 51 54  0  0  1  0            999 V2000
    1.8767   63.5684   71.2149 C   0  0  0  0  0  0
   -0.0316   64.6498   69.8959 C   0  0  0  0  0  0
   -0.0795   66.1520   69.4777 C   0  0  0  0  0  0
    1.3034   66.8351   69.4871 C   0  0  0  0  0  0
    1.4202   68.1613   68.6977 C   0  0  0  0  0  0
    0.9150   67.9895   67.3370 N   0  0  1  0  0  0
   -0.5284   67.7462   67.4166 C   0  0  0  0  0  0
   -0.8299   66.4228   68.1469 C   0  0  0  0  0  0
    1.2263   69.1339   66.4772 C   0  0  0  0  0  0
    2.4646   68.8930   65.6161 C   0  0  0  0  0  0
    2.3555   68.1173   64.4565 C   0  0  0  0  0  0
    3.4736   67.8965   63.6534 C   0  0  0  0  0  0
    4.7050   68.4337   64.0203 C   0  0  0  0  0  0
    4.8283   69.1821   65.1898 C   0  0  0  0  0  0
    3.7111   69.3965   65.9957 C   0  0  0  0  0  0
    0.5655   64.3608   71.2929 C   0  0  0  0  0  0
    2.9550   64.3164   70.8703 N   0  0  0  0  0  0
    4.1541   63.7048   70.7679 C   0  0  0  0  0  0
    4.3408   62.3442   70.9960 C   0  0  0  0  0  0
    1.9302   62.1560   71.4414 C   0  0  0  0  0  0
    3.2203   61.5414   71.3343 C   0  0  0  0  0  0
    3.3519   60.1487   71.5675 C   0  0  0  0  0  0
    2.2382   59.3769   71.8793 C   0  0  0  0  0  0
    0.9797   59.9644   71.9738 C   0  0  0  0  0  0
    0.8138   61.3309   71.7605 C   0  0  0  0  0  0
    0.5582   64.1054   69.1689 H   0  0  0  0  0  0
   -1.0036   64.1716   69.8262 H   0  0  0  0  0  0
   -0.6573   66.7039   70.2212 H   0  0  0  0  0  0
    1.7221   66.9173   70.4891 H   0  0  0  0  0  0
    1.9432   66.1287   68.9625 H   0  0  0  0  0  0
    0.8543   68.9568   69.1658 H   0  0  0  0  0  0
    2.4541   68.5056   68.6903 H   0  0  0  0  0  0
   -1.0437   68.5963   67.8649 H   0  0  0  0  0  0
   -0.9197   67.6571   66.4017 H   0  0  0  0  0  0
   -0.4597   65.7079   67.4193 H   0  0  0  0  0  0
   -1.8989   66.2309   68.2279 H   0  0  0  0  0  0
    0.3944   69.3080   65.7945 H   0  0  0  0  0  0
    1.3568   70.0409   67.0735 H   0  0  0  0  0  0
    1.4004   67.7045   64.1721 H   0  0  0  0  0  0
    3.3856   67.3144   62.7471 H   0  0  0  0  0  0
    5.5713   68.2756   63.3917 H   0  0  0  0  0  0
    5.7897   69.5869   65.4713 H   0  0  0  0  0  0
    3.8150   69.9755   66.9016 H   0  0  0  0  0  0
   -0.1694   63.8606   71.9227 H   0  0  0  0  0  0
    0.7490   65.2933   71.8269 H   0  0  0  0  0  0
    4.9903   64.3421   70.5131 H   0  0  0  0  0  0
    5.3196   61.8974   70.9201 H   0  0  0  0  0  0
    4.3233   59.6840   71.5006 H   0  0  0  0  0  0
    2.3448   58.3146   72.0487 H   0  0  0  0  0  0
    0.1227   59.3509   72.2102 H   0  0  0  0  0  0
   -0.1786   61.7477   71.8391 H   0  0  0  0  0  0
  1 16  1  0  0  0
  1 17  2  0  0  0
  1 20  1  0  0  0
  2 16  1  0  0  0
  2  3  1  0  0  0
  2 26  1  0  0  0
  2 27  1  0  0  0
  3  4  1  0  0  0
  3  8  1  0  0  0
  3 28  1  0  0  0
  4  5  1  0  0  0
  4 29  1  0  0  0
  4 30  1  0  0  0
  5  6  1  0  0  0
  5 31  1  0  0  0
  5 32  1  0  0  0
  6  7  1  0  0  0
  6  9  1  0  0  0
  7  8  1  0  0  0
  7 33  1  0  0  0
  7 34  1  0  0  0
  8 35  1  0  0  0
  8 36  1  0  0  0
  9 10  1  0  0  0
  9 37  1  0  0  0
  9 38  1  0  0  0
 10 15  1  0  0  0
 10 11  2  0  0  0
 11 12  1  0  0  0
 11 39  1  0  0  0
 12 13  2  0  0  0
 12 40  1  0  0  0
 13 14  1  0  0  0
 13 41  1  0  0  0
 14 15  2  0  0  0
 14 42  1  0  0  0
 15 43  1  0  0  0
 16 44  1  0  0  0
 16 45  1  0  0  0
 17 18  1  0  0  0
 18 19  2  0  0  0
 18 46  1  0  0  0
 19 21  1  0  0  0
 19 47  1  0  0  0
 20 21  1  0  0  0
 20 25  2  0  0  0
 21 22  2  0  0  0
 22 23  1  0  0  0
 22 48  1  0  0  0
 23 24  2  0  0  0
 23 49  1  0  0  0
 24 25  1  0  0  0
 24 50  1  0  0  0
 25 51  1  0  0  0
M  END
> <s_m_entry_id>
8731

> <s_m_entry_name>
dock_pv.241

> <s_m_Source_Path>
/home/csk/Desktop/cluster/DUD-E-result/aces

> <s_m_Source_File>
dock_pv.maegz

> <i_m_Source_File_Index>
241

> <chembl_id>
CHEMBL92142

> <chembl_pref_name>
None

> <i_lp_mmshare_version>
53161

> <i_f3d_flags>
0

> <r_lp_tautomer_probability>
1

> <s_lp_Force_Field>
OPLS_2005

> <r_lp_Energy>
22.281092

> <b_lp_Chiralities_Consistent>
1

> <s_lp_Variant>
CHEMBL220_lig387-1

> <s_i_glide_gridfile>
glide-grid_1e66

> <i_i_glide_lignum>
446

> <i_i_glide_rotatable_bonds>
5

> <r_i_docking_score>
-7.14797082054043

> <r_i_glide_ligand_efficiency>
-0.285918832821617

> <r_i_glide_ligand_efficiency_sa>
-0.836031737962501

> <r_i_glide_ligand_efficiency_ln>
-1.6942832918681

> <r_i_glide_gscore>
-7.14797082054043

> <r_i_glide_lipo>
-4.10728036333049

> <r_i_glide_hbond>
0

> <r_i_glide_metal>
0

> <r_i_glide_rewards>
-2.05591404545454

> <r_i_glide_evdw>
-35.5634651184082

> <r_i_glide_ecoul>
-0.451579093933105

> <r_i_glide_erotb>
0.861133708254977

> <r_i_glide_esite>
0

> <r_i_glide_emodel>
-42.1190603791969

> <r_i_glide_energy>
-36.0150442123413

> <r_i_glide_einternal>
6.21855974197388

> <i_i_glide_confnum>
180

> <i_i_glide_posenum>
114

> <r_i_glide_eff_state_penalty>
0

> <s_user_duplicate_titles>
CHEMBL220_lig387,150030

> <s_m_subgroup_title>
dock_pv

> <s_m_subgroupid>
dock_pv

> <b_m_subgroup_collapsed>
0

$$$$
CHEMBL220_lig425
                    3D
 Schrodinger Suite 2021-1.
 49 52  0  0  1  0            999 V2000
    1.9610   61.8037   70.9764 C   0  0  0  0  0  0
    3.0016   61.5423   70.0765 C   0  0  0  0  0  0
    3.5430   62.5664   69.2890 C   0  0  0  0  0  0
    3.0726   63.8796   69.3670 C   0  0  0  0  0  0
    1.4905   63.1207   71.0293 C   0  0  0  0  0  0
    2.0091   64.1594   70.2383 C   0  0  0  0  0  0
    1.2006   65.2855   70.5973 C   0  0  0  0  0  0
    0.3432   64.9594   71.5435 N   0  0  0  0  0  0
    0.4937   63.5961   71.8205 O   0  0  0  0  0  0
    1.2201   66.7010   70.0452 C   0  0  0  0  0  0
    0.4772   66.8296   68.6952 C   0  0  0  0  0  0
    0.2971   68.2902   68.1931 C   0  0  0  0  0  0
    1.5657   68.9678   67.6563 C   0  0  0  0  0  0
    2.0195   68.3545   66.3182 C   0  0  0  0  0  0
    0.9604   68.3248   65.2913 N   0  0  2  0  0  0
   -0.3264   67.7916   65.7803 C   0  0  0  0  0  0
   -0.7724   68.4461   67.0972 C   0  0  0  0  0  0
    1.3612   67.5475   64.1136 C   0  0  0  0  0  0
    2.5701   68.1083   63.3693 C   0  0  0  0  0  0
    2.3802   68.9496   62.2725 C   0  0  0  0  0  0
    3.4851   69.4768   61.6107 C   0  0  0  0  0  0
    4.7668   69.1965   62.0710 C   0  0  0  0  0  0
    4.9637   68.3628   63.1670 C   0  0  0  0  0  0
    3.8637   67.8109   63.8125 C   0  0  0  0  0  0
    3.5251   60.1883   69.9588 C   0  0  0  0  0  0
    3.9431   59.1132   69.8620 N   0  0  0  0  0  0
    1.5281   61.0338   71.5979 H   0  0  0  0  0  0
    4.3436   62.3523   68.5952 H   0  0  0  0  0  0
    3.5008   64.6557   68.7523 H   0  0  0  0  0  0
    0.7456   67.3669   70.7647 H   0  0  0  0  0  0
    2.2456   67.0612   69.9677 H   0  0  0  0  0  0
    0.9845   66.2264   67.9440 H   0  0  0  0  0  0
   -0.5130   66.3822   68.8134 H   0  0  0  0  0  0
   -0.0438   68.9072   69.0113 H   0  0  0  0  0  0
    1.4186   70.0404   67.5284 H   0  0  0  0  0  0
    2.3728   68.8857   68.3819 H   0  0  0  0  0  0
    2.8859   68.9000   65.9446 H   0  0  0  0  0  0
    2.3412   67.3259   66.4744 H   0  0  0  0  0  0
   -1.0940   67.9198   65.0154 H   0  0  0  0  0  0
   -0.2348   66.7144   65.9412 H   0  0  0  0  0  0
   -1.7069   67.9857   67.4227 H   0  0  0  0  0  0
   -1.0157   69.4967   66.9204 H   0  0  0  0  0  0
    1.5646   66.5165   64.4123 H   0  0  0  0  0  0
    0.5194   67.5171   63.4174 H   0  0  0  0  0  0
    1.3850   69.1950   61.9322 H   0  0  0  0  0  0
    3.3483   70.1305   60.7678 H   0  0  0  0  0  0
    5.6215   69.6232   61.5677 H   0  0  0  0  0  0
    5.9658   68.1550   63.5132 H   0  0  0  0  0  0
    4.0156   67.1687   64.6651 H   0  0  0  0  0  0
  1  2  2  0  0  0
  1  5  1  0  0  0
  1 27  1  0  0  0
  2  3  1  0  0  0
  2 25  1  0  0  0
  3  4  2  0  0  0
  3 28  1  0  0  0
  4  6  1  0  0  0
  4 29  1  0  0  0
  5  9  1  0  0  0
  5  6  2  0  0  0
  6  7  1  0  0  0
  7  8  2  0  0  0
  7 10  1  0  0  0
  8  9  1  0  0  0
 10 11  1  0  0  0
 10 30  1  0  0  0
 10 31  1  0  0  0
 11 12  1  0  0  0
 11 32  1  0  0  0
 11 33  1  0  0  0
 12 13  1  0  0  0
 12 17  1  0  0  0
 12 34  1  0  0  0
 13 14  1  0  0  0
 13 35  1  0  0  0
 13 36  1  0  0  0
 14 15  1  0  0  0
 14 37  1  0  0  0
 14 38  1  0  0  0
 15 16  1  0  0  0
 15 18  1  0  0  0
 16 17  1  0  0  0
 16 39  1  0  0  0
 16 40  1  0  0  0
 17 41  1  0  0  0
 17 42  1  0  0  0
 18 19  1  0  0  0
 18 43  1  0  0  0
 18 44  1  0  0  0
 19 20  2  0  0  0
 19 24  1  0  0  0
 20 21  1  0  0  0
 20 45  1  0  0  0
 21 22  2  0  0  0
 21 46  1  0  0  0
 22 23  1  0  0  0
 22 47  1  0  0  0
 23 24  2  0  0  0
 23 48  1  0  0  0
 24 49  1  0  0  0
 25 26  3  0  0  0
M  END
> <s_m_entry_id>
8732

> <s_m_entry_name>
dock_pv.242

> <s_m_Source_Path>
/home/csk/Desktop/cluster/DUD-E-result/aces

> <s_m_Source_File>
dock_pv.maegz

> <i_m_Source_File_Index>
242

> <chembl_id>
CHEMBL92775

> <chembl_pref_name>
None

> <i_lp_mmshare_version>
53161

> <i_f3d_flags>
0

> <r_lp_tautomer_probability>
1

> <s_lp_Force_Field>
OPLS_2005

> <r_lp_Energy>
30.711545

> <b_lp_Chiralities_Consistent>
1

> <s_lp_Variant>
CHEMBL220_lig425-1

> <s_i_glide_gridfile>
glide-grid_1e66

> <i_i_glide_lignum>
485

> <i_i_glide_rotatable_bonds>
5

> <r_i_docking_score>
-7.14686369327052

> <r_i_glide_ligand_efficiency>
-0.274879372818097

> <r_i_glide_ligand_efficiency_sa>
-0.814329060375508

> <r_i_glide_ligand_efficiency_ln>
-1.67841748759207

> <r_i_glide_gscore>
-7.14686369327052

> <r_i_glide_lipo>
-3.360147669159

> <r_i_glide_hbond>
-0.137681408804385

> <r_i_glide_metal>
0

> <r_i_glide_rewards>
-2.18562100702569

> <r_i_glide_evdw>
-41.3451766967773

> <r_i_glide_ecoul>
-1.28184711933136

> <r_i_glide_erotb>
0.796122294457128

> <r_i_glide_esite>
0

> <r_i_glide_emodel>
-58.9165350104301

> <r_i_glide_energy>
-42.6270238161087

> <r_i_glide_einternal>
3.89191508293152

> <i_i_glide_confnum>
188

> <i_i_glide_posenum>
376

> <r_i_glide_eff_state_penalty>
0

> <s_user_duplicate_titles>
CHEMBL220_lig425,149838

> <s_m_subgroup_title>
dock_pv

> <s_m_subgroupid>
dock_pv

> <b_m_subgroup_collapsed>
0

$$$$
CHEMBL220_lig278
                    3D
 Schrodinger Suite 2021-1.
 30 33  0  0  1  0            999 V2000
    0.5932   68.2455   64.0687 N   0  0  0  0  0  0
    0.3614   68.3683   65.3925 C   0  0  0  0  0  0
    1.2951   68.8062   66.3214 C   0  0  0  0  0  0
    2.5803   69.1537   65.9024 C   0  0  0  0  0  0
    1.8381   68.5790   63.6274 C   0  0  0  0  0  0
    2.8860   69.0124   64.5091 C   0  0  0  0  0  0
    0.5581   68.8282   67.6572 C   0  0  1  0  0  0
   -0.9433   68.1439   66.1416 C   0  0  2  0  0  0
   -0.8283   69.2670   67.1687 C   0  0  0  0  0  0
    2.0729   68.5306   62.2372 C   0  0  0  0  0  0
    4.1582   69.3119   63.9446 C   0  0  0  0  0  0
    0.2879   67.3622   68.0764 C   0  0  0  0  0  0
   -0.7768   66.9049   67.0457 C   0  0  0  0  0  0
    3.4864   69.6928   66.8205 N   0  0  0  0  0  0
    3.3109   68.8935   61.7210 C   0  0  0  0  0  0
    4.3515   69.2598   62.5658 C   0  0  0  0  0  0
    3.5428   68.9079   60.0155 Cl  0  0  0  0  0  0
    0.9901   69.4573   68.4373 H   0  0  0  0  0  0
   -1.8481   68.1574   65.5337 H   0  0  0  0  0  0
   -1.5925   69.2333   67.9495 H   0  0  0  0  0  0
   -0.8600   70.2616   66.7240 H   0  0  0  0  0  0
    1.2690   68.2369   61.5750 H   0  0  0  0  0  0
    4.9729   69.6248   64.5819 H   0  0  0  0  0  0
    1.1852   66.7473   68.0390 H   0  0  0  0  0  0
   -0.0903   67.3084   69.0976 H   0  0  0  0  0  0
   -1.7178   66.6472   67.5335 H   0  0  0  0  0  0
   -0.4552   66.0458   66.4570 H   0  0  0  0  0  0
    4.3448   70.1061   66.4857 H   0  0  0  0  0  0
    3.1783   69.8411   67.7703 H   0  0  0  0  0  0
    5.3124   69.5227   62.1455 H   0  0  0  0  0  0
  1  2  2  0  0  0
  1  5  1  0  0  0
  2  3  1  0  0  0
  2  8  1  0  0  0
  3  7  1  0  0  0
  3  4  2  0  0  0
  4  6  1  0  0  0
  4 14  1  0  0  0
  5  6  1  0  0  0
  5 10  2  0  0  0
  6 11  2  0  0  0
  7  9  1  0  0  0
  7 12  1  0  0  0
  7 18  1  0  0  0
  8  9  1  0  0  0
  8 13  1  0  0  0
  8 19  1  0  0  0
  9 20  1  0  0  0
  9 21  1  0  0  0
 10 15  1  0  0  0
 10 22  1  0  0  0
 11 16  1  0  0  0
 11 23  1  0  0  0
 12 13  1  0  0  0
 12 24  1  0  0  0
 12 25  1  0  0  0
 13 26  1  0  0  0
 13 27  1  0  0  0
 14 28  1  0  0  0
 14 29  1  0  0  0
 15 16  2  0  0  0
 15 17  1  0  0  0
 16 30  1  0  0  0
M  END
> <s_m_entry_id>
8733

> <s_m_entry_name>
dock_pv.243

> <s_m_Source_Path>
/home/csk/Desktop/cluster/DUD-E-result/aces

> <s_m_Source_File>
dock_pv.maegz

> <i_m_Source_File_Index>
243

> <chembl_id>
CHEMBL352500

> <chembl_pref_name>
None

> <i_lp_mmshare_version>
53161

> <i_f3d_flags>
0

> <r_lp_tautomer_probability>
1

> <s_lp_Force_Field>
OPLS_2005

> <r_lp_Energy>
62.415919

> <b_lp_Chiralities_Consistent>
1

> <s_lp_Variant>
CHEMBL220_lig278-2

> <s_i_glide_gridfile>
glide-grid_1e66

> <i_i_glide_lignum>
329

> <i_i_glide_rotatable_bonds>
0

> <r_i_docking_score>
-7.14600525126543

> <r_i_glide_ligand_efficiency>
-0.420353250074437

> <r_i_glide_ligand_efficiency_sa>
-1.080846572469

> <r_i_glide_ligand_efficiency_ln>
-1.86423363634222

> <r_i_glide_gscore>
-7.14600525126543

> <r_i_glide_lipo>
-3.38797720751344

> <r_i_glide_hbond>
0

> <r_i_glide_metal>
0

> <r_i_glide_rewards>
-1.93272928143052

> <r_i_glide_evdw>
-30.9298515319824

> <r_i_glide_ecoul>
-1.85870790481567

> <r_i_glide_erotb>
0

> <r_i_glide_esite>
0

> <r_i_glide_emodel>
-47.0644146637853

> <r_i_glide_energy>
-32.7885594367981

> <r_i_glide_einternal>
0

> <i_i_glide_confnum>
1

> <i_i_glide_posenum>
263

> <r_i_glide_eff_state_penalty>
0

> <s_user_duplicate_titles>
CHEMBL220_lig278,284802

> <s_m_subgroup_title>
dock_pv

> <s_m_subgroupid>
dock_pv

> <b_m_subgroup_collapsed>
0

$$$$
CHEMBL220_lig449
                    3D
 Schrodinger Suite 2021-1.
 61 63  0  0  1  0            999 V2000
    4.9084   69.7081   65.9290 C   0  0  0  0  0  0
    4.5807   69.1393   64.7317 O   0  0  0  0  0  0
    4.1199   69.9770   66.8394 O   0  0  0  0  0  0
    3.2800   68.7738   64.4186 C   0  0  0  0  0  0
    6.2724   69.9313   65.9704 N   0  0  0  0  0  0
    1.0718   67.8935   64.9835 C   0  0  0  0  0  0
    3.0273   61.3822   70.4372 C   0  0  0  0  0  0
    2.3947   68.1790   65.3328 C   0  0  0  0  0  0
    0.1111   67.2251   65.9745 C   0  0  0  0  0  0
    0.3340   67.5827   67.3842 N   0  0  2  0  0  0
    2.7949   59.8775   70.4656 C   0  0  0  0  0  0
    1.9659   62.2679   70.2148 C   0  0  0  0  0  0
    2.1803   63.6507   70.1787 C   0  0  0  0  0  0
    2.5843   59.3253   71.8686 C   0  0  0  0  0  0
    0.0408   66.7087   69.7179 C   0  0  0  0  0  0
    1.0812   64.4678   69.9694 O   0  0  0  0  0  0
    1.5377   68.6578   62.7332 C   0  0  0  0  0  0
    4.5472   63.2549   70.5665 C   0  0  0  0  0  0
   -0.4746   66.7277   68.2619 C   0  0  0  0  0  0
    2.8396   68.9889   63.1104 C   0  0  0  0  0  0
    4.3202   61.8828   70.6076 C   0  0  0  0  0  0
    0.6577   68.1086   63.6650 C   0  0  0  0  0  0
    1.3070   65.8759   69.9454 C   0  0  0  0  0  0
    3.4893   64.1304   70.3578 C   0  0  0  0  0  0
    6.9087   70.4537   67.1748 C   0  0  0  0  0  0
    0.0049   68.9972   67.6038 C   0  0  0  0  0  0
    3.6687   59.2150   72.7476 C   0  0  0  0  0  0
    1.3152   58.8987   72.2697 C   0  0  0  0  0  0
    1.1279   58.3743   73.5448 C   0  0  0  0  0  0
    3.4798   58.6944   74.0250 C   0  0  0  0  0  0
    2.2097   58.2746   74.4178 C   0  0  0  0  0  0
    6.8421   69.7070   65.1636 H   0  0  0  0  0  0
    2.7242   67.9678   66.3398 H   0  0  0  0  0  0
   -0.9254   67.4068   65.6807 H   0  0  0  0  0  0
    0.2717   66.1516   65.8562 H   0  0  0  0  0  0
    1.9425   59.6302   69.8319 H   0  0  0  0  0  0
    3.6444   59.3691   70.0097 H   0  0  0  0  0  0
    0.9645   61.8874   70.0782 H   0  0  0  0  0  0
    0.3409   67.7083   70.0137 H   0  0  0  0  0  0
   -0.7446   66.4103   70.4042 H   0  0  0  0  0  0
    1.2087   68.8287   61.7179 H   0  0  0  0  0  0
    5.5418   63.6514   70.6920 H   0  0  0  0  0  0
   -1.5350   66.9826   68.2193 H   0  0  0  0  0  0
   -0.4062   65.7084   67.8912 H   0  0  0  0  0  0
    3.5111   69.4296   62.3844 H   0  0  0  0  0  0
    5.1542   61.2146   70.7726 H   0  0  0  0  0  0
   -0.3480   67.8456   63.3612 H   0  0  0  0  0  0
    2.0267   66.1190   69.1684 H   0  0  0  0  0  0
    1.7406   66.1722   70.8992 H   0  0  0  0  0  0
    3.7175   65.1857   70.3452 H   0  0  0  0  0  0
    7.9415   70.7108   66.9616 H   0  0  0  0  0  0
    6.9027   69.7101   67.9661 H   0  0  0  0  0  0
    6.4018   71.3409   67.5571 H   0  0  0  0  0  0
    0.2062   69.3089   68.6286 H   0  0  0  0  0  0
    0.6080   69.6460   66.9668 H   0  0  0  0  0  0
   -1.0456   69.2018   67.3908 H   0  0  0  0  0  0
    4.6568   59.5327   72.4452 H   0  0  0  0  0  0
    0.4728   58.9739   71.5935 H   0  0  0  0  0  0
    0.1469   58.0461   73.8574 H   0  0  0  0  0  0
    4.3145   58.6065   74.7051 H   0  0  0  0  0  0
    2.0664   57.8660   75.4071 H   0  0  0  0  0  0
  1  2  1  0  0  0
  1  3  2  0  0  0
  1  5  1  0  0  0
  2  4  1  0  0  0
  4  8  1  0  0  0
  4 20  2  0  0  0
  5 25  1  0  0  0
  5 32  1  0  0  0
  6  8  2  0  0  0
  6  9  1  0  0  0
  6 22  1  0  0  0
  7 11  1  0  0  0
  7 12  2  0  0  0
  7 21  1  0  0  0
  8 33  1  0  0  0
  9 10  1  0  0  0
  9 34  1  0  0  0
  9 35  1  0  0  0
 10 19  1  0  0  0
 10 26  1  0  0  0
 11 14  1  0  0  0
 11 36  1  0  0  0
 11 37  1  0  0  0
 12 13  1  0  0  0
 12 38  1  0  0  0
 13 16  1  0  0  0
 13 24  2  0  0  0
 14 27  2  0  0  0
 14 28  1  0  0  0
 15 19  1  0  0  0
 15 23  1  0  0  0
 15 39  1  0  0  0
 15 40  1  0  0  0
 16 23  1  0  0  0
 17 20  1  0  0  0
 17 22  2  0  0  0
 17 41  1  0  0  0
 18 21  2  0  0  0
 18 24  1  0  0  0
 18 42  1  0  0  0
 19 43  1  0  0  0
 19 44  1  0  0  0
 20 45  1  0  0  0
 21 46  1  0  0  0
 22 47  1  0  0  0
 23 48  1  0  0  0
 23 49  1  0  0  0
 24 50  1  0  0  0
 25 51  1  0  0  0
 25 52  1  0  0  0
 25 53  1  0  0  0
 26 54  1  0  0  0
 26 55  1  0  0  0
 26 56  1  0  0  0
 27 30  1  0  0  0
 27 57  1  0  0  0
 28 29  2  0  0  0
 28 58  1  0  0  0
 29 31  1  0  0  0
 29 59  1  0  0  0
 30 31  2  0  0  0
 30 60  1  0  0  0
 31 61  1  0  0  0
M  END
> <s_m_entry_id>
8734

> <s_m_entry_name>
dock_pv.244

> <s_m_Source_Path>
/home/csk/Desktop/cluster/DUD-E-result/aces

> <s_m_Source_File>
dock_pv.maegz

> <i_m_Source_File_Index>
244

> <chembl_id>
CHEMBL544126

> <chembl_pref_name>
None

> <i_lp_mmshare_version>
53161

> <i_f3d_flags>
0

> <r_lp_tautomer_probability>
1

> <s_lp_Force_Field>
OPLS_2005

> <r_lp_Energy>
27.17361

> <b_lp_Chiralities_Consistent>
1

> <s_lp_Variant>
CHEMBL220_lig449-1

> <s_i_glide_gridfile>
glide-grid_1e66

> <i_i_glide_lignum>
509

> <i_i_glide_rotatable_bonds>
12

> <r_i_docking_score>
-7.1431638291871

> <r_i_glide_ligand_efficiency>
-0.230424639651197

> <r_i_glide_ligand_efficiency_sa>
-0.723851504005962

> <r_i_glide_ligand_efficiency_ln>
-1.61100235516276

> <r_i_glide_gscore>
-7.1431638291871

> <r_i_glide_lipo>
-4.22956954393671

> <r_i_glide_hbond>
-0.315914675962957

> <r_i_glide_metal>
0

> <r_i_glide_rewards>
-1.05809982032922

> <r_i_glide_evdw>
-51.5138282775879

> <r_i_glide_ecoul>
-1.37145376205444

> <r_i_glide_erotb>
1.24182968922936

> <r_i_glide_esite>
0

> <r_i_glide_emodel>
-73.0803875433667

> <r_i_glide_energy>
-52.8852820396423

> <r_i_glide_einternal>
5.65229749679565

> <i_i_glide_confnum>
33

> <i_i_glide_posenum>
397

> <r_i_glide_eff_state_penalty>
0

> <s_user_duplicate_titles>
CHEMBL220_lig449,546972

> <s_m_subgroup_title>
dock_pv

> <s_m_subgroupid>
dock_pv

> <b_m_subgroup_collapsed>
0

$$$$
CHEMBL220_lig40
                    3D
 Schrodinger Suite 2021-1.
 55 57  0  0  1  0            999 V2000
    1.2129   62.7181   72.0388 C   0  0  0  0  0  0
    1.7629   61.5505   72.5845 C   0  0  0  0  0  0
    1.4572   61.2001   73.9016 C   0  0  0  0  0  0
    0.6748   62.0391   74.6883 C   0  0  0  0  0  0
    0.1782   63.2271   74.1578 C   0  0  0  0  0  0
    0.4355   63.5860   72.8245 C   0  0  0  0  0  0
   -0.0569   64.9072   72.3120 C   0  0  0  0  0  0
   -0.5899   65.7131   73.0801 O   0  0  0  0  0  0
    0.0840   65.2502   70.8844 C   0  0  0  0  0  0
    0.2652   66.5233   70.4667 C   0  0  0  0  0  0
    0.3432   67.0187   69.0798 C   0  0  0  0  0  0
    1.2202   68.0595   68.7681 C   0  0  0  0  0  0
    1.3568   68.5076   67.4580 C   0  0  0  0  0  0
    0.6077   67.9240   66.4319 C   0  0  0  0  0  0
   -0.3440   66.9543   66.7678 C   0  0  0  0  0  0
   -0.4745   66.5078   68.0807 C   0  0  0  0  0  0
    2.5790   60.5721   71.7404 C   0  0  0  0  0  0
    3.4398   61.1811   70.7075 N   0  0  0  0  0  0
    4.3858   62.1837   71.2263 C   0  0  0  0  0  0
    5.3500   61.6789   72.3167 C   0  0  0  0  0  0
    3.1729   59.2172   69.1676 C   0  0  0  0  0  0
    4.1321   60.1698   69.9004 C   0  0  0  0  0  0
    0.8383   68.3148   65.0118 C   0  0  0  0  0  0
    2.1410   68.5084   64.5302 C   0  0  0  0  0  0
    2.3642   68.8925   63.2102 C   0  0  0  0  0  0
    1.2803   69.0924   62.3606 C   0  0  0  0  0  0
   -0.0184   68.9077   62.8231 C   0  0  0  0  0  0
   -0.2376   68.5080   64.1386 C   0  0  0  0  0  0
    1.4377   62.9521   71.0088 H   0  0  0  0  0  0
    1.8369   60.2826   74.3263 H   0  0  0  0  0  0
    0.4600   61.7741   75.7142 H   0  0  0  0  0  0
   -0.4080   63.8670   74.8054 H   0  0  0  0  0  0
    0.0262   64.4404   70.1725 H   0  0  0  0  0  0
    0.3396   67.3079   71.1953 H   0  0  0  0  0  0
    1.8265   68.5082   69.5424 H   0  0  0  0  0  0
    2.0705   69.2898   67.2440 H   0  0  0  0  0  0
   -0.9551   66.5079   65.9997 H   0  0  0  0  0  0
   -1.1930   65.7402   68.3277 H   0  0  0  0  0  0
    1.8403   59.9274   71.2630 H   0  0  0  0  0  0
    3.1616   59.9176   72.3911 H   0  0  0  0  0  0
    3.8255   63.0324   71.6181 H   0  0  0  0  0  0
    4.9581   62.5984   70.3957 H   0  0  0  0  0  0
    5.9429   62.5077   72.6997 H   0  0  0  0  0  0
    6.0408   60.9225   71.9444 H   0  0  0  0  0  0
    4.8171   61.2603   73.1685 H   0  0  0  0  0  0
    3.6943   58.6787   68.3771 H   0  0  0  0  0  0
    2.7481   58.4707   69.8375 H   0  0  0  0  0  0
    2.3476   59.7593   68.7059 H   0  0  0  0  0  0
    4.7293   60.6824   69.1449 H   0  0  0  0  0  0
    4.8232   59.5932   70.5157 H   0  0  0  0  0  0
    2.9900   68.3606   65.1816 H   0  0  0  0  0  0
    3.3718   69.0458   62.8501 H   0  0  0  0  0  0
    1.4461   69.4027   61.3387 H   0  0  0  0  0  0
   -0.8569   69.0883   62.1743 H   0  0  0  0  0  0
   -1.2528   68.3746   64.4829 H   0  0  0  0  0  0
  1  2  2  0  0  0
  1  6  1  0  0  0
  1 29  1  0  0  0
  2  3  1  0  0  0
  2 17  1  0  0  0
  3  4  2  0  0  0
  3 30  1  0  0  0
  4  5  1  0  0  0
  4 31  1  0  0  0
  5  6  2  0  0  0
  5 32  1  0  0  0
  6  7  1  0  0  0
  7  8  2  0  0  0
  7  9  1  0  0  0
  9 10  2  0  0  0
  9 33  1  0  0  0
 10 11  1  0  0  0
 10 34  1  0  0  0
 11 12  2  0  0  0
 11 16  1  0  0  0
 12 13  1  0  0  0
 12 35  1  0  0  0
 13 14  2  0  0  0
 13 36  1  0  0  0
 14 15  1  0  0  0
 14 23  1  0  0  0
 15 16  2  0  0  0
 15 37  1  0  0  0
 16 38  1  0  0  0
 17 18  1  0  0  0
 17 39  1  0  0  0
 17 40  1  0  0  0
 18 19  1  0  0  0
 18 22  1  0  0  0
 19 20  1  0  0  0
 19 41  1  0  0  0
 19 42  1  0  0  0
 20 43  1  0  0  0
 20 44  1  0  0  0
 20 45  1  0  0  0
 21 22  1  0  0  0
 21 46  1  0  0  0
 21 47  1  0  0  0
 21 48  1  0  0  0
 22 49  1  0  0  0
 22 50  1  0  0  0
 23 24  2  0  0  0
 23 28  1  0  0  0
 24 25  1  0  0  0
 24 51  1  0  0  0
 25 26  2  0  0  0
 25 52  1  0  0  0
 26 27  1  0  0  0
 26 53  1  0  0  0
 27 28  2  0  0  0
 27 54  1  0  0  0
 28 55  1  0  0  0
M  END
> <s_m_entry_id>
8735

> <s_m_entry_name>
dock_pv.245

> <s_m_Source_Path>
/home/csk/Desktop/cluster/DUD-E-result/aces

> <s_m_Source_File>
dock_pv.maegz

> <i_m_Source_File_Index>
245

> <chembl_id>
CHEMBL2381400

> <chembl_pref_name>
None

> <i_lp_mmshare_version>
53161

> <i_f3d_flags>
0

> <r_lp_tautomer_probability>
1

> <s_lp_Force_Field>
OPLS_2005

> <r_lp_Energy>
31.086073

> <b_lp_Chiralities_Consistent>
1

> <s_lp_Variant>
CHEMBL220_lig40-1

> <s_i_glide_gridfile>
glide-grid_1e66

> <i_i_glide_lignum>
43

> <i_i_glide_rotatable_bonds>
8

> <r_i_docking_score>
-7.1428784991896

> <r_i_glide_ligand_efficiency>
-0.255102803542486

> <r_i_glide_ligand_efficiency_sa>
-0.774642359071254

> <r_i_glide_ligand_efficiency_ln>
-1.64878608163877

> <r_i_glide_gscore>
-7.1428784991896

> <r_i_glide_lipo>
-3.92415633100193

> <r_i_glide_hbond>
-0.32

> <r_i_glide_metal>
0

> <r_i_glide_rewards>
-1.52085781219782

> <r_i_glide_evdw>
-38.8754234313965

> <r_i_glide_ecoul>
-1.87638199329376

> <r_i_glide_erotb>
0.847364114574039

> <r_i_glide_esite>
0

> <r_i_glide_emodel>
-52.8995783543838

> <r_i_glide_energy>
-40.7518054246902

> <r_i_glide_einternal>
7.30801630020142

> <i_i_glide_confnum>
2

> <i_i_glide_posenum>
48

> <r_i_glide_eff_state_penalty>
0

> <s_user_duplicate_titles>
CHEMBL220_lig40

> <s_m_subgroup_title>
dock_pv

> <s_m_subgroupid>
dock_pv

> <b_m_subgroup_collapsed>
0

$$$$
CHEMBL220_lig43
                    3D
 Schrodinger Suite 2021-1.
 49 52  0  0  1  0            999 V2000
    0.9840   68.8608   62.6412 O   0  0  0  0  0  0
    2.2215   68.5103   62.1296 C   0  0  0  0  0  0
    2.4530   68.9077   60.9889 O   0  0  0  0  0  0
    3.1138   67.7085   62.9991 C   0  0  0  0  0  0
    2.7543   67.4340   64.2743 C   0  0  0  0  0  0
    1.4506   67.8343   64.7992 C   0  0  0  0  0  0
    1.0221   67.5264   66.0890 C   0  0  0  0  0  0
   -0.2697   67.8698   66.4887 C   0  0  0  0  0  0
   -1.1519   68.5068   65.5961 C   0  0  0  0  0  0
   -0.7057   68.8149   64.3105 C   0  0  0  0  0  0
    0.5900   68.4967   63.9189 C   0  0  0  0  0  0
    4.3417   67.1206   62.4884 C   0  0  0  0  0  0
    5.4902   68.0504   62.0791 C   0  0  0  0  0  0
    4.4778   65.9007   62.3686 O   0  0  0  0  0  0
   -2.4581   68.8370   65.8908 O   0  0  0  0  0  0
   -3.0033   68.4202   67.1341 C   0  0  0  0  0  0
    5.9237   68.9616   63.1383 N   0  0  0  0  0  0
    6.4310   68.3203   64.3433 C   0  0  0  0  0  0
    6.4152   69.1426   65.6112 C   0  0  0  0  0  0
    5.0648   69.6163   65.8406 N   0  0  0  0  0  0
    4.7071   70.5041   64.7438 C   0  0  0  0  0  0
    5.1422   70.1791   63.2988 C   0  0  0  0  0  0
    4.7097   70.0537   67.0956 C   0  0  0  0  0  0
    3.3812   70.0379   67.3970 N   0  0  0  0  0  0
    3.0027   70.4606   68.6276 C   0  0  0  0  0  0
    3.9247   70.9080   69.5680 C   0  0  0  0  0  0
    5.2797   70.9080   69.2411 C   0  0  0  0  0  0
    5.6828   70.5084   67.9870 C   0  0  0  0  0  0
    3.4018   66.8430   64.9094 H   0  0  0  0  0  0
    1.6724   67.0051   66.7743 H   0  0  0  0  0  0
   -0.5778   67.6130   67.4906 H   0  0  0  0  0  0
   -1.3732   69.3061   63.6194 H   0  0  0  0  0  0
    6.3412   67.4626   61.7331 H   0  0  0  0  0  0
    5.1429   68.6414   61.2302 H   0  0  0  0  0  0
   -4.0559   68.6957   67.1690 H   0  0  0  0  0  0
   -2.4966   68.9073   67.9667 H   0  0  0  0  0  0
   -2.9369   67.3386   67.2616 H   0  0  0  0  0  0
    5.9300   67.3793   64.5609 H   0  0  0  0  0  0
    7.4754   68.1080   64.1481 H   0  0  0  0  0  0
    7.1172   69.9772   65.5680 H   0  0  0  0  0  0
    6.7355   68.5077   66.4330 H   0  0  0  0  0  0
    5.2648   71.3784   65.0205 H   0  0  0  0  0  0
    3.6237   70.5830   64.7665 H   0  0  0  0  0  0
    5.7819   70.9844   62.9414 H   0  0  0  0  0  0
    4.2781   70.2002   62.6381 H   0  0  0  0  0  0
    1.9433   70.4490   68.8482 H   0  0  0  0  0  0
    3.5928   71.2762   70.5266 H   0  0  0  0  0  0
    6.0241   71.2295   69.9527 H   0  0  0  0  0  0
    6.7333   70.5335   67.7414 H   0  0  0  0  0  0
  1  2  1  0  0  0
  1 11  1  0  0  0
  2  3  2  0  0  0
  2  4  1  0  0  0
  4  5  2  0  0  0
  4 12  1  0  0  0
  5  6  1  0  0  0
  5 29  1  0  0  0
  6  7  1  0  0  0
  6 11  2  0  0  0
  7  8  2  0  0  0
  7 30  1  0  0  0
  8  9  1  0  0  0
  8 31  1  0  0  0
  9 10  2  0  0  0
  9 15  1  0  0  0
 10 11  1  0  0  0
 10 32  1  0  0  0
 12 13  1  0  0  0
 12 14  2  0  0  0
 13 17  1  0  0  0
 13 33  1  0  0  0
 13 34  1  0  0  0
 15 16  1  0  0  0
 16 35  1  0  0  0
 16 36  1  0  0  0
 16 37  1  0  0  0
 17 18  1  0  0  0
 17 22  1  0  0  0
 18 19  1  0  0  0
 18 38  1  0  0  0
 18 39  1  0  0  0
 19 20  1  0  0  0
 19 40  1  0  0  0
 19 41  1  0  0  0
 20 21  1  0  0  0
 20 23  1  0  0  0
 21 22  1  0  0  0
 21 42  1  0  0  0
 21 43  1  0  0  0
 22 44  1  0  0  0
 22 45  1  0  0  0
 23 24  2  0  0  0
 23 28  1  0  0  0
 24 25  1  0  0  0
 25 26  2  0  0  0
 25 46  1  0  0  0
 26 27  1  0  0  0
 26 47  1  0  0  0
 27 28  2  0  0  0
 27 48  1  0  0  0
 28 49  1  0  0  0
M  END
> <s_m_entry_id>
8736

> <s_m_entry_name>
dock_pv.246

> <s_m_Source_Path>
/home/csk/Desktop/cluster/DUD-E-result/aces

> <s_m_Source_File>
dock_pv.maegz

> <i_m_Source_File_Index>
246

> <chembl_id>
CHEMBL2381383

> <chembl_pref_name>
None

> <i_lp_mmshare_version>
53161

> <i_f3d_flags>
0

> <r_lp_tautomer_probability>
0.99990000499975

> <s_lp_Force_Field>
OPLS_2005

> <r_lp_Energy>
47.189018

> <b_lp_Chiralities_Consistent>
1

> <s_lp_Variant>
CHEMBL220_lig43-1

> <s_i_glide_gridfile>
glide-grid_1e66

> <i_i_glide_lignum>
46

> <i_i_glide_rotatable_bonds>
5

> <r_i_docking_score>
-7.13962962761276

> <r_i_glide_ligand_efficiency>
-0.254986772414741

> <r_i_glide_ligand_efficiency_sa>
-0.774290020228742

> <r_i_glide_ligand_efficiency_ln>
-1.64803614668783

> <r_i_glide_gscore>
-7.13962962761276

> <r_i_glide_lipo>
-3.2657166438835

> <r_i_glide_hbond>
-0.32

> <r_i_glide_metal>
0

> <r_i_glide_rewards>
-1.72000302983842

> <r_i_glide_evdw>
-28.2846431732178

> <r_i_glide_ecoul>
-6.04235649108887

> <r_i_glide_erotb>
0.538780634206478

> <r_i_glide_esite>
-0.0521049557730939

> <r_i_glide_emodel>
-39.7338160892554

> <r_i_glide_energy>
-34.3269996643066

> <r_i_glide_einternal>
12.6899309158325

> <i_i_glide_confnum>
20

> <i_i_glide_posenum>
290

> <r_i_glide_eff_state_penalty>
0

> <s_user_duplicate_titles>
CHEMBL220_lig43

> <s_m_subgroup_title>
dock_pv

> <s_m_subgroupid>
dock_pv

> <b_m_subgroup_collapsed>
0

$$$$
CHEMBL220_lig443
                    3D
 Schrodinger Suite 2021-1.
 60 62  0  0  1  0            999 V2000
    5.8210   70.0857   66.6964 C   0  0  0  0  0  0
    1.8388   65.3847   70.1023 C   0  0  0  0  0  0
    0.9633   66.3728   69.3707 C   0  0  0  0  0  0
    4.6415   70.1080   66.0246 O   0  0  0  0  0  0
    6.8214   69.4486   66.3682 O   0  0  0  0  0  0
    3.0018   65.6818   70.3680 O   0  0  0  0  0  0
    1.4039   63.9897   70.4138 C   0  0  0  0  0  0
    4.4983   69.6750   64.7170 C   0  0  0  0  0  0
    5.7002   70.8579   67.8387 N   0  0  0  0  0  0
    3.0082   68.7079   63.0520 C   0  0  0  0  0  0
    1.4221   67.6836   69.1704 C   0  0  0  0  0  0
   -0.2504   66.0018   68.7810 C   0  0  0  0  0  0
    3.2898   69.0717   64.3743 C   0  0  0  0  0  0
    1.6408   68.1513   62.7007 C   0  0  0  0  0  0
    0.6053   69.1834   62.8050 N   0  0  2  0  0  0
   -0.4590   68.1746   67.7519 C   0  0  0  0  0  0
    0.7232   68.5722   68.3651 C   0  0  0  0  0  0
   -0.9512   66.8870   67.9675 C   0  0  0  0  0  0
   -0.4723   68.3857   64.8419 C   0  0  0  0  0  0
   -1.1737   69.1074   67.0353 O   0  0  0  0  0  0
    5.1820   69.5123   62.3884 C   0  0  0  0  0  0
   -0.6560   68.6490   63.3285 C   0  0  0  0  0  0
    5.4404   69.9007   63.7036 C   0  0  0  0  0  0
    3.9628   68.9271   62.0586 C   0  0  0  0  0  0
   -1.6664   68.7232   65.7523 C   0  0  0  0  0  0
    2.2770   62.9241   70.1490 C   0  0  0  0  0  0
    0.2061   63.7446   71.0908 C   0  0  0  0  0  0
    6.8084   71.0366   68.7709 C   0  0  0  0  0  0
    0.4546   69.9897   61.5973 C   0  0  0  0  0  0
   -0.1354   62.4486   71.4663 C   0  0  0  0  0  0
    1.9346   61.6266   70.5191 C   0  0  0  0  0  0
    0.7299   61.3960   71.1772 C   0  0  0  0  0  0
    4.8225   71.3263   68.0075 H   0  0  0  0  0  0
    2.3366   68.0292   69.6296 H   0  0  0  0  0  0
   -0.6361   65.0005   68.8951 H   0  0  0  0  0  0
    2.5518   68.9243   65.1462 H   0  0  0  0  0  0
    1.6291   67.7085   61.7042 H   0  0  0  0  0  0
    1.4588   67.3516   63.4215 H   0  0  0  0  0  0
    1.0821   69.5833   68.2383 H   0  0  0  0  0  0
   -1.8847   66.5719   67.5264 H   0  0  0  0  0  0
   -0.2188   67.3369   64.9968 H   0  0  0  0  0  0
    0.4054   68.9084   65.2157 H   0  0  0  0  0  0
    5.9181   69.6822   61.6148 H   0  0  0  0  0  0
   -1.4972   69.3148   63.1497 H   0  0  0  0  0  0
   -0.8972   67.7216   62.8049 H   0  0  0  0  0  0
    6.3583   70.4107   63.9322 H   0  0  0  0  0  0
    3.7665   68.6574   61.0308 H   0  0  0  0  0  0
   -2.2258   69.5784   65.3808 H   0  0  0  0  0  0
   -2.3807   67.9009   65.8061 H   0  0  0  0  0  0
    3.2259   63.0980   69.6600 H   0  0  0  0  0  0
   -0.4495   64.5583   71.3573 H   0  0  0  0  0  0
    6.4275   71.3040   69.7540 H   0  0  0  0  0  0
    7.4680   71.8350   68.4320 H   0  0  0  0  0  0
    7.4014   70.1274   68.8886 H   0  0  0  0  0  0
   -0.1054   70.9030   61.8278 H   0  0  0  0  0  0
    1.4262   70.3063   61.2146 H   0  0  0  0  0  0
   -0.0517   69.4399   60.8040 H   0  0  0  0  0  0
   -1.0631   62.2605   71.9878 H   0  0  0  0  0  0
    2.6034   60.8054   70.3073 H   0  0  0  0  0  0
    0.4607   60.3906   71.4664 H   0  0  0  0  0  0
  1  4  1  0  0  0
  1  5  2  0  0  0
  1  9  1  0  0  0
  2  3  1  0  0  0
  2  6  2  0  0  0
  2  7  1  0  0  0
  3 11  2  0  0  0
  3 12  1  0  0  0
  4  8  1  0  0  0
  7 26  1  0  0  0
  7 27  2  0  0  0
  8 13  1  0  0  0
  8 23  2  0  0  0
  9 28  1  0  0  0
  9 33  1  0  0  0
 10 13  2  0  0  0
 10 14  1  0  0  0
 10 24  1  0  0  0
 11 17  1  0  0  0
 11 34  1  0  0  0
 12 18  2  0  0  0
 12 35  1  0  0  0
 13 36  1  0  0  0
 14 15  1  0  0  0
 14 37  1  0  0  0
 14 38  1  0  0  0
 15 22  1  0  0  0
 15 29  1  0  0  0
 16 17  2  0  0  0
 16 18  1  0  0  0
 16 20  1  0  0  0
 17 39  1  0  0  0
 18 40  1  0  0  0
 19 22  1  0  0  0
 19 25  1  0  0  0
 19 41  1  0  0  0
 19 42  1  0  0  0
 20 25  1  0  0  0
 21 23  1  0  0  0
 21 24  2  0  0  0
 21 43  1  0  0  0
 22 44  1  0  0  0
 22 45  1  0  0  0
 23 46  1  0  0  0
 24 47  1  0  0  0
 25 48  1  0  0  0
 25 49  1  0  0  0
 26 31  2  0  0  0
 26 50  1  0  0  0
 27 30  1  0  0  0
 27 51  1  0  0  0
 28 52  1  0  0  0
 28 53  1  0  0  0
 28 54  1  0  0  0
 29 55  1  0  0  0
 29 56  1  0  0  0
 29 57  1  0  0  0
 30 32  2  0  0  0
 30 58  1  0  0  0
 31 32  1  0  0  0
 31 59  1  0  0  0
 32 60  1  0  0  0
M  END
> <s_m_entry_id>
8737

> <s_m_entry_name>
dock_pv.247

> <s_m_Source_Path>
/home/csk/Desktop/cluster/DUD-E-result/aces

> <s_m_Source_File>
dock_pv.maegz

> <i_m_Source_File_Index>
247

> <chembl_id>
CHEMBL544592

> <chembl_pref_name>
None

> <i_lp_mmshare_version>
53161

> <i_f3d_flags>
0

> <r_lp_tautomer_probability>
1

> <s_lp_Force_Field>
OPLS_2005

> <r_lp_Energy>
38.697483

> <b_lp_Chiralities_Consistent>
1

> <s_lp_Variant>
CHEMBL220_lig443-1

> <s_i_glide_gridfile>
glide-grid_1e66

> <i_i_glide_lignum>
503

> <i_i_glide_rotatable_bonds>
12

> <r_i_docking_score>
-7.12741856674796

> <r_i_glide_ligand_efficiency>
-0.222731830210874

> <r_i_glide_ligand_efficiency_sa>
-0.707129482350179

> <r_i_glide_ligand_efficiency_ln>
-1.59602330318717

> <r_i_glide_gscore>
-7.12741856674796

> <r_i_glide_lipo>
-4.71481198732921

> <r_i_glide_hbond>
0

> <r_i_glide_metal>
0

> <r_i_glide_rewards>
-1.14858064885408

> <r_i_glide_evdw>
-51.6852149963379

> <r_i_glide_ecoul>
1.00073528289795

> <r_i_glide_erotb>
1.17012452681754

> <r_i_glide_esite>
0

> <r_i_glide_emodel>
-47.9888057367832

> <r_i_glide_energy>
-50.6844797134399

> <r_i_glide_einternal>
31.6805953979492

> <i_i_glide_confnum>
7

> <i_i_glide_posenum>
195

> <r_i_glide_eff_state_penalty>
0

> <s_user_duplicate_titles>
CHEMBL220_lig443,546984

> <s_m_subgroup_title>
dock_pv

> <s_m_subgroupid>
dock_pv

> <b_m_subgroup_collapsed>
0

$$$$
CHEMBL220_lig273
                    3D
 Schrodinger Suite 2021-1.
 29 31  0  0  1  0            999 V2000
    3.2343   69.3070   66.3666 N   0  0  0  0  0  0
    1.5678   68.5073   64.2625 C   0  0  0  0  0  0
    2.8882   68.9978   63.9698 C   0  0  0  0  0  0
    3.6951   69.3445   65.0973 C   0  0  0  0  0  0
    1.1272   68.4055   65.5974 C   0  0  0  0  0  0
    1.9759   68.8887   66.6110 C   0  0  0  0  0  0
    3.4719   69.1734   62.6617 C   0  0  0  0  0  0
    0.6811   68.1098   63.2576 N   0  0  0  0  0  0
    2.6260   68.9067   61.1788 Cl  0  0  0  0  0  0
    5.0199   69.7911   64.9252 C   0  0  0  0  0  0
   -0.1968   67.7075   65.9645 C   0  0  0  0  0  0
    1.5385   68.8971   68.0698 C   0  0  0  0  0  0
    5.5426   69.9357   63.6520 C   0  0  0  0  0  0
    4.7834   69.6252   62.5360 C   0  0  0  0  0  0
   -0.5962   67.7912   67.4504 C   0  0  0  0  0  0
    0.6278   67.7018   68.3680 C   0  0  0  0  0  0
   -0.2213   67.7307   63.5140 H   0  0  0  0  0  0
    0.9515   68.2200   62.2895 H   0  0  0  0  0  0
    5.6136   70.0565   65.7888 H   0  0  0  0  0  0
   -1.0190   68.0713   65.3468 H   0  0  0  0  0  0
   -0.0594   66.6548   65.7109 H   0  0  0  0  0  0
    2.3936   68.9017   68.7467 H   0  0  0  0  0  0
    1.0008   69.8254   68.2724 H   0  0  0  0  0  0
    6.5406   70.3215   63.5368 H   0  0  0  0  0  0
    5.2162   69.7568   61.5533 H   0  0  0  0  0  0
   -1.1191   68.7313   67.6315 H   0  0  0  0  0  0
   -1.3094   67.0019   67.6881 H   0  0  0  0  0  0
    0.3367   67.7112   69.4180 H   0  0  0  0  0  0
    1.1512   66.7582   68.2078 H   0  0  0  0  0  0
  1  4  1  0  0  0
  1  6  2  0  0  0
  2  5  2  0  0  0
  2  8  1  0  0  0
  2  3  1  0  0  0
  3  4  1  0  0  0
  3  7  2  0  0  0
  4 10  2  0  0  0
  5  6  1  0  0  0
  5 11  1  0  0  0
  6 12  1  0  0  0
  7  9  1  0  0  0
  7 14  1  0  0  0
  8 17  1  0  0  0
  8 18  1  0  0  0
 10 13  1  0  0  0
 10 19  1  0  0  0
 11 15  1  0  0  0
 11 20  1  0  0  0
 11 21  1  0  0  0
 12 16  1  0  0  0
 12 22  1  0  0  0
 12 23  1  0  0  0
 13 14  2  0  0  0
 13 24  1  0  0  0
 14 25  1  0  0  0
 15 16  1  0  0  0
 15 26  1  0  0  0
 15 27  1  0  0  0
 16 28  1  0  0  0
 16 29  1  0  0  0
M  END
> <s_m_entry_id>
8738

> <s_m_entry_name>
dock_pv.248

> <s_m_Source_Path>
/home/csk/Desktop/cluster/DUD-E-result/aces

> <s_m_Source_File>
dock_pv.maegz

> <i_m_Source_File_Index>
248

> <chembl_id>
CHEMBL134057

> <chembl_pref_name>
None

> <i_lp_mmshare_version>
53161

> <i_f3d_flags>
0

> <r_lp_tautomer_probability>
1

> <s_lp_Force_Field>
OPLS_2005

> <r_lp_Energy>
22.575184

> <b_lp_Chiralities_Consistent>
1

> <s_lp_Variant>
CHEMBL220_lig273-1

> <s_i_glide_gridfile>
glide-grid_1e66

> <i_i_glide_lignum>
322

> <i_i_glide_rotatable_bonds>
0

> <r_i_docking_score>
-7.12717355857763

> <r_i_glide_ligand_efficiency>
-0.445448347411102

> <r_i_glide_ligand_efficiency_sa>
-1.12245949805089

> <r_i_glide_ligand_efficiency_ln>
-1.88919972022454

> <r_i_glide_gscore>
-7.12717355857763

> <r_i_glide_lipo>
-2.93186065201717

> <r_i_glide_hbond>
0

> <r_i_glide_metal>
0

> <r_i_glide_rewards>
-2.18483272915797

> <r_i_glide_evdw>
-30.9442157745361

> <r_i_glide_ecoul>
-3.08846259117126

> <r_i_glide_erotb>
0

> <r_i_glide_esite>
0

> <r_i_glide_emodel>
-47.4427287644186

> <r_i_glide_energy>
-34.0326783657074

> <r_i_glide_einternal>
0

> <i_i_glide_confnum>
2

> <i_i_glide_posenum>
384

> <r_i_glide_eff_state_penalty>
0

> <s_user_duplicate_titles>
CHEMBL220_lig273,219122

> <s_m_subgroup_title>
dock_pv

> <s_m_subgroupid>
dock_pv

> <b_m_subgroup_collapsed>
0

$$$$
CHEMBL220_lig400
                    3D
 Schrodinger Suite 2021-1.
 63 67  0  0  1  0            999 V2000
   -0.4573   68.5316   64.4908 C   0  0  0  0  0  0
    0.7987   68.0522   64.0985 C   0  0  0  0  0  0
    1.4443   67.0803   64.8686 C   0  0  0  0  0  0
    0.9802   66.7489   66.1340 C   0  0  0  0  0  0
   -0.9534   68.1083   65.7317 C   0  0  0  0  0  0
   -0.2504   67.2410   66.5702 C   0  0  0  0  0  0
   -1.0856   67.1017   67.7199 C   0  0  0  0  0  0
   -2.1961   67.7965   67.5628 N   0  0  0  0  0  0
   -2.1270   68.4603   66.3270 O   0  0  0  0  0  0
   -0.8569   66.2641   68.9759 C   0  0  0  0  0  0
    0.5617   66.3847   69.5847 C   0  0  0  0  0  0
    1.1816   65.0297   70.0193 C   0  0  0  0  0  0
    2.7155   65.0832   70.1233 C   0  0  0  0  0  0
    3.3280   63.7494   70.5576 C   0  0  0  0  0  0
    2.7109   63.2311   71.7828 N   0  0  1  0  0  0
    1.2523   63.1012   71.7186 C   0  0  0  0  0  0
    0.6152   64.4548   71.3319 C   0  0  0  0  0  0
    3.4156   62.1094   72.4168 C   0  0  0  0  0  0
    3.4273   60.8141   71.6148 C   0  0  0  0  0  0
    2.6959   59.7069   72.0527 C   0  0  0  0  0  0
    2.7378   58.5200   71.3258 C   0  0  0  0  0  0
    3.4869   58.4595   70.1522 C   0  0  0  0  0  0
    4.1798   59.5701   69.6890 C   0  0  0  0  0  0
    4.1740   60.7346   70.4379 C   0  0  0  0  0  0
    1.4463   68.6531   63.0094 N   0  0  0  0  0  0
    3.2246   68.6947   62.8142 S   0  0  0  0  0  0
    4.0028   69.3960   64.2911 C   0  0  0  0  0  0
    3.4218   69.3529   65.5668 C   0  0  0  0  0  0
    4.1233   69.7763   66.6880 C   0  0  0  0  0  0
    5.3922   70.3163   66.5390 C   0  0  0  0  0  0
    5.9431   70.4431   65.2708 C   0  0  0  0  0  0
    5.2765   69.9504   64.1513 C   0  0  0  0  0  0
    3.6953   67.3085   62.7172 O   0  0  0  0  0  0
    3.4804   69.6241   61.7090 O   0  0  0  0  0  0
   -0.9989   69.2600   63.9052 H   0  0  0  0  0  0
    2.3990   66.6720   64.5814 H   0  0  0  0  0  0
    1.5737   66.1082   66.7609 H   0  0  0  0  0  0
   -1.0537   65.2179   68.7682 H   0  0  0  0  0  0
   -1.5890   66.5082   69.7384 H   0  0  0  0  0  0
    0.5404   67.0729   70.4323 H   0  0  0  0  0  0
    1.2381   66.8661   68.8790 H   0  0  0  0  0  0
    0.9698   64.2823   69.2541 H   0  0  0  0  0  0
    3.0590   65.8906   70.7687 H   0  0  0  0  0  0
    3.1325   65.3081   69.1473 H   0  0  0  0  0  0
    4.3908   63.9033   70.7468 H   0  0  0  0  0  0
    3.2375   63.0271   69.7479 H   0  0  0  0  0  0
    0.9751   62.2986   71.0334 H   0  0  0  0  0  0
    0.8839   62.8141   72.7046 H   0  0  0  0  0  0
   -0.4569   64.3212   71.2347 H   0  0  0  0  0  0
    0.7246   65.1655   72.1492 H   0  0  0  0  0  0
    2.9603   61.9288   73.3922 H   0  0  0  0  0  0
    4.4477   62.3959   72.6241 H   0  0  0  0  0  0
    2.1120   59.7572   72.9609 H   0  0  0  0  0  0
    2.1936   57.6520   71.6705 H   0  0  0  0  0  0
    3.5377   57.5391   69.5922 H   0  0  0  0  0  0
    4.7414   59.5243   68.7678 H   0  0  0  0  0  0
    4.7442   61.5799   70.0934 H   0  0  0  0  0  0
    0.9649   69.4292   62.5850 H   0  0  0  0  0  0
    2.4139   69.0493   65.7499 H   0  0  0  0  0  0
    3.6701   69.7199   67.6674 H   0  0  0  0  0  0
    5.9322   70.6741   67.4023 H   0  0  0  0  0  0
    6.9125   70.9067   65.1678 H   0  0  0  0  0  0
    5.7483   70.0103   63.1801 H   0  0  0  0  0  0
  1  5  1  0  0  0
  1  2  2  0  0  0
  1 35  1  0  0  0
  2 25  1  0  0  0
  2  3  1  0  0  0
  3  4  2  0  0  0
  3 36  1  0  0  0
  4  6  1  0  0  0
  4 37  1  0  0  0
  5  9  1  0  0  0
  5  6  2  0  0  0
  6  7  1  0  0  0
  7  8  2  0  0  0
  7 10  1  0  0  0
  8  9  1  0  0  0
 10 11  1  0  0  0
 10 38  1  0  0  0
 10 39  1  0  0  0
 11 12  1  0  0  0
 11 40  1  0  0  0
 11 41  1  0  0  0
 12 13  1  0  0  0
 12 17  1  0  0  0
 12 42  1  0  0  0
 13 14  1  0  0  0
 13 43  1  0  0  0
 13 44  1  0  0  0
 14 15  1  0  0  0
 14 45  1  0  0  0
 14 46  1  0  0  0
 15 16  1  0  0  0
 15 18  1  0  0  0
 16 17  1  0  0  0
 16 47  1  0  0  0
 16 48  1  0  0  0
 17 49  1  0  0  0
 17 50  1  0  0  0
 18 19  1  0  0  0
 18 51  1  0  0  0
 18 52  1  0  0  0
 19 20  2  0  0  0
 19 24  1  0  0  0
 20 21  1  0  0  0
 20 53  1  0  0  0
 21 22  2  0  0  0
 21 54  1  0  0  0
 22 23  1  0  0  0
 22 55  1  0  0  0
 23 24  2  0  0  0
 23 56  1  0  0  0
 24 57  1  0  0  0
 25 26  1  0  0  0
 25 58  1  0  0  0
 26 27  1  0  0  0
 26 33  2  0  0  0
 26 34  2  0  0  0
 27 28  2  0  0  0
 27 32  1  0  0  0
 28 29  1  0  0  0
 28 59  1  0  0  0
 29 30  2  0  0  0
 29 60  1  0  0  0
 30 31  1  0  0  0
 30 61  1  0  0  0
 31 32  2  0  0  0
 31 62  1  0  0  0
 32 63  1  0  0  0
M  END
> <s_m_entry_id>
8739

> <s_m_entry_name>
dock_pv.249

> <s_m_Source_Path>
/home/csk/Desktop/cluster/DUD-E-result/aces

> <s_m_Source_File>
dock_pv.maegz

> <i_m_Source_File_Index>
249

> <chembl_id>
CHEMBL92955

> <chembl_pref_name>
None

> <i_lp_mmshare_version>
53161

> <i_f3d_flags>
0

> <r_lp_tautomer_probability>
1

> <s_lp_Force_Field>
OPLS_2005

> <r_lp_Energy>
33.498596

> <b_lp_Chiralities_Consistent>
1

> <s_lp_Variant>
CHEMBL220_lig400-1

> <s_i_glide_gridfile>
glide-grid_1e66

> <i_i_glide_lignum>
459

> <i_i_glide_rotatable_bonds>
8

> <r_i_docking_score>
-7.1264901617488

> <r_i_glide_ligand_efficiency>
-0.209602651816141

> <r_i_glide_ligand_efficiency_sa>
-0.679031223604457

> <r_i_glide_ligand_efficiency_ln>
-1.57444156800858

> <r_i_glide_gscore>
-7.1264901617488

> <r_i_glide_lipo>
-4.63737286452744

> <r_i_glide_hbond>
0

> <r_i_glide_metal>
0

> <r_i_glide_rewards>
-0.349037984866674

> <r_i_glide_evdw>
-49.3239784240723

> <r_i_glide_ecoul>
-2.49520373344421

> <r_i_glide_erotb>
0.715958204225168

> <r_i_glide_esite>
-0.0155580353596105

> <r_i_glide_emodel>
-63.1648200337437

> <r_i_glide_energy>
-51.8191821575165

> <r_i_glide_einternal>
16.9636459350586

> <i_i_glide_confnum>
17

> <i_i_glide_posenum>
15

> <r_i_glide_eff_state_penalty>
0

> <s_user_duplicate_titles>
CHEMBL220_lig400,150006

> <s_m_subgroup_title>
dock_pv

> <s_m_subgroupid>
dock_pv

> <b_m_subgroup_collapsed>
0

$$$$
CHEMBL220_lig333
                    3D
 Schrodinger Suite 2021-1.
 60 62  0  0  1  0            999 V2000
    1.2102   68.2865   65.5964 N   0  3  0  0  0  0
    0.3625   67.6845   66.6965 C   0  0  0  0  0  0
    1.8777   62.7850   70.7121 C   0  0  0  0  0  0
    1.3453   61.6516   71.3484 C   0  0  0  0  0  0
    2.0401   60.4302   71.3753 C   0  0  0  0  0  0
    1.1024   64.0633   70.7235 C   0  0  0  0  0  0
    2.2681   67.2683   65.0720 C   0  0  0  0  0  0
    3.2823   60.3527   70.7279 C   0  0  0  0  0  0
    0.9484   67.4911   67.9494 C   0  0  0  0  0  0
    3.1163   62.6770   70.0703 C   0  0  0  0  0  0
   -0.0570   64.1171   71.1247 O   0  0  0  0  0  0
    3.8020   61.4681   70.0775 C   0  0  0  0  0  0
    1.8235   65.3610   70.3113 C   0  0  0  0  0  0
    0.2518   66.8707   68.9762 C   0  0  0  0  0  0
    0.9513   66.6429   70.3062 C   0  0  0  0  0  0
    3.3605   67.8265   64.1554 C   0  0  0  0  0  0
    1.5735   59.2917   72.0087 O   0  0  0  0  0  0
    0.3731   68.7224   64.3598 C   0  0  0  0  0  0
    1.9812   69.5245   66.1403 C   0  0  0  0  0  0
    4.0371   59.2053   70.7353 O   0  0  0  0  0  0
   -0.9822   67.3370   66.5028 C   0  0  0  0  0  0
   -1.7057   66.7785   67.5510 C   0  0  0  0  0  0
   -1.0770   66.5080   68.7653 C   0  0  0  0  0  0
    3.1438   67.9674   62.7819 C   0  0  0  0  0  0
    4.5937   68.1911   64.7011 C   0  0  0  0  0  0
    0.3085   59.3186   72.6607 C   0  0  0  0  0  0
    3.5433   58.1746   69.8954 C   0  0  0  0  0  0
    5.6023   68.6827   63.8831 C   0  0  0  0  0  0
    4.1546   68.4586   61.9645 C   0  0  0  0  0  0
    5.3817   68.8102   62.5165 C   0  0  0  0  0  0
    0.3859   61.7299   71.8393 H   0  0  0  0  0  0
    2.7210   66.8393   65.9666 H   0  0  0  0  0  0
    1.6979   66.4703   64.5949 H   0  0  0  0  0  0
    1.9429   67.8329   68.1606 H   0  0  0  0  0  0
    3.5680   63.5136   69.5578 H   0  0  0  0  0  0
    4.7430   61.3899   69.5689 H   0  0  0  0  0  0
    2.6333   65.4830   71.0294 H   0  0  0  0  0  0
    2.2850   65.2293   69.3335 H   0  0  0  0  0  0
    0.2283   66.6657   71.1244 H   0  0  0  0  0  0
    1.5879   67.5106   70.4827 H   0  0  0  0  0  0
    0.9911   69.3075   63.6799 H   0  0  0  0  0  0
    0.0040   67.8237   63.8621 H   0  0  0  0  0  0
   -0.4692   69.3080   64.7201 H   0  0  0  0  0  0
    2.3570   70.1078   65.3009 H   0  0  0  0  0  0
    1.3041   70.1066   66.7679 H   0  0  0  0  0  0
    2.8227   69.1860   66.7436 H   0  0  0  0  0  0
   -1.4984   67.4853   65.5680 H   0  0  0  0  0  0
   -2.7493   66.5298   67.4136 H   0  0  0  0  0  0
   -1.6562   66.1069   69.5679 H   0  0  0  0  0  0
    2.1940   67.7080   62.3390 H   0  0  0  0  0  0
    4.7758   68.1082   65.7611 H   0  0  0  0  0  0
    0.0893   58.3305   73.0645 H   0  0  0  0  0  0
    0.3033   60.0243   73.4924 H   0  0  0  0  0  0
   -0.4943   59.5755   71.9685 H   0  0  0  0  0  0
    4.1936   57.3030   69.9689 H   0  0  0  0  0  0
    3.5342   58.5081   68.8555 H   0  0  0  0  0  0
    2.5364   57.8546   70.1653 H   0  0  0  0  0  0
    6.5563   68.9538   64.3077 H   0  0  0  0  0  0
    3.9991   68.5615   60.8998 H   0  0  0  0  0  0
    6.1692   69.1765   61.8730 H   0  0  0  0  0  0
  1  2  1  0  0  0
  1  7  1  0  0  0
  1 18  1  0  0  0
  1 19  1  0  0  0
  2  9  1  0  0  0
  2 21  2  0  0  0
  3  6  1  0  0  0
  3  4  2  0  0  0
  3 10  1  0  0  0
  4  5  1  0  0  0
  4 31  1  0  0  0
  5 17  1  0  0  0
  5  8  2  0  0  0
  6 13  1  0  0  0
  6 11  2  0  0  0
  7 16  1  0  0  0
  7 32  1  0  0  0
  7 33  1  0  0  0
  8 12  1  0  0  0
  8 20  1  0  0  0
  9 14  2  0  0  0
  9 34  1  0  0  0
 10 12  2  0  0  0
 10 35  1  0  0  0
 12 36  1  0  0  0
 13 15  1  0  0  0
 13 37  1  0  0  0
 13 38  1  0  0  0
 14 15  1  0  0  0
 14 23  1  0  0  0
 15 39  1  0  0  0
 15 40  1  0  0  0
 16 24  1  0  0  0
 16 25  2  0  0  0
 17 26  1  0  0  0
 18 41  1  0  0  0
 18 42  1  0  0  0
 18 43  1  0  0  0
 19 44  1  0  0  0
 19 45  1  0  0  0
 19 46  1  0  0  0
 20 27  1  0  0  0
 21 22  1  0  0  0
 21 47  1  0  0  0
 22 23  2  0  0  0
 22 48  1  0  0  0
 23 49  1  0  0  0
 24 29  2  0  0  0
 24 50  1  0  0  0
 25 28  1  0  0  0
 25 51  1  0  0  0
 26 52  1  0  0  0
 26 53  1  0  0  0
 26 54  1  0  0  0
 27 55  1  0  0  0
 27 56  1  0  0  0
 27 57  1  0  0  0
 28 30  2  0  0  0
 28 58  1  0  0  0
 29 30  1  0  0  0
 29 59  1  0  0  0
 30 60  1  0  0  0
M  CHG  1   1   1
M  END
> <s_m_entry_id>
8740

> <s_m_entry_name>
dock_pv.250

> <s_m_Source_Path>
/home/csk/Desktop/cluster/DUD-E-result/aces

> <s_m_Source_File>
dock_pv.maegz

> <i_m_Source_File_Index>
250

> <chembl_id>
CHEMBL59074

> <chembl_pref_name>
None

> <i_lp_mmshare_version>
53161

> <i_f3d_flags>
0

> <r_lp_tautomer_probability>
0.99990000499975

> <s_lp_Force_Field>
OPLS_2005

> <r_lp_Energy>
42.497361

> <b_lp_Chiralities_Consistent>
1

> <s_lp_Variant>
CHEMBL220_lig333-1

> <s_i_glide_gridfile>
glide-grid_1e66

> <i_i_glide_lignum>
387

> <i_i_glide_rotatable_bonds>
9

> <r_i_docking_score>
-7.12552643427261

> <r_i_glide_ligand_efficiency>
-0.237517547809087

> <r_i_glide_ligand_efficiency_sa>
-0.738022244450125

> <r_i_glide_ligand_efficiency_ln>
-1.61899724469562

> <r_i_glide_gscore>
-7.12552643427261

> <r_i_glide_lipo>
-3.39300111687274

> <r_i_glide_hbond>
-0.0593588195555784

> <r_i_glide_metal>
0

> <r_i_glide_rewards>
-1.84270508118108

> <r_i_glide_evdw>
-38.486198425293

> <r_i_glide_ecoul>
-4.9764575958252

> <r_i_glide_erotb>
0.840317143975223

> <r_i_glide_esite>
0

> <r_i_glide_emodel>
-55.1991171225924

> <r_i_glide_energy>
-43.4626560211182

> <r_i_glide_einternal>
14.296217918396

> <i_i_glide_confnum>
49

> <i_i_glide_posenum>
65

> <r_i_glide_eff_state_penalty>
0

> <s_user_duplicate_titles>
CHEMBL220_lig333

> <s_m_subgroup_title>
dock_pv

> <s_m_subgroupid>
dock_pv

> <b_m_subgroup_collapsed>
0

$$$$
CHEMBL220_lig783
                    3D
 Schrodinger Suite 2021-1.
 61 62  0  0  1  0            999 V2000
    2.9621   60.4223   70.8058 C   0  0  0  0  0  0
    4.3430   66.5621   63.5542 C   0  0  0  0  0  0
    1.7772   60.9584   71.1916 O   0  0  0  0  0  0
    3.2832   66.7940   64.3667 O   0  0  0  0  0  0
    1.4043   61.8578   70.2484 C   0  0  0  0  0  0
    2.7053   67.9532   63.9632 C   0  0  0  0  0  0
    3.3420   60.9611   69.5896 C   0  0  0  0  0  0
    4.4967   67.6298   62.6840 C   0  0  0  0  0  0
    2.3524   61.8769   69.2388 C   0  0  0  0  0  0
    3.4417   68.5088   62.9300 C   0  0  0  0  0  0
    3.6343   59.4948   71.7971 C   0  0  0  0  0  0
    5.0946   65.2669   63.7624 C   0  0  0  0  0  0
    4.3426   60.2159   72.8632 N   0  0  0  0  0  0
    4.3430   64.0743   63.3773 N   0  0  0  0  0  0
    0.3431   64.0005   71.6398 S   0  0  0  0  0  0
    1.8132   68.9081   66.3702 S   0  0  0  0  0  0
    0.1183   62.6037   70.5041 C   0  0  0  0  0  0
    1.4513   68.3392   64.6912 C   0  0  0  0  0  0
    5.3993   61.0928   72.3578 C   0  0  0  0  0  0
    3.4275   60.9282   73.7563 C   0  0  0  0  0  0
    5.2213   62.9032   63.3615 C   0  0  0  0  0  0
    3.2626   63.7891   64.3184 C   0  0  0  0  0  0
    1.0297   65.2547   70.5241 C   0  0  0  0  0  0
    0.1430   68.9163   67.0792 C   0  0  0  0  0  0
   -0.3268   67.5538   67.6125 C   0  0  0  0  0  0
    0.0477   65.8093   69.4761 C   0  0  0  0  0  0
    0.6214   66.9891   68.6899 C   0  0  0  0  0  0
    4.2550   60.7483   69.0547 H   0  0  0  0  0  0
    5.2822   67.7531   61.9536 H   0  0  0  0  0  0
    2.3437   62.5076   68.3681 H   0  0  0  0  0  0
    3.2427   69.4418   62.4216 H   0  0  0  0  0  0
    4.3430   58.8539   71.2751 H   0  0  0  0  0  0
    2.9042   58.8201   72.2481 H   0  0  0  0  0  0
    5.9428   65.3090   63.0939 H   0  0  0  0  0  0
    5.4972   65.1679   64.7679 H   0  0  0  0  0  0
   -0.3776   62.9127   69.5859 H   0  0  0  0  0  0
   -0.5838   61.9363   71.0042 H   0  0  0  0  0  0
    0.8052   67.4647   64.7776 H   0  0  0  0  0  0
    0.8781   69.0841   64.1391 H   0  0  0  0  0  0
    6.1201   60.5252   71.7677 H   0  0  0  0  0  0
    5.9428   61.5723   73.1678 H   0  0  0  0  0  0
    5.0004   61.8929   71.7335 H   0  0  0  0  0  0
    2.6376   60.2659   74.1137 H   0  0  0  0  0  0
    3.9430   61.3075   74.6350 H   0  0  0  0  0  0
    2.9552   61.7795   73.2633 H   0  0  0  0  0  0
    4.7062   62.0404   62.9358 H   0  0  0  0  0  0
    6.1209   63.0672   62.7681 H   0  0  0  0  0  0
    5.5428   62.6311   64.3669 H   0  0  0  0  0  0
    2.7374   62.9078   63.9682 H   0  0  0  0  0  0
    3.6290   63.6072   65.3305 H   0  0  0  0  0  0
    2.5185   64.5821   64.3661 H   0  0  0  0  0  0
    1.3862   66.0683   71.1571 H   0  0  0  0  0  0
    1.9121   64.8432   70.0343 H   0  0  0  0  0  0
   -0.5576   69.2748   66.3251 H   0  0  0  0  0  0
    0.1256   69.6527   67.8820 H   0  0  0  0  0  0
   -0.4105   66.8382   66.7933 H   0  0  0  0  0  0
   -1.3375   67.6632   68.0063 H   0  0  0  0  0  0
   -0.2487   65.0254   68.7816 H   0  0  0  0  0  0
   -0.8572   66.1435   69.9696 H   0  0  0  0  0  0
    0.8960   67.7809   69.3895 H   0  0  0  0  0  0
    1.5430   66.6672   68.2091 H   0  0  0  0  0  0
  1  3  1  0  0  0
  1  7  2  0  0  0
  1 11  1  0  0  0
  2  4  1  0  0  0
  2 12  1  0  0  0
  2  8  2  0  0  0
  3  5  1  0  0  0
  4  6  1  0  0  0
  5 17  1  0  0  0
  5  9  2  0  0  0
  6 18  1  0  0  0
  6 10  2  0  0  0
  7  9  1  0  0  0
  7 28  1  0  0  0
  8 10  1  0  0  0
  8 29  1  0  0  0
  9 30  1  0  0  0
 10 31  1  0  0  0
 11 13  1  0  0  0
 11 32  1  0  0  0
 11 33  1  0  0  0
 12 14  1  0  0  0
 12 34  1  0  0  0
 12 35  1  0  0  0
 13 19  1  0  0  0
 13 20  1  0  0  0
 14 21  1  0  0  0
 14 22  1  0  0  0
 15 17  1  0  0  0
 15 23  1  0  0  0
 16 24  1  0  0  0
 16 18  1  0  0  0
 17 36  1  0  0  0
 17 37  1  0  0  0
 18 38  1  0  0  0
 18 39  1  0  0  0
 19 40  1  0  0  0
 19 41  1  0  0  0
 19 42  1  0  0  0
 20 43  1  0  0  0
 20 44  1  0  0  0
 20 45  1  0  0  0
 21 46  1  0  0  0
 21 47  1  0  0  0
 21 48  1  0  0  0
 22 49  1  0  0  0
 22 50  1  0  0  0
 22 51  1  0  0  0
 23 26  1  0  0  0
 23 52  1  0  0  0
 23 53  1  0  0  0
 24 25  1  0  0  0
 24 54  1  0  0  0
 24 55  1  0  0  0
 25 27  1  0  0  0
 25 56  1  0  0  0
 25 57  1  0  0  0
 26 27  1  0  0  0
 26 58  1  0  0  0
 26 59  1  0  0  0
 27 60  1  0  0  0
 27 61  1  0  0  0
M  END
> <s_m_entry_id>
8741

> <s_m_entry_name>
dock_pv.251

> <s_m_Source_Path>
/home/csk/Desktop/cluster/DUD-E-result/aces

> <s_m_Source_File>
dock_pv.maegz

> <i_m_Source_File_Index>
251

> <chembl_id>
CHEMBL13166

> <chembl_pref_name>
None

> <i_lp_mmshare_version>
53161

> <i_f3d_flags>
0

> <r_lp_tautomer_probability>
1

> <s_lp_Force_Field>
OPLS_2005

> <r_lp_Energy>
6.437589

> <b_lp_Chiralities_Consistent>
1

> <s_lp_Variant>
CHEMBL220_lig783-1

> <s_i_glide_gridfile>
glide-grid_1e66

> <i_i_glide_lignum>
963

> <i_i_glide_rotatable_bonds>
14

> <r_i_docking_score>
-7.12358545784042

> <r_i_glide_ligand_efficiency>
-0.263836498438534

> <r_i_glide_ligand_efficiency_sa>
-0.79150949444604

> <r_i_glide_ligand_efficiency_ln>
-1.65825325310043

> <r_i_glide_gscore>
-7.12358545784042

> <r_i_glide_lipo>
-4.06582856345102

> <r_i_glide_hbond>
-0.197637533788291

> <r_i_glide_metal>
0

> <r_i_glide_rewards>
-1.47821118570728

> <r_i_glide_evdw>
-47.5287475585938

> <r_i_glide_ecoul>
-2.71701884269714

> <r_i_glide_erotb>
1.40208202944043

> <r_i_glide_esite>
0

> <r_i_glide_emodel>
-67.7277805527442

> <r_i_glide_energy>
-50.2457664012909

> <r_i_glide_einternal>
5.79267740249634

> <i_i_glide_confnum>
123

> <i_i_glide_posenum>
175

> <r_i_glide_eff_state_penalty>
0

> <s_user_duplicate_titles>
CHEMBL220_lig783,11728

> <s_m_subgroup_title>
dock_pv

> <s_m_subgroupid>
dock_pv

> <b_m_subgroup_collapsed>
0

$$$$
CHEMBL220_lig692
                    3D
 Schrodinger Suite 2021-1.
 53 56  0  0  1  0            999 V2000
    3.2287   68.8545   62.4258 N   0  0  0  0  0  0
    4.3589   69.2251   64.7385 S   0  0  0  0  0  0
    4.3749   69.1034   62.9933 C   0  0  0  0  0  0
    2.6390   68.9073   64.6885 C   0  0  0  0  0  0
    2.2359   68.7440   63.3417 C   0  0  0  0  0  0
    1.0972   63.4195   70.3116 N   0  0  1  0  0  0
    1.7228   68.8210   65.7388 C   0  0  0  0  0  0
    0.3894   68.5071   65.4349 C   0  0  0  0  0  0
   -0.6569   68.3808   66.5007 C   0  0  0  0  0  0
    0.8960   68.4900   63.0384 C   0  0  0  0  0  0
   -0.0055   68.3665   64.0946 C   0  0  0  0  0  0
   -1.8618   68.4002   66.2428 O   0  0  0  0  0  0
   -0.2714   68.1134   67.9682 C   0  0  0  0  0  0
    1.0543   62.1880   71.1153 C   0  0  0  0  0  0
   -0.2201   64.0579   70.3511 C   0  0  0  0  0  0
    2.0851   64.3784   70.8139 C   0  0  0  0  0  0
    0.9671   67.2296   68.2739 C   0  0  0  0  0  0
    2.3790   61.4341   71.1408 C   0  0  0  0  0  0
    0.8529   66.2834   69.4911 C   0  0  0  0  0  0
   -0.3364   65.3074   69.4463 C   0  0  0  0  0  0
    2.1882   65.6387   69.9328 C   0  0  0  0  0  0
    5.6309   69.2813   62.1989 C   0  0  0  0  0  0
    2.7905   60.7007   70.0249 C   0  0  0  0  0  0
    3.2214   61.5601   72.2500 C   0  0  0  0  0  0
    4.4647   60.9377   72.2533 C   0  0  0  0  0  0
    4.0338   60.0737   70.0296 C   0  0  0  0  0  0
    4.8622   60.1951   71.1454 C   0  0  0  0  0  0
    2.0543   69.0232   66.7436 H   0  0  0  0  0  0
    0.5700   68.3695   62.0159 H   0  0  0  0  0  0
   -1.0382   68.1476   63.8532 H   0  0  0  0  0  0
   -0.1794   69.0736   68.4769 H   0  0  0  0  0  0
   -1.1521   67.6188   68.3678 H   0  0  0  0  0  0
    0.7587   62.4285   72.1385 H   0  0  0  0  0  0
    0.2913   61.5198   70.7138 H   0  0  0  0  0  0
   -0.4573   64.3027   71.3876 H   0  0  0  0  0  0
   -0.9646   63.3307   70.0202 H   0  0  0  0  0  0
    1.8487   64.6133   71.8497 H   0  0  0  0  0  0
    3.0706   63.9117   70.8270 H   0  0  0  0  0  0
    1.2405   66.6270   67.4055 H   0  0  0  0  0  0
    1.7955   67.9032   68.4914 H   0  0  0  0  0  0
    0.6104   66.9074   70.3549 H   0  0  0  0  0  0
   -1.2584   65.8595   69.5678 H   0  0  0  0  0  0
   -0.4512   64.9078   68.4469 H   0  0  0  0  0  0
    2.7014   65.2801   69.0409 H   0  0  0  0  0  0
    2.8580   66.3800   70.3671 H   0  0  0  0  0  0
    6.1056   68.3283   61.9652 H   0  0  0  0  0  0
    6.3430   69.8587   62.7774 H   0  0  0  0  0  0
    5.4643   69.8143   61.2620 H   0  0  0  0  0  0
    2.1484   60.6251   69.1593 H   0  0  0  0  0  0
    2.9174   62.1449   73.1064 H   0  0  0  0  0  0
    5.1177   61.0348   73.1083 H   0  0  0  0  0  0
    4.3516   59.5027   69.1697 H   0  0  0  0  0  0
    5.8278   59.7146   71.1617 H   0  0  0  0  0  0
  1  3  2  0  0  0
  1  5  1  0  0  0
  2  3  1  0  0  0
  2  4  1  0  0  0
  3 22  1  0  0  0
  4  5  2  0  0  0
  4  7  1  0  0  0
  5 10  1  0  0  0
  6 14  1  0  0  0
  6 15  1  0  0  0
  6 16  1  0  0  0
  7  8  2  0  0  0
  7 28  1  0  0  0
  8  9  1  0  0  0
  8 11  1  0  0  0
  9 12  2  0  0  0
  9 13  1  0  0  0
 10 11  2  0  0  0
 10 29  1  0  0  0
 11 30  1  0  0  0
 13 17  1  0  0  0
 13 31  1  0  0  0
 13 32  1  0  0  0
 14 18  1  0  0  0
 14 33  1  0  0  0
 14 34  1  0  0  0
 15 20  1  0  0  0
 15 35  1  0  0  0
 15 36  1  0  0  0
 16 21  1  0  0  0
 16 37  1  0  0  0
 16 38  1  0  0  0
 17 19  1  0  0  0
 17 39  1  0  0  0
 17 40  1  0  0  0
 18 23  1  0  0  0
 18 24  2  0  0  0
 19 20  1  0  0  0
 19 21  1  0  0  0
 19 41  1  0  0  0
 20 42  1  0  0  0
 20 43  1  0  0  0
 21 44  1  0  0  0
 21 45  1  0  0  0
 22 46  1  0  0  0
 22 47  1  0  0  0
 22 48  1  0  0  0
 23 26  2  0  0  0
 23 49  1  0  0  0
 24 25  1  0  0  0
 24 50  1  0  0  0
 25 27  2  0  0  0
 25 51  1  0  0  0
 26 27  1  0  0  0
 26 52  1  0  0  0
 27 53  1  0  0  0
M  END
> <s_m_entry_id>
8742

> <s_m_entry_name>
dock_pv.252

> <s_m_Source_Path>
/home/csk/Desktop/cluster/DUD-E-result/aces

> <s_m_Source_File>
dock_pv.maegz

> <i_m_Source_File_Index>
252

> <chembl_id>
CHEMBL542543

> <chembl_pref_name>
None

> <i_lp_mmshare_version>
53161

> <i_f3d_flags>
0

> <r_lp_tautomer_probability>
0.99990000499975

> <s_lp_Force_Field>
OPLS_2005

> <r_lp_Energy>
31.125794

> <b_lp_Chiralities_Consistent>
1

> <s_lp_Variant>
CHEMBL220_lig692-1

> <s_i_glide_gridfile>
glide-grid_1e66

> <i_i_glide_lignum>
818

> <i_i_glide_rotatable_bonds>
6

> <r_i_docking_score>
-7.12162815030336

> <r_i_glide_ligand_efficiency>
-0.263764005566791

> <r_i_glide_ligand_efficiency_sa>
-0.79129201583105

> <r_i_glide_ligand_efficiency_ln>
-1.65779762417453

> <r_i_glide_gscore>
-7.12162815030336

> <r_i_glide_lipo>
-3.95481746055577

> <r_i_glide_hbond>
0

> <r_i_glide_metal>
0

> <r_i_glide_rewards>
-2.08793459019714

> <r_i_glide_evdw>
-43.7239303588867

> <r_i_glide_ecoul>
1.9719295501709

> <r_i_glide_erotb>
0.811530985868253

> <r_i_glide_esite>
0

> <r_i_glide_emodel>
-51.7007442030982

> <r_i_glide_energy>
-41.7520008087158

> <r_i_glide_einternal>
4.90860748291016

> <i_i_glide_confnum>
5

> <i_i_glide_posenum>
24

> <r_i_glide_eff_state_penalty>
0

> <s_user_duplicate_titles>
CHEMBL220_lig692,543340

> <s_m_subgroup_title>
dock_pv

> <s_m_subgroupid>
dock_pv

> <b_m_subgroup_collapsed>
0

$$$$
CHEMBL220_lig1189
                    3D
 Schrodinger Suite 2021-1.
 51 53  0  0  1  0            999 V2000
    4.3701   62.7973   63.2662 O   0  0  0  0  0  0
    6.2337   70.3963   66.5740 C   0  0  0  0  0  0
    5.9448   70.9208   67.8292 C   0  0  0  0  0  0
    4.6692   70.7991   68.3684 C   0  0  0  0  0  0
    5.2525   69.7358   65.8394 C   0  0  0  0  0  0
    3.9391   69.5756   66.3698 C   0  0  0  0  0  0
    3.6588   70.1084   67.6582 C   0  0  0  0  0  0
    2.4389   69.9898   68.2325 N   0  0  0  0  0  0
    2.8739   68.9061   65.6958 C   0  0  0  0  0  0
    1.6258   68.7463   66.3181 C   0  0  0  0  0  0
    1.4601   69.3020   67.5957 C   0  0  0  0  0  0
    0.1401   69.1934   68.3421 C   0  0  0  0  0  0
   -1.0805   68.7011   67.5233 C   0  0  0  0  0  0
   -0.8709   68.6928   66.0054 C   0  0  0  0  0  0
    0.4522   67.9970   65.6696 C   0  0  0  0  0  0
    3.0682   68.3445   64.4360 N   0  0  0  0  0  0
    2.8191   69.2513   63.3291 C   0  0  0  0  0  0
    3.0323   68.5529   61.9823 C   0  0  0  0  0  0
    4.4718   68.0575   61.7090 C   0  0  0  0  0  0
    5.0538   67.1645   62.7179 N   0  0  0  0  0  0
    4.7141   65.8727   62.8416 C   0  0  0  0  0  0
    5.3508   65.0393   63.9335 C   0  0  0  0  0  0
    3.9430   65.3147   62.0815 O   0  0  0  0  0  0
    4.5739   63.7576   64.3228 C   0  0  0  0  0  0
    5.5420   62.1324   62.7677 N   0  3  0  0  0  0
    5.3056   61.3082   61.9252 O   0  0  0  0  0  0
    6.6118   62.5082   63.1677 O   0  5  0  0  0  0
    7.2250   70.5113   66.1592 H   0  0  0  0  0  0
    6.7140   71.4342   68.3879 H   0  0  0  0  0  0
    4.4439   71.2060   69.3430 H   0  0  0  0  0  0
    5.4935   69.3494   64.8611 H   0  0  0  0  0  0
   -0.0922   70.1717   68.7680 H   0  0  0  0  0  0
    0.3363   68.5099   69.1680 H   0  0  0  0  0  0
   -1.9601   69.2976   67.7707 H   0  0  0  0  0  0
   -1.3260   67.6859   67.8404 H   0  0  0  0  0  0
   -0.8678   69.7119   65.6178 H   0  0  0  0  0  0
   -1.7011   68.1817   65.5162 H   0  0  0  0  0  0
    0.5474   67.9286   64.5872 H   0  0  0  0  0  0
    0.4345   66.9706   66.0366 H   0  0  0  0  0  0
    3.9918   67.9522   64.3299 H   0  0  0  0  0  0
    3.4946   70.1040   63.4307 H   0  0  0  0  0  0
    1.8145   69.6725   63.3990 H   0  0  0  0  0  0
    2.7386   69.2354   61.1838 H   0  0  0  0  0  0
    2.3422   67.7123   61.9073 H   0  0  0  0  0  0
    5.1438   68.9121   61.6150 H   0  0  0  0  0  0
    4.4641   67.5291   60.7637 H   0  0  0  0  0  0
    5.7678   67.5635   63.3082 H   0  0  0  0  0  0
    5.5428   65.6892   64.7678 H   0  0  0  0  0  0
    6.3171   64.7460   63.5680 H   0  0  0  0  0  0
    3.5790   64.0385   64.6730 H   0  0  0  0  0  0
    5.0577   63.2871   65.1679 H   0  0  0  0  0  0
  1 24  1  0  0  0
  1 25  1  0  0  0
  2  3  2  0  0  0
  2  5  1  0  0  0
  2 28  1  0  0  0
  3  4  1  0  0  0
  3 29  1  0  0  0
  4  7  2  0  0  0
  4 30  1  0  0  0
  5  6  2  0  0  0
  5 31  1  0  0  0
  6  9  1  0  0  0
  6  7  1  0  0  0
  7  8  1  0  0  0
  8 11  2  0  0  0
  9 16  1  0  0  0
  9 10  2  0  0  0
 10 15  1  0  0  0
 10 11  1  0  0  0
 11 12  1  0  0  0
 12 13  1  0  0  0
 12 32  1  0  0  0
 12 33  1  0  0  0
 13 14  1  0  0  0
 13 34  1  0  0  0
 13 35  1  0  0  0
 14 15  1  0  0  0
 14 36  1  0  0  0
 14 37  1  0  0  0
 15 38  1  0  0  0
 15 39  1  0  0  0
 16 17  1  0  0  0
 16 40  1  0  0  0
 17 18  1  0  0  0
 17 41  1  0  0  0
 17 42  1  0  0  0
 18 19  1  0  0  0
 18 43  1  0  0  0
 18 44  1  0  0  0
 19 20  1  0  0  0
 19 45  1  0  0  0
 19 46  1  0  0  0
 20 21  1  0  0  0
 20 47  1  0  0  0
 21 22  1  0  0  0
 21 23  2  0  0  0
 22 24  1  0  0  0
 22 48  1  0  0  0
 22 49  1  0  0  0
 24 50  1  0  0  0
 24 51  1  0  0  0
 25 26  2  0  0  0
 25 27  1  0  0  0
M  CHG  2  25   1  27  -1
M  END
> <s_m_entry_id>
8743

> <s_m_entry_name>
dock_pv.253

> <s_m_Source_Path>
/home/csk/Desktop/cluster/DUD-E-result/aces

> <s_m_Source_File>
dock_pv.maegz

> <i_m_Source_File_Index>
253

> <chembl_id>
CHEMBL269863

> <chembl_pref_name>
None

> <i_lp_mmshare_version>
53161

> <i_f3d_flags>
0

> <r_lp_tautomer_probability>
1

> <s_lp_Force_Field>
OPLS_2005

> <r_lp_Energy>
18.74403

> <b_lp_Chiralities_Consistent>
1

> <s_lp_Variant>
CHEMBL220_lig1189-1

> <s_i_glide_gridfile>
glide-grid_1e66

> <i_i_glide_lignum>
1604

> <i_i_glide_rotatable_bonds>
10

> <r_i_docking_score>
-7.12045367052798

> <r_i_glide_ligand_efficiency>
-0.263720506315851

> <r_i_glide_ligand_efficiency_sa>
-0.791161518078374

> <r_i_glide_ligand_efficiency_ln>
-1.65752422464564

> <r_i_glide_gscore>
-7.12045367052798

> <r_i_glide_lipo>
-3.86327188677889

> <r_i_glide_hbond>
-0.453608585326043

> <r_i_glide_metal>
0

> <r_i_glide_rewards>
-1.37810715372249

> <r_i_glide_evdw>
-22.0504493713379

> <r_i_glide_ecoul>
-8.43903064727783

> <r_i_glide_erotb>
1.11403395740953

> <r_i_glide_esite>
-0.171122936451523

> <r_i_glide_emodel>
-41.5127842930873

> <r_i_glide_energy>
-30.4894800186157

> <r_i_glide_einternal>
2.80663466453552

> <i_i_glide_confnum>
82

> <i_i_glide_posenum>
57

> <r_i_glide_eff_state_penalty>
0

> <s_user_duplicate_titles>
CHEMBL220_lig1189,442248

> <s_m_subgroup_title>
dock_pv

> <s_m_subgroupid>
dock_pv

> <b_m_subgroup_collapsed>
0

$$$$
CHEMBL220_lig155
                    3D
 Schrodinger Suite 2021-1.
 39 41  0  0  1  0            999 V2000
    4.4758   66.7570   63.1803 C   0  0  0  0  0  0
    4.4905   67.1774   64.3653 N   0  0  0  0  0  0
    4.6777   68.4864   64.2451 N   0  0  0  0  0  0
    4.8737   68.8662   62.9276 C   0  0  0  0  0  0
    4.6625   67.7264   62.2468 O   0  0  0  0  0  0
    5.1423   69.9507   62.4146 O   0  0  0  0  0  0
    4.3445   65.4484   62.7643 O   0  0  0  0  0  0
    4.5054   64.4184   63.7575 C   0  0  0  0  0  0
    3.3478   64.2793   64.7653 C   0  0  0  0  0  0
    4.6605   69.2690   65.4072 C   0  0  0  0  0  0
    5.8160   69.8933   65.8863 C   0  0  0  0  0  0
    5.7987   70.5075   67.1373 C   0  0  0  0  0  0
    4.6294   70.5087   67.9024 C   0  0  0  0  0  0
    3.4548   69.9283   67.4195 C   0  0  0  0  0  0
    3.4844   69.3076   66.1643 C   0  0  0  0  0  0
    2.3420   69.9827   68.2326 O   0  0  0  0  0  0
    1.0456   69.6304   67.7243 C   0  0  0  0  0  0
    0.5724   68.2499   68.1536 C   0  0  0  0  0  0
   -0.5762   67.7130   67.5656 C   0  0  0  0  0  0
   -1.0958   66.5088   68.0302 C   0  0  0  0  0  0
   -0.4568   65.8364   69.0742 C   0  0  0  0  0  0
    0.6985   66.3535   69.6480 C   0  0  0  0  0  0
    1.2049   67.5607   69.1858 C   0  0  0  0  0  0
    5.4544   64.5399   64.2872 H   0  0  0  0  0  0
    4.6008   63.4749   63.2173 H   0  0  0  0  0  0
    3.5400   63.4520   65.4459 H   0  0  0  0  0  0
    2.4011   64.0838   64.2649 H   0  0  0  0  0  0
    3.2106   65.1738   65.3719 H   0  0  0  0  0  0
    6.7351   69.8653   65.3184 H   0  0  0  0  0  0
    6.6968   70.9653   67.5256 H   0  0  0  0  0  0
    4.6273   70.9812   68.8741 H   0  0  0  0  0  0
    2.6212   68.7839   65.7851 H   0  0  0  0  0  0
    0.3409   70.3525   68.1388 H   0  0  0  0  0  0
    0.9562   69.7083   66.6440 H   0  0  0  0  0  0
   -1.0907   68.2414   66.7750 H   0  0  0  0  0  0
   -1.9968   66.1084   67.5873 H   0  0  0  0  0  0
   -0.8516   64.8956   69.4287 H   0  0  0  0  0  0
    1.1864   65.8323   70.4588 H   0  0  0  0  0  0
    2.0730   67.9838   69.6729 H   0  0  0  0  0  0
  1  2  2  0  0  0
  1  7  1  0  0  0
  1  5  1  0  0  0
  2  3  1  0  0  0
  3  4  1  0  0  0
  3 10  1  0  0  0
  4  6  2  0  0  0
  4  5  1  0  0  0
  7  8  1  0  0  0
  8  9  1  0  0  0
  8 24  1  0  0  0
  8 25  1  0  0  0
  9 26  1  0  0  0
  9 27  1  0  0  0
  9 28  1  0  0  0
 10 15  1  0  0  0
 10 11  2  0  0  0
 11 12  1  0  0  0
 11 29  1  0  0  0
 12 13  2  0  0  0
 12 30  1  0  0  0
 13 14  1  0  0  0
 13 31  1  0  0  0
 14 15  2  0  0  0
 14 16  1  0  0  0
 15 32  1  0  0  0
 16 17  1  0  0  0
 17 18  1  0  0  0
 17 33  1  0  0  0
 17 34  1  0  0  0
 18 19  2  0  0  0
 18 23  1  0  0  0
 19 20  1  0  0  0
 19 35  1  0  0  0
 20 21  2  0  0  0
 20 36  1  0  0  0
 21 22  1  0  0  0
 21 37  1  0  0  0
 22 23  2  0  0  0
 22 38  1  0  0  0
 23 39  1  0  0  0
M  END
> <s_m_entry_id>
8744

> <s_m_entry_name>
dock_pv.254

> <s_m_Source_Path>
/home/csk/Desktop/cluster/DUD-E-result/aces

> <s_m_Source_File>
dock_pv.maegz

> <i_m_Source_File_Index>
254

> <chembl_id>
CHEMBL133897

> <chembl_pref_name>
None

> <i_lp_mmshare_version>
53161

> <i_f3d_flags>
0

> <r_lp_tautomer_probability>
1

> <s_lp_Force_Field>
OPLS_2005

> <r_lp_Energy>
32.355883

> <b_lp_Chiralities_Consistent>
1

> <s_lp_Variant>
CHEMBL220_lig155-1

> <s_i_glide_gridfile>
glide-grid_1e66

> <i_i_glide_lignum>
171

> <i_i_glide_rotatable_bonds>
6

> <r_i_docking_score>
-7.11913860630272

> <r_i_glide_ligand_efficiency>
-0.309527765491423

> <r_i_glide_ligand_efficiency_sa>
-0.880255790708284

> <r_i_glide_ligand_efficiency_ln>
-1.72147226778389

> <r_i_glide_gscore>
-7.11913860630272

> <r_i_glide_lipo>
-3.24394610663275

> <r_i_glide_hbond>
-0.32

> <r_i_glide_metal>
0

> <r_i_glide_rewards>
-2.26060104257678

> <r_i_glide_evdw>
-41.6366271972656

> <r_i_glide_ecoul>
-1.09350824356079

> <r_i_glide_erotb>
0.951266139304203

> <r_i_glide_esite>
0

> <r_i_glide_emodel>
-59.5718470181273

> <r_i_glide_energy>
-42.7301354408264

> <r_i_glide_einternal>
5.96875143051147

> <i_i_glide_confnum>
18

> <i_i_glide_posenum>
398

> <r_i_glide_eff_state_penalty>
0

> <s_user_duplicate_titles>
CHEMBL220_lig155,218451

> <s_m_subgroup_title>
dock_pv

> <s_m_subgroupid>
dock_pv

> <b_m_subgroup_collapsed>
0

$$$$
CHEMBL220_lig144
                    3D
 Schrodinger Suite 2021-1.
 23 23  0  0  1  0            999 V2000
    1.1595   68.5080   62.6310 C   0  0  0  0  0  0
    1.8200   68.1080   63.7900 C   0  0  0  0  0  0
    3.2010   68.2687   63.8905 C   0  0  0  0  0  0
    3.9397   68.8365   62.8388 C   0  0  0  0  0  0
    3.2711   69.1983   61.6573 C   0  0  0  0  0  0
    1.8859   69.0418   61.5680 C   0  0  0  0  0  0
    1.1049   67.5289   64.8359 N   0  0  0  0  0  0
    3.9430   69.7080   60.5708 O   0  0  0  0  0  0
    5.4528   69.0522   62.9684 C   0  0  0  0  0  0
    5.9430   69.2093   64.3386 N   0  0  2  0  0  0
    5.4718   70.4405   64.9587 C   0  0  0  0  0  0
    0.0898   68.3850   62.5406 H   0  0  0  0  0  0
    3.7035   67.9642   64.7972 H   0  0  0  0  0  0
    1.3681   69.3196   60.6623 H   0  0  0  0  0  0
    1.5855   67.2706   65.6848 H   0  0  0  0  0  0
    0.1535   67.2175   64.6748 H   0  0  0  0  0  0
    4.7906   69.2711   60.3793 H   0  0  0  0  0  0
    5.7736   69.9097   62.3747 H   0  0  0  0  0  0
    5.9481   68.1851   62.5291 H   0  0  0  0  0  0
    6.9598   69.3045   64.3005 H   0  0  0  0  0  0
    4.3835   70.5080   64.9739 H   0  0  0  0  0  0
    5.8739   71.3080   64.4339 H   0  0  0  0  0  0
    5.8235   70.4921   65.9895 H   0  0  0  0  0  0
  1  2  2  0  0  0
  1  6  1  0  0  0
  1 12  1  0  0  0
  2  3  1  0  0  0
  2  7  1  0  0  0
  3  4  2  0  0  0
  3 13  1  0  0  0
  4  5  1  0  0  0
  4  9  1  0  0  0
  5  6  2  0  0  0
  5  8  1  0  0  0
  6 14  1  0  0  0
  7 15  1  0  0  0
  7 16  1  0  0  0
  8 17  1  0  0  0
  9 10  1  0  0  0
  9 18  1  0  0  0
  9 19  1  0  0  0
 10 11  1  0  0  0
 10 20  1  0  0  0
 11 21  1  0  0  0
 11 22  1  0  0  0
 11 23  1  0  0  0
M  END
> <s_m_entry_id>
8745

> <s_m_entry_name>
dock_pv.255

> <s_m_Source_Path>
/home/csk/Desktop/cluster/DUD-E-result/aces

> <s_m_Source_File>
dock_pv.maegz

> <i_m_Source_File_Index>
255

> <chembl_id>
CHEMBL4292574

> <chembl_pref_name>
None

> <i_lp_mmshare_version>
53161

> <i_f3d_flags>
0

> <r_lp_tautomer_probability>
1

> <s_lp_Force_Field>
OPLS_2005

> <r_lp_Energy>
9.450052

> <b_lp_Chiralities_Consistent>
1

> <s_lp_Variant>
CHEMBL220_lig144-1

> <s_i_glide_gridfile>
glide-grid_1e66

> <i_i_glide_lignum>
160

> <i_i_glide_rotatable_bonds>
3

> <r_i_docking_score>
-7.11723367796651

> <r_i_glide_ligand_efficiency>
-0.647021243451501

> <r_i_glide_ligand_efficiency_sa>
-1.43896236246138

> <r_i_glide_ligand_efficiency_ln>
-2.09460065910302

> <r_i_glide_gscore>
-7.11723367796651

> <r_i_glide_lipo>
-2.04453054273603

> <r_i_glide_hbond>
-0.699524246758111

> <r_i_glide_metal>
0

> <r_i_glide_rewards>
-2.25

> <r_i_glide_evdw>
-19.9394779205322

> <r_i_glide_ecoul>
-11.7634687423706

> <r_i_glide_erotb>
0.638315318909829

> <r_i_glide_esite>
0

> <r_i_glide_emodel>
-45.248611158152

> <r_i_glide_energy>
-31.7029466629028

> <r_i_glide_einternal>
1.4374086856842

> <i_i_glide_confnum>
4

> <i_i_glide_posenum>
260

> <r_i_glide_eff_state_penalty>
0

> <s_user_duplicate_titles>
CHEMBL220_lig144

> <s_m_subgroup_title>
dock_pv

> <s_m_subgroupid>
dock_pv

> <b_m_subgroup_collapsed>
0

$$$$
CHEMBL220_lig73
                    3D
 Schrodinger Suite 2021-1.
 29 31  0  0  1  0            999 V2000
    2.5978   69.9843   68.0402 N   0  0  0  0  0  0
    3.2462   68.9074   65.5352 C   0  0  0  0  0  0
    1.9415   68.7635   66.0470 C   0  0  0  0  0  0
    1.6738   69.3059   67.3227 C   0  0  0  0  0  0
    4.2456   69.5794   66.3026 C   0  0  0  0  0  0
    3.8592   70.1082   67.5673 C   0  0  0  0  0  0
    3.5380   68.4051   64.2608 N   0  0  0  0  0  0
    0.8127   68.1122   65.2217 C   0  0  0  0  0  0
    5.5984   69.7430   65.8898 C   0  0  0  0  0  0
    0.2990   69.1891   67.9680 C   0  0  0  0  0  0
    4.8047   70.7930   68.3682 C   0  0  0  0  0  0
   -0.4926   67.8659   66.0042 C   0  0  0  0  0  0
    6.5147   70.3867   66.7165 C   0  0  0  0  0  0
   -0.8272   69.0311   66.9400 C   0  0  0  0  0  0
    6.1242   70.9085   67.9450 C   0  0  0  0  0  0
    2.7619   68.1074   63.6905 H   0  0  0  0  0  0
    4.4008   68.6934   63.8239 H   0  0  0  0  0  0
    0.5905   68.7770   64.3864 H   0  0  0  0  0  0
    1.1457   67.1709   64.7812 H   0  0  0  0  0  0
    5.9305   69.3540   64.9396 H   0  0  0  0  0  0
    0.3139   68.3222   68.6292 H   0  0  0  0  0  0
    0.0936   70.0527   68.6034 H   0  0  0  0  0  0
    4.4929   71.1929   69.3209 H   0  0  0  0  0  0
   -1.3151   67.7083   65.3064 H   0  0  0  0  0  0
   -0.4083   66.9426   66.5805 H   0  0  0  0  0  0
    7.5382   70.4939   66.3889 H   0  0  0  0  0  0
   -0.9570   69.9517   66.3676 H   0  0  0  0  0  0
   -1.7737   68.8489   67.4534 H   0  0  0  0  0  0
    6.8484   71.4160   68.5680 H   0  0  0  0  0  0
  1  4  2  0  0  0
  1  6  1  0  0  0
  2  5  1  0  0  0
  2  7  1  0  0  0
  2  3  2  0  0  0
  3  4  1  0  0  0
  3  8  1  0  0  0
  4 10  1  0  0  0
  5  6  1  0  0  0
  5  9  2  0  0  0
  6 11  2  0  0  0
  7 16  1  0  0  0
  7 17  1  0  0  0
  8 12  1  0  0  0
  8 18  1  0  0  0
  8 19  1  0  0  0
  9 13  1  0  0  0
  9 20  1  0  0  0
 10 14  1  0  0  0
 10 21  1  0  0  0
 10 22  1  0  0  0
 11 15  1  0  0  0
 11 23  1  0  0  0
 12 14  1  0  0  0
 12 24  1  0  0  0
 12 25  1  0  0  0
 13 15  2  0  0  0
 13 26  1  0  0  0
 14 27  1  0  0  0
 14 28  1  0  0  0
 15 29  1  0  0  0
M  END
> <s_m_entry_id>
8746

> <s_m_entry_name>
dock_pv.256

> <s_m_Source_Path>
/home/csk/Desktop/cluster/DUD-E-result/aces

> <s_m_Source_File>
dock_pv.maegz

> <i_m_Source_File_Index>
256

> <chembl_id>
CHEMBL95

> <chembl_pref_name>
TACRINE

> <i_lp_mmshare_version>
53161

> <i_f3d_flags>
0

> <r_lp_tautomer_probability>
1

> <s_lp_Force_Field>
OPLS_2005

> <r_lp_Energy>
16.476809

> <b_lp_Chiralities_Consistent>
1

> <s_lp_Variant>
CHEMBL220_lig73-1

> <s_i_glide_gridfile>
glide-grid_1e66

> <i_i_glide_lignum>
80

> <i_i_glide_rotatable_bonds>
0

> <r_i_docking_score>
-7.10757663322671

> <r_i_glide_ligand_efficiency>
-0.473838442215114

> <r_i_glide_ligand_efficiency_sa>
-1.16858608641799

> <r_i_glide_ligand_efficiency_ln>
-1.91679622652196

> <r_i_glide_gscore>
-7.10757663322671

> <r_i_glide_lipo>
-3.04446089543336

> <r_i_glide_hbond>
0

> <r_i_glide_metal>
0

> <r_i_glide_rewards>
-2.54895989393939

> <r_i_glide_evdw>
-27.9686489105225

> <r_i_glide_ecoul>
-0.771489322185516

> <r_i_glide_erotb>
0

> <r_i_glide_esite>
0

> <r_i_glide_emodel>
-41.2401233729714

> <r_i_glide_energy>
-28.740138232708

> <r_i_glide_einternal>
0

> <i_i_glide_confnum>
1

> <i_i_glide_posenum>
341

> <r_i_glide_eff_state_penalty>
0

> <s_user_duplicate_titles>
CHEMBL220_lig73,9333

> <s_m_subgroup_title>
dock_pv

> <s_m_subgroupid>
dock_pv

> <b_m_subgroup_collapsed>
0

$$$$
CHEMBL220_lig219
                    3D
 Schrodinger Suite 2021-1.
 30 33  0  0  1  0            999 V2000
    1.7439   67.7253   65.8615 N   0  0  0  0  0  0
   -0.3213   68.5080   64.0919 C   0  0  0  0  0  0
   -0.6338   68.1168   65.4332 C   0  0  0  0  0  0
    0.4437   67.6668   66.2623 C   0  0  0  0  0  0
    0.1579   67.1169   67.5326 C   0  0  0  0  0  0
   -1.1588   67.0149   67.9680 C   0  0  0  0  0  0
   -2.2004   67.5409   67.2130 C   0  0  0  0  0  0
   -1.9530   68.1080   65.9680 C   0  0  0  0  0  0
   -1.2882   68.9080   63.1712 N   0  0  0  0  0  0
    1.0096   68.5080   63.6880 C   0  0  0  0  0  0
    1.9881   68.1656   64.6066 C   0  0  0  0  0  0
    1.6409   68.8842   62.3661 C   0  0  0  0  0  0
    3.1129   68.7841   62.6792 C   0  0  0  0  0  0
    3.3073   68.3895   64.0028 C   0  0  0  0  0  0
    4.5940   68.2977   64.5320 C   0  0  0  0  0  0
    5.6915   68.5703   63.7175 C   0  0  0  0  0  0
    5.4986   68.9336   62.3850 C   0  0  0  0  0  0
    4.2110   69.0481   61.8653 C   0  0  0  0  0  0
    0.9646   66.7445   68.1473 H   0  0  0  0  0  0
   -1.3711   66.5607   68.9251 H   0  0  0  0  0  0
   -3.2132   67.4916   67.5875 H   0  0  0  0  0  0
   -2.7771   68.4757   65.3745 H   0  0  0  0  0  0
   -2.0570   69.4372   63.5680 H   0  0  0  0  0  0
   -0.9194   69.2312   62.2920 H   0  0  0  0  0  0
    1.3657   69.8916   62.0534 H   0  0  0  0  0  0
    1.3382   68.2146   61.5603 H   0  0  0  0  0  0
    4.7480   68.0357   65.5671 H   0  0  0  0  0  0
    6.6928   68.5080   64.1181 H   0  0  0  0  0  0
    6.3430   69.1326   61.7448 H   0  0  0  0  0  0
    4.0880   69.3417   60.8333 H   0  0  0  0  0  0
  1  4  2  0  0  0
  1 11  1  0  0  0
  2  9  1  0  0  0
  2  3  2  0  0  0
  2 10  1  0  0  0
  3  8  1  0  0  0
  3  4  1  0  0  0
  4  5  1  0  0  0
  5  6  2  0  0  0
  5 19  1  0  0  0
  6  7  1  0  0  0
  6 20  1  0  0  0
  7  8  2  0  0  0
  7 21  1  0  0  0
  8 22  1  0  0  0
  9 23  1  0  0  0
  9 24  1  0  0  0
 10 11  2  0  0  0
 10 12  1  0  0  0
 11 14  1  0  0  0
 12 13  1  0  0  0
 12 25  1  0  0  0
 12 26  1  0  0  0
 13 14  2  0  0  0
 13 18  1  0  0  0
 14 15  1  0  0  0
 15 16  2  0  0  0
 15 27  1  0  0  0
 16 17  1  0  0  0
 16 28  1  0  0  0
 17 18  2  0  0  0
 17 29  1  0  0  0
 18 30  1  0  0  0
M  END
> <s_m_entry_id>
8747

> <s_m_entry_name>
dock_pv.257

> <s_m_Source_Path>
/home/csk/Desktop/cluster/DUD-E-result/aces

> <s_m_Source_File>
dock_pv.maegz

> <i_m_Source_File_Index>
257

> <chembl_id>
CHEMBL60167

> <chembl_pref_name>
None

> <i_lp_mmshare_version>
53161

> <i_f3d_flags>
0

> <r_lp_tautomer_probability>
1

> <s_lp_Force_Field>
OPLS_2005

> <r_lp_Energy>
36.565307

> <b_lp_Chiralities_Consistent>
1

> <s_lp_Variant>
CHEMBL220_lig219-1

> <s_i_glide_gridfile>
glide-grid_1e66

> <i_i_glide_lignum>
244

> <i_i_glide_rotatable_bonds>
0

> <r_i_docking_score>
-7.10738653252781

> <r_i_glide_ligand_efficiency>
-0.394854807362656

> <r_i_glide_ligand_efficiency_sa>
-1.0348123373607

> <r_i_glide_ligand_efficiency_ln>
-1.8269170595592

> <r_i_glide_gscore>
-7.10738653252781

> <r_i_glide_lipo>
-2.96413079228037

> <r_i_glide_hbond>
-0.178764250426813

> <r_i_glide_metal>
0

> <r_i_glide_rewards>
-2.09015343294572

> <r_i_glide_evdw>
-31.5432777404785

> <r_i_glide_ecoul>
-1.92718458175659

> <r_i_glide_erotb>
0

> <r_i_glide_esite>
-0.00809648258749067

> <r_i_glide_emodel>
-44.888028013851

> <r_i_glide_energy>
-33.4704623222351

> <r_i_glide_einternal>
0

> <i_i_glide_confnum>
1

> <i_i_glide_posenum>
364

> <r_i_glide_eff_state_penalty>
0

> <s_user_duplicate_titles>
CHEMBL220_lig219,95386

> <s_m_subgroup_title>
dock_pv

> <s_m_subgroupid>
dock_pv

> <b_m_subgroup_collapsed>
0

$$$$
CHEMBL220_lig859
                    3D
 Schrodinger Suite 2021-1.
 61 63  0  0  1  0            999 V2000
    1.0468   69.2648   67.5674 S   0  0  0  0  0  0
    2.2008   68.9997   66.2634 C   0  0  0  0  0  0
    2.1791   63.0552   70.9565 N   0  3  1  0  0  0
    1.6416   68.4315   65.1211 C   0  0  0  0  0  0
   -0.3557   68.7409   66.5431 C   0  0  1  0  0  0
    3.5571   69.3080   66.3005 C   0  0  0  0  0  0
    0.1676   68.1189   65.2375 C   0  0  0  0  0  0
    4.3914   69.0181   65.2105 C   0  0  0  0  0  0
    2.4598   68.1473   64.0275 C   0  0  0  0  0  0
    3.8397   68.4240   64.0635 C   0  0  0  0  0  0
   -1.2820   67.8390   67.3827 C   0  0  0  0  0  0
    0.6268   61.8702   72.7896 C   0  0  0  0  0  0
    1.6008   62.9946   72.4082 C   0  0  0  0  0  0
   -0.2498   62.0851   73.6296 O   0  0  0  0  0  0
   -2.4568   68.1456   67.5629 O   0  0  0  0  0  0
   -0.7547   66.5077   67.9361 C   0  0  0  0  0  0
    1.0944   62.8513   69.8574 C   0  0  0  0  0  0
    2.8760   64.4413   70.7680 C   0  0  0  0  0  0
    5.7526   69.2740   65.2100 O   0  0  0  0  0  0
    4.7091   68.1317   63.0252 O   0  0  0  0  0  0
   -0.0985   66.5590   69.3388 C   0  0  0  0  0  0
    0.8552   60.6882   72.1869 O   0  0  0  0  0  0
    3.2821   61.9816   70.7531 C   0  0  0  0  0  0
    0.8630   65.3743   69.5589 C   0  0  2  0  0  0
    0.1241   64.0463   69.8431 C   0  0  0  0  0  0
    1.8492   65.6031   70.6885 C   0  0  0  0  0  0
    4.2132   67.5184   61.8429 C   0  0  0  0  0  0
    6.3465   69.9038   66.3408 C   0  0  0  0  0  0
    0.0417   59.5619   72.4930 C   0  0  0  0  0  0
   -0.9098   69.6489   66.3099 H   0  0  0  0  0  0
    3.9535   69.7593   67.1954 H   0  0  0  0  0  0
   -0.3899   68.5281   64.3944 H   0  0  0  0  0  0
    0.0298   67.0386   65.2221 H   0  0  0  0  0  0
    2.0140   67.7093   63.1496 H   0  0  0  0  0  0
    2.4711   62.9379   73.0570 H   0  0  0  0  0  0
    1.1005   63.9423   72.5855 H   0  0  0  0  0  0
   -1.5948   65.8228   67.9810 H   0  0  0  0  0  0
   -0.0529   66.1092   67.2081 H   0  0  0  0  0  0
    1.6260   62.7752   68.9088 H   0  0  0  0  0  0
    0.5846   61.9037   70.0240 H   0  0  0  0  0  0
    3.4369   64.3928   69.8333 H   0  0  0  0  0  0
    3.5999   64.5735   71.5680 H   0  0  0  0  0  0
    0.4485   67.4899   69.4854 H   0  0  0  0  0  0
   -0.8580   66.5514   70.1175 H   0  0  0  0  0  0
    2.8267   60.9940   70.7914 H   0  0  0  0  0  0
    3.7402   62.1397   69.7780 H   0  0  0  0  0  0
    4.0195   62.0989   71.5481 H   0  0  0  0  0  0
    1.4985   65.3080   68.6830 H   0  0  0  0  0  0
   -0.4563   64.1094   70.7636 H   0  0  0  0  0  0
   -0.6255   63.8670   69.0803 H   0  0  0  0  0  0
    2.3789   66.5434   70.5302 H   0  0  0  0  0  0
    1.2623   65.7596   71.5784 H   0  0  0  0  0  0
    5.0413   67.3081   61.1687 H   0  0  0  0  0  0
    3.5108   68.1665   61.3200 H   0  0  0  0  0  0
    3.7340   66.5669   62.0656 H   0  0  0  0  0  0
    7.4173   70.0176   66.1848 H   0  0  0  0  0  0
    5.9326   70.9006   66.5037 H   0  0  0  0  0  0
    6.2182   69.3087   67.2458 H   0  0  0  0  0  0
    0.3518   58.7037   71.8986 H   0  0  0  0  0  0
    0.1265   59.2922   73.5468 H   0  0  0  0  0  0
   -1.0093   59.7638   72.2779 H   0  0  0  0  0  0
  1  2  1  0  0  0
  1  5  1  0  0  0
  2  4  2  0  0  0
  2  6  1  0  0  0
  3 18  1  0  0  0
  3 13  1  0  0  0
  3 23  1  0  0  0
  3 17  1  0  0  0
  4  9  1  0  0  0
  4  7  1  0  0  0
  5  7  1  0  0  0
  5 11  1  0  0  0
  5 30  1  0  0  0
  6  8  2  0  0  0
  6 31  1  0  0  0
  7 32  1  0  0  0
  7 33  1  0  0  0
  8 10  1  0  0  0
  8 19  1  0  0  0
  9 10  2  0  0  0
  9 34  1  0  0  0
 10 20  1  0  0  0
 11 15  2  0  0  0
 11 16  1  0  0  0
 12 13  1  0  0  0
 12 14  2  0  0  0
 12 22  1  0  0  0
 13 35  1  0  0  0
 13 36  1  0  0  0
 16 21  1  0  0  0
 16 37  1  0  0  0
 16 38  1  0  0  0
 17 25  1  0  0  0
 17 39  1  0  0  0
 17 40  1  0  0  0
 18 26  1  0  0  0
 18 41  1  0  0  0
 18 42  1  0  0  0
 19 28  1  0  0  0
 20 27  1  0  0  0
 21 24  1  0  0  0
 21 43  1  0  0  0
 21 44  1  0  0  0
 22 29  1  0  0  0
 23 45  1  0  0  0
 23 46  1  0  0  0
 23 47  1  0  0  0
 24 25  1  0  0  0
 24 26  1  0  0  0
 24 48  1  0  0  0
 25 49  1  0  0  0
 25 50  1  0  0  0
 26 51  1  0  0  0
 26 52  1  0  0  0
 27 53  1  0  0  0
 27 54  1  0  0  0
 27 55  1  0  0  0
 28 56  1  0  0  0
 28 57  1  0  0  0
 28 58  1  0  0  0
 29 59  1  0  0  0
 29 60  1  0  0  0
 29 61  1  0  0  0
M  CHG  1   3   1
M  END
> <s_m_entry_id>
8748

> <s_m_entry_name>
dock_pv.258

> <s_m_Source_Path>
/home/csk/Desktop/cluster/DUD-E-result/aces

> <s_m_Source_File>
dock_pv.maegz

> <i_m_Source_File_Index>
258

> <chembl_id>
CHEMBL188714

> <chembl_pref_name>
None

> <i_lp_mmshare_version>
53161

> <i_f3d_flags>
0

> <r_lp_tautomer_probability>
0.999999960000001

> <s_lp_Force_Field>
OPLS_2005

> <r_lp_Energy>
50.59701

> <b_lp_Chiralities_Consistent>
1

> <s_lp_Variant>
CHEMBL220_lig859-2

> <s_i_glide_gridfile>
glide-grid_1e66

> <i_i_glide_lignum>
1135

> <i_i_glide_rotatable_bonds>
9

> <r_i_docking_score>
-7.10634340378279

> <r_i_glide_ligand_efficiency>
-0.245046324268372

> <r_i_glide_ligand_efficiency_sa>
-0.752859944277155

> <r_i_glide_ligand_efficiency_ln>
-1.62717243814573

> <r_i_glide_gscore>
-7.10634340378279

> <r_i_glide_lipo>
-3.62094669981096

> <r_i_glide_hbond>
0

> <r_i_glide_metal>
0

> <r_i_glide_rewards>
-2.01163014269202

> <r_i_glide_evdw>
-42.6478538513184

> <r_i_glide_ecoul>
-0.0473201274871826

> <r_i_glide_erotb>
0.665724150409189

> <r_i_glide_esite>
0

> <r_i_glide_emodel>
-57.4170493317319

> <r_i_glide_energy>
-42.6951739788055

> <r_i_glide_einternal>
8.41197395324707

> <i_i_glide_confnum>
16

> <i_i_glide_posenum>
191

> <r_i_glide_eff_state_penalty>
0

> <s_user_duplicate_titles>
CHEMBL220_lig859

> <s_m_subgroup_title>
dock_pv

> <s_m_subgroupid>
dock_pv

> <b_m_subgroup_collapsed>
0

$$$$
CHEMBL220_lig326
                    3D
 Schrodinger Suite 2021-1.
 29 29  0  0  1  0            999 V2000
    4.1778   68.8810   63.7861 N   0  3  0  0  0  0
    2.6987   68.8010   63.4360 C   0  0  0  0  0  0
    2.2002   69.3064   62.2222 C   0  0  0  0  0  0
    5.7979   70.1257   65.4662 C   0  0  0  0  0  0
    6.5407   69.6710   66.4866 C   0  0  0  0  0  0
    0.8352   69.2288   61.9470 C   0  0  0  0  0  0
    4.3875   69.6496   65.1306 C   0  0  0  0  0  0
    0.3430   69.7161   60.7679 O   0  0  0  0  0  0
    5.0576   69.5333   62.6806 C   0  0  0  0  0  0
    4.7633   67.4635   63.9688 C   0  0  0  0  0  0
    1.8157   68.2169   64.3602 C   0  0  0  0  0  0
    0.4528   68.1465   64.0725 C   0  0  0  0  0  0
   -0.0364   68.6526   62.8701 C   0  0  0  0  0  0
    2.8380   69.7705   61.4870 H   0  0  0  0  0  0
    6.2123   70.8976   64.8315 H   0  0  0  0  0  0
    6.1708   68.9100   67.1579 H   0  0  0  0  0  0
    7.5354   70.0561   66.6638 H   0  0  0  0  0  0
    3.9966   69.0086   65.9229 H   0  0  0  0  0  0
    3.7255   70.5082   65.0622 H   0  0  0  0  0  0
    0.9988   70.0922   60.1655 H   0  0  0  0  0  0
    6.1090   69.4741   62.9622 H   0  0  0  0  0  0
    4.9091   68.9869   61.7478 H   0  0  0  0  0  0
    4.7476   70.5733   62.5885 H   0  0  0  0  0  0
    5.7961   67.6030   64.2835 H   0  0  0  0  0  0
    4.1987   66.9428   64.7427 H   0  0  0  0  0  0
    4.6931   66.9433   63.0122 H   0  0  0  0  0  0
    2.1584   67.8212   65.3070 H   0  0  0  0  0  0
   -0.2320   67.7076   64.7833 H   0  0  0  0  0  0
   -1.0950   68.6025   62.6635 H   0  0  0  0  0  0
  1  2  1  0  0  0
  1  7  1  0  0  0
  1  9  1  0  0  0
  1 10  1  0  0  0
  2  3  1  0  0  0
  2 11  2  0  0  0
  3  6  2  0  0  0
  3 14  1  0  0  0
  4  7  1  0  0  0
  4  5  2  0  0  0
  4 15  1  0  0  0
  5 16  1  0  0  0
  5 17  1  0  0  0
  6  8  1  0  0  0
  6 13  1  0  0  0
  7 18  1  0  0  0
  7 19  1  0  0  0
  8 20  1  0  0  0
  9 21  1  0  0  0
  9 22  1  0  0  0
  9 23  1  0  0  0
 10 24  1  0  0  0
 10 25  1  0  0  0
 10 26  1  0  0  0
 11 12  1  0  0  0
 11 27  1  0  0  0
 12 13  2  0  0  0
 12 28  1  0  0  0
 13 29  1  0  0  0
M  CHG  1   1   1
M  END
> <s_m_entry_id>
8749

> <s_m_entry_name>
dock_pv.259

> <s_m_Source_Path>
/home/csk/Desktop/cluster/DUD-E-result/aces

> <s_m_Source_File>
dock_pv.maegz

> <i_m_Source_File_Index>
259

> <chembl_id>
CHEMBL61312

> <chembl_pref_name>
None

> <i_lp_mmshare_version>
53161

> <i_f3d_flags>
0

> <r_lp_tautomer_probability>
1

> <s_lp_Force_Field>
OPLS_2005

> <r_lp_Energy>
18.166144

> <b_lp_Chiralities_Consistent>
1

> <s_lp_Variant>
CHEMBL220_lig326-1

> <s_i_glide_gridfile>
glide-grid_1e66

> <i_i_glide_lignum>
380

> <i_i_glide_rotatable_bonds>
4

> <r_i_docking_score>
-7.10605207948105

> <r_i_glide_ligand_efficiency>
-0.546619390729312

> <r_i_glide_ligand_efficiency_sa>
-1.28528513330372

> <r_i_glide_ligand_efficiency_ln>
-1.99331080667609

> <r_i_glide_gscore>
-7.10605207948105

> <r_i_glide_lipo>
-2.52785262962404

> <r_i_glide_hbond>
-0.32

> <r_i_glide_metal>
0

> <r_i_glide_rewards>
-3.42304029576617

> <r_i_glide_evdw>
-26.3608856201172

> <r_i_glide_ecoul>
-6.66010761260986

> <r_i_glide_erotb>
1.4819012688065

> <r_i_glide_esite>
0

> <r_i_glide_emodel>
-49.4969178760426

> <r_i_glide_energy>
-33.0209932327271

> <r_i_glide_einternal>
2.96456956863403

> <i_i_glide_confnum>
8

> <i_i_glide_posenum>
385

> <r_i_glide_eff_state_penalty>
0

> <s_user_duplicate_titles>
CHEMBL220_lig326

> <s_m_subgroup_title>
dock_pv

> <s_m_subgroupid>
dock_pv

> <b_m_subgroup_collapsed>
0

$$$$
CHEMBL220_lig182
                    3D
 Schrodinger Suite 2021-1.
 55 57  0  0  1  0            999 V2000
    0.9823   68.6978   63.5163 C   0  0  0  0  0  0
    2.2712   68.5162   63.1593 C   0  0  0  0  0  0
    2.4693   63.0219   70.1717 N   0  0  2  0  0  0
    0.3533   68.5076   64.7453 N   0  0  0  0  0  0
    1.2250   65.1657   70.1927 C   0  0  0  0  0  0
    3.2728   68.0678   64.0617 C   0  0  0  0  0  0
    2.7357   68.7567   61.8377 C   0  0  0  0  0  0
    1.9231   66.3106   69.9680 O   0  0  0  0  0  0
   -0.0526   69.1394   62.7156 N   0  0  0  0  0  0
    4.1125   67.7080   64.7679 N   0  0  0  0  0  0
    3.1427   68.9092   60.7680 N   0  0  0  0  0  0
    1.8907   64.0836   71.0134 C   0  0  0  0  0  0
    1.1432   67.1510   69.2314 C   0  0  0  0  0  0
   -0.0022   65.2543   69.5706 C   0  0  0  0  0  0
   -0.0648   66.5076   68.9721 C   0  0  0  0  0  0
    2.6159   61.7427   70.8961 C   0  0  2  0  0  0
   -1.2235   68.3984   63.1140 C   0  0  0  0  0  0
    0.8983   69.5281   68.3524 N   0  0  1  0  0  0
   -1.0902   68.5145   64.6047 C   0  0  0  0  0  0
    3.7249   63.4443   69.5315 C   0  0  0  0  0  0
    0.9924   68.5322   66.0566 C   0  0  0  0  0  0
    1.7751   68.5126   68.9169 C   0  0  0  0  0  0
    0.1336   69.1912   67.1591 C   0  0  0  0  0  0
    1.3215   61.1068   71.4385 C   0  0  0  0  0  0
    3.7660   61.7698   71.9383 C   0  0  0  0  0  0
    4.8830   63.6010   70.5375 C   0  0  0  0  0  0
    5.0908   62.3260   71.3806 C   0  0  0  0  0  0
    0.0909   69.1122   61.7159 H   0  0  0  0  0  0
    2.6407   64.5081   71.6768 H   0  0  0  0  0  0
    1.1286   63.6703   71.6723 H   0  0  0  0  0  0
   -0.7547   64.4816   69.5647 H   0  0  0  0  0  0
   -0.9121   66.8722   68.4180 H   0  0  0  0  0  0
    2.9702   61.0692   70.1128 H   0  0  0  0  0  0
   -1.1726   67.3656   62.7674 H   0  0  0  0  0  0
   -2.1490   68.8589   62.7680 H   0  0  0  0  0  0
    0.3428   69.9250   69.1105 H   0  0  0  0  0  0
   -1.5040   69.4452   64.9821 H   0  0  0  0  0  0
   -1.5746   67.7079   65.1487 H   0  0  0  0  0  0
    3.9839   62.7108   68.7670 H   0  0  0  0  0  0
    3.5673   64.3812   68.9953 H   0  0  0  0  0  0
    1.2744   67.5163   66.3346 H   0  0  0  0  0  0
    1.9155   69.1069   65.9757 H   0  0  0  0  0  0
    2.6272   68.5080   68.2427 H   0  0  0  0  0  0
    2.2081   68.9084   69.8356 H   0  0  0  0  0  0
   -0.3205   70.1079   66.7968 H   0  0  0  0  0  0
   -0.7252   68.5760   67.4049 H   0  0  0  0  0  0
    1.4627   60.0440   71.6360 H   0  0  0  0  0  0
    1.0019   61.5677   72.3731 H   0  0  0  0  0  0
    0.5033   61.2012   70.7243 H   0  0  0  0  0  0
    3.9565   60.7581   72.2983 H   0  0  0  0  0  0
    3.4598   62.3626   72.8002 H   0  0  0  0  0  0
    5.7839   63.8310   69.9679 H   0  0  0  0  0  0
    4.7348   64.4789   71.1662 H   0  0  0  0  0  0
    5.5572   61.5558   70.7680 H   0  0  0  0  0  0
    5.7840   62.5081   72.2029 H   0  0  0  0  0  0
  1  2  2  0  0  0
  1  4  1  0  0  0
  1  9  1  0  0  0
  2  6  1  0  0  0
  2  7  1  0  0  0
  3 12  1  0  0  0
  3 16  1  0  0  0
  3 20  1  0  0  0
  4 19  1  0  0  0
  4 21  1  0  0  0
  5  8  1  0  0  0
  5 12  1  0  0  0
  5 14  2  0  0  0
  6 10  3  0  0  0
  7 11  3  0  0  0
  8 13  1  0  0  0
  9 17  1  0  0  0
  9 28  1  0  0  0
 12 29  1  0  0  0
 12 30  1  0  0  0
 13 22  1  0  0  0
 13 15  2  0  0  0
 14 15  1  0  0  0
 14 31  1  0  0  0
 15 32  1  0  0  0
 16 24  1  0  0  0
 16 25  1  0  0  0
 16 33  1  0  0  0
 17 19  1  0  0  0
 17 34  1  0  0  0
 17 35  1  0  0  0
 18 23  1  0  0  0
 18 22  1  0  0  0
 18 36  1  0  0  0
 19 37  1  0  0  0
 19 38  1  0  0  0
 20 26  1  0  0  0
 20 39  1  0  0  0
 20 40  1  0  0  0
 21 23  1  0  0  0
 21 41  1  0  0  0
 21 42  1  0  0  0
 22 43  1  0  0  0
 22 44  1  0  0  0
 23 45  1  0  0  0
 23 46  1  0  0  0
 24 47  1  0  0  0
 24 48  1  0  0  0
 24 49  1  0  0  0
 25 27  1  0  0  0
 25 50  1  0  0  0
 25 51  1  0  0  0
 26 27  1  0  0  0
 26 52  1  0  0  0
 26 53  1  0  0  0
 27 54  1  0  0  0
 27 55  1  0  0  0
M  END
> <s_m_entry_id>
8750

> <s_m_entry_name>
dock_pv.260

> <s_m_Source_Path>
/home/csk/Desktop/cluster/DUD-E-result/aces

> <s_m_Source_File>
dock_pv.maegz

> <i_m_Source_File_Index>
260

> <chembl_id>
CHEMBL155322

> <chembl_pref_name>
None

> <i_lp_mmshare_version>
53161

> <i_f3d_flags>
0

> <r_lp_tautomer_probability>
0.5

> <s_lp_Force_Field>
OPLS_2005

> <r_lp_Energy>
51.290472

> <b_lp_Chiralities_Consistent>
1

> <s_lp_Variant>
CHEMBL220_lig182-1

> <s_i_glide_gridfile>
glide-grid_1e66

> <i_i_glide_lignum>
198

> <i_i_glide_rotatable_bonds>
7

> <r_i_docking_score>
-7.09598585185093

> <r_i_glide_ligand_efficiency>
-0.262814290809294

> <r_i_glide_ligand_efficiency_sa>
-0.788442871561689

> <r_i_glide_ligand_efficiency_ln>
-1.65182851984114

> <r_i_glide_gscore>
-7.09598585185093

> <r_i_glide_lipo>
-2.98456642585582

> <r_i_glide_hbond>
-0.120163652997862

> <r_i_glide_metal>
0

> <r_i_glide_rewards>
-2.53185973507661

> <r_i_glide_evdw>
-36.1250038146973

> <r_i_glide_ecoul>
-4.31097030639648

> <r_i_glide_erotb>
0.993499698773686

> <r_i_glide_esite>
0

> <r_i_glide_emodel>
-52.7567051326977

> <r_i_glide_energy>
-40.4359741210938

> <r_i_glide_einternal>
6.65801382064819

> <i_i_glide_confnum>
246

> <i_i_glide_posenum>
201

> <r_i_glide_eff_state_penalty>
0

> <s_user_duplicate_titles>
CHEMBL220_lig182,256889

> <s_m_subgroup_title>
dock_pv

> <s_m_subgroupid>
dock_pv

> <b_m_subgroup_collapsed>
0

$$$$
CHEMBL220_lig981
                    3D
 Schrodinger Suite 2021-1.
 54 56  0  0  1  0            999 V2000
    0.5107   66.6490   68.5768 N   0  0  0  0  0  0
    1.7035   68.6718   63.0976 C   0  0  0  0  0  0
    1.8292   68.3437   64.6143 C   0  0  1  0  0  0
    0.5368   69.3101   62.7906 O   0  0  0  0  0  0
    2.5560   68.3780   62.2624 O   0  0  0  0  0  0
    0.6675   67.4234   65.1370 C   0  0  0  0  0  0
    3.2153   67.7240   64.9592 C   0  0  0  0  0  0
    4.4408   68.6637   64.8595 C   0  0  0  0  0  0
    4.4647   69.7825   65.9146 C   0  0  0  0  0  0
   -0.1198   67.8355   66.4380 C   0  0  0  0  0  0
    0.7431   67.6754   67.7322 C   0  0  0  0  0  0
    1.6122   68.5117   67.9709 O   0  0  0  0  0  0
   -2.4521   68.0285   67.3562 C   0  0  0  0  0  0
   -1.8769   69.4334   67.2178 C   0  0  0  0  0  0
   -0.6020   69.3074   66.3961 C   0  0  0  0  0  0
   -1.5090   67.1482   66.5462 C   0  0  0  0  0  0
    1.2792   66.3758   69.8028 C   0  0  0  0  0  0
    2.3778   65.3305   69.5713 C   0  0  0  0  0  0
    0.4019   65.8003   70.9135 C   0  0  0  0  0  0
    0.6247   64.3033   70.8163 C   0  0  0  0  0  0
    1.7593   64.0372   70.0438 C   0  0  0  0  0  0
    2.2406   62.7324   69.9206 C   0  0  0  0  0  0
    1.5608   61.6843   70.5416 C   0  0  0  0  0  0
    0.4341   61.9467   71.3223 C   0  0  0  0  0  0
   -0.0212   63.2565   71.4782 C   0  0  0  0  0  0
   -0.1400   65.9355   68.2905 H   0  0  0  0  0  0
    1.7669   69.3060   65.1232 H   0  0  0  0  0  0
   -0.0185   69.4405   63.5615 H   0  0  0  0  0  0
   -0.0572   67.3092   64.3362 H   0  0  0  0  0  0
    1.0214   66.3958   65.2535 H   0  0  0  0  0  0
    3.3896   66.8490   64.3306 H   0  0  0  0  0  0
    3.1816   67.3241   65.9680 H   0  0  0  0  0  0
    4.5097   69.1037   63.8626 H   0  0  0  0  0  0
    5.3451   68.0675   64.9751 H   0  0  0  0  0  0
    5.3911   70.3532   65.8539 H   0  0  0  0  0  0
    4.3920   69.3791   66.9255 H   0  0  0  0  0  0
    3.6460   70.4878   65.7767 H   0  0  0  0  0  0
   -2.4682   67.6933   68.3850 H   0  0  0  0  0  0
   -3.4777   67.9828   66.9874 H   0  0  0  0  0  0
   -1.6555   69.8641   68.1910 H   0  0  0  0  0  0
   -2.5660   70.1076   66.7190 H   0  0  0  0  0  0
    0.1396   70.0208   66.7447 H   0  0  0  0  0  0
   -0.8566   69.5811   65.3716 H   0  0  0  0  0  0
   -1.9653   67.1475   65.5681 H   0  0  0  0  0  0
   -1.4765   66.1080   66.8541 H   0  0  0  0  0  0
    1.7370   67.2986   70.1675 H   0  0  0  0  0  0
    2.7373   65.3040   68.5453 H   0  0  0  0  0  0
    3.2384   65.5523   70.2046 H   0  0  0  0  0  0
    0.7433   66.1084   71.8981 H   0  0  0  0  0  0
   -0.6072   66.1851   70.8385 H   0  0  0  0  0  0
    3.1352   62.5244   69.3533 H   0  0  0  0  0  0
    1.9183   60.6697   70.4381 H   0  0  0  0  0  0
   -0.0773   61.1352   71.8209 H   0  0  0  0  0  0
   -0.8568   63.4397   72.1327 H   0  0  0  0  0  0
  1 17  1  0  0  0
  1 11  1  0  0  0
  1 26  1  0  0  0
  2  3  1  0  0  0
  2  5  2  0  0  0
  2  4  1  0  0  0
  3  7  1  0  0  0
  3  6  1  0  0  0
  3 27  1  0  0  0
  4 28  1  0  0  0
  6 10  1  0  0  0
  6 29  1  0  0  0
  6 30  1  0  0  0
  7  8  1  0  0  0
  7 31  1  0  0  0
  7 32  1  0  0  0
  8  9  1  0  0  0
  8 33  1  0  0  0
  8 34  1  0  0  0
  9 35  1  0  0  0
  9 36  1  0  0  0
  9 37  1  0  0  0
 10 15  1  0  0  0
 10 16  1  0  0  0
 10 11  1  0  0  0
 11 12  2  0  0  0
 13 16  1  0  0  0
 13 14  1  0  0  0
 13 38  1  0  0  0
 13 39  1  0  0  0
 14 15  1  0  0  0
 14 40  1  0  0  0
 14 41  1  0  0  0
 15 42  1  0  0  0
 15 43  1  0  0  0
 16 44  1  0  0  0
 16 45  1  0  0  0
 17 18  1  0  0  0
 17 19  1  0  0  0
 17 46  1  0  0  0
 18 21  1  0  0  0
 18 47  1  0  0  0
 18 48  1  0  0  0
 19 20  1  0  0  0
 19 49  1  0  0  0
 19 50  1  0  0  0
 20 21  2  0  0  0
 20 25  1  0  0  0
 21 22  1  0  0  0
 22 23  2  0  0  0
 22 51  1  0  0  0
 23 24  1  0  0  0
 23 52  1  0  0  0
 24 25  2  0  0  0
 24 53  1  0  0  0
 25 54  1  0  0  0
M  END
> <s_m_entry_id>
8751

> <s_m_entry_name>
dock_pv.261

> <s_m_Source_Path>
/home/csk/Desktop/cluster/DUD-E-result/aces

> <s_m_Source_File>
dock_pv.maegz

> <i_m_Source_File_Index>
261

> <chembl_id>
CHEMBL376425

> <chembl_pref_name>
None

> <i_lp_mmshare_version>
53161

> <i_f3d_flags>
0

> <r_lp_tautomer_probability>
1

> <s_lp_Force_Field>
OPLS_2005

> <r_lp_Energy>
43.963797

> <b_lp_Chiralities_Consistent>
1

> <s_lp_Variant>
CHEMBL220_lig981-2

> <s_i_glide_gridfile>
glide-grid_1e66

> <i_i_glide_lignum>
1351

> <i_i_glide_rotatable_bonds>
9

> <r_i_docking_score>
-7.09497046716332

> <r_i_glide_ligand_efficiency>
-0.283798818686533

> <r_i_glide_ligand_efficiency_sa>
-0.829832779032903

> <r_i_glide_ligand_efficiency_ln>
-1.6817206198253

> <r_i_glide_gscore>
-7.09497046716332

> <r_i_glide_lipo>
-3.64300243076497

> <r_i_glide_hbond>
0

> <r_i_glide_metal>
0

> <r_i_glide_rewards>
-2.43448280035462

> <r_i_glide_evdw>
-33.5866355895996

> <r_i_glide_ecoul>
-3.09427738189697

> <r_i_glide_erotb>
1.12598815072079

> <r_i_glide_esite>
0

> <r_i_glide_emodel>
-46.4213407445688

> <r_i_glide_energy>
-36.6809129714966

> <r_i_glide_einternal>
6.01078128814697

> <i_i_glide_confnum>
5

> <i_i_glide_posenum>
313

> <r_i_glide_eff_state_penalty>
0

> <s_user_duplicate_titles>
CHEMBL220_lig981

> <s_m_subgroup_title>
dock_pv

> <s_m_subgroupid>
dock_pv

> <b_m_subgroup_collapsed>
0

$$$$
CHEMBL220_lig384
                    3D
 Schrodinger Suite 2021-1.
 43 45  0  0  1  0            999 V2000
    0.4931   68.0376   68.2502 C   0  0  2  0  0  0
   -0.5497   67.4251   67.2655 C   0  0  0  0  0  0
    1.6176   68.9081   67.6210 C   0  0  0  0  0  0
   -0.2152   67.4813   65.9680 N   0  0  0  0  0  0
    1.8532   68.7388   66.1573 C   0  0  0  0  0  0
    0.9121   68.0490   65.3837 C   0  0  0  0  0  0
    1.1491   66.8914   69.0880 C   0  0  0  0  0  0
    2.2159   62.2506   70.7186 N   0  0  1  0  0  0
   -1.6047   66.9072   67.6203 O   0  0  0  0  0  0
    2.3400   69.6492   68.2918 O   0  0  0  0  0  0
    0.7572   62.3517   70.8617 C   0  0  0  0  0  0
    2.9127   63.4030   71.3004 C   0  0  0  0  0  0
    0.3249   66.2554   70.2310 C   0  0  0  0  0  0
    2.9688   69.3081   65.5222 C   0  0  0  0  0  0
    0.8948   64.9229   70.8172 C   0  0  0  0  0  0
    0.2156   63.6599   70.2470 C   0  0  0  0  0  0
    2.4265   64.7277   70.6815 C   0  0  0  0  0  0
    1.0773   67.9453   64.0003 C   0  0  0  0  0  0
    2.6992   61.0031   71.3039 C   0  0  0  0  0  0
    3.1413   69.1849   64.1445 C   0  0  0  0  0  0
    2.1931   68.5081   63.3811 C   0  0  0  0  0  0
   -0.0549   68.7305   68.8760 H   0  0  0  0  0  0
   -0.8853   67.0281   65.3584 H   0  0  0  0  0  0
    2.0588   67.2582   69.5691 H   0  0  0  0  0  0
    1.4733   66.1077   68.4005 H   0  0  0  0  0  0
    0.2959   61.4967   70.3681 H   0  0  0  0  0  0
    0.4838   62.2839   71.9159 H   0  0  0  0  0  0
    3.9889   63.2973   71.1493 H   0  0  0  0  0  0
    2.7429   63.4035   72.3758 H   0  0  0  0  0  0
   -0.7019   66.1033   69.9016 H   0  0  0  0  0  0
    0.2486   66.9836   71.0385 H   0  0  0  0  0  0
    3.7039   69.8619   66.0929 H   0  0  0  0  0  0
    0.6801   64.9153   71.8871 H   0  0  0  0  0  0
    0.3081   63.6221   69.1680 H   0  0  0  0  0  0
   -0.8571   63.7077   70.4158 H   0  0  0  0  0  0
    2.9500   65.5608   71.1490 H   0  0  0  0  0  0
    2.7535   64.7632   69.6423 H   0  0  0  0  0  0
    0.3430   67.4255   63.4021 H   0  0  0  0  0  0
    2.2189   60.1445   70.8317 H   0  0  0  0  0  0
    3.7745   60.8996   71.1543 H   0  0  0  0  0  0
    2.4978   60.9580   72.3754 H   0  0  0  0  0  0
    4.0018   69.6334   63.6685 H   0  0  0  0  0  0
    2.3181   68.4259   62.3119 H   0  0  0  0  0  0
  1  2  1  0  0  0
  1  3  1  0  0  0
  1  7  1  0  0  0
  1 22  1  0  0  0
  2  4  1  0  0  0
  2  9  2  0  0  0
  3  5  1  0  0  0
  3 10  2  0  0  0
  4  6  1  0  0  0
  4 23  1  0  0  0
  5  6  2  0  0  0
  5 14  1  0  0  0
  6 18  1  0  0  0
  7 13  1  0  0  0
  7 24  1  0  0  0
  7 25  1  0  0  0
  8 12  1  0  0  0
  8 19  1  0  0  0
  8 11  1  0  0  0
 11 16  1  0  0  0
 11 26  1  0  0  0
 11 27  1  0  0  0
 12 17  1  0  0  0
 12 28  1  0  0  0
 12 29  1  0  0  0
 13 15  1  0  0  0
 13 30  1  0  0  0
 13 31  1  0  0  0
 14 20  2  0  0  0
 14 32  1  0  0  0
 15 16  1  0  0  0
 15 17  1  0  0  0
 15 33  1  0  0  0
 16 34  1  0  0  0
 16 35  1  0  0  0
 17 36  1  0  0  0
 17 37  1  0  0  0
 18 21  2  0  0  0
 18 38  1  0  0  0
 19 39  1  0  0  0
 19 40  1  0  0  0
 19 41  1  0  0  0
 20 21  1  0  0  0
 20 42  1  0  0  0
 21 43  1  0  0  0
M  END
> <s_m_entry_id>
8752

> <s_m_entry_name>
dock_pv.262

> <s_m_Source_Path>
/home/csk/Desktop/cluster/DUD-E-result/aces

> <s_m_Source_File>
dock_pv.maegz

> <i_m_Source_File_Index>
262

> <chembl_id>
CHEMBL158252

> <chembl_pref_name>
None

> <i_lp_mmshare_version>
53161

> <i_f3d_flags>
0

> <r_lp_tautomer_probability>
1

> <s_lp_Force_Field>
OPLS_2005

> <r_lp_Energy>
32.955387

> <b_lp_Chiralities_Consistent>
1

> <s_lp_Variant>
CHEMBL220_lig384-1

> <s_i_glide_gridfile>
glide-grid_1e66

> <i_i_glide_lignum>
442

> <i_i_glide_rotatable_bonds>
3

> <r_i_docking_score>
-7.09336319933155

> <r_i_glide_ligand_efficiency>
-0.337779199968169

> <r_i_glide_ligand_efficiency_sa>
-0.931907200125118

> <r_i_glide_ligand_efficiency_ln>
-1.75381971754476

> <r_i_glide_gscore>
-7.09336319933155

> <r_i_glide_lipo>
-2.87950681269738

> <r_i_glide_hbond>
-0.32

> <r_i_glide_metal>
0

> <r_i_glide_rewards>
-2.49280577751756

> <r_i_glide_evdw>
-32.5846557617188

> <r_i_glide_ecoul>
-2.90740513801575

> <r_i_glide_erotb>
0.664292949671687

> <r_i_glide_esite>
0

> <r_i_glide_emodel>
-46.2349122924133

> <r_i_glide_energy>
-35.4920608997345

> <r_i_glide_einternal>
7.10700178146362

> <i_i_glide_confnum>
15

> <i_i_glide_posenum>
372

> <r_i_glide_eff_state_penalty>
0

> <s_user_duplicate_titles>
CHEMBL220_lig384,260232

> <s_m_subgroup_title>
dock_pv

> <s_m_subgroupid>
dock_pv

> <b_m_subgroup_collapsed>
0

$$$$
CHEMBL220_lig502
                    3D
 Schrodinger Suite 2021-1.
 53 55  0  0  1  0            999 V2000
    6.1426   70.2408   66.4107 C   0  0  0  0  0  0
    5.5336   69.6801   65.2954 C   0  0  0  0  0  0
    4.0669   70.1080   67.6470 C   0  0  0  0  0  0
    5.4129   70.4807   67.5716 C   0  0  0  0  0  0
    3.4090   69.5215   66.5306 C   0  0  0  0  0  0
    4.1616   69.3412   65.3322 C   0  0  0  0  0  0
    3.5928   68.9027   64.1863 N   0  0  0  0  0  0
    2.0273   69.1406   66.5159 C   0  0  0  0  0  0
    1.1835   69.2270   67.6423 N   0  0  0  0  0  0
    1.4405   68.7538   65.2962 C   0  0  0  0  0  0
    2.2556   68.7121   64.1435 C   0  0  0  0  0  0
    1.6643   68.5282   62.7472 C   0  0  0  0  0  0
    0.2621   67.9161   62.7857 C   0  0  0  0  0  0
   -0.6281   68.6534   63.7720 C   0  0  0  0  0  0
   -0.0692   68.4447   65.1863 C   0  0  0  0  0  0
    6.1028   71.1035   68.7682 C   0  0  0  0  0  0
    1.3191   68.1976   68.6671 C   0  0  0  0  0  0
    0.6804   66.8480   68.2950 C   0  0  0  0  0  0
    0.3588   65.9504   69.5095 C   0  0  0  0  0  0
    1.5635   65.5604   70.3858 C   0  0  0  0  0  0
    2.5175   64.5454   69.7344 C   0  0  0  0  0  0
    3.7468   64.2518   70.6087 C   0  0  0  0  0  0
    4.7200   63.2752   69.9425 C   0  0  0  0  0  0
    7.1885   70.5080   66.3588 H   0  0  0  0  0  0
    6.0983   69.5363   64.3849 H   0  0  0  0  0  0
    3.5073   70.2781   68.5557 H   0  0  0  0  0  0
    0.2127   69.3567   67.3992 H   0  0  0  0  0  0
    2.3263   67.9284   62.1210 H   0  0  0  0  0  0
    1.6051   69.5098   62.2747 H   0  0  0  0  0  0
    0.3430   66.9080   63.1680 H   0  0  0  0  0  0
   -0.1820   67.8749   61.7907 H   0  0  0  0  0  0
   -1.6531   68.2840   63.7146 H   0  0  0  0  0  0
   -0.6613   69.7080   63.5149 H   0  0  0  0  0  0
   -0.2234   67.4038   65.4735 H   0  0  0  0  0  0
   -0.6634   69.0440   65.8765 H   0  0  0  0  0  0
    6.2062   72.1795   68.6299 H   0  0  0  0  0  0
    5.5568   70.9079   69.6918 H   0  0  0  0  0  0
    7.1005   70.6816   68.8954 H   0  0  0  0  0  0
    0.8081   68.5080   69.5673 H   0  0  0  0  0  0
    2.3430   68.1080   68.9975 H   0  0  0  0  0  0
    1.3146   66.3349   67.5739 H   0  0  0  0  0  0
   -0.2605   67.0288   67.7745 H   0  0  0  0  0  0
   -0.1470   65.0460   69.1680 H   0  0  0  0  0  0
   -0.3695   66.4697   70.1352 H   0  0  0  0  0  0
    1.1874   65.1349   71.3173 H   0  0  0  0  0  0
    2.1136   66.4561   70.6755 H   0  0  0  0  0  0
    2.8470   64.9080   68.7619 H   0  0  0  0  0  0
    1.9762   63.6176   69.5423 H   0  0  0  0  0  0
    3.4251   63.8445   71.5680 H   0  0  0  0  0  0
    4.2733   65.1823   70.8295 H   0  0  0  0  0  0
    5.5429   63.0287   70.6107 H   0  0  0  0  0  0
    5.1430   63.7081   69.0354 H   0  0  0  0  0  0
    4.2255   62.3415   69.6732 H   0  0  0  0  0  0
  1  2  2  0  0  0
  1  4  1  0  0  0
  1 24  1  0  0  0
  2  6  1  0  0  0
  2 25  1  0  0  0
  3  5  1  0  0  0
  3  4  2  0  0  0
  3 26  1  0  0  0
  4 16  1  0  0  0
  5  6  1  0  0  0
  5  8  2  0  0  0
  6  7  2  0  0  0
  7 11  1  0  0  0
  8 10  1  0  0  0
  8  9  1  0  0  0
  9 17  1  0  0  0
  9 27  1  0  0  0
 10 15  1  0  0  0
 10 11  2  0  0  0
 11 12  1  0  0  0
 12 13  1  0  0  0
 12 28  1  0  0  0
 12 29  1  0  0  0
 13 14  1  0  0  0
 13 30  1  0  0  0
 13 31  1  0  0  0
 14 15  1  0  0  0
 14 32  1  0  0  0
 14 33  1  0  0  0
 15 34  1  0  0  0
 15 35  1  0  0  0
 16 36  1  0  0  0
 16 37  1  0  0  0
 16 38  1  0  0  0
 17 18  1  0  0  0
 17 39  1  0  0  0
 17 40  1  0  0  0
 18 19  1  0  0  0
 18 41  1  0  0  0
 18 42  1  0  0  0
 19 20  1  0  0  0
 19 43  1  0  0  0
 19 44  1  0  0  0
 20 21  1  0  0  0
 20 45  1  0  0  0
 20 46  1  0  0  0
 21 22  1  0  0  0
 21 47  1  0  0  0
 21 48  1  0  0  0
 22 23  1  0  0  0
 22 49  1  0  0  0
 22 50  1  0  0  0
 23 51  1  0  0  0
 23 52  1  0  0  0
 23 53  1  0  0  0
M  END
> <s_m_entry_id>
8753

> <s_m_entry_name>
dock_pv.263

> <s_m_Source_Path>
/home/csk/Desktop/cluster/DUD-E-result/aces

> <s_m_Source_File>
dock_pv.maegz

> <i_m_Source_File_Index>
263

> <chembl_id>
CHEMBL61849

> <chembl_pref_name>
None

> <i_lp_mmshare_version>
53161

> <i_f3d_flags>
0

> <r_lp_tautomer_probability>
1

> <s_lp_Force_Field>
OPLS_2005

> <r_lp_Energy>
20.614333

> <b_lp_Chiralities_Consistent>
1

> <s_lp_Variant>
CHEMBL220_lig502-1

> <s_i_glide_gridfile>
glide-grid_1e66

> <i_i_glide_lignum>
580

> <i_i_glide_rotatable_bonds>
7

> <r_i_docking_score>
-7.09152369290732

> <r_i_glide_ligand_efficiency>
-0.308327117082927

> <r_i_glide_ligand_efficiency_sa>
-0.87684130634852

> <r_i_glide_ligand_efficiency_ln>
-1.71479473132669

> <r_i_glide_gscore>
-7.09152369290732

> <r_i_glide_lipo>
-4.39227546439654

> <r_i_glide_hbond>
0

> <r_i_glide_metal>
0

> <r_i_glide_rewards>
-2.19220704545454

> <r_i_glide_evdw>
-33.6295547485352

> <r_i_glide_ecoul>
0.139874592423439

> <r_i_glide_erotb>
1.15345536550701

> <r_i_glide_esite>
0

> <r_i_glide_emodel>
-41.6596840710648

> <r_i_glide_energy>
-33.4896801561117

> <r_i_glide_einternal>
5.6756591796875

> <i_i_glide_confnum>
32

> <i_i_glide_posenum>
45

> <r_i_glide_eff_state_penalty>
0

> <s_user_duplicate_titles>
CHEMBL220_lig502,96219

> <s_m_subgroup_title>
dock_pv

> <s_m_subgroupid>
dock_pv

> <b_m_subgroup_collapsed>
0

$$$$
CHEMBL220_lig648
                    3D
 Schrodinger Suite 2021-1.
 37 40  0  0  1  0            999 V2000
    3.5546   68.5275   64.9302 C   0  0  0  0  0  0
    2.9897   68.9322   66.1540 C   0  0  0  0  0  0
    4.7839   69.0989   64.5411 C   0  0  0  0  0  0
    5.5434   69.8152   65.3937 N   0  0  0  0  0  0
    2.8896   67.5038   64.0114 C   0  0  1  0  0  0
    3.7543   69.7463   67.0396 C   0  0  0  0  0  0
    1.8548   68.2034   63.1589 C   0  0  0  0  0  0
    5.0721   70.0997   66.6260 C   0  0  0  0  0  0
    2.1350   68.7523   61.9644 C   0  0  0  0  0  0
    4.5986   67.9164   62.2304 C   0  0  1  0  0  0
    5.3821   68.8939   63.1452 C   0  0  0  0  0  0
    3.9503   66.8314   63.0984 C   0  0  0  0  0  0
    1.7001   68.5086   66.5008 N   0  0  0  0  0  0
    3.5349   68.6470   61.3377 C   0  0  0  0  0  0
    3.3068   70.1970   68.3187 C   0  0  0  0  0  0
    1.0475   69.4421   61.1672 C   0  0  0  0  0  0
    5.9439   70.7494   67.5159 C   0  0  0  0  0  0
    4.1723   70.9068   69.1507 C   0  0  0  0  0  0
    5.4922   71.1357   68.7664 C   0  0  0  0  0  0
    2.4054   66.7201   64.5958 H   0  0  0  0  0  0
    0.8567   68.3179   63.5578 H   0  0  0  0  0  0
    5.3328   67.4583   61.5680 H   0  0  0  0  0  0
    6.3957   68.5111   63.2762 H   0  0  0  0  0  0
    5.5070   69.8603   62.6546 H   0  0  0  0  0  0
    3.5431   66.0505   62.4632 H   0  0  0  0  0  0
    4.7052   66.3346   63.7108 H   0  0  0  0  0  0
    1.2879   68.8337   67.3641 H   0  0  0  0  0  0
    1.1550   67.9807   65.8359 H   0  0  0  0  0  0
    3.8786   69.6320   61.0200 H   0  0  0  0  0  0
    3.4222   68.1073   60.3976 H   0  0  0  0  0  0
    2.3061   69.9719   68.6584 H   0  0  0  0  0  0
    0.9849   69.0207   60.1640 H   0  0  0  0  0  0
    0.0676   69.3281   61.6307 H   0  0  0  0  0  0
    1.2520   70.5078   61.1076 H   0  0  0  0  0  0
    6.9686   70.9120   67.2182 H   0  0  0  0  0  0
    3.8324   71.2197   70.1275 H   0  0  0  0  0  0
    6.1877   71.6177   69.4357 H   0  0  0  0  0  0
  1  2  1  0  0  0
  1  3  2  0  0  0
  1  5  1  0  0  0
  2  6  2  0  0  0
  2 13  1  0  0  0
  3  4  1  0  0  0
  3 11  1  0  0  0
  4  8  2  0  0  0
  5  7  1  0  0  0
  5 12  1  0  0  0
  5 20  1  0  0  0
  6  8  1  0  0  0
  6 15  1  0  0  0
  7  9  2  0  0  0
  7 21  1  0  0  0
  8 17  1  0  0  0
  9 14  1  0  0  0
  9 16  1  0  0  0
 10 11  1  0  0  0
 10 12  1  0  0  0
 10 14  1  0  0  0
 10 22  1  0  0  0
 11 23  1  0  0  0
 11 24  1  0  0  0
 12 25  1  0  0  0
 12 26  1  0  0  0
 13 27  1  0  0  0
 13 28  1  0  0  0
 14 29  1  0  0  0
 14 30  1  0  0  0
 15 18  2  0  0  0
 15 31  1  0  0  0
 16 32  1  0  0  0
 16 33  1  0  0  0
 16 34  1  0  0  0
 17 19  2  0  0  0
 17 35  1  0  0  0
 18 19  1  0  0  0
 18 36  1  0  0  0
 19 37  1  0  0  0
M  END
> <s_m_entry_id>
8754

> <s_m_entry_name>
dock_pv.264

> <s_m_Source_Path>
/home/csk/Desktop/cluster/DUD-E-result/aces

> <s_m_Source_File>
dock_pv.maegz

> <i_m_Source_File_Index>
264

> <chembl_id>
CHEMBL539072

> <chembl_pref_name>
None

> <i_lp_mmshare_version>
53161

> <i_f3d_flags>
0

> <r_lp_tautomer_probability>
1

> <s_lp_Force_Field>
OPLS_2005

> <r_lp_Energy>
27.86801

> <b_lp_Chiralities_Consistent>
1

> <s_lp_Variant>
CHEMBL220_lig648-2

> <s_i_glide_gridfile>
glide-grid_1e66

> <i_i_glide_lignum>
756

> <i_i_glide_rotatable_bonds>
0

> <r_i_docking_score>
-7.09085135086636

> <r_i_glide_ligand_efficiency>
-0.373202702677177

> <r_i_glide_ligand_efficiency_sa>
-0.995854706153853

> <r_i_glide_ligand_efficiency_ln>
-1.7976831149673

> <r_i_glide_gscore>
-7.09085135086636

> <r_i_glide_lipo>
-3.50547397259947

> <r_i_glide_hbond>
0

> <r_i_glide_metal>
0

> <r_i_glide_rewards>
-2.24390607575758

> <r_i_glide_evdw>
-30.0086555480957

> <r_i_glide_ecoul>
1.05974316596985

> <r_i_glide_erotb>
0

> <r_i_glide_esite>
0

> <r_i_glide_emodel>
-35.8301085756786

> <r_i_glide_energy>
-28.9489123821259

> <r_i_glide_einternal>
0

> <i_i_glide_confnum>
1

> <i_i_glide_posenum>
34

> <r_i_glide_eff_state_penalty>
0

> <s_user_duplicate_titles>
CHEMBL220_lig648

> <s_m_subgroup_title>
dock_pv

> <s_m_subgroupid>
dock_pv

> <b_m_subgroup_collapsed>
0

$$$$
CHEMBL220_lig662
                    3D
 Schrodinger Suite 2021-1.
 37 40  0  0  1  0            999 V2000
    0.8206   68.3122   63.8353 N   0  0  0  0  0  0
    0.4392   68.4696   65.1249 C   0  0  0  0  0  0
    1.3294   68.9080   66.1291 C   0  0  0  0  0  0
    2.6716   69.1482   65.7684 C   0  0  0  0  0  0
    3.0903   68.9841   64.4092 C   0  0  0  0  0  0
    4.4159   69.2290   63.9220 C   0  0  0  0  0  0
    4.6980   69.1097   62.5627 C   0  0  0  0  0  0
    3.7052   68.7639   61.6548 C   0  0  0  0  0  0
    2.4123   68.5080   62.0933 C   0  0  0  0  0  0
    2.0945   68.5896   63.4683 C   0  0  0  0  0  0
    0.7644   69.2592   67.5209 C   0  0  2  0  0  0
    0.9437   68.1159   68.5517 C   0  0  0  0  0  0
   -0.1089   67.0179   68.4000 C   0  0  0  0  0  0
   -1.2175   67.2148   67.6518 C   0  0  0  0  0  0
   -1.4941   68.4912   66.8507 C   0  0  2  0  0  0
   -1.0640   68.3018   65.3959 C   0  0  0  0  0  0
   -0.7200   69.6648   67.4385 C   0  0  0  0  0  0
    0.0747   65.7873   69.2679 C   0  0  0  0  0  0
    3.5574   69.6360   66.7349 N   0  0  0  0  0  0
    5.4222   69.5866   64.7545 F   0  0  0  0  0  0
    5.7003   69.2996   62.2041 H   0  0  0  0  0  0
    3.9430   68.6880   60.6032 H   0  0  0  0  0  0
    1.6418   68.2318   61.3872 H   0  0  0  0  0  0
    1.3089   70.1300   67.8874 H   0  0  0  0  0  0
    0.8257   68.4913   69.5597 H   0  0  0  0  0  0
    1.9430   67.7080   68.5499 H   0  0  0  0  0  0
   -1.9583   66.4297   67.6186 H   0  0  0  0  0  0
   -2.5642   68.7002   66.9057 H   0  0  0  0  0  0
   -1.3843   67.3080   65.1680 H   0  0  0  0  0  0
   -1.6235   68.9760   64.7467 H   0  0  0  0  0  0
   -0.8570   70.5080   66.7734 H   0  0  0  0  0  0
   -1.1405   69.9988   68.3681 H   0  0  0  0  0  0
    1.0269   65.3080   69.0471 H   0  0  0  0  0  0
   -0.7225   65.0567   69.1300 H   0  0  0  0  0  0
    0.0790   66.0750   70.3197 H   0  0  0  0  0  0
    4.4936   69.8889   66.4461 H   0  0  0  0  0  0
    3.2344   69.8021   67.6762 H   0  0  0  0  0  0
  1  2  2  0  0  0
  1 10  1  0  0  0
  2  3  1  0  0  0
  2 16  1  0  0  0
  3  4  2  0  0  0
  3 11  1  0  0  0
  4  5  1  0  0  0
  4 19  1  0  0  0
  5  6  2  0  0  0
  5 10  1  0  0  0
  6  7  1  0  0  0
  6 20  1  0  0  0
  7  8  2  0  0  0
  7 21  1  0  0  0
  8  9  1  0  0  0
  8 22  1  0  0  0
  9 10  2  0  0  0
  9 23  1  0  0  0
 11 12  1  0  0  0
 11 17  1  0  0  0
 11 24  1  0  0  0
 12 13  1  0  0  0
 12 25  1  0  0  0
 12 26  1  0  0  0
 13 14  2  0  0  0
 13 18  1  0  0  0
 14 15  1  0  0  0
 14 27  1  0  0  0
 15 16  1  0  0  0
 15 17  1  0  0  0
 15 28  1  0  0  0
 16 29  1  0  0  0
 16 30  1  0  0  0
 17 31  1  0  0  0
 17 32  1  0  0  0
 18 33  1  0  0  0
 18 34  1  0  0  0
 18 35  1  0  0  0
 19 36  1  0  0  0
 19 37  1  0  0  0
M  END
> <s_m_entry_id>
8755

> <s_m_entry_name>
dock_pv.265

> <s_m_Source_Path>
/home/csk/Desktop/cluster/DUD-E-result/aces

> <s_m_Source_File>
dock_pv.maegz

> <i_m_Source_File_Index>
265

> <chembl_id>
CHEMBL109869

> <chembl_pref_name>
None

> <i_lp_mmshare_version>
53161

> <i_f3d_flags>
0

> <r_lp_tautomer_probability>
1

> <s_lp_Force_Field>
OPLS_2005

> <r_lp_Energy>
27.577277

> <b_lp_Chiralities_Consistent>
1

> <s_lp_Variant>
CHEMBL220_lig662-2

> <s_i_glide_gridfile>
glide-grid_1e66

> <i_i_glide_lignum>
778

> <i_i_glide_rotatable_bonds>
0

> <r_i_docking_score>
-7.08447034850714

> <r_i_glide_ligand_efficiency>
-0.354223517425357

> <r_i_glide_ligand_efficiency_sa>
-0.961510554951459

> <r_i_glide_ligand_efficiency_ln>
-1.77300926676098

> <r_i_glide_gscore>
-7.08447034850714

> <r_i_glide_lipo>
-3.45805848322428

> <r_i_glide_hbond>
0

> <r_i_glide_metal>
0

> <r_i_glide_rewards>
-2.11200095825276

> <r_i_glide_evdw>
-26.2582530975342

> <r_i_glide_ecoul>
-1.34332168102264

> <r_i_glide_erotb>
0

> <r_i_glide_esite>
0

> <r_i_glide_emodel>
-36.2786618648412

> <r_i_glide_energy>
-27.6015747785568

> <r_i_glide_einternal>
0

> <i_i_glide_confnum>
1

> <i_i_glide_posenum>
327

> <r_i_glide_eff_state_penalty>
0

> <s_user_duplicate_titles>
CHEMBL220_lig662,181204

> <s_m_subgroup_title>
dock_pv

> <s_m_subgroupid>
dock_pv

> <b_m_subgroup_collapsed>
0

$$$$
CHEMBL220_lig390
                    3D
 Schrodinger Suite 2021-1.
 61 65  0  0  1  0            999 V2000
    1.5480   66.5206   69.8478 C   0  0  0  0  0  0
    0.7431   65.3749   69.8891 C   0  0  0  0  0  0
   -0.4570   65.3747   69.1683 C   0  0  0  0  0  0
   -0.8738   66.4479   68.3761 C   0  0  0  0  0  0
    1.1424   67.5785   69.0252 C   0  0  0  0  0  0
   -0.0421   67.5613   68.2925 C   0  0  0  0  0  0
   -0.0522   68.8086   67.6129 C   0  0  0  0  0  0
    1.0162   69.5165   67.9230 N   0  0  0  0  0  0
    1.8138   68.7370   68.7686 O   0  0  0  0  0  0
   -1.0641   69.2945   66.5905 C   0  0  0  0  0  0
   -0.8891   68.6425   65.1905 C   0  0  0  0  0  0
    0.5909   68.4393   64.7718 C   0  0  0  0  0  0
    1.1523   67.0179   64.9837 C   0  0  0  0  0  0
    2.6819   67.0293   64.9159 C   0  0  0  0  0  0
    3.2167   67.7914   63.7653 N   0  0  1  0  0  0
    2.4396   68.8914   63.1484 C   0  0  0  0  0  0
    0.9107   68.7493   63.3071 C   0  0  0  0  0  0
    4.6298   68.1398   63.9488 C   0  0  0  0  0  0
    5.0122   68.9362   65.2124 C   0  0  0  0  0  0
    6.3527   68.9390   65.5655 C   0  0  0  0  0  0
    6.8223   69.7119   66.6309 C   0  0  0  0  0  0
    5.9329   70.4420   67.4043 C   0  0  0  0  0  0
    4.5784   70.4083   67.1040 C   0  0  0  0  0  0
    4.1294   69.7080   65.9822 C   0  0  0  0  0  0
    1.1319   64.2137   70.5571 N   0  0  0  0  0  0
    2.5249   63.9690   70.9734 C   0  0  0  0  0  0
    2.8261   62.4675   71.1719 C   0  0  0  0  0  0
    1.9135   61.9081   72.1070 O   0  0  0  0  0  0
    0.5652   62.0351   71.6753 C   0  0  0  0  0  0
    0.2070   63.5263   71.4788 C   0  0  0  0  0  0
    2.4829   66.5770   70.3814 H   0  0  0  0  0  0
   -1.0684   64.4866   69.1688 H   0  0  0  0  0  0
   -1.7971   66.4046   67.8169 H   0  0  0  0  0  0
   -2.0763   69.1226   66.9544 H   0  0  0  0  0  0
   -1.0037   70.3746   66.4950 H   0  0  0  0  0  0
   -1.4283   67.7036   65.1731 H   0  0  0  0  0  0
   -1.4025   69.2674   64.4602 H   0  0  0  0  0  0
    1.1709   69.1315   65.3699 H   0  0  0  0  0  0
    0.8846   66.6600   65.9751 H   0  0  0  0  0  0
    0.7445   66.2523   64.3349 H   0  0  0  0  0  0
    3.0019   67.4617   65.8621 H   0  0  0  0  0  0
    3.0994   66.0208   64.9025 H   0  0  0  0  0  0
    2.7120   69.8326   63.6275 H   0  0  0  0  0  0
    2.7347   69.0001   62.1044 H   0  0  0  0  0  0
    0.4429   68.0618   62.6009 H   0  0  0  0  0  0
    0.4758   69.7157   63.0442 H   0  0  0  0  0  0
    5.2068   67.2139   63.9351 H   0  0  0  0  0  0
    4.9674   68.7112   63.0820 H   0  0  0  0  0  0
    7.0610   68.3626   64.9890 H   0  0  0  0  0  0
    7.8742   69.7128   66.8706 H   0  0  0  0  0  0
    6.2888   71.0117   68.2499 H   0  0  0  0  0  0
    3.8777   70.9496   67.7173 H   0  0  0  0  0  0
    3.0841   69.7606   65.7487 H   0  0  0  0  0  0
    2.7430   64.5083   71.8921 H   0  0  0  0  0  0
    3.2057   64.3508   70.2112 H   0  0  0  0  0  0
    2.7767   61.9321   70.2210 H   0  0  0  0  0  0
    3.8400   62.3388   71.5523 H   0  0  0  0  0  0
    0.4064   61.4710   70.7537 H   0  0  0  0  0  0
   -0.0866   61.5900   72.4272 H   0  0  0  0  0  0
   -0.8146   63.5700   71.1042 H   0  0  0  0  0  0
    0.2010   64.0486   72.4372 H   0  0  0  0  0  0
  1  5  1  0  0  0
  1  2  2  0  0  0
  1 31  1  0  0  0
  2 25  1  0  0  0
  2  3  1  0  0  0
  3  4  2  0  0  0
  3 32  1  0  0  0
  4  6  1  0  0  0
  4 33  1  0  0  0
  5  9  1  0  0  0
  5  6  2  0  0  0
  6  7  1  0  0  0
  7  8  2  0  0  0
  7 10  1  0  0  0
  8  9  1  0  0  0
 10 11  1  0  0  0
 10 34  1  0  0  0
 10 35  1  0  0  0
 11 12  1  0  0  0
 11 36  1  0  0  0
 11 37  1  0  0  0
 12 17  1  0  0  0
 12 13  1  0  0  0
 12 38  1  0  0  0
 13 14  1  0  0  0
 13 39  1  0  0  0
 13 40  1  0  0  0
 14 15  1  0  0  0
 14 41  1  0  0  0
 14 42  1  0  0  0
 15 16  1  0  0  0
 15 18  1  0  0  0
 16 17  1  0  0  0
 16 43  1  0  0  0
 16 44  1  0  0  0
 17 45  1  0  0  0
 17 46  1  0  0  0
 18 19  1  0  0  0
 18 47  1  0  0  0
 18 48  1  0  0  0
 19 20  2  0  0  0
 19 24  1  0  0  0
 20 21  1  0  0  0
 20 49  1  0  0  0
 21 22  2  0  0  0
 21 50  1  0  0  0
 22 23  1  0  0  0
 22 51  1  0  0  0
 23 24  2  0  0  0
 23 52  1  0  0  0
 24 53  1  0  0  0
 25 26  1  0  0  0
 25 30  1  0  0  0
 26 27  1  0  0  0
 26 54  1  0  0  0
 26 55  1  0  0  0
 27 28  1  0  0  0
 27 56  1  0  0  0
 27 57  1  0  0  0
 28 29  1  0  0  0
 29 30  1  0  0  0
 29 58  1  0  0  0
 29 59  1  0  0  0
 30 60  1  0  0  0
 30 61  1  0  0  0
M  END
> <s_m_entry_id>
8756

> <s_m_entry_name>
dock_pv.266

> <s_m_Source_Path>
/home/csk/Desktop/cluster/DUD-E-result/aces

> <s_m_Source_File>
dock_pv.maegz

> <i_m_Source_File_Index>
266

> <chembl_id>
CHEMBL93936

> <chembl_pref_name>
None

> <i_lp_mmshare_version>
53161

> <i_f3d_flags>
0

> <r_lp_tautomer_probability>
1

> <s_lp_Force_Field>
OPLS_2005

> <r_lp_Energy>
47.247307

> <b_lp_Chiralities_Consistent>
1

> <s_lp_Variant>
CHEMBL220_lig390-1

> <s_i_glide_gridfile>
glide-grid_1e66

> <i_i_glide_lignum>
449

> <i_i_glide_rotatable_bonds>
6

> <r_i_docking_score>
-7.08017492084677

> <r_i_glide_ligand_efficiency>
-0.236005830694892

> <r_i_glide_ligand_efficiency_sa>
-0.733324987898418

> <r_i_glide_ligand_efficiency_ln>
-1.60869288670095

> <r_i_glide_gscore>
-7.08017492084677

> <r_i_glide_lipo>
-4.18422718668544

> <r_i_glide_hbond>
0

> <r_i_glide_metal>
0

> <r_i_glide_rewards>
-1.83397830791942

> <r_i_glide_evdw>
-35.6164054870605

> <r_i_glide_ecoul>
0.411354601383209

> <r_i_glide_erotb>
0.71703856050862

> <r_i_glide_esite>
-0.0598909026049757

> <r_i_glide_emodel>
-39.8387634842745

> <r_i_glide_energy>
-35.2050508856773

> <r_i_glide_einternal>
10.5045099258423

> <i_i_glide_confnum>
39

> <i_i_glide_posenum>
279

> <r_i_glide_eff_state_penalty>
0

> <s_user_duplicate_titles>
CHEMBL220_lig390,150037

> <s_m_subgroup_title>
dock_pv

> <s_m_subgroupid>
dock_pv

> <b_m_subgroup_collapsed>
0

$$$$
CHEMBL220_lig728
                    3D
 Schrodinger Suite 2021-1.
 35 36  0  0  1  0            999 V2000
    1.2564   67.7186   66.0369 C   0  0  0  0  0  0
    2.6879   68.9006   63.5328 C   0  0  0  0  0  0
    1.9381   68.8838   65.8144 O   0  0  0  0  0  0
    2.9656   68.9080   64.9041 C   0  0  0  0  0  0
    3.7424   68.8614   62.6176 C   0  0  0  0  0  0
    1.3542   68.8494   62.8154 C   0  0  0  0  0  0
    0.2439   67.8955   66.9929 N   0  0  0  0  0  0
    1.5157   66.6562   65.4583 O   0  0  0  0  0  0
    3.2034   68.7870   61.2047 C   0  0  1  0  0  0
    1.7224   69.1444   61.3666 C   0  0  0  0  0  0
    3.9430   69.7080   60.3680 N   0  0  0  0  0  0
    5.0668   68.9186   63.0668 C   0  0  0  0  0  0
    4.2834   68.9959   65.3484 C   0  0  0  0  0  0
    5.3305   68.9981   64.4327 C   0  0  0  0  0  0
    0.0147   69.1605   67.7091 C   0  0  0  0  0  0
   -0.6322   66.7790   67.3519 C   0  0  0  0  0  0
   -1.2575   69.8919   67.2623 C   0  0  0  0  0  0
    0.9007   67.8610   62.9020 H   0  0  0  0  0  0
    0.6311   69.5780   63.1820 H   0  0  0  0  0  0
    3.3051   67.7697   60.8254 H   0  0  0  0  0  0
    1.5572   70.2046   61.1680 H   0  0  0  0  0  0
    1.0901   68.6074   60.6595 H   0  0  0  0  0  0
    4.2520   70.4851   60.9372 H   0  0  0  0  0  0
    4.8027   69.2439   60.0358 H   0  0  0  0  0  0
    5.8920   68.9080   62.3679 H   0  0  0  0  0  0
    4.4952   69.0589   66.4038 H   0  0  0  0  0  0
    6.3430   69.0581   64.7926 H   0  0  0  0  0  0
    0.8625   69.8422   67.6364 H   0  0  0  0  0  0
   -0.0570   68.9297   68.7680 H   0  0  0  0  0  0
   -0.4570   65.9000   66.7311 H   0  0  0  0  0  0
   -0.4730   66.4930   68.3919 H   0  0  0  0  0  0
   -1.6793   67.0575   67.2311 H   0  0  0  0  0  0
   -1.3514   70.8419   67.7894 H   0  0  0  0  0  0
   -2.1499   69.3080   67.4888 H   0  0  0  0  0  0
   -1.2515   70.1077   66.1945 H   0  0  0  0  0  0
  1  3  1  0  0  0
  1  7  1  0  0  0
  1  8  2  0  0  0
  2  4  2  0  0  0
  2  5  1  0  0  0
  2  6  1  0  0  0
  3  4  1  0  0  0
  4 13  1  0  0  0
  5  9  1  0  0  0
  5 12  2  0  0  0
  6 10  1  0  0  0
  6 18  1  0  0  0
  6 19  1  0  0  0
  7 15  1  0  0  0
  7 16  1  0  0  0
  9 10  1  0  0  0
  9 11  1  0  0  0
  9 20  1  0  0  0
 10 21  1  0  0  0
 10 22  1  0  0  0
 11 23  1  0  0  0
 11 24  1  0  0  0
 12 14  1  0  0  0
 12 25  1  0  0  0
 13 14  2  0  0  0
 13 26  1  0  0  0
 14 27  1  0  0  0
 15 17  1  0  0  0
 15 28  1  0  0  0
 15 29  1  0  0  0
 16 30  1  0  0  0
 16 31  1  0  0  0
 16 32  1  0  0  0
 17 33  1  0  0  0
 17 34  1  0  0  0
 17 35  1  0  0  0
M  END
> <s_m_entry_id>
8757

> <s_m_entry_name>
dock_pv.267

> <s_m_Source_Path>
/home/csk/Desktop/cluster/DUD-E-result/aces

> <s_m_Source_File>
dock_pv.maegz

> <i_m_Source_File_Index>
267

> <chembl_id>
CHEMBL544396

> <chembl_pref_name>
None

> <i_lp_mmshare_version>
53161

> <i_f3d_flags>
0

> <r_lp_tautomer_probability>
1

> <s_lp_Force_Field>
OPLS_2005

> <r_lp_Energy>
24.30267

> <b_lp_Chiralities_Consistent>
1

> <s_lp_Variant>
CHEMBL220_lig728-2

> <s_i_glide_gridfile>
glide-grid_1e66

> <i_i_glide_lignum>
875

> <i_i_glide_rotatable_bonds>
4

> <r_i_docking_score>
-7.07474464465459

> <r_i_glide_ligand_efficiency>
-0.416161449685564

> <r_i_glide_ligand_efficiency_sa>
-1.07006827330756

> <r_i_glide_ligand_efficiency_ln>
-1.84564333097314

> <r_i_glide_gscore>
-7.07474464465459

> <r_i_glide_lipo>
-2.72060763665726

> <r_i_glide_hbond>
-0.358798716980897

> <r_i_glide_metal>
0

> <r_i_glide_rewards>
-2.20917718101437

> <r_i_glide_evdw>
-30.1254959106445

> <r_i_glide_ecoul>
-8.12203693389893

> <r_i_glide_erotb>
0.938419225615003

> <r_i_glide_esite>
0

> <r_i_glide_emodel>
-54.1592951691938

> <r_i_glide_energy>
-38.2475328445435

> <r_i_glide_einternal>
0.387634634971619

> <i_i_glide_confnum>
9

> <i_i_glide_posenum>
220

> <r_i_glide_eff_state_penalty>
0

> <s_user_duplicate_titles>
CHEMBL220_lig728,547956

> <s_m_subgroup_title>
dock_pv

> <s_m_subgroupid>
dock_pv

> <b_m_subgroup_collapsed>
0

$$$$
CHEMBL220_lig210
                    3D
 Schrodinger Suite 2021-1.
 56 58  0  0  1  0            999 V2000
    3.5769   59.1396   69.1459 C   0  0  0  0  0  0
    4.0313   60.2027   69.9738 O   0  0  0  0  0  0
    3.0558   60.6776   70.9035 C   0  0  1  0  0  0
    3.7499   61.2254   72.1592 C   0  0  0  0  0  0
    2.6635   61.6512   73.1657 C   0  0  0  0  0  0
    1.6393   62.6446   72.5639 C   0  0  0  0  0  0
    1.1294   62.2115   71.2519 N   0  0  1  0  0  0
    0.0553   63.0429   70.6896 C   0  0  0  0  0  0
    0.4482   64.4343   70.2073 C   0  0  0  0  0  0
   -0.4561   65.0513   69.4013 O   0  0  0  0  0  0
    0.0104   66.2937   69.1112 C   0  0  0  0  0  0
   -0.8047   67.1294   68.1464 C   0  0  0  0  0  0
   -0.4172   66.9099   66.7584 N   0  0  1  0  0  0
    0.9466   67.3142   66.4239 C   0  0  0  0  0  0
    1.1025   68.8482   66.3666 C   0  0  0  0  0  0
    2.4896   69.3082   66.4129 N   0  0  0  0  0  0
    3.0660   69.7316   67.6778 C   0  0  0  0  0  0
    4.4247   70.2157   67.2392 C   0  0  0  0  0  0
    4.6523   69.3082   66.1452 N   0  0  0  0  0  0
    3.4754   69.1495   65.4388 C   0  0  0  0  0  0
    3.3803   68.8973   64.1178 C   0  0  0  0  0  0
    2.1467   68.7794   63.4183 C   0  0  0  0  0  0
    1.1603   68.6762   62.8203 N   0  0  0  0  0  0
    4.5566   68.7203   63.3383 C   0  0  0  0  0  0
    5.5456   68.5376   62.7679 N   0  0  0  0  0  0
    1.2004   66.4990   69.7822 C   0  0  0  0  0  0
    1.5204   65.2942   70.4041 C   0  0  0  0  0  0
    2.1518   61.7760   70.2889 C   0  0  0  0  0  0
    4.3345   58.9125   68.3955 H   0  0  0  0  0  0
    3.4059   58.2344   69.7302 H   0  0  0  0  0  0
    2.6523   59.3909   68.6236 H   0  0  0  0  0  0
    2.4270   59.8380   71.2121 H   0  0  0  0  0  0
    4.3598   62.0953   71.9095 H   0  0  0  0  0  0
    4.3936   60.4692   72.6105 H   0  0  0  0  0  0
    3.1364   62.1071   74.0353 H   0  0  0  0  0  0
    2.1364   60.7834   73.5648 H   0  0  0  0  0  0
    2.0764   63.6380   72.5003 H   0  0  0  0  0  0
    0.7886   62.7337   73.2414 H   0  0  0  0  0  0
   -0.7391   63.1215   71.4318 H   0  0  0  0  0  0
   -0.3977   62.5043   69.8588 H   0  0  0  0  0  0
   -0.7349   68.1908   68.3673 H   0  0  0  0  0  0
   -1.8623   66.8752   68.2279 H   0  0  0  0  0  0
   -0.5829   65.9506   66.4757 H   0  0  0  0  0  0
    1.1874   66.9027   65.4434 H   0  0  0  0  0  0
    1.6498   66.8547   67.1146 H   0  0  0  0  0  0
    0.5910   69.3081   67.2123 H   0  0  0  0  0  0
    0.5898   69.2354   65.4898 H   0  0  0  0  0  0
    3.1365   68.9080   68.3765 H   0  0  0  0  0  0
    2.4808   70.5226   68.1480 H   0  0  0  0  0  0
    4.4334   71.2511   66.9137 H   0  0  0  0  0  0
    5.1727   70.1044   68.0243 H   0  0  0  0  0  0
    5.4812   69.5290   65.6104 H   0  0  0  0  0  0
    1.7941   67.4012   69.7708 H   0  0  0  0  0  0
    2.4175   65.0889   70.9651 H   0  0  0  0  0  0
    1.6465   61.3616   69.4157 H   0  0  0  0  0  0
    2.7323   62.6257   69.9255 H   0  0  0  0  0  0
  1  2  1  0  0  0
  1 29  1  0  0  0
  1 30  1  0  0  0
  1 31  1  0  0  0
  2  3  1  0  0  0
  3  4  1  0  0  0
  3 28  1  0  0  0
  3 32  1  0  0  0
  4  5  1  0  0  0
  4 33  1  0  0  0
  4 34  1  0  0  0
  5  6  1  0  0  0
  5 35  1  0  0  0
  5 36  1  0  0  0
  6  7  1  0  0  0
  6 37  1  0  0  0
  6 38  1  0  0  0
  7  8  1  0  0  0
  7 28  1  0  0  0
  8  9  1  0  0  0
  8 39  1  0  0  0
  8 40  1  0  0  0
  9 10  1  0  0  0
  9 27  2  0  0  0
 10 11  1  0  0  0
 11 12  1  0  0  0
 11 26  2  0  0  0
 12 13  1  0  0  0
 12 41  1  0  0  0
 12 42  1  0  0  0
 13 14  1  0  0  0
 13 43  1  0  0  0
 14 15  1  0  0  0
 14 44  1  0  0  0
 14 45  1  0  0  0
 15 16  1  0  0  0
 15 46  1  0  0  0
 15 47  1  0  0  0
 16 17  1  0  0  0
 16 20  1  0  0  0
 17 18  1  0  0  0
 17 48  1  0  0  0
 17 49  1  0  0  0
 18 19  1  0  0  0
 18 50  1  0  0  0
 18 51  1  0  0  0
 19 20  1  0  0  0
 19 52  1  0  0  0
 20 21  2  0  0  0
 21 22  1  0  0  0
 21 24  1  0  0  0
 22 23  3  0  0  0
 24 25  3  0  0  0
 26 27  1  0  0  0
 26 53  1  0  0  0
 27 54  1  0  0  0
 28 55  1  0  0  0
 28 56  1  0  0  0
M  END
> <s_m_entry_id>
8758

> <s_m_entry_name>
dock_pv.268

> <s_m_Source_Path>
/home/csk/Desktop/cluster/DUD-E-result/aces

> <s_m_Source_File>
dock_pv.maegz

> <i_m_Source_File_Index>
268

> <chembl_id>
CHEMBL1203535

> <chembl_pref_name>
None

> <i_lp_mmshare_version>
53161

> <i_f3d_flags>
0

> <r_lp_tautomer_probability>
0.5

> <s_lp_Force_Field>
OPLS_2005

> <r_lp_Energy>
49.530572

> <b_lp_Chiralities_Consistent>
1

> <s_lp_Variant>
CHEMBL220_lig210-2

> <s_i_glide_gridfile>
glide-grid_1e66

> <i_i_glide_lignum>
231

> <i_i_glide_rotatable_bonds>
8

> <r_i_docking_score>
-7.07243953376701

> <r_i_glide_ligand_efficiency>
-0.252587126205965

> <r_i_glide_ligand_efficiency_sa>
-0.767003281022861

> <r_i_glide_ligand_efficiency_ln>
-1.63252670024135

> <r_i_glide_gscore>
-7.07243953376701

> <r_i_glide_lipo>
-3.34906871579977

> <r_i_glide_hbond>
0

> <r_i_glide_metal>
0

> <r_i_glide_rewards>
-2.35254247271573

> <r_i_glide_evdw>
-41.3472328186035

> <r_i_glide_ecoul>
-1.49452745914459

> <r_i_glide_erotb>
0.920712414550357

> <r_i_glide_esite>
0

> <r_i_glide_emodel>
-57.6319970484231

> <r_i_glide_energy>
-42.8417602777481

> <r_i_glide_einternal>
6.26087284088135

> <i_i_glide_confnum>
53

> <i_i_glide_posenum>
349

> <r_i_glide_eff_state_penalty>
0

> <s_user_duplicate_titles>
CHEMBL220_lig210

> <s_m_subgroup_title>
dock_pv

> <s_m_subgroupid>
dock_pv

> <b_m_subgroup_collapsed>
0

$$$$
CHEMBL220_lig162
                    3D
 Schrodinger Suite 2021-1.
 38 40  0  0  1  0            999 V2000
   -0.1627   67.2699   67.6393 N   0  0  0  0  0  0
   -0.7712   68.3352   65.8172 N   0  0  0  0  0  0
    0.9199   67.3080   66.8628 N   0  0  0  0  0  0
   -1.1987   67.8992   66.9681 C   0  0  0  0  0  0
    0.4844   67.9491   65.8052 C   0  0  0  0  0  0
   -0.2396   66.5080   68.8394 C   0  0  0  0  0  0
    1.3575   68.2622   64.6700 C   0  0  0  0  0  0
    0.8270   66.4902   69.6729 N   0  0  0  0  0  0
    2.6341   68.7246   64.9568 C   0  0  0  0  0  0
   -1.2570   65.8886   69.0780 O   0  0  0  0  0  0
   -2.8570   68.1080   67.5270 S   0  0  0  0  0  0
    3.4823   69.1228   63.9195 C   0  0  0  0  0  0
    0.9086   68.1595   63.3540 C   0  0  0  0  0  0
    3.0437   68.9974   62.5650 C   0  0  0  0  0  0
    1.7441   68.5080   62.2994 C   0  0  0  0  0  0
    0.9486   65.4680   70.7169 C   0  0  0  0  0  0
    1.7674   67.5817   69.8456 C   0  0  0  0  0  0
    4.7441   69.6739   64.2066 C   0  0  0  0  0  0
   -3.6404   68.8609   66.0724 C   0  0  0  0  0  0
    3.9151   69.3949   61.5308 C   0  0  0  0  0  0
    5.5437   70.1080   63.1680 C   0  0  0  0  0  0
    5.1430   69.9616   61.8469 C   0  0  0  0  0  0
    2.9678   68.8312   65.9798 H   0  0  0  0  0  0
   -0.0917   67.8026   63.1499 H   0  0  0  0  0  0
    1.3977   68.4253   61.2789 H   0  0  0  0  0  0
    0.3019   64.6068   70.5389 H   0  0  0  0  0  0
    0.6881   65.8902   71.6876 H   0  0  0  0  0  0
    1.9733   65.0987   70.7693 H   0  0  0  0  0  0
    1.7893   68.3075   69.0333 H   0  0  0  0  0  0
    1.5429   68.1080   70.7680 H   0  0  0  0  0  0
    2.7430   67.1369   69.9680 H   0  0  0  0  0  0
    5.0673   69.7918   65.2313 H   0  0  0  0  0  0
   -4.5883   69.3077   66.3681 H   0  0  0  0  0  0
   -3.0097   69.6369   65.6384 H   0  0  0  0  0  0
   -3.8465   68.1081   65.3145 H   0  0  0  0  0  0
    3.6174   69.2869   60.4984 H   0  0  0  0  0  0
    6.4885   70.5709   63.4028 H   0  0  0  0  0  0
    5.7973   70.2863   61.0529 H   0  0  0  0  0  0
  1  3  1  0  0  0
  1  4  1  0  0  0
  1  6  1  0  0  0
  2  4  2  0  0  0
  2  5  1  0  0  0
  3  5  2  0  0  0
  4 11  1  0  0  0
  5  7  1  0  0  0
  6  8  1  0  0  0
  6 10  2  0  0  0
  7  9  2  0  0  0
  7 13  1  0  0  0
  8 16  1  0  0  0
  8 17  1  0  0  0
  9 12  1  0  0  0
  9 23  1  0  0  0
 11 19  1  0  0  0
 12 18  2  0  0  0
 12 14  1  0  0  0
 13 15  2  0  0  0
 13 24  1  0  0  0
 14 15  1  0  0  0
 14 20  2  0  0  0
 15 25  1  0  0  0
 16 26  1  0  0  0
 16 27  1  0  0  0
 16 28  1  0  0  0
 17 29  1  0  0  0
 17 30  1  0  0  0
 17 31  1  0  0  0
 18 21  1  0  0  0
 18 32  1  0  0  0
 19 33  1  0  0  0
 19 34  1  0  0  0
 19 35  1  0  0  0
 20 22  1  0  0  0
 20 36  1  0  0  0
 21 22  2  0  0  0
 21 37  1  0  0  0
 22 38  1  0  0  0
M  END
> <s_m_entry_id>
8759

> <s_m_entry_name>
dock_pv.269

> <s_m_Source_Path>
/home/csk/Desktop/cluster/DUD-E-result/aces

> <s_m_Source_File>
dock_pv.maegz

> <i_m_Source_File_Index>
269

> <chembl_id>
CHEMBL335033

> <chembl_pref_name>
None

> <i_lp_mmshare_version>
53161

> <i_f3d_flags>
0

> <r_lp_tautomer_probability>
1

> <s_lp_Force_Field>
OPLS_2005

> <r_lp_Energy>
33.241994

> <b_lp_Chiralities_Consistent>
1

> <s_lp_Variant>
CHEMBL220_lig162-1

> <s_i_glide_gridfile>
glide-grid_1e66

> <i_i_glide_lignum>
178

> <i_i_glide_rotatable_bonds>
4

> <r_i_docking_score>
-7.06934224933769

> <r_i_glide_ligand_efficiency>
-0.321333738606259

> <r_i_glide_ligand_efficiency_sa>
-0.90038977291356

> <r_i_glide_ligand_efficiency_ln>
-1.72800510626198

> <r_i_glide_gscore>
-7.06934224933769

> <r_i_glide_lipo>
-2.78500994219525

> <r_i_glide_hbond>
0

> <r_i_glide_metal>
0

> <r_i_glide_rewards>
-2.83852917140018

> <r_i_glide_evdw>
-32.8898086547852

> <r_i_glide_ecoul>
-1.21112167835236

> <r_i_glide_erotb>
0.38035554874985

> <r_i_glide_esite>
0

> <r_i_glide_emodel>
-44.54861532047

> <r_i_glide_energy>
-34.1009303331375

> <r_i_glide_einternal>
6.75194454193115

> <i_i_glide_confnum>
2

> <i_i_glide_posenum>
250

> <r_i_glide_eff_state_penalty>
0

> <s_user_duplicate_titles>
CHEMBL220_lig162,218484

> <s_m_subgroup_title>
dock_pv

> <s_m_subgroupid>
dock_pv

> <b_m_subgroup_collapsed>
0

$$$$
CHEMBL220_lig764
                    3D
 Schrodinger Suite 2021-1.
 67 68  0  0  1  0            999 V2000
    4.7418   67.0817   63.1117 C   0  0  0  0  0  0
    3.9031   60.4478   71.9289 C   0  0  0  0  0  0
    3.5454   67.2703   62.5080 O   0  0  0  0  0  0
    2.7977   60.7713   71.2055 O   0  0  0  0  0  0
    3.3533   68.6016   62.3361 C   0  0  0  0  0  0
    3.0762   61.8942   70.4937 C   0  0  0  0  0  0
    5.3718   68.3127   63.2305 C   0  0  0  0  0  0
    4.8970   61.3802   71.6817 C   0  0  0  0  0  0
    4.4923   69.2751   62.7360 C   0  0  0  0  0  0
    4.3703   62.3026   70.7718 C   0  0  0  0  0  0
    5.1417   65.6586   63.4872 C   0  0  0  0  0  0
    3.7893   59.2310   72.8251 C   0  0  0  0  0  0
    4.1041   64.6258   63.3978 N   0  0  0  0  0  0
    3.5393   59.5948   74.2250 N   0  0  0  0  0  0
    0.6211   68.5081   62.9499 S   0  0  0  0  0  0
    0.5974   63.1429   70.5447 S   0  0  0  0  0  0
    1.9879   69.0279   61.8517 C   0  0  0  0  0  0
    1.9731   62.4167   69.6051 C   0  0  0  0  0  0
    4.6947   63.3004   63.5673 C   0  0  0  0  0  0
    3.1045   64.8017   64.4496 C   0  0  0  0  0  0
    2.1942   60.1329   74.4202 C   0  0  0  0  0  0
    3.7306   58.4333   75.0940 C   0  0  0  0  0  0
    1.3841   68.5721   64.6002 C   0  0  0  0  0  0
    1.1216   64.8776   70.6750 C   0  0  0  0  0  0
    1.0006   65.6722   69.3595 C   0  0  0  0  0  0
    0.4246   68.3659   65.7856 C   0  0  0  0  0  0
    0.2173   67.8891   68.2997 C   0  0  0  0  0  0
    1.1419   67.8890   67.0683 C   0  0  0  0  0  0
    0.7837   67.1812   69.5502 C   0  0  0  0  0  0
    6.3445   68.5081   63.6501 H   0  0  0  0  0  0
    5.8817   61.3957   72.1271 H   0  0  0  0  0  0
    4.6563   70.3410   62.7175 H   0  0  0  0  0  0
    4.8690   63.1734   70.3689 H   0  0  0  0  0  0
    5.9406   65.3745   62.8128 H   0  0  0  0  0  0
    5.5433   65.6471   64.4950 H   0  0  0  0  0  0
    4.7226   58.6656   72.7682 H   0  0  0  0  0  0
    3.0095   58.5524   72.4677 H   0  0  0  0  0  0
    1.7841   68.6423   60.8529 H   0  0  0  0  0  0
    1.9448   70.1078   61.7675 H   0  0  0  0  0  0
    2.3436   63.1173   68.8579 H   0  0  0  0  0  0
    1.5442   61.5872   69.0454 H   0  0  0  0  0  0
    3.9433   62.5211   63.4654 H   0  0  0  0  0  0
    5.4652   63.1025   62.8243 H   0  0  0  0  0  0
    5.1434   63.1868   64.5534 H   0  0  0  0  0  0
    2.3197   64.0499   64.3684 H   0  0  0  0  0  0
    3.5412   64.7318   65.4479 H   0  0  0  0  0  0
    2.6166   65.7695   64.3686 H   0  0  0  0  0  0
    2.0462   61.0378   73.8318 H   0  0  0  0  0  0
    2.0361   60.4047   75.4644 H   0  0  0  0  0  0
    1.4216   59.4169   74.1366 H   0  0  0  0  0  0
    4.7424   58.0392   75.0067 H   0  0  0  0  0  0
    3.5824   58.7085   76.1389 H   0  0  0  0  0  0
    3.0333   57.6285   74.8542 H   0  0  0  0  0  0
    1.9544   69.4935   64.7160 H   0  0  0  0  0  0
    2.1247   67.7778   64.6266 H   0  0  0  0  0  0
    0.4756   65.3140   71.4367 H   0  0  0  0  0  0
    2.1364   64.9381   71.0688 H   0  0  0  0  0  0
    1.8991   65.5087   68.7663 H   0  0  0  0  0  0
    0.1686   65.2788   68.7699 H   0  0  0  0  0  0
   -0.3376   67.6322   65.5129 H   0  0  0  0  0  0
   -0.1124   69.2964   65.9788 H   0  0  0  0  0  0
   -0.7353   67.4238   68.0357 H   0  0  0  0  0  0
   -0.0202   68.9235   68.5517 H   0  0  0  0  0  0
    2.0091   68.5183   67.2713 H   0  0  0  0  0  0
    1.5314   66.8879   66.8880 H   0  0  0  0  0  0
    0.0715   67.3083   70.3656 H   0  0  0  0  0  0
    1.7073   67.6620   69.8780 H   0  0  0  0  0  0
  1  3  1  0  0  0
  1  7  2  0  0  0
  1 11  1  0  0  0
  2  4  1  0  0  0
  2 12  1  0  0  0
  2  8  2  0  0  0
  3  5  1  0  0  0
  4  6  1  0  0  0
  5 17  1  0  0  0
  5  9  2  0  0  0
  6 18  1  0  0  0
  6 10  2  0  0  0
  7  9  1  0  0  0
  7 30  1  0  0  0
  8 10  1  0  0  0
  8 31  1  0  0  0
  9 32  1  0  0  0
 10 33  1  0  0  0
 11 13  1  0  0  0
 11 34  1  0  0  0
 11 35  1  0  0  0
 12 14  1  0  0  0
 12 36  1  0  0  0
 12 37  1  0  0  0
 13 19  1  0  0  0
 13 20  1  0  0  0
 14 21  1  0  0  0
 14 22  1  0  0  0
 15 17  1  0  0  0
 15 23  1  0  0  0
 16 24  1  0  0  0
 16 18  1  0  0  0
 17 38  1  0  0  0
 17 39  1  0  0  0
 18 40  1  0  0  0
 18 41  1  0  0  0
 19 42  1  0  0  0
 19 43  1  0  0  0
 19 44  1  0  0  0
 20 45  1  0  0  0
 20 46  1  0  0  0
 20 47  1  0  0  0
 21 48  1  0  0  0
 21 49  1  0  0  0
 21 50  1  0  0  0
 22 51  1  0  0  0
 22 52  1  0  0  0
 22 53  1  0  0  0
 23 26  1  0  0  0
 23 54  1  0  0  0
 23 55  1  0  0  0
 24 25  1  0  0  0
 24 56  1  0  0  0
 24 57  1  0  0  0
 25 29  1  0  0  0
 25 58  1  0  0  0
 25 59  1  0  0  0
 26 28  1  0  0  0
 26 60  1  0  0  0
 26 61  1  0  0  0
 27 28  1  0  0  0
 27 29  1  0  0  0
 27 62  1  0  0  0
 27 63  1  0  0  0
 28 64  1  0  0  0
 28 65  1  0  0  0
 29 66  1  0  0  0
 29 67  1  0  0  0
M  END
> <s_m_entry_id>
8760

> <s_m_entry_name>
dock_pv.270

> <s_m_Source_Path>
/home/csk/Desktop/cluster/DUD-E-result/aces

> <s_m_Source_File>
dock_pv.maegz

> <i_m_Source_File_Index>
270

> <chembl_id>
CHEMBL13426

> <chembl_pref_name>
None

> <i_lp_mmshare_version>
53161

> <i_f3d_flags>
0

> <r_lp_tautomer_probability>
1

> <s_lp_Force_Field>
OPLS_2005

> <r_lp_Energy>
6.190086

> <b_lp_Chiralities_Consistent>
1

> <s_lp_Variant>
CHEMBL220_lig764-1

> <s_i_glide_gridfile>
glide-grid_1e66

> <i_i_glide_lignum>
935

> <i_i_glide_rotatable_bonds>
16

> <r_i_docking_score>
-7.06459815509978

> <r_i_glide_ligand_efficiency>
-0.243606832934475

> <r_i_glide_ligand_efficiency_sa>
-0.74843737083656

> <r_i_glide_ligand_efficiency_ln>
-1.6176138347655

> <r_i_glide_gscore>
-7.06459815509978

> <r_i_glide_lipo>
-4.14985611320592

> <r_i_glide_hbond>
-0.127526366030856

> <r_i_glide_metal>
0

> <r_i_glide_rewards>
-1.11882603086974

> <r_i_glide_evdw>
-52.647590637207

> <r_i_glide_ecoul>
-3.24955058097839

> <r_i_glide_erotb>
1.45142247401384

> <r_i_glide_esite>
0

> <r_i_glide_emodel>
-73.0364514814767

> <r_i_glide_energy>
-55.8971412181854

> <r_i_glide_einternal>
10.6298418045044

> <i_i_glide_confnum>
53

> <i_i_glide_posenum>
307

> <r_i_glide_eff_state_penalty>
0

> <s_user_duplicate_titles>
CHEMBL220_lig764,11698

> <s_m_subgroup_title>
dock_pv

> <s_m_subgroupid>
dock_pv

> <b_m_subgroup_collapsed>
0

$$$$
CHEMBL220_lig132
                    3D
 Schrodinger Suite 2021-1.
 50 54  0  0  1  0            999 V2000
    2.1040   61.3966   71.7839 C   0  0  0  0  0  0
    3.4089   61.9218   71.8310 C   0  0  0  0  0  0
    3.6634   63.1756   71.2677 C   0  0  0  0  0  0
    1.0786   62.1132   71.1781 C   0  0  0  0  0  0
    1.3607   63.3624   70.6321 C   0  0  0  0  0  0
    2.6302   63.9076   70.6859 C   0  0  0  0  0  0
    2.6284   65.2661   70.0508 C   0  0  0  0  0  0
    1.2330   65.4261   69.4730 C   0  0  0  0  0  0
    0.4537   64.2338   69.8882 C   0  0  0  0  0  0
    4.4738   61.2667   72.4059 O   0  0  0  0  0  0
    4.2089   60.0470   73.0885 C   0  0  0  0  0  0
   -0.6922   63.9497   69.5680 O   0  0  0  0  0  0
    0.8510   66.4426   68.6425 C   0  0  0  0  0  0
   -0.3931   66.7544   67.8924 C   0  0  0  0  0  0
   -0.4518   67.3604   66.5942 C   0  0  0  0  0  0
   -1.7130   67.8430   66.1756 C   0  0  0  0  0  0
   -2.8568   67.7161   66.9406 C   0  0  0  0  0  0
   -2.7816   67.0451   68.1416 C   0  0  0  0  0  0
   -1.5772   66.5309   68.5832 C   0  0  0  0  0  0
    0.7161   67.5299   65.6319 C   0  0  0  0  0  0
    1.9320   66.8516   65.7840 C   0  0  0  0  0  0
    3.0311   67.0927   64.9660 C   0  0  0  0  0  0
    0.6014   68.3354   64.4813 C   0  0  0  0  0  0
    1.6710   68.5428   63.5887 C   0  0  0  0  0  0
    2.9454   67.9936   63.8917 C   0  0  0  0  0  0
    4.0620   68.3183   63.1789 N   0  0  0  0  0  0
    3.9276   69.1848   62.1426 C   0  0  0  0  0  0
    2.6887   69.6218   61.6848 C   0  0  0  0  0  0
    1.5425   69.3088   62.4099 C   0  0  0  0  0  0
    5.0822   69.7048   61.5750 N   0  0  0  0  0  0
    1.8631   60.4272   72.1947 H   0  0  0  0  0  0
    4.6648   63.5748   71.3060 H   0  0  0  0  0  0
    0.0861   61.6852   71.1165 H   0  0  0  0  0  0
    2.8650   66.0585   70.7611 H   0  0  0  0  0  0
    3.3863   65.2968   69.2735 H   0  0  0  0  0  0
    5.1338   59.7056   73.5271 H   0  0  0  0  0  0
    3.8613   59.2645   72.4098 H   0  0  0  0  0  0
    3.4821   60.1706   73.8973 H   0  0  0  0  0  0
    1.5577   67.2357   68.4975 H   0  0  0  0  0  0
   -1.8775   68.3157   65.2233 H   0  0  0  0  0  0
   -3.7997   68.1078   66.5826 H   0  0  0  0  0  0
   -3.6566   66.9155   68.7652 H   0  0  0  0  0  0
   -1.5689   66.1079   69.5669 H   0  0  0  0  0  0
    2.0622   66.1129   66.5513 H   0  0  0  0  0  0
    3.9571   66.5905   65.1585 H   0  0  0  0  0  0
   -0.2999   68.8642   64.2267 H   0  0  0  0  0  0
    2.6270   70.2912   60.8444 H   0  0  0  0  0  0
    0.5764   69.7169   62.1402 H   0  0  0  0  0  0
    5.0182   70.1713   60.6879 H   0  0  0  0  0  0
    5.9574   69.2669   61.8375 H   0  0  0  0  0  0
  1  2  2  0  0  0
  1  4  1  0  0  0
  1 31  1  0  0  0
  2  3  1  0  0  0
  2 10  1  0  0  0
  3  6  2  0  0  0
  3 32  1  0  0  0
  4  5  2  0  0  0
  4 33  1  0  0  0
  5  6  1  0  0  0
  5  9  1  0  0  0
  6  7  1  0  0  0
  7  8  1  0  0  0
  7 34  1  0  0  0
  7 35  1  0  0  0
  8  9  1  0  0  0
  8 13  2  0  0  0
  9 12  2  0  0  0
 10 11  1  0  0  0
 11 36  1  0  0  0
 11 37  1  0  0  0
 11 38  1  0  0  0
 13 14  1  0  0  0
 13 39  1  0  0  0
 14 15  2  0  0  0
 14 19  1  0  0  0
 15 16  1  0  0  0
 15 20  1  0  0  0
 16 17  2  0  0  0
 16 40  1  0  0  0
 17 18  1  0  0  0
 17 41  1  0  0  0
 18 19  2  0  0  0
 18 42  1  0  0  0
 19 43  1  0  0  0
 20 21  2  0  0  0
 20 23  1  0  0  0
 21 22  1  0  0  0
 21 44  1  0  0  0
 22 25  2  0  0  0
 22 45  1  0  0  0
 23 24  2  0  0  0
 23 46  1  0  0  0
 24 25  1  0  0  0
 24 29  1  0  0  0
 25 26  1  0  0  0
 26 27  2  0  0  0
 27 28  1  0  0  0
 27 30  1  0  0  0
 28 29  2  0  0  0
 28 47  1  0  0  0
 29 48  1  0  0  0
 30 49  1  0  0  0
 30 50  1  0  0  0
M  END
> <s_m_entry_id>
8761

> <s_m_entry_name>
dock_pv.271

> <s_m_Source_Path>
/home/csk/Desktop/cluster/DUD-E-result/aces

> <s_m_Source_File>
dock_pv.maegz

> <i_m_Source_File_Index>
271

> <chembl_id>
CHEMBL4240861

> <chembl_pref_name>
None

> <i_lp_mmshare_version>
53161

> <i_f3d_flags>
0

> <r_lp_tautomer_probability>
1

> <s_lp_Force_Field>
OPLS_2005

> <r_lp_Energy>
42.035911

> <b_lp_Chiralities_Consistent>
1

> <s_lp_Variant>
CHEMBL220_lig132-1

> <s_i_glide_gridfile>
glide-grid_1e66

> <i_i_glide_lignum>
148

> <i_i_glide_rotatable_bonds>
3

> <r_i_docking_score>
-7.0632386331038

> <r_i_glide_ligand_efficiency>
-0.235441287770127

> <r_i_glide_ligand_efficiency_sa>
-0.731570821773568

> <r_i_glide_ligand_efficiency_ln>
-1.60484477759011

> <r_i_glide_gscore>
-7.0632386331038

> <r_i_glide_lipo>
-4.47264248493151

> <r_i_glide_hbond>
0

> <r_i_glide_metal>
0

> <r_i_glide_rewards>
-1.68063945742484

> <r_i_glide_evdw>
-21.2751655578613

> <r_i_glide_ecoul>
-0.319273561239243

> <r_i_glide_erotb>
0.253542749500492

> <r_i_glide_esite>
-0.0518501281689881

> <r_i_glide_emodel>
-26.6113739098287

> <r_i_glide_energy>
-21.5944391191006

> <r_i_glide_einternal>
14.9042892456055

> <i_i_glide_confnum>
8

> <i_i_glide_posenum>
6

> <r_i_glide_eff_state_penalty>
0

> <s_user_duplicate_titles>
CHEMBL220_lig132

> <s_m_subgroup_title>
dock_pv

> <s_m_subgroupid>
dock_pv

> <b_m_subgroup_collapsed>
0

$$$$
CHEMBL220_lig126
                    3D
 Schrodinger Suite 2021-1.
 40 43  0  0  1  0            999 V2000
    1.5427   69.9660   67.9537 N   0  0  0  0  0  0
    1.9821   67.9757   66.0602 C   0  0  0  0  0  0
    0.6920   68.1856   66.5534 C   0  0  0  0  0  0
    0.4991   69.2981   67.3926 C   0  0  0  0  0  0
   -0.8963   69.7991   67.7169 C   0  0  0  0  0  0
   -2.0507   68.8242   67.3512 C   0  0  0  0  0  0
   -1.6093   67.3683   67.1941 C   0  0  0  0  0  0
   -0.4893   67.3135   66.1522 C   0  0  0  0  0  0
    2.7664   69.7448   67.4383 C   0  0  0  0  0  0
    3.0061   68.8859   66.3676 C   0  0  0  0  0  0
    4.3479   68.9938   65.6225 C   0  0  2  0  0  0
    5.3092   69.8771   66.3348 N   0  0  0  0  0  0
    5.0953   70.5080   67.5268 C   0  0  0  0  0  0
    3.8182   70.4725   67.9921 N   0  0  0  0  0  0
    6.3061   71.2525   68.3679 S   0  0  0  0  0  0
    4.1886   69.2436   64.1204 C   0  0  0  0  0  0
    2.9376   69.3080   63.4717 C   0  0  0  0  0  0
    2.8409   69.3083   62.0859 C   0  0  0  0  0  0
    4.0006   69.3374   61.3288 C   0  0  0  0  0  0
    5.2412   69.3679   61.9680 C   0  0  0  0  0  0
    5.3427   69.3108   63.3471 C   0  0  0  0  0  0
    2.2346   66.9003   65.2023 N   0  0  0  0  0  0
    1.1335   69.2829   61.2439 Br  0  0  0  0  0  0
   -0.8570   70.0809   68.7678 H   0  0  0  0  0  0
   -1.1006   70.7357   67.2032 H   0  0  0  0  0  0
   -2.8565   68.8957   68.0800 H   0  0  0  0  0  0
   -2.4973   69.1513   66.4100 H   0  0  0  0  0  0
   -1.2667   66.9635   68.1479 H   0  0  0  0  0  0
   -2.4516   66.7517   66.8760 H   0  0  0  0  0  0
   -0.8656   67.6893   65.1980 H   0  0  0  0  0  0
   -0.1883   66.2773   65.9942 H   0  0  0  0  0  0
    4.7965   68.0053   65.6633 H   0  0  0  0  0  0
    6.2644   69.9255   66.0115 H   0  0  0  0  0  0
    3.7088   70.9089   68.8944 H   0  0  0  0  0  0
    2.0074   69.3306   64.0124 H   0  0  0  0  0  0
    3.9501   69.3305   60.2504 H   0  0  0  0  0  0
    6.1485   69.3822   61.3884 H   0  0  0  0  0  0
    6.3225   69.2775   63.8015 H   0  0  0  0  0  0
    1.4403   66.3569   64.8967 H   0  0  0  0  0  0
    3.0934   66.9082   64.6740 H   0  0  0  0  0  0
  1  9  1  0  0  0
  1  4  2  0  0  0
  2  3  2  0  0  0
  2 10  1  0  0  0
  2 22  1  0  0  0
  3  4  1  0  0  0
  3  8  1  0  0  0
  4  5  1  0  0  0
  5  6  1  0  0  0
  5 24  1  0  0  0
  5 25  1  0  0  0
  6  7  1  0  0  0
  6 26  1  0  0  0
  6 27  1  0  0  0
  7  8  1  0  0  0
  7 28  1  0  0  0
  7 29  1  0  0  0
  8 30  1  0  0  0
  8 31  1  0  0  0
  9 10  2  0  0  0
  9 14  1  0  0  0
 10 11  1  0  0  0
 11 12  1  0  0  0
 11 16  1  0  0  0
 11 32  1  0  0  0
 12 13  1  0  0  0
 12 33  1  0  0  0
 13 14  1  0  0  0
 13 15  2  0  0  0
 14 34  1  0  0  0
 16 17  2  0  0  0
 16 21  1  0  0  0
 17 18  1  0  0  0
 17 35  1  0  0  0
 18 19  2  0  0  0
 18 23  1  0  0  0
 19 20  1  0  0  0
 19 36  1  0  0  0
 20 21  2  0  0  0
 20 37  1  0  0  0
 21 38  1  0  0  0
 22 39  1  0  0  0
 22 40  1  0  0  0
M  END
> <s_m_entry_id>
8762

> <s_m_entry_name>
dock_pv.272

> <s_m_Source_Path>
/home/csk/Desktop/cluster/DUD-E-result/aces

> <s_m_Source_File>
dock_pv.maegz

> <i_m_Source_File_Index>
272

> <chembl_id>
CHEMBL4174958

> <chembl_pref_name>
None

> <i_lp_mmshare_version>
53161

> <i_f3d_flags>
0

> <r_lp_tautomer_probability>
1

> <s_lp_Force_Field>
OPLS_2005

> <r_lp_Energy>
26.987742

> <b_lp_Chiralities_Consistent>
1

> <s_lp_Variant>
CHEMBL220_lig126-1

> <s_i_glide_gridfile>
glide-grid_1e66

> <i_i_glide_lignum>
141

> <i_i_glide_rotatable_bonds>
1

> <r_i_docking_score>
-7.05697870458678

> <r_i_glide_ligand_efficiency>
-0.306825161068991

> <r_i_glide_ligand_efficiency_sa>
-0.872569943239761

> <r_i_glide_ligand_efficiency_ln>
-1.70644143991415

> <r_i_glide_gscore>
-7.05697870458678

> <r_i_glide_lipo>
-3.49515431789063

> <r_i_glide_hbond>
0

> <r_i_glide_metal>
0

> <r_i_glide_rewards>
-1.75494556557183

> <r_i_glide_evdw>
-34.0653686523438

> <r_i_glide_ecoul>
-1.54814445972443

> <r_i_glide_erotb>
0.128611280451527

> <r_i_glide_esite>
0

> <r_i_glide_emodel>
-37.4067490447758

> <r_i_glide_energy>
-35.6135131120682

> <r_i_glide_einternal>
1.3232980966568

> <i_i_glide_confnum>
3

> <i_i_glide_posenum>
290

> <r_i_glide_eff_state_penalty>
0

> <s_user_duplicate_titles>
CHEMBL220_lig126

> <s_m_subgroup_title>
dock_pv

> <s_m_subgroupid>
dock_pv

> <b_m_subgroup_collapsed>
0

$$$$
CHEMBL220_lig678
                    3D
 Schrodinger Suite 2021-1.
 44 45  0  0  1  0            999 V2000
    3.7748   69.1621   65.5768 N   0  3  0  0  0  0
    2.8783   68.8848   64.4176 C   0  0  0  0  0  0
    1.6649   63.3565   70.2254 C   0  0  0  0  0  0
    0.6390   64.2210   69.9741 O   0  0  0  0  0  0
    3.4014   69.0461   63.1224 C   0  0  0  0  0  0
    1.5166   68.5080   64.5561 C   0  0  0  0  0  0
    1.1387   65.4878   70.0347 C   0  0  0  0  0  0
    2.8202   64.0780   70.4689 C   0  0  0  0  0  0
    4.9805   69.2624   65.3677 O   0  5  0  0  0  0
    2.4764   65.4155   70.3680 C   0  0  0  0  0  0
    3.2972   69.3079   66.6976 O   0  0  0  0  0  0
    1.3533   61.8759   70.1528 C   0  0  0  0  0  0
    0.7223   68.3790   63.4049 C   0  0  0  0  0  0
    2.6010   68.9078   61.9956 C   0  0  0  0  0  0
    2.5525   61.0362   70.3106 N   0  0  0  0  0  0
    0.9595   68.2986   65.8315 N   0  0  0  0  0  0
    1.2554   68.5945   62.1372 C   0  0  0  0  0  0
    3.1342   69.0854   60.7680 F   0  0  0  0  0  0
   -0.6676   66.5080   68.1693 S   0  0  0  0  0  0
    0.2096   66.6525   69.7562 C   0  0  0  0  0  0
   -0.4737   68.4137   66.0866 C   0  0  0  0  0  0
   -0.8284   68.2202   67.5683 C   0  0  0  0  0  0
    2.9415   60.9189   71.7180 C   0  0  0  0  0  0
    2.3333   59.6982   69.7706 C   0  0  0  0  0  0
    4.4355   69.3245   62.9732 H   0  0  0  0  0  0
    3.7975   63.6758   70.6920 H   0  0  0  0  0  0
    3.1403   66.2474   70.5110 H   0  0  0  0  0  0
    0.5843   61.5961   70.8749 H   0  0  0  0  0  0
    0.9195   61.7080   69.1683 H   0  0  0  0  0  0
   -0.3207   68.1093   63.4743 H   0  0  0  0  0  0
    1.5547   68.5901   66.5985 H   0  0  0  0  0  0
    0.6301   68.5080   61.2612 H   0  0  0  0  0  0
    0.8015   67.5675   69.7271 H   0  0  0  0  0  0
   -0.5071   66.7937   70.5639 H   0  0  0  0  0  0
   -0.8061   69.4008   65.7620 H   0  0  0  0  0  0
   -1.0305   67.7079   65.4694 H   0  0  0  0  0  0
   -0.2365   68.8970   68.1865 H   0  0  0  0  0  0
   -1.8700   68.5112   67.7131 H   0  0  0  0  0  0
    3.8511   60.3246   71.8193 H   0  0  0  0  0  0
    3.1450   61.8955   72.1580 H   0  0  0  0  0  0
    2.1605   60.4423   72.3146 H   0  0  0  0  0  0
    3.2630   59.1274   69.7530 H   0  0  0  0  0  0
    1.6080   59.1442   70.3695 H   0  0  0  0  0  0
    1.9464   59.7444   68.7516 H   0  0  0  0  0  0
  1  2  1  0  0  0
  1  9  1  0  0  0
  1 11  2  0  0  0
  2  5  1  0  0  0
  2  6  2  0  0  0
  3  4  1  0  0  0
  3 12  1  0  0  0
  3  8  2  0  0  0
  4  7  1  0  0  0
  5 14  2  0  0  0
  5 25  1  0  0  0
  6 13  1  0  0  0
  6 16  1  0  0  0
  7 20  1  0  0  0
  7 10  2  0  0  0
  8 10  1  0  0  0
  8 26  1  0  0  0
 10 27  1  0  0  0
 12 15  1  0  0  0
 12 28  1  0  0  0
 12 29  1  0  0  0
 13 17  2  0  0  0
 13 30  1  0  0  0
 14 18  1  0  0  0
 14 17  1  0  0  0
 15 23  1  0  0  0
 15 24  1  0  0  0
 16 21  1  0  0  0
 16 31  1  0  0  0
 17 32  1  0  0  0
 19 22  1  0  0  0
 19 20  1  0  0  0
 20 33  1  0  0  0
 20 34  1  0  0  0
 21 22  1  0  0  0
 21 35  1  0  0  0
 21 36  1  0  0  0
 22 37  1  0  0  0
 22 38  1  0  0  0
 23 39  1  0  0  0
 23 40  1  0  0  0
 23 41  1  0  0  0
 24 42  1  0  0  0
 24 43  1  0  0  0
 24 44  1  0  0  0
M  CHG  2   1   1   9  -1
M  END
> <s_m_entry_id>
8763

> <s_m_entry_name>
dock_pv.273

> <s_m_Source_Path>
/home/csk/Desktop/cluster/DUD-E-result/aces

> <s_m_Source_File>
dock_pv.maegz

> <i_m_Source_File_Index>
273

> <chembl_id>
CHEMBL104355

> <chembl_pref_name>
None

> <i_lp_mmshare_version>
53161

> <i_f3d_flags>
0

> <r_lp_tautomer_probability>
1

> <s_lp_Force_Field>
OPLS_2005

> <r_lp_Energy>
14.202057

> <b_lp_Chiralities_Consistent>
1

> <s_lp_Variant>
CHEMBL220_lig678-1

> <s_i_glide_gridfile>
glide-grid_1e66

> <i_i_glide_lignum>
800

> <i_i_glide_rotatable_bonds>
9

> <r_i_docking_score>
-7.05355039622447

> <r_i_glide_ligand_efficiency>
-0.293897933176019

> <r_i_glide_ligand_efficiency_sa>
-0.847748334776636

> <r_i_glide_ligand_efficiency_ln>
-1.68823827615382

> <r_i_glide_gscore>
-7.05355039622447

> <r_i_glide_lipo>
-3.86503863729161

> <r_i_glide_hbond>
0

> <r_i_glide_metal>
0

> <r_i_glide_rewards>
-2.0271898912256

> <r_i_glide_evdw>
-39.6671981811523

> <r_i_glide_ecoul>
-1.65479648113251

> <r_i_glide_erotb>
1.07025751352024

> <r_i_glide_esite>
0

> <r_i_glide_emodel>
-55.2470333504963

> <r_i_glide_energy>
-41.3219946622849

> <r_i_glide_einternal>
6.19610786437988

> <i_i_glide_confnum>
89

> <i_i_glide_posenum>
328

> <r_i_glide_eff_state_penalty>
0

> <s_user_duplicate_titles>
CHEMBL220_lig678,174831

> <s_m_subgroup_title>
dock_pv

> <s_m_subgroupid>
dock_pv

> <b_m_subgroup_collapsed>
0

$$$$
CHEMBL220_lig1181
                    3D
 Schrodinger Suite 2021-1.
 64 66  0  0  1  0            999 V2000
    6.2716   70.5056   66.6298 C   0  0  0  0  0  0
    5.9138   70.9089   67.9113 C   0  0  0  0  0  0
    4.6115   70.7268   68.3679 C   0  0  0  0  0  0
    5.3332   69.9294   65.7784 C   0  0  0  0  0  0
    3.9921   69.7080   66.2136 C   0  0  0  0  0  0
    3.6452   70.1076   67.5375 C   0  0  0  0  0  0
    2.4072   69.8931   68.0409 N   0  0  0  0  0  0
    2.9720   69.1099   65.4017 C   0  0  0  0  0  0
    1.6792   68.9080   65.9391 C   0  0  0  0  0  0
    1.4645   69.2774   67.2870 C   0  0  0  0  0  0
    0.1137   69.0637   67.9672 C   0  0  0  0  0  0
   -1.0573   69.1023   66.9779 C   0  0  0  0  0  0
   -0.7898   68.1086   65.8441 C   0  0  0  0  0  0
    0.4815   68.4784   65.0565 C   0  0  0  0  0  0
    3.2458   68.8192   64.0488 N   0  0  0  0  0  0
    3.3831   67.4099   63.6992 C   0  0  0  0  0  0
    4.7829   66.8597   64.0139 C   0  0  0  0  0  0
    5.0265   65.3432   63.7818 C   0  0  0  0  0  0
    3.8478   64.3568   63.9526 C   0  0  0  0  0  0
    3.1655   64.4286   65.2452 N   0  0  1  0  0  0
    3.9429   63.7109   66.2502 C   0  0  0  0  0  0
    3.5367   63.9104   67.7239 C   0  0  0  0  0  0
    4.6016   63.6589   68.7921 C   0  0  0  0  0  0
    4.2390   64.1748   70.2017 C   0  0  0  0  0  0
    3.1716   63.3456   70.9494 C   0  0  0  0  0  0
    3.7134   62.0918   71.6757 C   0  0  0  0  0  0
    4.4497   61.2009   70.8264 O   0  0  0  0  0  0
    3.6594   60.3948   69.9461 N   0  3  0  0  0  0
    2.4550   60.4918   70.0136 O   0  0  0  0  0  0
    4.3412   59.7076   69.2251 O   0  5  0  0  0  0
    7.2863   70.6407   66.2835 H   0  0  0  0  0  0
    6.6515   71.3621   68.5581 H   0  0  0  0  0  0
    4.3342   71.0245   69.3689 H   0  0  0  0  0  0
    5.6378   69.6394   64.7840 H   0  0  0  0  0  0
   -0.0453   69.8030   68.7542 H   0  0  0  0  0  0
    0.1355   68.0930   68.4635 H   0  0  0  0  0  0
   -1.1911   70.1078   66.5778 H   0  0  0  0  0  0
   -1.9870   68.8513   67.4908 H   0  0  0  0  0  0
   -1.6450   68.0768   65.1676 H   0  0  0  0  0  0
   -0.6907   67.1007   66.2519 H   0  0  0  0  0  0
    0.2312   69.3052   64.3845 H   0  0  0  0  0  0
    0.7286   67.6449   64.4034 H   0  0  0  0  0  0
    3.9766   69.3838   63.6393 H   0  0  0  0  0  0
    3.1429   67.2725   62.6445 H   0  0  0  0  0  0
    2.6450   66.8176   64.2346 H   0  0  0  0  0  0
    5.0159   67.1281   65.0409 H   0  0  0  0  0  0
    5.5157   67.4219   63.4308 H   0  0  0  0  0  0
    5.8561   65.0097   64.4025 H   0  0  0  0  0  0
    5.3948   65.2302   62.7679 H   0  0  0  0  0  0
    4.1705   63.3328   63.7523 H   0  0  0  0  0  0
    3.1429   64.5813   63.1678 H   0  0  0  0  0  0
    3.0493   65.3980   65.5163 H   0  0  0  0  0  0
    4.9545   64.1080   66.1679 H   0  0  0  0  0  0
    3.9429   62.6486   66.0021 H   0  0  0  0  0  0
    2.7430   63.2102   67.9677 H   0  0  0  0  0  0
    3.1410   64.9080   67.8599 H   0  0  0  0  0  0
    5.5431   64.1081   68.4894 H   0  0  0  0  0  0
    4.7430   62.5843   68.8276 H   0  0  0  0  0  0
    3.8983   65.2086   70.1237 H   0  0  0  0  0  0
    5.1441   64.2261   70.8077 H   0  0  0  0  0  0
    2.3581   63.0774   70.2756 H   0  0  0  0  0  0
    2.7083   63.9865   71.7006 H   0  0  0  0  0  0
    2.9112   61.5685   72.2005 H   0  0  0  0  0  0
    4.4011   62.4106   72.4599 H   0  0  0  0  0  0
  1  2  2  0  0  0
  1  4  1  0  0  0
  1 31  1  0  0  0
  2  3  1  0  0  0
  2 32  1  0  0  0
  3  6  2  0  0  0
  3 33  1  0  0  0
  4  5  2  0  0  0
  4 34  1  0  0  0
  5  8  1  0  0  0
  5  6  1  0  0  0
  6  7  1  0  0  0
  7 10  2  0  0  0
  8 15  1  0  0  0
  8  9  2  0  0  0
  9 10  1  0  0  0
  9 14  1  0  0  0
 10 11  1  0  0  0
 11 12  1  0  0  0
 11 35  1  0  0  0
 11 36  1  0  0  0
 12 13  1  0  0  0
 12 37  1  0  0  0
 12 38  1  0  0  0
 13 14  1  0  0  0
 13 39  1  0  0  0
 13 40  1  0  0  0
 14 41  1  0  0  0
 14 42  1  0  0  0
 15 16  1  0  0  0
 15 43  1  0  0  0
 16 17  1  0  0  0
 16 44  1  0  0  0
 16 45  1  0  0  0
 17 18  1  0  0  0
 17 46  1  0  0  0
 17 47  1  0  0  0
 18 19  1  0  0  0
 18 48  1  0  0  0
 18 49  1  0  0  0
 19 20  1  0  0  0
 19 50  1  0  0  0
 19 51  1  0  0  0
 20 21  1  0  0  0
 20 52  1  0  0  0
 21 22  1  0  0  0
 21 53  1  0  0  0
 21 54  1  0  0  0
 22 23  1  0  0  0
 22 55  1  0  0  0
 22 56  1  0  0  0
 23 24  1  0  0  0
 23 57  1  0  0  0
 23 58  1  0  0  0
 24 25  1  0  0  0
 24 59  1  0  0  0
 24 60  1  0  0  0
 25 26  1  0  0  0
 25 61  1  0  0  0
 25 62  1  0  0  0
 26 27  1  0  0  0
 26 63  1  0  0  0
 26 64  1  0  0  0
 27 28  1  0  0  0
 28 29  2  0  0  0
 28 30  1  0  0  0
M  CHG  2  28   1  30  -1
M  END
> <s_m_entry_id>
8764

> <s_m_entry_name>
dock_pv.274

> <s_m_Source_Path>
/home/csk/Desktop/cluster/DUD-E-result/aces

> <s_m_Source_File>
dock_pv.maegz

> <i_m_Source_File_Index>
274

> <chembl_id>
CHEMBL260308

> <chembl_pref_name>
None

> <i_lp_mmshare_version>
53161

> <i_f3d_flags>
0

> <r_lp_tautomer_probability>
1

> <s_lp_Force_Field>
OPLS_2005

> <r_lp_Energy>
25.201958

> <b_lp_Chiralities_Consistent>
1

> <s_lp_Variant>
CHEMBL220_lig1181-1

> <s_i_glide_gridfile>
glide-grid_1e66

> <i_i_glide_lignum>
1596

> <i_i_glide_rotatable_bonds>
14

> <r_i_docking_score>
-7.05149891381276

> <r_i_glide_ligand_efficiency>
-0.235049963793759

> <r_i_glide_ligand_efficiency_sa>
-0.730354887195218

> <r_i_glide_ligand_efficiency_ln>
-1.60217738545271

> <r_i_glide_gscore>
-7.05149891381276

> <r_i_glide_lipo>
-4.22348765659566

> <r_i_glide_hbond>
-0.211253354604091

> <r_i_glide_metal>
0

> <r_i_glide_rewards>
-1.48267459090909

> <r_i_glide_evdw>
-39.7919578552246

> <r_i_glide_ecoul>
-3.36654996871948

> <r_i_glide_erotb>
1.37835072802389

> <r_i_glide_esite>
-0.0178536516586548

> <r_i_glide_emodel>
-49.4894954688277

> <r_i_glide_energy>
-43.1585078239441

> <r_i_glide_einternal>
12.0818700790405

> <i_i_glide_confnum>
75

> <i_i_glide_posenum>
53

> <r_i_glide_eff_state_penalty>
0

> <s_user_duplicate_titles>
CHEMBL220_lig1181,442030

> <s_m_subgroup_title>
dock_pv

> <s_m_subgroupid>
dock_pv

> <b_m_subgroup_collapsed>
0

$$$$
CHEMBL220_lig658
                    3D
 Schrodinger Suite 2021-1.
 37 40  0  0  1  0            999 V2000
    4.3112   70.0484   67.0541 C   0  0  0  0  0  0
    3.2929   69.4517   66.2513 C   0  0  0  0  0  0
    3.5971   69.0222   64.9469 C   0  0  0  0  0  0
    4.8799   69.3054   64.4356 C   0  0  0  0  0  0
    5.8801   69.7670   65.2189 N   0  0  0  0  0  0
    5.6228   70.1078   66.5020 C   0  0  0  0  0  0
    4.1214   70.5082   68.3907 C   0  0  0  0  0  0
    2.6297   68.1648   64.1156 C   0  0  2  0  0  0
    5.2131   70.9075   69.1473 C   0  0  0  0  0  0
    6.7092   70.5082   67.3075 C   0  0  0  0  0  0
    3.9432   65.9727   63.7677 C   0  0  0  0  0  0
    4.3069   68.0156   62.2899 C   0  0  2  0  0  0
    4.6162   66.6005   62.7744 C   0  0  0  0  0  0
    5.2266   69.0554   62.9647 C   0  0  0  0  0  0
    2.7917   66.6668   64.5247 C   0  0  0  0  0  0
    2.8316   68.3388   62.6000 C   0  0  0  0  0  0
    6.4966   70.9080   68.6213 C   0  0  0  0  0  0
    2.0095   69.2337   66.7675 N   0  0  0  0  0  0
    2.9036   70.5061   68.9816 F   0  0  0  0  0  0
    7.5428   71.2445   69.4071 F   0  0  0  0  0  0
    4.2343   64.5256   64.1292 C   0  0  0  0  0  0
    1.6146   68.4860   64.3509 H   0  0  0  0  0  0
    5.0520   71.0847   70.1938 H   0  0  0  0  0  0
    7.7028   70.5060   66.8889 H   0  0  0  0  0  0
    4.4502   68.0429   61.2085 H   0  0  0  0  0  0
    5.4205   66.0799   62.2807 H   0  0  0  0  0  0
    6.2782   68.7872   62.8449 H   0  0  0  0  0  0
    5.1085   70.0060   62.4430 H   0  0  0  0  0  0
    1.8643   66.1179   64.3681 H   0  0  0  0  0  0
    2.9513   66.5624   65.5987 H   0  0  0  0  0  0
    2.6018   69.3651   62.3074 H   0  0  0  0  0  0
    2.1515   67.7082   62.0281 H   0  0  0  0  0  0
    1.8054   69.5574   67.7064 H   0  0  0  0  0  0
    1.2941   68.8143   66.1932 H   0  0  0  0  0  0
    4.5380   64.4338   65.1682 H   0  0  0  0  0  0
    5.0329   64.1024   63.5194 H   0  0  0  0  0  0
    3.3436   63.9149   63.9779 H   0  0  0  0  0  0
  1  2  2  0  0  0
  1  6  1  0  0  0
  1  7  1  0  0  0
  2  3  1  0  0  0
  2 18  1  0  0  0
  3  8  1  0  0  0
  3  4  2  0  0  0
  4  5  1  0  0  0
  4 14  1  0  0  0
  5  6  2  0  0  0
  6 10  1  0  0  0
  7  9  2  0  0  0
  7 19  1  0  0  0
  8 15  1  0  0  0
  8 16  1  0  0  0
  8 22  1  0  0  0
  9 17  1  0  0  0
  9 23  1  0  0  0
 10 17  2  0  0  0
 10 24  1  0  0  0
 11 15  1  0  0  0
 11 21  1  0  0  0
 11 13  2  0  0  0
 12 14  1  0  0  0
 12 13  1  0  0  0
 12 16  1  0  0  0
 12 25  1  0  0  0
 13 26  1  0  0  0
 14 27  1  0  0  0
 14 28  1  0  0  0
 15 29  1  0  0  0
 15 30  1  0  0  0
 16 31  1  0  0  0
 16 32  1  0  0  0
 17 20  1  0  0  0
 18 33  1  0  0  0
 18 34  1  0  0  0
 21 35  1  0  0  0
 21 36  1  0  0  0
 21 37  1  0  0  0
M  END
> <s_m_entry_id>
8765

> <s_m_entry_name>
dock_pv.275

> <s_m_Source_Path>
/home/csk/Desktop/cluster/DUD-E-result/aces

> <s_m_Source_File>
dock_pv.maegz

> <i_m_Source_File_Index>
275

> <chembl_id>
CHEMBL143290

> <chembl_pref_name>
None

> <i_lp_mmshare_version>
53161

> <i_f3d_flags>
0

> <r_lp_tautomer_probability>
1

> <s_lp_Force_Field>
OPLS_2005

> <r_lp_Energy>
26.599915

> <b_lp_Chiralities_Consistent>
1

> <s_lp_Variant>
CHEMBL220_lig658-2

> <s_i_glide_gridfile>
glide-grid_1e66

> <i_i_glide_lignum>
772

> <i_i_glide_rotatable_bonds>
0

> <r_i_docking_score>
-7.05019869615122

> <r_i_glide_ligand_efficiency>
-0.335723747435772

> <r_i_glide_ligand_efficiency_sa>
-0.926236362445839

> <r_i_glide_ligand_efficiency_ln>
-1.74314738135552

> <r_i_glide_gscore>
-7.05019869615122

> <r_i_glide_lipo>
-3.50729633148159

> <r_i_glide_hbond>
0

> <r_i_glide_metal>
0

> <r_i_glide_rewards>
-2.08463421696265

> <r_i_glide_evdw>
-30.7407455444336

> <r_i_glide_ecoul>
0.525127530097961

> <r_i_glide_erotb>
0

> <r_i_glide_esite>
0

> <r_i_glide_emodel>
-35.6373026781494

> <r_i_glide_energy>
-30.2156180143356

> <r_i_glide_einternal>
0

> <i_i_glide_confnum>
1

> <i_i_glide_posenum>
233

> <r_i_glide_eff_state_penalty>
0

> <s_user_duplicate_titles>
CHEMBL220_lig658,236291

> <s_m_subgroup_title>
dock_pv

> <s_m_subgroupid>
dock_pv

> <b_m_subgroup_collapsed>
0

$$$$
CHEMBL220_lig670
                    3D
 Schrodinger Suite 2021-1.
 54 57  0  0  1  0            999 V2000
   -0.3901   66.5080   68.5083 C   0  0  0  0  0  0
    4.7684   68.7665   64.0418 N   0  0  1  0  0  0
   -0.6680   68.0682   66.6916 C   0  0  0  0  0  0
   -1.1102   66.9489   67.4043 C   0  0  0  0  0  0
   -1.4374   68.5086   65.5039 C   0  0  0  0  0  0
    0.7436   67.2064   68.9420 C   0  0  0  0  0  0
   -0.8567   65.3942   69.1680 O   0  0  0  0  0  0
    1.5410   66.7429   69.9680 O   0  0  0  0  0  0
    0.4263   68.8021   67.1680 C   0  0  0  0  0  0
   -2.6675   68.5491   65.5088 O   0  0  0  0  0  0
    1.1430   68.3635   68.2807 C   0  0  0  0  0  0
   -0.7073   68.6672   64.1476 C   0  0  0  0  0  0
    5.9430   69.3556   64.6884 C   0  0  0  0  0  0
    4.2708   67.5898   64.7680 C   0  0  0  0  0  0
    3.8156   69.7689   63.5278 C   0  0  0  0  0  0
    0.4813   67.7079   63.8469 C   0  0  0  0  0  0
    5.8090   69.8434   66.1414 C   0  0  0  0  0  0
    1.9104   68.2168   64.1431 C   0  0  0  0  0  0
    2.9519   67.0803   64.2054 C   0  0  0  0  0  0
    2.4584   69.1801   63.0828 C   0  0  0  0  0  0
    0.1270   64.7374   69.9694 C   0  0  0  0  0  0
    0.9045   65.7745   70.8087 C   0  0  0  0  0  0
    4.5822   70.1080   66.7680 C   0  0  0  0  0  0
    6.9907   70.1080   66.8348 C   0  0  0  0  0  0
    6.9544   70.6235   68.1267 C   0  0  0  0  0  0
    4.5443   70.6361   68.0545 C   0  0  0  0  0  0
    5.7328   70.9080   68.7200 C   0  0  0  0  0  0
   -1.9888   66.4031   67.0885 H   0  0  0  0  0  0
    0.7406   69.7080   66.6765 H   0  0  0  0  0  0
    2.0046   68.9128   68.6294 H   0  0  0  0  0  0
   -1.4689   68.4504   63.3975 H   0  0  0  0  0  0
   -0.4533   69.7080   63.9680 H   0  0  0  0  0  0
    6.7429   68.6159   64.6527 H   0  0  0  0  0  0
    6.2827   70.1986   64.0836 H   0  0  0  0  0  0
    4.0932   67.8267   65.8136 H   0  0  0  0  0  0
    5.0403   66.8188   64.7589 H   0  0  0  0  0  0
    3.6156   70.5076   64.2987 H   0  0  0  0  0  0
    4.2967   70.3188   62.7177 H   0  0  0  0  0  0
    0.3430   66.7876   64.4100 H   0  0  0  0  0  0
    0.4147   67.4149   62.8003 H   0  0  0  0  0  0
    1.9083   68.7214   65.1033 H   0  0  0  0  0  0
    2.5877   66.2919   64.8655 H   0  0  0  0  0  0
    3.1430   66.5772   63.2604 H   0  0  0  0  0  0
    2.5216   68.7210   62.0948 H   0  0  0  0  0  0
    1.7505   69.9959   62.9356 H   0  0  0  0  0  0
   -0.3599   64.0028   70.6110 H   0  0  0  0  0  0
    0.8274   64.2024   69.3280 H   0  0  0  0  0  0
    0.2149   66.2841   71.4844 H   0  0  0  0  0  0
    1.6559   65.2686   71.4118 H   0  0  0  0  0  0
    3.6411   69.9259   66.2774 H   0  0  0  0  0  0
    7.9428   69.9058   66.3694 H   0  0  0  0  0  0
    7.8636   70.7994   68.6789 H   0  0  0  0  0  0
    3.5967   70.8439   68.5296 H   0  0  0  0  0  0
    5.7133   71.3074   69.7183 H   0  0  0  0  0  0
  1  4  1  0  0  0
  1  6  2  0  0  0
  1  7  1  0  0  0
  2 13  1  0  0  0
  2 14  1  0  0  0
  2 15  1  0  0  0
  3  4  2  0  0  0
  3  5  1  0  0  0
  3  9  1  0  0  0
  4 28  1  0  0  0
  5 10  2  0  0  0
  5 12  1  0  0  0
  6  8  1  0  0  0
  6 11  1  0  0  0
  7 21  1  0  0  0
  8 22  1  0  0  0
  9 11  2  0  0  0
  9 29  1  0  0  0
 11 30  1  0  0  0
 12 16  1  0  0  0
 12 31  1  0  0  0
 12 32  1  0  0  0
 13 17  1  0  0  0
 13 33  1  0  0  0
 13 34  1  0  0  0
 14 19  1  0  0  0
 14 35  1  0  0  0
 14 36  1  0  0  0
 15 20  1  0  0  0
 15 37  1  0  0  0
 15 38  1  0  0  0
 16 18  1  0  0  0
 16 39  1  0  0  0
 16 40  1  0  0  0
 17 23  1  0  0  0
 17 24  2  0  0  0
 18 19  1  0  0  0
 18 20  1  0  0  0
 18 41  1  0  0  0
 19 42  1  0  0  0
 19 43  1  0  0  0
 20 44  1  0  0  0
 20 45  1  0  0  0
 21 22  1  0  0  0
 21 46  1  0  0  0
 21 47  1  0  0  0
 22 48  1  0  0  0
 22 49  1  0  0  0
 23 26  2  0  0  0
 23 50  1  0  0  0
 24 25  1  0  0  0
 24 51  1  0  0  0
 25 27  2  0  0  0
 25 52  1  0  0  0
 26 27  1  0  0  0
 26 53  1  0  0  0
 27 54  1  0  0  0
M  END
> <s_m_entry_id>
8766

> <s_m_entry_name>
dock_pv.276

> <s_m_Source_Path>
/home/csk/Desktop/cluster/DUD-E-result/aces

> <s_m_Source_File>
dock_pv.maegz

> <i_m_Source_File_Index>
276

> <chembl_id>
CHEMBL557181

> <chembl_pref_name>
None

> <i_lp_mmshare_version>
53161

> <i_f3d_flags>
0

> <r_lp_tautomer_probability>
0.99990000499975

> <s_lp_Force_Field>
OPLS_2005

> <r_lp_Energy>
36.296802

> <b_lp_Chiralities_Consistent>
1

> <s_lp_Variant>
CHEMBL220_lig670-1

> <s_i_glide_gridfile>
glide-grid_1e66

> <i_i_glide_lignum>
790

> <i_i_glide_rotatable_bonds>
6

> <r_i_docking_score>
-7.04946539217483

> <r_i_glide_ligand_efficiency>
-0.26109131082129

> <r_i_glide_ligand_efficiency_sa>
-0.783273931603356

> <r_i_glide_ligand_efficiency_ln>
-1.64099932377826

> <r_i_glide_gscore>
-7.04946539217483

> <r_i_glide_lipo>
-3.78471003626528

> <r_i_glide_hbond>
0

> <r_i_glide_metal>
0

> <r_i_glide_rewards>
-2.14758874324568

> <r_i_glide_evdw>
-37.5369834899902

> <r_i_glide_ecoul>
0.263777077198029

> <r_i_glide_erotb>
0.72011600025594

> <r_i_glide_esite>
0

> <r_i_glide_emodel>
-42.0695382139112

> <r_i_glide_energy>
-37.2732064127922

> <r_i_glide_einternal>
14.3397674560547

> <i_i_glide_confnum>
30

> <i_i_glide_posenum>
269

> <r_i_glide_eff_state_penalty>
0

> <s_user_duplicate_titles>
CHEMBL220_lig670,550318

> <s_m_subgroup_title>
dock_pv

> <s_m_subgroupid>
dock_pv

> <b_m_subgroup_collapsed>
0

$$$$
CHEMBL220_lig1028
                    3D
 Schrodinger Suite 2021-1.
 22 24  0  0  1  0            999 V2000
    4.3398   68.0036   62.3849 C   0  0  0  0  0  0
    5.4516   68.7238   62.8195 C   0  0  0  0  0  0
    5.4753   69.3552   64.0683 C   0  0  0  0  0  0
    3.2051   67.9011   63.1804 C   0  0  0  0  0  0
    3.1969   68.4976   64.4444 C   0  0  0  0  0  0
    4.3361   69.2247   64.8756 C   0  0  0  0  0  0
    4.0482   69.7080   66.1400 N   0  0  0  0  0  0
    2.2349   68.5421   65.4662 C   0  0  0  0  0  0
    2.7805   69.3080   66.5255 C   0  0  0  0  0  0
    2.0296   69.5284   67.6867 C   0  0  0  0  0  0
    0.7809   69.0109   67.8098 N   0  0  0  0  0  0
    0.2627   68.2773   66.7948 C   0  0  0  0  0  0
    0.9397   68.0103   65.6042 C   0  0  0  0  0  0
    4.3430   67.3753   61.1680 O   0  0  0  0  0  0
    6.3195   68.7978   62.1779 H   0  0  0  0  0  0
    6.3427   69.9136   64.3904 H   0  0  0  0  0  0
    2.3430   67.3666   62.8291 H   0  0  0  0  0  0
    4.6688   70.2779   66.6958 H   0  0  0  0  0  0
    2.4007   70.1070   68.5202 H   0  0  0  0  0  0
   -0.7354   67.8943   66.9505 H   0  0  0  0  0  0
    0.4800   67.4208   64.8238 H   0  0  0  0  0  0
    5.0392   67.7080   60.5644 H   0  0  0  0  0  0
  1  2  2  0  0  0
  1  4  1  0  0  0
  1 14  1  0  0  0
  2  3  1  0  0  0
  2 15  1  0  0  0
  3  6  2  0  0  0
  3 16  1  0  0  0
  4  5  2  0  0  0
  4 17  1  0  0  0
  5  8  1  0  0  0
  5  6  1  0  0  0
  6  7  1  0  0  0
  7  9  1  0  0  0
  7 18  1  0  0  0
  8  9  2  0  0  0
  8 13  1  0  0  0
  9 10  1  0  0  0
 10 11  2  0  0  0
 10 19  1  0  0  0
 11 12  1  0  0  0
 12 13  2  0  0  0
 12 20  1  0  0  0
 13 21  1  0  0  0
 14 22  1  0  0  0
M  END
> <s_m_entry_id>
8767

> <s_m_entry_name>
dock_pv.277

> <s_m_Source_Path>
/home/csk/Desktop/cluster/DUD-E-result/aces

> <s_m_Source_File>
dock_pv.maegz

> <i_m_Source_File_Index>
277

> <chembl_id>
CHEMBL376011

> <chembl_pref_name>
None

> <i_lp_mmshare_version>
53161

> <i_f3d_flags>
0

> <r_lp_tautomer_probability>
1

> <s_lp_Force_Field>
OPLS_2005

> <r_lp_Energy>
9.402976

> <b_lp_Chiralities_Consistent>
1

> <s_lp_Variant>
CHEMBL220_lig1028-1

> <s_i_glide_gridfile>
glide-grid_1e66

> <i_i_glide_lignum>
1427

> <i_i_glide_rotatable_bonds>
1

> <r_i_docking_score>
-7.04657072411554

> <r_i_glide_ligand_efficiency>
-0.503326480293967

> <r_i_glide_ligand_efficiency_sa>
-1.21308842176791

> <r_i_glide_ligand_efficiency_ln>
-1.93637255087172

> <r_i_glide_gscore>
-7.04657072411554

> <r_i_glide_lipo>
-1.98255266950359

> <r_i_glide_hbond>
-0.16

> <r_i_glide_metal>
0

> <r_i_glide_rewards>
-2.24358161509779

> <r_i_glide_evdw>
-23.5246315002441

> <r_i_glide_ecoul>
-9.89469909667969

> <r_i_glide_erotb>
0

> <r_i_glide_esite>
0

> <r_i_glide_emodel>
-48.1656568083719

> <r_i_glide_energy>
-33.4193305969238

> <r_i_glide_einternal>
1.54433584213257

> <i_i_glide_confnum>
1

> <i_i_glide_posenum>
330

> <r_i_glide_eff_state_penalty>
0

> <s_user_duplicate_titles>
CHEMBL220_lig1028

> <s_m_subgroup_title>
dock_pv

> <s_m_subgroupid>
dock_pv

> <b_m_subgroup_collapsed>
0

$$$$
CHEMBL220_lig218
                    3D
 Schrodinger Suite 2021-1.
 36 38  0  0  1  0            999 V2000
    2.3095   67.7287   64.9428 C   0  0  1  0  0  0
    1.6285   68.3887   63.7238 C   0  0  0  0  0  0
    3.3633   66.7513   64.3686 C   0  0  0  0  0  0
    2.2856   68.6084   62.5451 C   0  0  0  0  0  0
    4.4007   67.5060   63.5110 C   0  0  2  0  0  0
    1.6793   69.1832   61.4596 N   0  0  0  0  0  0
    0.2101   68.7675   63.7175 C   0  0  0  0  0  0
    3.3445   65.4119   64.5687 C   0  0  0  0  0  0
    4.2928   64.3773   64.0173 C   0  0  0  0  0  0
    5.0586   68.5530   64.3960 C   0  0  0  0  0  0
    3.7279   68.1746   62.2925 C   0  0  0  0  0  0
    0.3878   69.5777   61.4145 C   0  0  0  0  0  0
    3.0131   68.8102   65.8278 C   0  0  0  0  0  0
    4.4657   69.1231   65.4605 C   0  0  0  0  0  0
   -0.3605   69.3122   62.6261 C   0  0  0  0  0  0
    1.2963   67.0601   65.7531 N   0  0  0  0  0  0
   -0.0663   70.1087   60.4121 O   0  0  0  0  0  0
    4.2126   63.2735   64.7501 F   0  0  0  0  0  0
    5.5430   64.8091   64.0224 F   0  0  0  0  0  0
    3.9516   64.1087   62.7682 F   0  0  0  0  0  0
    5.2024   70.1099   66.3424 C   0  0  0  0  0  0
    5.1906   66.8627   63.1360 H   0  0  0  0  0  0
   -0.3993   68.6169   64.5987 H   0  0  0  0  0  0
    2.5547   64.9824   65.1643 H   0  0  0  0  0  0
    6.0755   68.8448   64.1691 H   0  0  0  0  0  0
    4.3163   69.0194   61.9271 H   0  0  0  0  0  0
    3.7268   67.4874   61.4448 H   0  0  0  0  0  0
    3.0210   68.5084   66.8720 H   0  0  0  0  0  0
    2.4331   69.7326   65.8478 H   0  0  0  0  0  0
   -1.4018   69.5949   62.6506 H   0  0  0  0  0  0
    0.8087   66.3585   65.2146 H   0  0  0  0  0  0
    1.7077   66.6051   66.5536 H   0  0  0  0  0  0
    2.1762   69.3493   60.5999 H   0  0  0  0  0  0
    4.5356   70.9087   66.6468 H   0  0  0  0  0  0
    5.5460   69.6051   67.2459 H   0  0  0  0  0  0
    6.0721   70.5421   65.8455 H   0  0  0  0  0  0
  1  3  1  0  0  0
  1 13  1  0  0  0
  1 16  1  0  0  0
  1  2  1  0  0  0
  2  4  2  0  0  0
  2  7  1  0  0  0
  3  5  1  0  0  0
  3  8  2  0  0  0
  4  6  1  0  0  0
  4 11  1  0  0  0
  5 11  1  0  0  0
  5 10  1  0  0  0
  5 22  1  0  0  0
  6 12  1  0  0  0
  6 33  1  0  0  0
  7 23  1  0  0  0
  7 15  2  0  0  0
  8  9  1  0  0  0
  8 24  1  0  0  0
  9 18  1  0  0  0
  9 19  1  0  0  0
  9 20  1  0  0  0
 10 14  2  0  0  0
 10 25  1  0  0  0
 11 26  1  0  0  0
 11 27  1  0  0  0
 12 17  2  0  0  0
 12 15  1  0  0  0
 13 14  1  0  0  0
 13 28  1  0  0  0
 13 29  1  0  0  0
 14 21  1  0  0  0
 15 30  1  0  0  0
 16 31  1  0  0  0
 16 32  1  0  0  0
 21 34  1  0  0  0
 21 35  1  0  0  0
 21 36  1  0  0  0
M  END
> <s_m_entry_id>
8768

> <s_m_entry_name>
dock_pv.278

> <s_m_Source_Path>
/home/csk/Desktop/cluster/DUD-E-result/aces

> <s_m_Source_File>
dock_pv.maegz

> <i_m_Source_File_Index>
278

> <chembl_id>
CHEMBL435373

> <chembl_pref_name>
None

> <i_lp_mmshare_version>
53161

> <i_f3d_flags>
0

> <r_lp_tautomer_probability>
0.999

> <s_lp_Force_Field>
OPLS_2005

> <r_lp_Energy>
20.535763

> <b_lp_Chiralities_Consistent>
1

> <s_lp_Variant>
CHEMBL220_lig218-2

> <s_i_glide_gridfile>
glide-grid_1e66

> <i_i_glide_lignum>
243

> <i_i_glide_rotatable_bonds>
1

> <r_i_docking_score>
-7.03912778716963

> <r_i_glide_ligand_efficiency>
-0.335196561293792

> <r_i_glide_ligand_efficiency_sa>
-0.924781895854752

> <r_i_glide_ligand_efficiency_ln>
-1.7404101214807

> <r_i_glide_gscore>
-7.03912778716963

> <r_i_glide_lipo>
-3.37639390022729

> <r_i_glide_hbond>
-0.091292787449327

> <r_i_glide_metal>
0

> <r_i_glide_rewards>
-1.83894812045454

> <r_i_glide_evdw>
-28.5920276641846

> <r_i_glide_ecoul>
-2.96698832511902

> <r_i_glide_erotb>
0.2086613927855

> <r_i_glide_esite>
-0.0665047398468877

> <r_i_glide_emodel>
-41.6825633331345

> <r_i_glide_energy>
-31.5590159893036

> <r_i_glide_einternal>
1.62518131732941

> <i_i_glide_confnum>
1

> <i_i_glide_posenum>
23

> <r_i_glide_eff_state_penalty>
0

> <s_user_duplicate_titles>
CHEMBL220_lig218

> <s_m_subgroup_title>
dock_pv

> <s_m_subgroupid>
dock_pv

> <b_m_subgroup_collapsed>
0

$$$$
CHEMBL220_lig646
                    3D
 Schrodinger Suite 2021-1.
 40 43  0  0  1  0            999 V2000
    3.2871   69.1117   65.6214 N   0  0  0  0  0  0
    2.0384   69.0059   66.1084 C   0  0  0  0  0  0
    0.9634   68.4351   65.3893 C   0  0  0  0  0  0
    1.1626   68.2295   64.0100 C   0  0  0  0  0  0
    2.4459   68.4767   63.4399 C   0  0  0  0  0  0
    2.7471   68.3494   62.0577 C   0  0  0  0  0  0
    4.0551   68.5006   61.6179 C   0  0  0  0  0  0
    5.0750   68.8050   62.5113 C   0  0  0  0  0  0
    4.8106   69.0058   63.8505 C   0  0  0  0  0  0
    3.4983   68.8547   64.3220 C   0  0  0  0  0  0
   -0.3791   68.1764   66.1139 C   0  0  1  0  0  0
   -0.4376   66.8220   66.8961 C   0  0  0  0  0  0
    0.2528   66.8904   68.2782 C   0  0  0  0  0  0
    0.6614   68.0709   68.7680 C   0  0  0  0  0  0
    0.4923   69.4016   68.0684 C   0  0  1  0  0  0
    1.8461   69.7081   67.4387 C   0  0  0  0  0  0
   -0.6936   69.3117   67.0846 C   0  0  0  0  0  0
    0.3477   65.6285   69.1350 C   0  0  0  0  0  0
    0.0993   67.8193   63.1992 N   0  0  0  0  0  0
    6.3430   68.9054   62.0910 F   0  0  0  0  0  0
    0.3450   65.8113   70.6656 C   0  0  0  0  0  0
    1.9695   68.1079   61.3493 H   0  0  0  0  0  0
    4.3011   68.3688   60.5778 H   0  0  0  0  0  0
    5.6064   69.2798   64.5291 H   0  0  0  0  0  0
   -1.1713   68.1531   65.3654 H   0  0  0  0  0  0
   -0.0569   66.0034   66.2919 H   0  0  0  0  0  0
   -1.4786   66.5717   67.1045 H   0  0  0  0  0  0
    1.1362   68.1066   69.7369 H   0  0  0  0  0  0
    0.2499   70.1939   68.7680 H   0  0  0  0  0  0
    1.9430   70.7770   67.2817 H   0  0  0  0  0  0
    2.6648   69.4665   68.1209 H   0  0  0  0  0  0
   -1.6276   69.1222   67.6171 H   0  0  0  0  0  0
   -0.8575   70.2413   66.5473 H   0  0  0  0  0  0
    1.2784   65.1344   68.8642 H   0  0  0  0  0  0
   -0.4668   64.9595   68.8602 H   0  0  0  0  0  0
    0.2740   67.7079   62.2126 H   0  0  0  0  0  0
   -0.6202   67.2398   63.6309 H   0  0  0  0  0  0
    0.2166   64.8544   71.1721 H   0  0  0  0  0  0
   -0.4558   66.4757   70.9916 H   0  0  0  0  0  0
    1.2870   66.2331   71.0141 H   0  0  0  0  0  0
  1 10  1  0  0  0
  1  2  2  0  0  0
  2  3  1  0  0  0
  2 16  1  0  0  0
  3  4  2  0  0  0
  3 11  1  0  0  0
  4  5  1  0  0  0
  4 19  1  0  0  0
  5  6  2  0  0  0
  5 10  1  0  0  0
  6  7  1  0  0  0
  6 22  1  0  0  0
  7  8  2  0  0  0
  7 23  1  0  0  0
  8  9  1  0  0  0
  8 20  1  0  0  0
  9 10  2  0  0  0
  9 24  1  0  0  0
 11 12  1  0  0  0
 11 17  1  0  0  0
 11 25  1  0  0  0
 12 13  1  0  0  0
 12 26  1  0  0  0
 12 27  1  0  0  0
 13 14  2  0  0  0
 13 18  1  0  0  0
 14 15  1  0  0  0
 14 28  1  0  0  0
 15 16  1  0  0  0
 15 17  1  0  0  0
 15 29  1  0  0  0
 16 30  1  0  0  0
 16 31  1  0  0  0
 17 32  1  0  0  0
 17 33  1  0  0  0
 18 21  1  0  0  0
 18 34  1  0  0  0
 18 35  1  0  0  0
 19 36  1  0  0  0
 19 37  1  0  0  0
 21 38  1  0  0  0
 21 39  1  0  0  0
 21 40  1  0  0  0
M  END
> <s_m_entry_id>
8769

> <s_m_entry_name>
dock_pv.279

> <s_m_Source_Path>
/home/csk/Desktop/cluster/DUD-E-result/aces

> <s_m_Source_File>
dock_pv.maegz

> <i_m_Source_File_Index>
279

> <chembl_id>
CHEMBL341658

> <chembl_pref_name>
None

> <i_lp_mmshare_version>
53161

> <i_f3d_flags>
0

> <r_lp_tautomer_probability>
1

> <s_lp_Force_Field>
OPLS_2005

> <r_lp_Energy>
22.146975

> <b_lp_Chiralities_Consistent>
1

> <s_lp_Variant>
CHEMBL220_lig646-1

> <s_i_glide_gridfile>
glide-grid_1e66

> <i_i_glide_lignum>
752

> <i_i_glide_rotatable_bonds>
1

> <r_i_docking_score>
-7.03895310981556

> <r_i_glide_ligand_efficiency>
-0.33518824332455

> <r_i_glide_ligand_efficiency_sa>
-0.924758947208336

> <r_i_glide_ligand_efficiency_ln>
-1.74036693285787

> <r_i_glide_gscore>
-7.03895310981556

> <r_i_glide_lipo>
-2.97024504394267

> <r_i_glide_hbond>
-0.32

> <r_i_glide_metal>
0

> <r_i_glide_rewards>
-1.84850714543518

> <r_i_glide_evdw>
-22.7420043945312

> <r_i_glide_ecoul>
-4.73889970779419

> <r_i_glide_erotb>
0

> <r_i_glide_esite>
-0.0522657445420111

> <r_i_glide_emodel>
-28.3494363439358

> <r_i_glide_energy>
-27.4809041023254

> <r_i_glide_einternal>
1.24483942985535

> <i_i_glide_confnum>
1

> <i_i_glide_posenum>
170

> <r_i_glide_eff_state_penalty>
0

> <s_user_duplicate_titles>
CHEMBL220_lig646

> <s_m_subgroup_title>
dock_pv

> <s_m_subgroupid>
dock_pv

> <b_m_subgroup_collapsed>
0

$$$$
CHEMBL220_lig554
                    3D
 Schrodinger Suite 2021-1.
 50 53  0  0  1  0            999 V2000
    4.1749   62.0775   71.6505 C   0  0  0  0  0  0
    3.6193   61.4633   72.7727 C   0  0  0  0  0  0
    2.3388   61.7958   73.2215 C   0  0  0  0  0  0
    1.5588   62.7533   72.5641 C   0  0  0  0  0  0
    3.3837   63.0264   70.9963 C   0  0  0  0  0  0
    2.0928   63.3808   71.4237 C   0  0  0  0  0  0
    1.6914   64.3602   70.4632 C   0  0  0  0  0  0
    2.6342   64.5627   69.5666 N   0  0  0  0  0  0
    3.7187   63.7362   69.8844 O   0  0  0  0  0  0
    0.4212   67.0854   69.0539 C   0  0  0  0  0  0
   -0.2813   67.8059   67.8699 C   0  0  0  0  0  0
    0.1358   69.2881   67.7863 C   0  0  0  0  0  0
    1.6017   69.4417   67.3287 C   0  0  0  0  0  0
    1.7926   68.8123   66.0128 N   0  0  2  0  0  0
    1.4219   67.3866   65.9859 C   0  0  0  0  0  0
   -0.0215   67.1800   66.4821 C   0  0  0  0  0  0
    3.1263   69.0782   65.4671 C   0  0  0  0  0  0
    3.2363   68.9953   63.9412 C   0  0  0  0  0  0
    2.1119   68.9162   63.1026 C   0  0  0  0  0  0
    2.2685   68.9085   61.7202 C   0  0  0  0  0  0
    3.5421   69.0079   61.1695 C   0  0  0  0  0  0
    4.6616   69.1371   61.9892 C   0  0  0  0  0  0
    4.5064   69.1221   63.3725 C   0  0  0  0  0  0
   -0.1667   65.7048   69.3749 C   0  0  0  0  0  0
    0.4786   65.0063   70.4830 N   0  0  0  0  0  0
    5.1666   61.8285   71.3014 H   0  0  0  0  0  0
    4.1883   60.7224   73.3123 H   0  0  0  0  0  0
    1.9446   61.3059   74.1019 H   0  0  0  0  0  0
    0.5714   63.0018   72.9253 H   0  0  0  0  0  0
    0.3462   67.7045   69.9492 H   0  0  0  0  0  0
    1.4896   66.9947   68.8592 H   0  0  0  0  0  0
   -1.3649   67.7868   67.9989 H   0  0  0  0  0  0
   -0.5213   69.8470   67.1201 H   0  0  0  0  0  0
    0.0156   69.7575   68.7641 H   0  0  0  0  0  0
    1.8415   70.5046   67.2641 H   0  0  0  0  0  0
    2.3014   69.0191   68.0509 H   0  0  0  0  0  0
    1.5051   67.0098   64.9663 H   0  0  0  0  0  0
    2.1216   66.7932   66.5702 H   0  0  0  0  0  0
   -0.2266   66.1112   66.5082 H   0  0  0  0  0  0
   -0.7163   67.5742   65.7389 H   0  0  0  0  0  0
    3.3977   70.1064   65.7180 H   0  0  0  0  0  0
    3.8731   68.4351   65.9357 H   0  0  0  0  0  0
    1.1167   68.8616   63.5174 H   0  0  0  0  0  0
    1.4030   68.8289   61.0764 H   0  0  0  0  0  0
    3.6745   68.9943   60.0979 H   0  0  0  0  0  0
    5.6484   69.2459   61.5680 H   0  0  0  0  0  0
    5.3775   69.2305   64.0023 H   0  0  0  0  0  0
   -0.1333   65.0776   68.4924 H   0  0  0  0  0  0
   -1.2352   65.8158   69.5674 H   0  0  0  0  0  0
   -0.0535   65.0422   71.3380 H   0  0  0  0  0  0
  1  2  2  0  0  0
  1  5  1  0  0  0
  1 26  1  0  0  0
  2  3  1  0  0  0
  2 27  1  0  0  0
  3  4  2  0  0  0
  3 28  1  0  0  0
  4  6  1  0  0  0
  4 29  1  0  0  0
  5  9  1  0  0  0
  5  6  2  0  0  0
  6  7  1  0  0  0
  7  8  2  0  0  0
  7 25  1  0  0  0
  8  9  1  0  0  0
 10 11  1  0  0  0
 10 24  1  0  0  0
 10 30  1  0  0  0
 10 31  1  0  0  0
 11 16  1  0  0  0
 11 12  1  0  0  0
 11 32  1  0  0  0
 12 13  1  0  0  0
 12 33  1  0  0  0
 12 34  1  0  0  0
 13 14  1  0  0  0
 13 35  1  0  0  0
 13 36  1  0  0  0
 14 15  1  0  0  0
 14 17  1  0  0  0
 15 16  1  0  0  0
 15 37  1  0  0  0
 15 38  1  0  0  0
 16 39  1  0  0  0
 16 40  1  0  0  0
 17 18  1  0  0  0
 17 41  1  0  0  0
 17 42  1  0  0  0
 18 19  2  0  0  0
 18 23  1  0  0  0
 19 20  1  0  0  0
 19 43  1  0  0  0
 20 21  2  0  0  0
 20 44  1  0  0  0
 21 22  1  0  0  0
 21 45  1  0  0  0
 22 23  2  0  0  0
 22 46  1  0  0  0
 23 47  1  0  0  0
 24 25  1  0  0  0
 24 48  1  0  0  0
 24 49  1  0  0  0
 25 50  1  0  0  0
M  END
> <s_m_entry_id>
8770

> <s_m_entry_name>
dock_pv.280

> <s_m_Source_Path>
/home/csk/Desktop/cluster/DUD-E-result/aces

> <s_m_Source_File>
dock_pv.maegz

> <i_m_Source_File_Index>
280

> <chembl_id>
CHEMBL328715

> <chembl_pref_name>
None

> <i_lp_mmshare_version>
53161

> <i_f3d_flags>
0

> <r_lp_tautomer_probability>
1

> <s_lp_Force_Field>
OPLS_2005

> <r_lp_Energy>
32.466763

> <b_lp_Chiralities_Consistent>
1

> <s_lp_Variant>
CHEMBL220_lig554-1

> <s_i_glide_gridfile>
glide-grid_1e66

> <i_i_glide_lignum>
639

> <i_i_glide_rotatable_bonds>
6

> <r_i_docking_score>
-7.03604144452871

> <r_i_glide_ligand_efficiency>
-0.281441657781148

> <r_i_glide_ligand_efficiency_sa>
-0.822940398741132

> <r_i_glide_ligand_efficiency_ln>
-1.66775267550059

> <r_i_glide_gscore>
-7.03604144452871

> <r_i_glide_lipo>
-3.7075318265787

> <r_i_glide_hbond>
0

> <r_i_glide_metal>
0

> <r_i_glide_rewards>
-1.97866056539292

> <r_i_glide_evdw>
-39.5451583862305

> <r_i_glide_ecoul>
-1.40835118293762

> <r_i_glide_erotb>
0.838661544195077

> <r_i_glide_esite>
0

> <r_i_glide_emodel>
-53.1886832819069

> <r_i_glide_energy>
-40.9535095691681

> <r_i_glide_einternal>
9.44236850738525

> <i_i_glide_confnum>
59

> <i_i_glide_posenum>
378

> <r_i_glide_eff_state_penalty>
0

> <s_user_duplicate_titles>
CHEMBL220_lig554,150209

> <s_m_subgroup_title>
dock_pv

> <s_m_subgroupid>
dock_pv

> <b_m_subgroup_collapsed>
0

$$$$
CHEMBL220_lig197
                    3D
 Schrodinger Suite 2021-1.
 50 52  0  0  1  0            999 V2000
    2.2199   66.6453   65.1690 N   0  0  0  0  0  0
    1.3115   67.3273   64.9434 C   0  0  0  0  0  0
    0.1665   68.1082   64.6102 C   0  0  0  0  0  0
   -0.9096   68.2650   65.4167 C   0  0  0  0  0  0
   -2.0893   68.9078   65.0710 N   0  0  0  0  0  0
   -3.0222   68.9222   66.1676 C   0  0  0  0  0  0
   -2.6101   67.6572   66.8630 C   0  0  0  0  0  0
   -1.1793   67.7871   66.7008 N   0  0  0  0  0  0
   -0.2778   67.0600   67.5877 C   0  0  0  0  0  0
    0.5784   67.9911   68.4582 C   0  0  0  0  0  0
    1.5457   68.7288   67.6682 N   0  0  2  0  0  0
    2.2199   69.7275   68.4904 C   0  0  0  0  0  0
    3.5879   70.1090   67.9635 C   0  0  0  0  0  0
    3.9533   69.7076   66.7137 O   0  0  0  0  0  0
    5.2252   70.1407   66.4835 C   0  0  0  0  0  0
    5.9058   69.7500   65.1851 C   0  0  0  0  0  0
    5.0002   69.1515   64.1926 N   0  0  2  0  0  0
    5.5429   67.9055   63.6613 C   0  0  0  0  0  0
    4.6087   67.1651   62.6613 C   0  0  0  0  0  0
    3.7823   68.1286   61.8241 C   0  0  0  0  0  0
    3.8186   69.4549   62.0216 C   0  0  0  0  0  0
    4.6801   70.0795   63.1078 C   0  0  0  0  0  0
    5.6678   70.8450   67.5925 C   0  0  0  0  0  0
    4.6218   70.8514   68.5124 C   0  0  0  0  0  0
    0.2022   68.7035   63.3158 C   0  0  0  0  0  0
    0.2171   69.2157   62.2785 N   0  0  0  0  0  0
   -2.0560   69.7924   64.5603 H   0  0  0  0  0  0
   -4.0620   68.9068   65.8392 H   0  0  0  0  0  0
   -2.8480   69.8109   66.7682 H   0  0  0  0  0  0
   -2.9236   67.6434   67.9081 H   0  0  0  0  0  0
   -2.9860   66.7599   66.3696 H   0  0  0  0  0  0
   -0.8778   66.4385   68.2529 H   0  0  0  0  0  0
    0.3393   66.3578   67.0317 H   0  0  0  0  0  0
   -0.0567   68.7092   68.9657 H   0  0  0  0  0  0
    1.0984   67.4051   69.2188 H   0  0  0  0  0  0
    1.0730   69.1938   66.9051 H   0  0  0  0  0  0
    1.5843   70.6098   68.5829 H   0  0  0  0  0  0
    2.3426   69.3500   69.5074 H   0  0  0  0  0  0
    6.3996   70.6285   64.7673 H   0  0  0  0  0  0
    6.7162   69.0638   65.4391 H   0  0  0  0  0  0
    6.5161   68.1083   63.2077 H   0  0  0  0  0  0
    5.7070   67.2647   64.5255 H   0  0  0  0  0  0
    5.2078   66.5348   62.0053 H   0  0  0  0  0  0
    3.9385   66.4974   63.1973 H   0  0  0  0  0  0
    3.1494   67.7450   61.0385 H   0  0  0  0  0  0
    3.2241   70.0911   61.3843 H   0  0  0  0  0  0
    4.1375   70.9077   63.5458 H   0  0  0  0  0  0
    5.5669   70.4894   62.6220 H   0  0  0  0  0  0
    6.6396   71.2962   67.7211 H   0  0  0  0  0  0
    4.6189   71.3063   69.4896 H   0  0  0  0  0  0
  1  2  3  0  0  0
  2  3  1  0  0  0
  3  4  2  0  0  0
  3 25  1  0  0  0
  4  5  1  0  0  0
  4  8  1  0  0  0
  5  6  1  0  0  0
  5 27  1  0  0  0
  6  7  1  0  0  0
  6 28  1  0  0  0
  6 29  1  0  0  0
  7  8  1  0  0  0
  7 30  1  0  0  0
  7 31  1  0  0  0
  8  9  1  0  0  0
  9 10  1  0  0  0
  9 32  1  0  0  0
  9 33  1  0  0  0
 10 11  1  0  0  0
 10 34  1  0  0  0
 10 35  1  0  0  0
 11 12  1  0  0  0
 11 36  1  0  0  0
 12 13  1  0  0  0
 12 37  1  0  0  0
 12 38  1  0  0  0
 13 14  1  0  0  0
 13 24  2  0  0  0
 14 15  1  0  0  0
 15 16  1  0  0  0
 15 23  2  0  0  0
 16 17  1  0  0  0
 16 39  1  0  0  0
 16 40  1  0  0  0
 17 18  1  0  0  0
 17 22  1  0  0  0
 18 19  1  0  0  0
 18 41  1  0  0  0
 18 42  1  0  0  0
 19 20  1  0  0  0
 19 43  1  0  0  0
 19 44  1  0  0  0
 20 21  2  0  0  0
 20 45  1  0  0  0
 21 22  1  0  0  0
 21 46  1  0  0  0
 22 47  1  0  0  0
 22 48  1  0  0  0
 23 24  1  0  0  0
 23 49  1  0  0  0
 24 50  1  0  0  0
 25 26  3  0  0  0
M  END
> <s_m_entry_id>
8771

> <s_m_entry_name>
dock_pv.281

> <s_m_Source_Path>
/home/csk/Desktop/cluster/DUD-E-result/aces

> <s_m_Source_File>
dock_pv.maegz

> <i_m_Source_File_Index>
281

> <chembl_id>
CHEMBL1203534

> <chembl_pref_name>
None

> <i_lp_mmshare_version>
53161

> <i_f3d_flags>
0

> <r_lp_tautomer_probability>
0.5

> <s_lp_Force_Field>
OPLS_2005

> <r_lp_Energy>
47.951744

> <b_lp_Chiralities_Consistent>
1

> <s_lp_Variant>
CHEMBL220_lig197-1

> <s_i_glide_gridfile>
glide-grid_1e66

> <i_i_glide_lignum>
214

> <i_i_glide_rotatable_bonds>
7

> <r_i_docking_score>
-7.0358078449957

> <r_i_glide_ligand_efficiency>
-0.270607994038296

> <r_i_glide_ligand_efficiency_sa>
-0.801675117547413

> <r_i_glide_ligand_efficiency_ln>
-1.65233638602869

> <r_i_glide_gscore>
-7.0358078449957

> <r_i_glide_lipo>
-2.91804854520525

> <r_i_glide_hbond>
-0.32

> <r_i_glide_metal>
0

> <r_i_glide_rewards>
-1.89166519034118

> <r_i_glide_evdw>
-41.6924247741699

> <r_i_glide_ecoul>
-5.96357393264771

> <r_i_glide_erotb>
1.07555413642135

> <r_i_glide_esite>
-0.00249091726496832

> <r_i_glide_emodel>
-56.8714235119595

> <r_i_glide_energy>
-47.6559987068176

> <r_i_glide_einternal>
9.44860553741455

> <i_i_glide_confnum>
217

> <i_i_glide_posenum>
343

> <r_i_glide_eff_state_penalty>
0

> <s_user_duplicate_titles>
CHEMBL220_lig197,677485

> <s_m_subgroup_title>
dock_pv

> <s_m_subgroupid>
dock_pv

> <b_m_subgroup_collapsed>
0

$$$$
CHEMBL220_lig953
                    3D
 Schrodinger Suite 2021-1.
 51 53  0  0  1  0            999 V2000
    4.3135   66.7185   62.5037 C   0  0  0  0  0  0
    4.2328   68.0640   63.2220 C   0  0  2  0  0  0
    4.3429   66.9083   61.1681 O   0  0  0  0  0  0
    4.3432   65.6150   63.0470 O   0  0  0  0  0  0
    4.6253   67.9378   64.7160 C   0  0  0  0  0  0
    2.9676   68.9538   62.9433 C   0  0  0  0  0  0
    1.6370   68.2841   62.5595 C   0  0  0  0  0  0
    0.5028   69.2831   62.2899 C   0  0  0  0  0  0
    4.9702   69.2710   65.4652 C   0  0  0  0  0  0
    6.3548   71.3167   65.2053 C   0  0  0  0  0  0
    6.8828   70.5113   66.3709 C   0  0  0  0  0  0
    6.2949   69.1276   66.2320 C   0  0  0  0  0  0
    5.3562   70.4226   64.5094 C   0  0  0  0  0  0
    3.8513   69.6450   66.4775 C   0  0  0  0  0  0
    3.9573   70.3791   67.5671 N   0  0  0  0  0  0
    2.8423   70.1082   68.3549 N   0  0  0  0  0  0
    2.1665   69.1959   67.7077 C   0  0  0  0  0  0
    2.7050   68.9064   66.4957 O   0  0  0  0  0  0
    1.1377   68.2406   68.2893 C   0  0  0  0  0  0
   -0.1949   68.1778   67.5702 C   0  0  0  0  0  0
   -0.8399   66.9516   67.3880 C   0  0  0  0  0  0
   -2.0938   66.9152   66.7858 C   0  0  0  0  0  0
   -2.6804   68.0936   66.3344 C   0  0  0  0  0  0
   -2.0271   69.3051   66.5005 C   0  0  0  0  0  0
   -0.8172   69.3532   67.1689 C   0  0  0  0  0  0
    5.0615   68.5579   62.7230 H   0  0  0  0  0  0
    4.5804   67.8014   60.8937 H   0  0  0  0  0  0
    3.8685   67.3480   65.2323 H   0  0  0  0  0  0
    5.5020   67.2907   64.7659 H   0  0  0  0  0  0
    3.2228   69.6654   62.1555 H   0  0  0  0  0  0
    2.7600   69.5790   63.8119 H   0  0  0  0  0  0
    1.3288   67.6070   63.3565 H   0  0  0  0  0  0
    1.7718   67.7089   61.6482 H   0  0  0  0  0  0
   -0.4146   68.7558   62.0254 H   0  0  0  0  0  0
    0.7481   69.9522   61.4645 H   0  0  0  0  0  0
    0.2825   69.8945   63.1629 H   0  0  0  0  0  0
    5.9432   72.2270   65.5973 H   0  0  0  0  0  0
    7.1447   71.6377   64.5175 H   0  0  0  0  0  0
    6.6318   70.9599   67.3344 H   0  0  0  0  0  0
    7.9429   70.4590   66.2855 H   0  0  0  0  0  0
    6.1420   68.7155   67.2117 H   0  0  0  0  0  0
    7.0182   68.5063   65.7002 H   0  0  0  0  0  0
    5.9500   70.0560   63.6763 H   0  0  0  0  0  0
    4.5029   70.9081   64.0581 H   0  0  0  0  0  0
    1.5433   67.2324   68.3291 H   0  0  0  0  0  0
    0.9312   68.5071   69.3208 H   0  0  0  0  0  0
   -0.3843   66.0358   67.7316 H   0  0  0  0  0  0
   -2.6155   65.9786   66.6683 H   0  0  0  0  0  0
   -3.6487   68.0662   65.8569 H   0  0  0  0  0  0
   -2.4570   70.2173   66.1477 H   0  0  0  0  0  0
   -0.3723   70.3061   67.3932 H   0  0  0  0  0  0
  1  4  2  0  0  0
  1  3  1  0  0  0
  1  2  1  0  0  0
  2  5  1  0  0  0
  2  6  1  0  0  0
  2 26  1  0  0  0
  3 27  1  0  0  0
  5  9  1  0  0  0
  5 28  1  0  0  0
  5 29  1  0  0  0
  6  7  1  0  0  0
  6 30  1  0  0  0
  6 31  1  0  0  0
  7  8  1  0  0  0
  7 32  1  0  0  0
  7 33  1  0  0  0
  8 34  1  0  0  0
  8 35  1  0  0  0
  8 36  1  0  0  0
  9 14  1  0  0  0
  9 12  1  0  0  0
  9 13  1  0  0  0
 10 11  1  0  0  0
 10 13  1  0  0  0
 10 37  1  0  0  0
 10 38  1  0  0  0
 11 12  1  0  0  0
 11 39  1  0  0  0
 11 40  1  0  0  0
 12 41  1  0  0  0
 12 42  1  0  0  0
 13 43  1  0  0  0
 13 44  1  0  0  0
 14 15  2  0  0  0
 14 18  1  0  0  0
 15 16  1  0  0  0
 16 17  2  0  0  0
 17 18  1  0  0  0
 17 19  1  0  0  0
 19 20  1  0  0  0
 19 45  1  0  0  0
 19 46  1  0  0  0
 20 21  2  0  0  0
 20 25  1  0  0  0
 21 22  1  0  0  0
 21 47  1  0  0  0
 22 23  2  0  0  0
 22 48  1  0  0  0
 23 24  1  0  0  0
 23 49  1  0  0  0
 24 25  2  0  0  0
 24 50  1  0  0  0
 25 51  1  0  0  0
M  END
> <s_m_entry_id>
8772

> <s_m_entry_name>
dock_pv.282

> <s_m_Source_Path>
/home/csk/Desktop/cluster/DUD-E-result/aces

> <s_m_Source_File>
dock_pv.maegz

> <i_m_Source_File_Index>
282

> <chembl_id>
CHEMBL379950

> <chembl_pref_name>
None

> <i_lp_mmshare_version>
53161

> <i_f3d_flags>
0

> <r_lp_tautomer_probability>
1

> <s_lp_Force_Field>
OPLS_2005

> <r_lp_Energy>
30.475577

> <b_lp_Chiralities_Consistent>
1

> <s_lp_Variant>
CHEMBL220_lig953-1

> <s_i_glide_gridfile>
glide-grid_1e66

> <i_i_glide_lignum>
1289

> <i_i_glide_rotatable_bonds>
9

> <r_i_docking_score>
-7.03167999234957

> <r_i_glide_ligand_efficiency>
-0.281267199693983

> <r_i_glide_ligand_efficiency_sa>
-0.822430280200233

> <r_i_glide_ligand_efficiency_ln>
-1.66671888063196

> <r_i_glide_gscore>
-7.03167999234957

> <r_i_glide_lipo>
-4.14069326744152

> <r_i_glide_hbond>
-0.183241167939984

> <r_i_glide_metal>
0

> <r_i_glide_rewards>
-1.17958068998918

> <r_i_glide_evdw>
-28.3391857147217

> <r_i_glide_ecoul>
-7.88421058654785

> <r_i_glide_erotb>
1.13199148786617

> <r_i_glide_esite>
-0.0605654811267839

> <r_i_glide_emodel>
-39.8933363518736

> <r_i_glide_energy>
-36.2233963012695

> <r_i_glide_einternal>
13.0578947067261

> <i_i_glide_confnum>
14

> <i_i_glide_posenum>
202

> <r_i_glide_eff_state_penalty>
0

> <s_user_duplicate_titles>
CHEMBL220_lig953

> <s_m_subgroup_title>
dock_pv

> <s_m_subgroupid>
dock_pv

> <b_m_subgroup_collapsed>
0

$$$$
CHEMBL220_lig416
                    3D
 Schrodinger Suite 2021-1.
 49 52  0  0  1  0            999 V2000
    2.5762   69.3027   66.0133 N   0  0  0  0  0  0
    3.8180   69.6848   65.6781 N   0  0  0  0  0  0
    2.0185   68.7391   64.9670 C   0  0  0  0  0  0
    2.8977   68.8350   63.8454 C   0  0  0  0  0  0
    0.6522   65.9390   69.3960 N   0  0  2  0  0  0
    4.0804   69.4300   64.3540 C   0  0  0  0  0  0
    0.6339   68.0942   64.9877 C   0  0  0  0  0  0
    0.8641   65.1469   70.6146 C   0  0  0  0  0  0
    0.9973   67.3371   69.5885 C   0  0  0  0  0  0
   -0.7000   65.8062   68.8559 C   0  0  0  0  0  0
   -0.3840   68.6163   66.0337 C   0  0  0  0  0  0
    1.8519   64.0225   70.3522 C   0  0  0  0  0  0
   -0.3861   67.9646   67.4381 C   0  0  0  0  0  0
   -0.8995   66.5084   67.4894 C   0  0  0  0  0  0
    0.8970   68.1411   68.2789 C   0  0  0  0  0  0
    2.8304   68.4952   62.4864 C   0  0  0  0  0  0
    5.2021   69.6716   63.5613 C   0  0  0  0  0  0
    3.2244   64.2842   70.3681 C   0  0  0  0  0  0
    1.3826   62.7545   69.9887 C   0  0  0  0  0  0
    3.9431   68.7413   61.6867 C   0  0  0  0  0  0
    5.0997   69.3094   62.2200 C   0  0  0  0  0  0
    2.2876   61.7397   69.6891 C   0  0  0  0  0  0
    4.1284   63.2698   70.0638 C   0  0  0  0  0  0
    3.6539   62.0007   69.7313 C   0  0  0  0  0  0
    4.4113   70.1469   66.3520 H   0  0  0  0  0  0
    0.1792   68.2627   64.0093 H   0  0  0  0  0  0
    0.7255   67.0101   65.0594 H   0  0  0  0  0  0
    1.2402   65.7617   71.4326 H   0  0  0  0  0  0
   -0.0705   64.7132   70.9703 H   0  0  0  0  0  0
    0.3434   67.7080   70.3677 H   0  0  0  0  0  0
    2.0150   67.4128   69.9719 H   0  0  0  0  0  0
   -1.4322   66.1776   69.5678 H   0  0  0  0  0  0
   -0.8607   64.7348   68.7684 H   0  0  0  0  0  0
   -0.3002   69.6974   66.1433 H   0  0  0  0  0  0
   -1.3819   68.4712   65.6156 H   0  0  0  0  0  0
   -1.1517   68.5225   67.9682 H   0  0  0  0  0  0
   -1.9468   66.4776   67.1844 H   0  0  0  0  0  0
   -0.3879   65.9125   66.7385 H   0  0  0  0  0  0
    1.7179   67.7632   67.6849 H   0  0  0  0  0  0
    1.1091   69.1978   68.4489 H   0  0  0  0  0  0
    1.9360   68.0577   62.0684 H   0  0  0  0  0  0
    6.1010   70.1244   63.9548 H   0  0  0  0  0  0
    3.5878   65.2738   70.6069 H   0  0  0  0  0  0
    0.3217   62.5572   69.9362 H   0  0  0  0  0  0
    3.9272   68.4885   60.6361 H   0  0  0  0  0  0
    5.9430   69.4729   61.5678 H   0  0  0  0  0  0
    1.9296   60.7551   69.4224 H   0  0  0  0  0  0
    5.1885   63.4701   70.0810 H   0  0  0  0  0  0
    4.3498   61.2102   69.4978 H   0  0  0  0  0  0
  1  2  1  0  0  0
  1  3  2  0  0  0
  2  6  1  0  0  0
  2 25  1  0  0  0
  3  4  1  0  0  0
  3  7  1  0  0  0
  4 16  1  0  0  0
  4  6  2  0  0  0
  5  9  1  0  0  0
  5  8  1  0  0  0
  5 10  1  0  0  0
  6 17  1  0  0  0
  7 11  1  0  0  0
  7 26  1  0  0  0
  7 27  1  0  0  0
  8 12  1  0  0  0
  8 28  1  0  0  0
  8 29  1  0  0  0
  9 15  1  0  0  0
  9 30  1  0  0  0
  9 31  1  0  0  0
 10 14  1  0  0  0
 10 32  1  0  0  0
 10 33  1  0  0  0
 11 13  1  0  0  0
 11 34  1  0  0  0
 11 35  1  0  0  0
 12 18  2  0  0  0
 12 19  1  0  0  0
 13 14  1  0  0  0
 13 15  1  0  0  0
 13 36  1  0  0  0
 14 37  1  0  0  0
 14 38  1  0  0  0
 15 39  1  0  0  0
 15 40  1  0  0  0
 16 20  2  0  0  0
 16 41  1  0  0  0
 17 21  2  0  0  0
 17 42  1  0  0  0
 18 23  1  0  0  0
 18 43  1  0  0  0
 19 22  2  0  0  0
 19 44  1  0  0  0
 20 21  1  0  0  0
 20 45  1  0  0  0
 21 46  1  0  0  0
 22 24  1  0  0  0
 22 47  1  0  0  0
 23 24  2  0  0  0
 23 48  1  0  0  0
 24 49  1  0  0  0
M  END
> <s_m_entry_id>
8773

> <s_m_entry_name>
dock_pv.283

> <s_m_Source_Path>
/home/csk/Desktop/cluster/DUD-E-result/aces

> <s_m_Source_File>
dock_pv.maegz

> <i_m_Source_File_Index>
283

> <chembl_id>
CHEMBL92958

> <chembl_pref_name>
None

> <i_lp_mmshare_version>
53161

> <i_f3d_flags>
0

> <r_lp_tautomer_probability>
0.980392156862745

> <s_lp_Force_Field>
OPLS_2005

> <r_lp_Energy>
22.163608

> <b_lp_Chiralities_Consistent>
1

> <s_lp_Variant>
CHEMBL220_lig416-1

> <s_i_glide_gridfile>
glide-grid_1e66

> <i_i_glide_lignum>
475

> <i_i_glide_rotatable_bonds>
5

> <r_i_docking_score>
-7.03111501575067

> <r_i_glide_ligand_efficiency>
-0.292963125656278

> <r_i_glide_ligand_efficiency_sa>
-0.845051883292158

> <r_i_glide_ligand_efficiency_ln>
-1.68286846011391

> <r_i_glide_gscore>
-7.03111501575067

> <r_i_glide_lipo>
-3.90647732331972

> <r_i_glide_hbond>
0

> <r_i_glide_metal>
0

> <r_i_glide_rewards>
-1.98577336784073

> <r_i_glide_evdw>
-38.9960670471191

> <r_i_glide_ecoul>
-0.688796997070312

> <r_i_glide_erotb>
0.914258577326277

> <r_i_glide_esite>
0

> <r_i_glide_emodel>
-54.6674027399858

> <r_i_glide_energy>
-39.6848640441895

> <r_i_glide_einternal>
6.55919408798218

> <i_i_glide_confnum>
116

> <i_i_glide_posenum>
71

> <r_i_glide_eff_state_penalty>
0

> <s_user_duplicate_titles>
CHEMBL220_lig416,CHEMBL220_lig416,149994

> <s_m_subgroup_title>
dock_pv

> <s_m_subgroupid>
dock_pv

> <b_m_subgroup_collapsed>
0

$$$$
CHEMBL220_lig1156
                    3D
 Schrodinger Suite 2021-1.
 36 39  0  0  1  0            999 V2000
    4.6525   67.4897   64.1501 N   0  0  2  0  0  0
    3.3989   66.7846   63.9677 C   0  0  0  0  0  0
    2.4437   66.6166   65.1718 C   0  0  0  0  0  0
    1.7744   67.9003   65.7363 C   0  0  2  0  0  0
    2.7842   68.8903   66.2678 C   0  0  0  0  0  0
    4.0305   69.3223   65.7788 C   0  0  0  0  0  0
    4.5393   68.9129   64.4110 C   0  0  0  0  0  0
    4.8380   70.1080   66.6098 C   0  0  0  0  0  0
    4.4031   70.5081   67.8712 C   0  0  0  0  0  0
    3.1437   70.1258   68.3234 C   0  0  0  0  0  0
    2.3570   69.3080   67.5206 C   0  0  0  0  0  0
    1.1777   68.7339   67.9155 O   0  0  0  0  0  0
    0.9725   67.6179   67.0494 C   0  0  1  0  0  0
    0.8511   68.5070   64.6734 C   0  0  0  0  0  0
   -0.4811   68.6791   64.8055 C   0  0  0  0  0  0
   -1.2935   68.3299   66.0425 C   0  0  1  0  0  0
   -0.5281   67.3040   66.8944 C   0  0  0  0  0  0
    2.7430   70.5078   69.5679 O   0  0  0  0  0  0
    1.4175   66.7601   67.5580 H   0  0  0  0  0  0
   -1.5934   69.5031   66.7672 O   0  0  0  0  0  0
    5.2214   67.3775   63.3223 H   0  0  0  0  0  0
    3.6327   65.7929   63.5784 H   0  0  0  0  0  0
    2.8687   67.3071   63.1683 H   0  0  0  0  0  0
    2.9890   66.1018   65.9634 H   0  0  0  0  0  0
    1.6542   65.9210   64.8827 H   0  0  0  0  0  0
    5.5300   69.3479   64.2536 H   0  0  0  0  0  0
    3.9058   69.3851   63.6579 H   0  0  0  0  0  0
    5.8115   70.4274   66.2689 H   0  0  0  0  0  0
    5.0385   71.1204   68.4936 H   0  0  0  0  0  0
    1.2919   68.8307   63.7415 H   0  0  0  0  0  0
   -1.0063   69.1387   63.9798 H   0  0  0  0  0  0
   -2.2452   67.8973   65.7324 H   0  0  0  0  0  0
   -0.6036   66.3519   66.3677 H   0  0  0  0  0  0
   -0.9992   67.1403   67.8630 H   0  0  0  0  0  0
    1.8595   70.1842   69.8105 H   0  0  0  0  0  0
   -2.2217   69.2997   67.4646 H   0  0  0  0  0  0
  1  2  1  0  0  0
  1  7  1  0  0  0
  1 21  1  0  0  0
  2  3  1  0  0  0
  2 22  1  0  0  0
  2 23  1  0  0  0
  3  4  1  0  0  0
  3 24  1  0  0  0
  3 25  1  0  0  0
  4  5  1  0  0  0
  4 13  1  0  0  0
  4 14  1  0  0  0
  5  6  2  0  0  0
  5 11  1  0  0  0
  6  7  1  0  0  0
  6  8  1  0  0  0
  7 26  1  0  0  0
  7 27  1  0  0  0
  8  9  2  0  0  0
  8 28  1  0  0  0
  9 10  1  0  0  0
  9 29  1  0  0  0
 10 11  2  0  0  0
 10 18  1  0  0  0
 11 12  1  0  0  0
 12 13  1  0  0  0
 13 17  1  0  0  0
 13 19  1  0  0  0
 14 15  2  0  0  0
 14 30  1  0  0  0
 15 16  1  0  0  0
 15 31  1  0  0  0
 16 17  1  0  0  0
 16 20  1  0  0  0
 16 32  1  0  0  0
 17 33  1  0  0  0
 17 34  1  0  0  0
 18 35  1  0  0  0
 20 36  1  0  0  0
M  END
> <s_m_entry_id>
8774

> <s_m_entry_name>
dock_pv.284

> <s_m_Source_Path>
/home/csk/Desktop/cluster/DUD-E-result/aces

> <s_m_Source_File>
dock_pv.maegz

> <i_m_Source_File_Index>
284

> <chembl_id>
CHEMBL1523

> <chembl_pref_name>
NORSANGUININE

> <i_lp_mmshare_version>
53161

> <i_f3d_flags>
0

> <r_lp_tautomer_probability>
1

> <s_lp_Force_Field>
OPLS_2005

> <r_lp_Energy>
38.498792

> <b_lp_Chiralities_Consistent>
1

> <s_lp_Variant>
CHEMBL220_lig1156-1

> <s_i_glide_gridfile>
glide-grid_1e66

> <i_i_glide_lignum>
1570

> <i_i_glide_rotatable_bonds>
2

> <r_i_docking_score>
-7.02614690979622

> <r_i_glide_ligand_efficiency>
-0.369797205778748

> <r_i_glide_ligand_efficiency_sa>
-0.986767472624288

> <r_i_glide_ligand_efficiency_ln>
-1.78127914943205

> <r_i_glide_gscore>
-7.02614690979622

> <r_i_glide_lipo>
-3.22863285721004

> <r_i_glide_hbond>
0

> <r_i_glide_metal>
0

> <r_i_glide_rewards>
-1.99946710606061

> <r_i_glide_evdw>
-27.7404289245605

> <r_i_glide_ecoul>
-2.74017000198364

> <r_i_glide_erotb>
0

> <r_i_glide_esite>
0

> <r_i_glide_emodel>
-39.772168521093

> <r_i_glide_energy>
-30.4805989265442

> <r_i_glide_einternal>
0.0777086615562439

> <i_i_glide_confnum>
1

> <i_i_glide_posenum>
291

> <r_i_glide_eff_state_penalty>
0

> <s_user_duplicate_titles>
CHEMBL220_lig1156

> <s_m_subgroup_title>
dock_pv

> <s_m_subgroupid>
dock_pv

> <b_m_subgroup_collapsed>
0

$$$$
CHEMBL220_lig367
                    3D
 Schrodinger Suite 2021-1.
 39 41  0  0  1  0            999 V2000
    2.1934   67.9407   63.6916 N   0  0  1  0  0  0
    2.7166   68.5280   66.0858 C   0  0  0  0  0  0
    2.8644   67.5411   64.9262 C   0  0  0  0  0  0
    3.7971   69.3781   66.4952 C   0  0  0  0  0  0
    3.6487   70.1080   67.7199 C   0  0  0  0  0  0
    0.7350   68.1080   63.8528 C   0  0  0  0  0  0
    2.9043   68.9816   62.9407 C   0  0  0  0  0  0
    0.0214   68.5080   62.5577 C   0  0  0  0  0  0
    2.1479   69.3204   61.6453 C   0  0  0  0  0  0
    1.5430   68.4870   66.8455 C   0  0  0  0  0  0
    0.7007   69.7294   61.9680 C   0  0  0  0  0  0
    1.3792   69.2783   67.9680 C   0  0  0  0  0  0
    5.0397   69.4911   65.8047 C   0  0  0  0  0  0
    2.4201   70.0736   68.4179 C   0  0  0  0  0  0
    4.7348   70.8632   68.2310 C   0  0  0  0  0  0
   -0.0570   70.2623   60.7607 C   0  0  0  0  0  0
    6.0875   70.2394   66.3401 C   0  0  0  0  0  0
    5.9430   70.9079   67.5501 C   0  0  0  0  0  0
    2.4293   66.5939   65.2500 H   0  0  0  0  0  0
    3.9088   67.2893   64.7466 H   0  0  0  0  0  0
    0.5241   68.8815   64.5891 H   0  0  0  0  0  0
    0.3310   67.1762   64.2445 H   0  0  0  0  0  0
    3.0114   69.8707   63.5647 H   0  0  0  0  0  0
    3.9142   68.6382   62.7121 H   0  0  0  0  0  0
   -1.0222   68.7334   62.7830 H   0  0  0  0  0  0
   -0.0388   67.7080   61.8285 H   0  0  0  0  0  0
    2.2079   68.5207   60.9053 H   0  0  0  0  0  0
    2.6565   70.1562   61.1680 H   0  0  0  0  0  0
    0.7388   67.8197   66.5714 H   0  0  0  0  0  0
    0.7119   70.5080   62.7323 H   0  0  0  0  0  0
    0.4559   69.2393   68.5286 H   0  0  0  0  0  0
    5.1947   68.9765   64.8697 H   0  0  0  0  0  0
    2.3007   70.6448   69.3278 H   0  0  0  0  0  0
    4.6184   71.3846   69.1680 H   0  0  0  0  0  0
   -0.0570   69.5457   59.9380 H   0  0  0  0  0  0
    0.3779   71.1885   60.3928 H   0  0  0  0  0  0
   -1.0887   70.5080   61.0145 H   0  0  0  0  0  0
    7.0293   70.2966   65.8157 H   0  0  0  0  0  0
    6.7668   71.4681   67.9680 H   0  0  0  0  0  0
  1  3  1  0  0  0
  1  6  1  0  0  0
  1  7  1  0  0  0
  2  3  1  0  0  0
  2  4  2  0  0  0
  2 10  1  0  0  0
  3 19  1  0  0  0
  3 20  1  0  0  0
  4  5  1  0  0  0
  4 13  1  0  0  0
  5 15  1  0  0  0
  5 14  2  0  0  0
  6  8  1  0  0  0
  6 21  1  0  0  0
  6 22  1  0  0  0
  7  9  1  0  0  0
  7 23  1  0  0  0
  7 24  1  0  0  0
  8 11  1  0  0  0
  8 25  1  0  0  0
  8 26  1  0  0  0
  9 11  1  0  0  0
  9 27  1  0  0  0
  9 28  1  0  0  0
 10 12  2  0  0  0
 10 29  1  0  0  0
 11 16  1  0  0  0
 11 30  1  0  0  0
 12 14  1  0  0  0
 12 31  1  0  0  0
 13 17  2  0  0  0
 13 32  1  0  0  0
 14 33  1  0  0  0
 15 18  2  0  0  0
 15 34  1  0  0  0
 16 35  1  0  0  0
 16 36  1  0  0  0
 16 37  1  0  0  0
 17 18  1  0  0  0
 17 38  1  0  0  0
 18 39  1  0  0  0
M  END
> <s_m_entry_id>
8775

> <s_m_entry_name>
dock_pv.285

> <s_m_Source_Path>
/home/csk/Desktop/cluster/DUD-E-result/aces

> <s_m_Source_File>
dock_pv.maegz

> <i_m_Source_File_Index>
285

> <chembl_id>
CHEMBL155121

> <chembl_pref_name>
None

> <i_lp_mmshare_version>
53161

> <i_f3d_flags>
0

> <r_lp_tautomer_probability>
1

> <s_lp_Force_Field>
OPLS_2005

> <r_lp_Energy>
24.126542

> <b_lp_Chiralities_Consistent>
1

> <s_lp_Variant>
CHEMBL220_lig367-1

> <s_i_glide_gridfile>
glide-grid_1e66

> <i_i_glide_lignum>
424

> <i_i_glide_rotatable_bonds>
2

> <r_i_docking_score>
-7.01239469309843

> <r_i_glide_ligand_efficiency>
-0.389577482949913

> <r_i_glide_ligand_efficiency_sa>
-1.02098183483487

> <r_i_glide_ligand_efficiency_ln>
-1.80249989705112

> <r_i_glide_gscore>
-7.01239469309843

> <r_i_glide_lipo>
-3.89536660104062

> <r_i_glide_hbond>
0

> <r_i_glide_metal>
0

> <r_i_glide_rewards>
-2.11878934848485

> <r_i_glide_evdw>
-29.1729125976562

> <r_i_glide_ecoul>
-0.952296137809753

> <r_i_glide_erotb>
0.603251306981315

> <r_i_glide_esite>
0

> <r_i_glide_emodel>
-35.9930331820347

> <r_i_glide_energy>
-30.125208735466

> <r_i_glide_einternal>
7.15616035461426

> <i_i_glide_confnum>
8

> <i_i_glide_posenum>
233

> <r_i_glide_eff_state_penalty>
0

> <s_user_duplicate_titles>
CHEMBL220_lig367,260392

> <s_m_subgroup_title>
dock_pv

> <s_m_subgroupid>
dock_pv

> <b_m_subgroup_collapsed>
0

$$$$
CHEMBL220_lig317
                    3D
 Schrodinger Suite 2021-1.
 38 39  0  0  1  0            999 V2000
    4.1155   68.6049   63.5456 N   0  3  0  0  0  0
    4.5806   69.1247   64.9060 C   0  0  0  0  0  0
    3.0601   67.4557   63.6030 C   0  0  0  0  0  0
    3.6459   69.6082   65.8293 C   0  0  0  0  0  0
    5.9430   69.2099   65.2131 C   0  0  0  0  0  0
    5.4217   70.2438   67.3445 C   0  0  0  0  0  0
    1.7520   67.6697   64.3680 C   0  0  0  0  0  0
    4.0683   70.1080   67.0557 C   0  0  0  0  0  0
    6.3609   69.7865   66.4111 C   0  0  0  0  0  0
    5.2596   68.0608   62.6405 C   0  0  0  0  0  0
    3.5017   69.7434   62.7128 C   0  0  0  0  0  0
    5.7256   70.8337   68.5574 O   0  0  0  0  0  0
    1.6224   67.1952   65.6770 C   0  0  0  0  0  0
    0.6659   68.2932   63.7464 C   0  0  0  0  0  0
    7.0839   71.0158   68.9391 C   0  0  0  0  0  0
    0.4526   67.4316   66.3948 C   0  0  0  0  0  0
   -0.5109   68.5080   64.4576 C   0  0  0  0  0  0
   -0.6029   68.1080   65.7882 C   0  0  0  0  0  0
    3.5945   66.5837   63.9837 H   0  0  0  0  0  0
    2.8145   67.3080   62.5515 H   0  0  0  0  0  0
    2.5897   69.6449   65.6209 H   0  0  0  0  0  0
    6.7152   68.8749   64.5399 H   0  0  0  0  0  0
    3.3371   70.4695   67.7641 H   0  0  0  0  0  0
    7.4208   69.8701   66.5948 H   0  0  0  0  0  0
    4.8538   67.7261   61.6837 H   0  0  0  0  0  0
    5.9813   68.8609   62.4620 H   0  0  0  0  0  0
    5.7168   67.2296   63.1673 H   0  0  0  0  0  0
    3.2110   69.3789   61.7263 H   0  0  0  0  0  0
    2.6367   70.1080   63.2619 H   0  0  0  0  0  0
    4.2736   70.5080   62.6327 H   0  0  0  0  0  0
    2.4381   66.6731   66.1531 H   0  0  0  0  0  0
    0.7288   68.6229   62.7195 H   0  0  0  0  0  0
    7.1262   71.3080   69.9878 H   0  0  0  0  0  0
    7.6778   70.1080   68.8374 H   0  0  0  0  0  0
    7.5430   71.8199   68.3680 H   0  0  0  0  0  0
    0.3618   67.0884   67.4154 H   0  0  0  0  0  0
   -1.3485   68.9995   63.9841 H   0  0  0  0  0  0
   -1.5144   68.2881   66.3398 H   0  0  0  0  0  0
  1  2  1  0  0  0
  1  3  1  0  0  0
  1 10  1  0  0  0
  1 11  1  0  0  0
  2  4  1  0  0  0
  2  5  2  0  0  0
  3  7  1  0  0  0
  3 19  1  0  0  0
  3 20  1  0  0  0
  4  8  2  0  0  0
  4 21  1  0  0  0
  5  9  1  0  0  0
  5 22  1  0  0  0
  6  8  1  0  0  0
  6 12  1  0  0  0
  6  9  2  0  0  0
  7 13  1  0  0  0
  7 14  2  0  0  0
  8 23  1  0  0  0
  9 24  1  0  0  0
 10 25  1  0  0  0
 10 26  1  0  0  0
 10 27  1  0  0  0
 11 28  1  0  0  0
 11 29  1  0  0  0
 11 30  1  0  0  0
 12 15  1  0  0  0
 13 16  2  0  0  0
 13 31  1  0  0  0
 14 17  1  0  0  0
 14 32  1  0  0  0
 15 33  1  0  0  0
 15 34  1  0  0  0
 15 35  1  0  0  0
 16 18  1  0  0  0
 16 36  1  0  0  0
 17 18  2  0  0  0
 17 37  1  0  0  0
 18 38  1  0  0  0
M  CHG  1   1   1
M  END
> <s_m_entry_id>
8776

> <s_m_entry_name>
dock_pv.286

> <s_m_Source_Path>
/home/csk/Desktop/cluster/DUD-E-result/aces

> <s_m_Source_File>
dock_pv.maegz

> <i_m_Source_File_Index>
286

> <chembl_id>
CHEMBL442361

> <chembl_pref_name>
None

> <i_lp_mmshare_version>
53161

> <i_f3d_flags>
0

> <r_lp_tautomer_probability>
1

> <s_lp_Force_Field>
OPLS_2005

> <r_lp_Energy>
25.959905

> <b_lp_Chiralities_Consistent>
1

> <s_lp_Variant>
CHEMBL220_lig317-1

> <s_i_glide_gridfile>
glide-grid_1e66

> <i_i_glide_lignum>
371

> <i_i_glide_rotatable_bonds>
4

> <r_i_docking_score>
-7.00795434970133

> <r_i_glide_ligand_efficiency>
-0.38933079720563

> <r_i_glide_ligand_efficiency_sa>
-1.02033533529409

> <r_i_glide_ligand_efficiency_ln>
-1.80135852967715

> <r_i_glide_gscore>
-7.00795434970133

> <r_i_glide_lipo>
-2.84185390181356

> <r_i_glide_hbond>
0

> <r_i_glide_metal>
0

> <r_i_glide_rewards>
-3.39857075898968

> <r_i_glide_evdw>
-28.6748008728027

> <r_i_glide_ecoul>
-1.46503043174744

> <r_i_glide_erotb>
0.885964919504165

> <r_i_glide_esite>
0

> <r_i_glide_emodel>
-46.9483675596268

> <r_i_glide_energy>
-30.1398313045502

> <r_i_glide_einternal>
1.51296985149384

> <i_i_glide_confnum>
8

> <i_i_glide_posenum>
105

> <r_i_glide_eff_state_penalty>
0

> <s_user_duplicate_titles>
CHEMBL220_lig317

> <s_m_subgroup_title>
dock_pv

> <s_m_subgroupid>
dock_pv

> <b_m_subgroup_collapsed>
0

$$$$
CHEMBL220_lig316
                    3D
 Schrodinger Suite 2021-1.
 32 32  0  0  1  0            999 V2000
    4.7676   68.7631   63.4005 N   0  3  0  0  0  0
    3.2684   68.6807   63.0944 C   0  0  0  0  0  0
    2.7667   68.9579   61.7999 C   0  0  0  0  0  0
    5.8350   70.5080   66.3835 C   0  0  0  0  0  0
    6.1924   70.6476   67.6707 C   0  0  0  0  0  0
    3.5429   69.2702   60.7125 O   0  0  0  0  0  0
    5.1765   68.5199   64.8986 C   0  0  0  0  0  0
    5.3727   70.1317   62.9918 C   0  0  0  0  0  0
    5.5426   67.6718   62.6182 C   0  0  0  0  0  0
    2.3595   68.3230   64.1103 C   0  0  0  0  0  0
    4.7088   69.6169   65.8924 C   0  0  0  0  0  0
    1.3912   68.9121   61.5682 C   0  0  0  0  0  0
    0.9903   68.2679   63.8525 C   0  0  0  0  0  0
    0.5050   68.5709   62.5851 C   0  0  0  0  0  0
    6.3673   71.0681   65.6286 H   0  0  0  0  0  0
    5.6836   70.1075   68.4560 H   0  0  0  0  0  0
    6.9981   71.3066   67.9615 H   0  0  0  0  0  0
    4.4913   69.1159   60.7779 H   0  0  0  0  0  0
    6.2649   68.4148   64.9266 H   0  0  0  0  0  0
    4.7589   67.5474   65.1609 H   0  0  0  0  0  0
    6.3509   70.2256   63.4525 H   0  0  0  0  0  0
    5.4738   70.2077   61.9113 H   0  0  0  0  0  0
    4.7120   70.9068   63.3723 H   0  0  0  0  0  0
    6.6113   67.8681   62.7178 H   0  0  0  0  0  0
    5.2599   66.7028   63.0310 H   0  0  0  0  0  0
    5.2764   67.7080   61.5691 H   0  0  0  0  0  0
    2.6641   68.0881   65.1174 H   0  0  0  0  0  0
    4.2493   69.1415   66.7615 H   0  0  0  0  0  0
    3.9367   70.2559   65.4623 H   0  0  0  0  0  0
    1.0073   69.1298   60.5819 H   0  0  0  0  0  0
    0.2991   67.9906   64.6367 H   0  0  0  0  0  0
   -0.5559   68.5285   62.3855 H   0  0  0  0  0  0
  1  2  1  0  0  0
  1  7  1  0  0  0
  1  8  1  0  0  0
  1  9  1  0  0  0
  2  3  2  0  0  0
  2 10  1  0  0  0
  3  6  1  0  0  0
  3 12  1  0  0  0
  4 11  1  0  0  0
  4  5  2  0  0  0
  4 15  1  0  0  0
  5 16  1  0  0  0
  5 17  1  0  0  0
  6 18  1  0  0  0
  7 11  1  0  0  0
  7 19  1  0  0  0
  7 20  1  0  0  0
  8 21  1  0  0  0
  8 22  1  0  0  0
  8 23  1  0  0  0
  9 24  1  0  0  0
  9 25  1  0  0  0
  9 26  1  0  0  0
 10 13  2  0  0  0
 10 27  1  0  0  0
 11 28  1  0  0  0
 11 29  1  0  0  0
 12 14  2  0  0  0
 12 30  1  0  0  0
 13 14  1  0  0  0
 13 31  1  0  0  0
 14 32  1  0  0  0
M  CHG  1   1   1
M  END
> <s_m_entry_id>
8777

> <s_m_entry_name>
dock_pv.287

> <s_m_Source_Path>
/home/csk/Desktop/cluster/DUD-E-result/aces

> <s_m_Source_File>
dock_pv.maegz

> <i_m_Source_File_Index>
287

> <chembl_id>
CHEMBL61515

> <chembl_pref_name>
None

> <i_lp_mmshare_version>
53161

> <i_f3d_flags>
0

> <r_lp_tautomer_probability>
1

> <s_lp_Force_Field>
OPLS_2005

> <r_lp_Energy>
24.726979

> <b_lp_Chiralities_Consistent>
1

> <s_lp_Variant>
CHEMBL220_lig316-1

> <s_i_glide_gridfile>
glide-grid_1e66

> <i_i_glide_lignum>
370

> <i_i_glide_rotatable_bonds>
5

> <r_i_docking_score>
-7.00697100285715

> <r_i_glide_ligand_efficiency>
-0.500497928775511

> <r_i_glide_ligand_efficiency_sa>
-1.20627121021288

> <r_i_glide_ligand_efficiency_ln>
-1.9254906884355

> <r_i_glide_gscore>
-7.00697100285715

> <r_i_glide_lipo>
-3.02477491891809

> <r_i_glide_hbond>
-0.0394628323288875

> <r_i_glide_metal>
0

> <r_i_glide_rewards>
-3.31420438414209

> <r_i_glide_evdw>
-28.7680435180664

> <r_i_glide_ecoul>
-6.22633457183838

> <r_i_glide_erotb>
1.74382349421099

> <r_i_glide_esite>
0

> <r_i_glide_emodel>
-50.8851138061162

> <r_i_glide_energy>
-34.9943780899048

> <r_i_glide_einternal>
5.53284311294556

> <i_i_glide_confnum>
25

> <i_i_glide_posenum>
76

> <r_i_glide_eff_state_penalty>
0

> <s_user_duplicate_titles>
CHEMBL220_lig316

> <s_m_subgroup_title>
dock_pv

> <s_m_subgroupid>
dock_pv

> <b_m_subgroup_collapsed>
0

$$$$
CHEMBL220_lig553
                    3D
 Schrodinger Suite 2021-1.
 51 54  0  0  1  0            999 V2000
    3.9163   61.6017   71.3389 C   0  0  0  0  0  0
    3.0229   60.5375   71.4733 C   0  0  0  0  0  0
    1.6561   60.7031   71.2320 C   0  0  0  0  0  0
    1.1254   61.9398   70.8523 C   0  0  0  0  0  0
    3.3718   62.8312   70.9517 C   0  0  0  0  0  0
    2.0016   63.0285   70.7094 C   0  0  0  0  0  0
    1.9111   64.4118   70.3521 C   0  0  0  0  0  0
    3.1110   64.9621   70.3680 N   0  0  0  0  0  0
    4.0472   63.9932   70.7498 O   0  0  0  0  0  0
    0.8309   66.6619   69.5360 C   0  0  0  0  0  0
   -0.1543   67.1136   68.4285 C   0  0  0  0  0  0
   -0.0539   68.6087   67.9742 C   0  0  0  0  0  0
    1.3576   69.0806   67.6070 C   0  0  0  0  0  0
    1.8715   68.3489   66.3619 C   0  0  0  0  0  0
    0.9911   68.5076   65.1874 N   0  0  2  0  0  0
   -0.4353   68.2534   65.4694 C   0  0  0  0  0  0
   -0.9407   68.9414   66.7578 C   0  0  0  0  0  0
    1.4233   67.6698   64.0618 C   0  0  0  0  0  0
    2.7451   68.1089   63.4383 C   0  0  0  0  0  0
    3.9587   67.7976   64.0618 C   0  0  0  0  0  0
    5.1532   68.2820   63.5439 C   0  0  0  0  0  0
    5.1387   69.0192   62.3677 C   0  0  0  0  0  0
    3.9404   69.3091   61.7199 C   0  0  0  0  0  0
    2.7372   68.8794   62.2719 C   0  0  0  0  0  0
    0.6449   65.1806   69.9714 C   0  0  0  0  0  0
    4.9732   61.4869   71.5271 H   0  0  0  0  0  0
    3.3923   59.5674   71.7749 H   0  0  0  0  0  0
    0.9932   59.8581   71.3445 H   0  0  0  0  0  0
    0.0651   62.0490   70.6716 H   0  0  0  0  0  0
    0.7439   67.3099   70.4078 H   0  0  0  0  0  0
    1.8402   66.8102   69.1690 H   0  0  0  0  0  0
   -0.0073   66.4608   67.5696 H   0  0  0  0  0  0
   -1.1722   66.9083   68.7630 H   0  0  0  0  0  0
   -0.3660   69.2862   68.7671 H   0  0  0  0  0  0
    1.3928   70.1556   67.4449 H   0  0  0  0  0  0
    2.0455   68.9037   68.4323 H   0  0  0  0  0  0
    2.8737   68.7097   66.1431 H   0  0  0  0  0  0
    1.9495   67.2831   66.5813 H   0  0  0  0  0  0
   -1.0353   68.5643   64.6123 H   0  0  0  0  0  0
   -0.5872   67.1791   65.5695 H   0  0  0  0  0  0
   -1.9627   68.6144   66.9516 H   0  0  0  0  0  0
   -1.0169   70.0182   66.5983 H   0  0  0  0  0  0
    1.4881   66.6244   64.3714 H   0  0  0  0  0  0
    0.6587   67.7147   63.2823 H   0  0  0  0  0  0
    3.9752   67.2103   64.9670 H   0  0  0  0  0  0
    6.0902   68.1040   64.0475 H   0  0  0  0  0  0
    6.0705   69.3526   61.9382 H   0  0  0  0  0  0
    3.9517   69.8808   60.8035 H   0  0  0  0  0  0
    1.8052   69.1354   61.7890 H   0  0  0  0  0  0
    0.1553   64.6300   69.1680 H   0  0  0  0  0  0
   -0.0565   65.1485   70.8055 H   0  0  0  0  0  0
  1  2  2  0  0  0
  1  5  1  0  0  0
  1 26  1  0  0  0
  2  3  1  0  0  0
  2 27  1  0  0  0
  3  4  2  0  0  0
  3 28  1  0  0  0
  4  6  1  0  0  0
  4 29  1  0  0  0
  5  9  1  0  0  0
  5  6  2  0  0  0
  6  7  1  0  0  0
  7  8  2  0  0  0
  7 25  1  0  0  0
  8  9  1  0  0  0
 10 11  1  0  0  0
 10 25  1  0  0  0
 10 30  1  0  0  0
 10 31  1  0  0  0
 11 12  1  0  0  0
 11 32  1  0  0  0
 11 33  1  0  0  0
 12 13  1  0  0  0
 12 17  1  0  0  0
 12 34  1  0  0  0
 13 14  1  0  0  0
 13 35  1  0  0  0
 13 36  1  0  0  0
 14 15  1  0  0  0
 14 37  1  0  0  0
 14 38  1  0  0  0
 15 16  1  0  0  0
 15 18  1  0  0  0
 16 17  1  0  0  0
 16 39  1  0  0  0
 16 40  1  0  0  0
 17 41  1  0  0  0
 17 42  1  0  0  0
 18 19  1  0  0  0
 18 43  1  0  0  0
 18 44  1  0  0  0
 19 20  2  0  0  0
 19 24  1  0  0  0
 20 21  1  0  0  0
 20 45  1  0  0  0
 21 22  2  0  0  0
 21 46  1  0  0  0
 22 23  1  0  0  0
 22 47  1  0  0  0
 23 24  2  0  0  0
 23 48  1  0  0  0
 24 49  1  0  0  0
 25 50  1  0  0  0
 25 51  1  0  0  0
M  END
> <s_m_entry_id>
8778

> <s_m_entry_name>
dock_pv.288

> <s_m_Source_Path>
/home/csk/Desktop/cluster/DUD-E-result/aces

> <s_m_Source_File>
dock_pv.maegz

> <i_m_Source_File_Index>
288

> <chembl_id>
CHEMBL93241

> <chembl_pref_name>
None

> <i_lp_mmshare_version>
53161

> <i_f3d_flags>
0

> <r_lp_tautomer_probability>
1

> <s_lp_Force_Field>
OPLS_2005

> <r_lp_Energy>
30.904823

> <b_lp_Chiralities_Consistent>
1

> <s_lp_Variant>
CHEMBL220_lig553-1

> <s_i_glide_gridfile>
glide-grid_1e66

> <i_i_glide_lignum>
638

> <i_i_glide_rotatable_bonds>
6

> <r_i_docking_score>
-7.00527104417849

> <r_i_glide_ligand_efficiency>
-0.28021084176714

> <r_i_glide_ligand_efficiency_sa>
-0.819341470887556

> <r_i_glide_ligand_efficiency_ln>
-1.6604591685031

> <r_i_glide_gscore>
-7.00527104417849

> <r_i_glide_lipo>
-3.69179825640183

> <r_i_glide_hbond>
0

> <r_i_glide_metal>
0

> <r_i_glide_rewards>
-2.02871836363636

> <r_i_glide_evdw>
-40.4140434265137

> <r_i_glide_ecoul>
-0.714029133319855

> <r_i_glide_erotb>
0.843052117183357

> <r_i_glide_esite>
0

> <r_i_glide_emodel>
-56.735908654989

> <r_i_glide_energy>
-41.1280725598335

> <r_i_glide_einternal>
4.64533281326294

> <i_i_glide_confnum>
79

> <i_i_glide_posenum>
394

> <r_i_glide_eff_state_penalty>
0

> <s_user_duplicate_titles>
CHEMBL220_lig553,150860

> <s_m_subgroup_title>
dock_pv

> <s_m_subgroupid>
dock_pv

> <b_m_subgroup_collapsed>
0

$$$$
CHEMBL220_lig1152
                    3D
 Schrodinger Suite 2021-1.
 39 42  0  0  1  0            999 V2000
   -0.2585   68.9077   66.1308 N   0  0  2  0  0  0
   -0.0050   68.0987   64.9374 C   0  0  0  0  0  0
    1.3129   68.3292   64.1625 C   0  0  0  0  0  0
    2.6173   67.9728   64.9154 C   0  0  2  0  0  0
    2.8656   68.9065   66.0744 C   0  0  0  0  0  0
    2.0675   69.2764   67.1708 C   0  0  0  0  0  0
    0.6287   68.7845   67.2929 C   0  0  0  0  0  0
    2.6477   70.0739   68.1747 C   0  0  0  0  0  0
    3.9762   70.5077   68.0831 C   0  0  0  0  0  0
    4.7427   70.1615   66.9692 C   0  0  0  0  0  0
    4.1563   69.3931   65.9677 C   0  0  0  0  0  0
    4.7885   69.0412   64.8072 O   0  0  0  0  0  0
    3.9092   68.2043   64.0546 C   0  0  1  0  0  0
    2.5225   66.5079   65.3631 C   0  0  0  0  0  0
    3.1429   65.4729   64.7680 C   0  0  0  0  0  0
    4.0870   65.6279   63.5927 C   0  0  1  0  0  0
    4.8009   66.9843   63.6964 C   0  0  0  0  0  0
    6.0472   70.5644   66.8556 O   0  0  0  0  0  0
    3.6845   68.7790   63.1538 H   0  0  0  0  0  0
    5.0166   64.5648   63.5680 O   0  0  0  0  0  0
   -1.6743   69.0193   66.4719 C   0  0  0  0  0  0
   -0.8029   68.2929   64.2176 H   0  0  0  0  0  0
   -0.0919   67.0497   65.2149 H   0  0  0  0  0  0
    1.2645   67.7103   63.2652 H   0  0  0  0  0  0
    1.3463   69.3478   63.7822 H   0  0  0  0  0  0
    0.1806   69.3272   68.1279 H   0  0  0  0  0  0
    0.6605   67.7435   67.6165 H   0  0  0  0  0  0
    2.0639   70.3538   69.0412 H   0  0  0  0  0  0
    4.4039   71.1115   68.8697 H   0  0  0  0  0  0
    1.8378   66.2692   66.1643 H   0  0  0  0  0  0
    2.9133   64.4821   65.1308 H   0  0  0  0  0  0
    3.5439   65.5612   62.6542 H   0  0  0  0  0  0
    5.3416   67.1778   62.7683 H   0  0  0  0  0  0
    5.5429   66.8809   64.4863 H   0  0  0  0  0  0
    6.4386   70.2594   66.0316 H   0  0  0  0  0  0
    4.5315   63.7366   63.6219 H   0  0  0  0  0  0
   -1.8359   69.7808   67.2364 H   0  0  0  0  0  0
   -2.2682   69.3068   65.6029 H   0  0  0  0  0  0
   -2.0606   68.0709   66.8492 H   0  0  0  0  0  0
  1  2  1  0  0  0
  1  7  1  0  0  0
  1 21  1  0  0  0
  2  3  1  0  0  0
  2 22  1  0  0  0
  2 23  1  0  0  0
  3  4  1  0  0  0
  3 24  1  0  0  0
  3 25  1  0  0  0
  4  5  1  0  0  0
  4 13  1  0  0  0
  4 14  1  0  0  0
  5  6  2  0  0  0
  5 11  1  0  0  0
  6  7  1  0  0  0
  6  8  1  0  0  0
  7 26  1  0  0  0
  7 27  1  0  0  0
  8  9  2  0  0  0
  8 28  1  0  0  0
  9 10  1  0  0  0
  9 29  1  0  0  0
 10 11  2  0  0  0
 10 18  1  0  0  0
 11 12  1  0  0  0
 12 13  1  0  0  0
 13 17  1  0  0  0
 13 19  1  0  0  0
 14 15  2  0  0  0
 14 30  1  0  0  0
 15 16  1  0  0  0
 15 31  1  0  0  0
 16 17  1  0  0  0
 16 20  1  0  0  0
 16 32  1  0  0  0
 17 33  1  0  0  0
 17 34  1  0  0  0
 18 35  1  0  0  0
 20 36  1  0  0  0
 21 37  1  0  0  0
 21 38  1  0  0  0
 21 39  1  0  0  0
M  END
> <s_m_entry_id>
8779

> <s_m_entry_name>
dock_pv.289

> <s_m_Source_Path>
/home/csk/Desktop/cluster/DUD-E-result/aces

> <s_m_Source_File>
dock_pv.maegz

> <i_m_Source_File_Index>
289

> <chembl_id>
CHEMBL1524

> <chembl_pref_name>
SANGUININE

> <i_lp_mmshare_version>
53161

> <i_f3d_flags>
0

> <r_lp_tautomer_probability>
1

> <s_lp_Force_Field>
OPLS_2005

> <r_lp_Energy>
41.37002

> <b_lp_Chiralities_Consistent>
1

> <s_lp_Variant>
CHEMBL220_lig1152-1

> <s_i_glide_gridfile>
glide-grid_1e66

> <i_i_glide_lignum>
1566

> <i_i_glide_rotatable_bonds>
2

> <r_i_docking_score>
-6.99629015299251

> <r_i_glide_ligand_efficiency>
-0.349814507649626

> <r_i_glide_ligand_efficiency_sa>
-0.949542661156425

> <r_i_glide_ligand_efficiency_ln>
-1.75094067220116

> <r_i_glide_gscore>
-6.99629015299251

> <r_i_glide_lipo>
-3.01969258712357

> <r_i_glide_hbond>
-0.191567047485463

> <r_i_glide_metal>
0

> <r_i_glide_rewards>
-1.99554887852142

> <r_i_glide_evdw>
-28.8686180114746

> <r_i_glide_ecoul>
-2.30700492858887

> <r_i_glide_erotb>
0

> <r_i_glide_esite>
0

> <r_i_glide_emodel>
-42.4158233907027

> <r_i_glide_energy>
-31.1756229400635

> <r_i_glide_einternal>
1.06420946121216

> <i_i_glide_confnum>
2

> <i_i_glide_posenum>
367

> <r_i_glide_eff_state_penalty>
0

> <s_user_duplicate_titles>
CHEMBL220_lig1152,421460

> <s_m_subgroup_title>
dock_pv

> <s_m_subgroupid>
dock_pv

> <b_m_subgroup_collapsed>
0

$$$$
CHEMBL220_lig216
                    3D
 Schrodinger Suite 2021-1.
 36 38  0  0  1  0            999 V2000
    2.8694   67.9978   64.5610 C   0  0  1  0  0  0
    3.8533   68.8354   65.4391 C   0  0  0  0  0  0
    5.1043   69.2187   65.0146 C   0  0  0  0  0  0
    3.3441   68.1756   63.1066 C   0  0  0  0  0  0
    4.7828   67.6747   62.9658 C   0  0  1  0  0  0
    5.9474   69.9898   65.7794 N   0  0  0  0  0  0
    3.4812   69.3419   66.7665 C   0  0  0  0  0  0
    4.6780   66.1549   63.1891 C   0  0  0  0  0  0
    5.6678   68.7927   63.6297 C   0  0  0  0  0  0
    5.6840   70.3972   67.0469 C   0  0  0  0  0  0
    2.8849   66.4596   64.9194 C   0  0  0  0  0  0
    3.7930   65.5730   64.0462 C   0  0  0  0  0  0
    4.3309   70.1075   67.4895 C   0  0  0  0  0  0
    1.5209   68.5067   64.7529 N   0  0  0  0  0  0
    2.6553   68.7465   62.0927 C   0  0  0  0  0  0
    6.5446   70.9069   67.7587 O   0  0  0  0  0  0
    3.7399   64.0725   64.2723 C   0  0  0  0  0  0
    3.1744   68.9477   60.6864 C   0  0  0  0  0  0
    5.2630   67.2692   63.8506 H   0  0  0  0  0  0
    6.8777   70.2108   65.4514 H   0  0  0  0  0  0
    2.4955   69.1378   67.1620 H   0  0  0  0  0  0
    5.3509   65.5123   62.6411 H   0  0  0  0  0  0
    6.7314   68.5093   63.7003 H   0  0  0  0  0  0
    5.7083   69.6829   62.9980 H   0  0  0  0  0  0
    1.8818   66.0306   64.8532 H   0  0  0  0  0  0
    3.1422   66.3167   65.9676 H   0  0  0  0  0  0
    4.0289   70.4887   68.4523 H   0  0  0  0  0  0
    1.4797   69.4521   64.4016 H   0  0  0  0  0  0
    0.8654   67.9585   64.2172 H   0  0  0  0  0  0
    1.6481   69.1039   62.2520 H   0  0  0  0  0  0
    2.7604   63.6856   63.9967 H   0  0  0  0  0  0
    4.4874   63.5445   63.6769 H   0  0  0  0  0  0
    3.9287   63.8389   65.3212 H   0  0  0  0  0  0
    3.6167   69.9414   60.6053 H   0  0  0  0  0  0
    2.3590   68.8868   59.9678 H   0  0  0  0  0  0
    3.9421   68.2156   60.4279 H   0  0  0  0  0  0
  1  2  1  0  0  0
  1  4  1  0  0  0
  1 11  1  0  0  0
  1 14  1  0  0  0
  2  3  2  0  0  0
  2  7  1  0  0  0
  3  6  1  0  0  0
  3  9  1  0  0  0
  4  5  1  0  0  0
  4 15  2  0  0  0
  5  9  1  0  0  0
  5 19  1  0  0  0
  5  8  1  0  0  0
  6 10  1  0  0  0
  6 20  1  0  0  0
  7 13  2  0  0  0
  7 21  1  0  0  0
  8 12  2  0  0  0
  8 22  1  0  0  0
  9 23  1  0  0  0
  9 24  1  0  0  0
 10 13  1  0  0  0
 10 16  2  0  0  0
 11 12  1  0  0  0
 11 25  1  0  0  0
 11 26  1  0  0  0
 12 17  1  0  0  0
 13 27  1  0  0  0
 14 28  1  0  0  0
 14 29  1  0  0  0
 15 18  1  0  0  0
 15 30  1  0  0  0
 17 31  1  0  0  0
 17 32  1  0  0  0
 17 33  1  0  0  0
 18 34  1  0  0  0
 18 35  1  0  0  0
 18 36  1  0  0  0
M  END
> <s_m_entry_id>
8780

> <s_m_entry_name>
dock_pv.290

> <s_m_Source_Path>
/home/csk/Desktop/cluster/DUD-E-result/aces

> <s_m_Source_File>
dock_pv.maegz

> <i_m_Source_File_Index>
290

> <chembl_id>
CHEMBL1255901

> <chembl_pref_name>
HUPERZINE A

> <i_lp_mmshare_version>
53161

> <i_f3d_flags>
0

> <r_lp_tautomer_probability>
0.999

> <s_lp_Force_Field>
OPLS_2005

> <r_lp_Energy>
85.141237

> <b_lp_Chiralities_Consistent>
1

> <s_lp_Variant>
CHEMBL220_lig216-1

> <s_i_glide_gridfile>
glide-grid_1e66

> <i_i_glide_lignum>
240

> <i_i_glide_rotatable_bonds>
0

> <r_i_docking_score>
-6.99508065768683

> <r_i_glide_ligand_efficiency>
-0.388615592093713

> <r_i_glide_ligand_efficiency_sa>
-1.01846096765375

> <r_i_glide_ligand_efficiency_ln>
-1.7980494135269

> <r_i_glide_gscore>
-6.99508065768683

> <r_i_glide_lipo>
-2.55870357775359

> <r_i_glide_hbond>
-0.238055928822051

> <r_i_glide_metal>
0

> <r_i_glide_rewards>
-2.41708094415432

> <r_i_glide_evdw>
-31.5665550231934

> <r_i_glide_ecoul>
-1.35274970531464

> <r_i_glide_erotb>
0

> <r_i_glide_esite>
0

> <r_i_glide_emodel>
-45.6998857819619

> <r_i_glide_energy>
-32.919304728508

> <r_i_glide_einternal>
0

> <i_i_glide_confnum>
1

> <i_i_glide_posenum>
85

> <r_i_glide_eff_state_penalty>
0

> <s_user_duplicate_titles>
CHEMBL220_lig216

> <s_m_subgroup_title>
dock_pv

> <s_m_subgroupid>
dock_pv

> <b_m_subgroup_collapsed>
0

$$$$
CHEMBL220_lig388
                    3D
 Schrodinger Suite 2021-1.
 55 57  0  0  1  0            999 V2000
    1.5020   67.4058   66.2678 N   0  0  0  0  0  0
    1.1426   66.9086   67.4582 N   0  0  0  0  0  0
    0.6000   68.0448   65.4733 C   0  0  0  0  0  0
   -0.1350   67.0189   67.9010 C   0  0  0  0  0  0
    1.1122   68.4884   64.1359 C   0  0  0  0  0  0
   -0.7256   68.2105   65.9012 C   0  0  0  0  0  0
   -0.4834   66.5080   69.1638 N   0  0  0  0  0  0
    4.3950   63.0407   70.8625 N   0  0  2  0  0  0
   -1.1014   67.6766   67.1370 C   0  0  0  0  0  0
    5.2648   62.0493   71.5044 C   0  0  0  0  0  0
    4.4761   60.9264   72.1701 C   0  0  0  0  0  0
    3.5753   62.4830   69.7824 C   0  0  0  0  0  0
    0.2447   68.6003   63.0403 C   0  0  0  0  0  0
    2.4829   68.7241   63.9286 C   0  0  0  0  0  0
    0.4751   65.9255   70.1008 C   0  0  0  0  0  0
    5.1436   64.2035   70.3802 C   0  0  0  0  0  0
    4.3066   59.7082   71.5092 C   0  0  0  0  0  0
    3.8295   61.1508   73.3864 C   0  0  0  0  0  0
    2.3615   63.3753   69.4995 C   0  0  0  0  0  0
    0.2141   64.4327   70.3721 C   0  0  0  0  0  0
    1.4700   63.6331   70.7254 C   0  0  0  0  0  0
    0.7359   68.9086   61.7742 C   0  0  0  0  0  0
    2.9776   69.0202   62.6626 C   0  0  0  0  0  0
    3.5426   58.6988   72.0884 C   0  0  0  0  0  0
    3.0712   60.1414   73.9722 C   0  0  0  0  0  0
    2.1007   69.0999   61.5880 C   0  0  0  0  0  0
    2.9366   58.9166   73.3232 C   0  0  0  0  0  0
   -1.4557   68.7218   65.2924 H   0  0  0  0  0  0
   -1.4489   66.5644   69.4503 H   0  0  0  0  0  0
   -2.1170   67.7820   67.4897 H   0  0  0  0  0  0
    5.8645   62.5322   72.2778 H   0  0  0  0  0  0
    5.9543   61.6297   70.7724 H   0  0  0  0  0  0
    4.1756   62.3431   68.8817 H   0  0  0  0  0  0
    3.1847   61.5020   70.0462 H   0  0  0  0  0  0
   -0.8123   68.4087   63.1524 H   0  0  0  0  0  0
    3.1834   68.6589   64.7489 H   0  0  0  0  0  0
    0.4260   66.4798   71.0394 H   0  0  0  0  0  0
    1.4919   66.0702   69.7368 H   0  0  0  0  0  0
    4.4748   64.9845   70.0202 H   0  0  0  0  0  0
    5.7383   64.6574   71.1680 H   0  0  0  0  0  0
    5.8232   63.9444   69.5679 H   0  0  0  0  0  0
    4.7544   59.5466   70.5425 H   0  0  0  0  0  0
    3.9182   62.1048   73.8831 H   0  0  0  0  0  0
    2.6631   64.2969   69.0024 H   0  0  0  0  0  0
    1.7525   62.8530   68.7680 H   0  0  0  0  0  0
   -0.2886   63.9608   69.5255 H   0  0  0  0  0  0
   -0.4564   64.3481   71.2218 H   0  0  0  0  0  0
    1.1720   62.6742   71.1526 H   0  0  0  0  0  0
    2.0264   64.1484   71.5107 H   0  0  0  0  0  0
    0.0658   68.9708   60.9307 H   0  0  0  0  0  0
    4.0359   69.1841   62.5147 H   0  0  0  0  0  0
    3.4206   57.7488   71.5890 H   0  0  0  0  0  0
    2.5869   60.3110   74.9229 H   0  0  0  0  0  0
    2.4849   69.3079   60.6020 H   0  0  0  0  0  0
    2.3508   58.1311   73.7780 H   0  0  0  0  0  0
  1  2  1  0  0  0
  1  3  2  0  0  0
  2  4  2  0  0  0
  3  5  1  0  0  0
  3  6  1  0  0  0
  4  7  1  0  0  0
  4  9  1  0  0  0
  5 13  1  0  0  0
  5 14  2  0  0  0
  6  9  2  0  0  0
  6 28  1  0  0  0
  7 15  1  0  0  0
  7 29  1  0  0  0
  8 12  1  0  0  0
  8 10  1  0  0  0
  8 16  1  0  0  0
  9 30  1  0  0  0
 10 11  1  0  0  0
 10 31  1  0  0  0
 10 32  1  0  0  0
 11 17  2  0  0  0
 11 18  1  0  0  0
 12 19  1  0  0  0
 12 33  1  0  0  0
 12 34  1  0  0  0
 13 22  2  0  0  0
 13 35  1  0  0  0
 14 23  1  0  0  0
 14 36  1  0  0  0
 15 20  1  0  0  0
 15 37  1  0  0  0
 15 38  1  0  0  0
 16 39  1  0  0  0
 16 40  1  0  0  0
 16 41  1  0  0  0
 17 24  1  0  0  0
 17 42  1  0  0  0
 18 25  2  0  0  0
 18 43  1  0  0  0
 19 21  1  0  0  0
 19 44  1  0  0  0
 19 45  1  0  0  0
 20 21  1  0  0  0
 20 46  1  0  0  0
 20 47  1  0  0  0
 21 48  1  0  0  0
 21 49  1  0  0  0
 22 26  1  0  0  0
 22 50  1  0  0  0
 23 26  2  0  0  0
 23 51  1  0  0  0
 24 27  2  0  0  0
 24 52  1  0  0  0
 25 27  1  0  0  0
 25 53  1  0  0  0
 26 54  1  0  0  0
 27 55  1  0  0  0
M  END
> <s_m_entry_id>
8781

> <s_m_entry_name>
dock_pv.291

> <s_m_Source_Path>
/home/csk/Desktop/cluster/DUD-E-result/aces

> <s_m_Source_File>
dock_pv.maegz

> <i_m_Source_File_Index>
291

> <chembl_id>
CHEMBL553187

> <chembl_pref_name>
None

> <i_lp_mmshare_version>
53161

> <i_f3d_flags>
0

> <r_lp_tautomer_probability>
0.999978240473126

> <s_lp_Force_Field>
OPLS_2005

> <r_lp_Energy>
29.706477

> <b_lp_Chiralities_Consistent>
1

> <s_lp_Variant>
CHEMBL220_lig388-1

> <s_i_glide_gridfile>
glide-grid_1e66

> <i_i_glide_lignum>
447

> <i_i_glide_rotatable_bonds>
10

> <r_i_docking_score>
-6.98577358031075

> <r_i_glide_ligand_efficiency>
-0.258732354826324

> <r_i_glide_ligand_efficiency_sa>
-0.776197063626233

> <r_i_glide_ligand_efficiency_ln>
-1.62617292001789

> <r_i_glide_gscore>
-6.98577358031075

> <r_i_glide_lipo>
-4.63062991713607

> <r_i_glide_hbond>
0

> <r_i_glide_metal>
0

> <r_i_glide_rewards>
-1.52248755414946

> <r_i_glide_evdw>
-44.864315032959

> <r_i_glide_ecoul>
0.567581951618195

> <r_i_glide_erotb>
1.32826263786111

> <r_i_glide_esite>
-0.0028402879811142

> <r_i_glide_emodel>
-58.828525763551

> <r_i_glide_energy>
-44.2967330813408

> <r_i_glide_einternal>
7.95547676086426

> <i_i_glide_confnum>
30

> <i_i_glide_posenum>
284

> <r_i_glide_eff_state_penalty>
0

> <s_user_duplicate_titles>
CHEMBL220_lig388,552514

> <s_m_subgroup_title>
dock_pv

> <s_m_subgroupid>
dock_pv

> <b_m_subgroup_collapsed>
0

$$$$
CHEMBL220_lig1024
                    3D
 Schrodinger Suite 2021-1.
 32 34  0  0  1  0            999 V2000
   -1.6745   68.3913   67.2304 O   0  0  0  0  0  0
    3.3950   68.8244   65.0932 N   0  0  0  0  0  0
    3.5618   68.3585   61.3592 N   0  0  1  0  0  0
    1.1755   68.5080   64.8461 C   0  0  0  0  0  0
    1.7819   68.6103   63.5470 C   0  0  0  0  0  0
    3.1486   68.7134   63.7465 C   0  0  0  0  0  0
    2.2107   68.7534   65.7975 C   0  0  0  0  0  0
    4.1803   68.7962   62.6186 C   0  0  1  0  0  0
   -0.1429   68.3530   65.3043 C   0  0  0  0  0  0
    1.1951   68.6520   62.1411 C   0  0  0  0  0  0
    1.9429   68.9077   67.1594 C   0  0  0  0  0  0
   -0.4166   68.4822   66.6736 C   0  0  0  0  0  0
    0.6190   68.7567   67.5639 C   0  0  0  0  0  0
    2.2934   69.0544   61.1159 C   0  0  0  0  0  0
    5.5016   68.0819   62.9333 C   0  0  0  0  0  0
   -2.7915   68.1048   66.4040 C   0  0  0  0  0  0
    4.3210   68.9869   65.4611 H   0  0  0  0  0  0
    4.2336   68.5084   60.6097 H   0  0  0  0  0  0
    4.4277   69.8517   62.4876 H   0  0  0  0  0  0
   -0.9348   68.1829   64.5920 H   0  0  0  0  0  0
    0.3629   69.3525   62.0670 H   0  0  0  0  0  0
    0.7480   67.7081   61.8540 H   0  0  0  0  0  0
    2.7157   69.1486   67.8742 H   0  0  0  0  0  0
    0.3832   68.8684   68.6113 H   0  0  0  0  0  0
    1.9461   68.8915   60.0962 H   0  0  0  0  0  0
    2.4630   70.1303   61.1818 H   0  0  0  0  0  0
    5.9882   68.5045   63.8122 H   0  0  0  0  0  0
    5.3385   67.0192   63.1107 H   0  0  0  0  0  0
    6.1997   68.1723   62.0997 H   0  0  0  0  0  0
   -3.6887   68.1125   67.0190 H   0  0  0  0  0  0
   -2.9227   68.8459   65.6155 H   0  0  0  0  0  0
   -2.7013   67.1115   65.9681 H   0  0  0  0  0  0
  1 12  1  0  0  0
  1 16  1  0  0  0
  2  6  1  0  0  0
  2  7  1  0  0  0
  2 17  1  0  0  0
  3  8  1  0  0  0
  3 14  1  0  0  0
  3 18  1  0  0  0
  4  5  1  0  0  0
  4  7  1  0  0  0
  4  9  2  0  0  0
  5  6  2  0  0  0
  5 10  1  0  0  0
  6  8  1  0  0  0
  7 11  2  0  0  0
  8 15  1  0  0  0
  8 19  1  0  0  0
  9 12  1  0  0  0
  9 20  1  0  0  0
 10 14  1  0  0  0
 10 21  1  0  0  0
 10 22  1  0  0  0
 11 13  1  0  0  0
 11 23  1  0  0  0
 12 13  2  0  0  0
 13 24  1  0  0  0
 14 25  1  0  0  0
 14 26  1  0  0  0
 15 27  1  0  0  0
 15 28  1  0  0  0
 15 29  1  0  0  0
 16 30  1  0  0  0
 16 31  1  0  0  0
 16 32  1  0  0  0
M  END
> <s_m_entry_id>
8782

> <s_m_entry_name>
dock_pv.292

> <s_m_Source_Path>
/home/csk/Desktop/cluster/DUD-E-result/aces

> <s_m_Source_File>
dock_pv.maegz

> <i_m_Source_File_Index>
292

> <chembl_id>
CHEMBL221811

> <chembl_pref_name>
ADRENOGLOMERULOTROPIN

> <i_lp_mmshare_version>
53161

> <i_f3d_flags>
0

> <r_lp_tautomer_probability>
1

> <s_lp_Force_Field>
OPLS_2005

> <r_lp_Energy>
16.984363

> <b_lp_Chiralities_Consistent>
1

> <s_lp_Variant>
CHEMBL220_lig1024-2

> <s_i_glide_gridfile>
glide-grid_1e66

> <i_i_glide_lignum>
1423

> <i_i_glide_rotatable_bonds>
1

> <r_i_docking_score>
-6.98397055424071

> <r_i_glide_ligand_efficiency>
-0.436498159640045

> <r_i_glide_ligand_efficiency_sa>
-1.0999064381252

> <r_i_glide_ligand_efficiency_ln>
-1.85124090338009

> <r_i_glide_gscore>
-6.98397055424071

> <r_i_glide_lipo>
-2.88153652986881

> <r_i_glide_hbond>
-0.0821317982151607

> <r_i_glide_metal>
0

> <r_i_glide_rewards>
-1.93445947370008

> <r_i_glide_evdw>
-29.3454627990723

> <r_i_glide_ecoul>
-4.12379741668701

> <r_i_glide_erotb>
0

> <r_i_glide_esite>
0

> <r_i_glide_emodel>
-47.0757986329029

> <r_i_glide_energy>
-33.4692602157593

> <r_i_glide_einternal>
0.00670614466071129

> <i_i_glide_confnum>
1

> <i_i_glide_posenum>
69

> <r_i_glide_eff_state_penalty>
0

> <s_user_duplicate_titles>
CHEMBL220_lig1024

> <s_m_subgroup_title>
dock_pv

> <s_m_subgroupid>
dock_pv

> <b_m_subgroup_collapsed>
0

$$$$
CHEMBL220_lig351
                    3D
 Schrodinger Suite 2021-1.
 50 51  0  0  1  0            999 V2000
    2.9316   62.9131   70.3805 N   0  3  0  0  0  0
    1.5803   68.3966   65.8222 C   0  0  0  0  0  0
    1.9078   63.9982   70.1233 C   0  0  0  0  0  0
    1.1710   68.1843   64.4981 C   0  0  0  0  0  0
    2.0037   68.5077   63.4255 C   0  0  0  0  0  0
    0.6480   68.0487   66.9438 C   0  0  0  0  0  0
    3.3013   68.9900   63.6537 C   0  0  0  0  0  0
    2.2920   65.3505   69.9677 C   0  0  0  0  0  0
    2.8610   68.9174   66.0460 C   0  0  0  0  0  0
   -0.3874   67.4060   66.7681 O   0  0  0  0  0  0
    3.7141   69.2015   64.9792 C   0  0  0  0  0  0
    0.8939   68.6499   68.3416 C   0  0  0  0  0  0
    1.3452   66.3168   69.5681 C   0  0  0  0  0  0
    1.7074   67.8051   69.3653 C   0  0  0  0  0  0
    1.5329   68.2928   62.1537 O   0  0  0  0  0  0
    4.1013   69.2195   62.5482 O   0  0  0  0  0  0
    2.4217   61.4551   70.1726 C   0  0  0  0  0  0
    4.1395   63.0558   69.4283 C   0  0  0  0  0  0
    3.4423   62.9607   71.8318 C   0  0  0  0  0  0
    0.5709   63.6326   69.9658 C   0  0  0  0  0  0
   -0.3436   64.5856   69.5680 C   0  0  0  0  0  0
    0.0166   65.9163   69.4072 C   0  0  0  0  0  0
    1.1402   69.4696   61.4612 C   0  0  0  0  0  0
    5.4468   69.6512   62.7287 C   0  0  0  0  0  0
    0.1887   67.7829   64.2830 H   0  0  0  0  0  0
    3.3162   65.6592   70.1150 H   0  0  0  0  0  0
    3.2227   69.1011   67.0469 H   0  0  0  0  0  0
    4.6957   69.5910   65.2024 H   0  0  0  0  0  0
    1.3331   69.6427   68.2419 H   0  0  0  0  0  0
   -0.0785   68.8661   68.7656 H   0  0  0  0  0  0
    2.7416   68.1064   69.1680 H   0  0  0  0  0  0
    1.5436   68.1617   70.3705 H   0  0  0  0  0  0
    3.2421   60.7531   70.3282 H   0  0  0  0  0  0
    1.6392   61.2531   70.9057 H   0  0  0  0  0  0
    2.0373   61.3771   69.1542 H   0  0  0  0  0  0
    4.7428   62.1671   69.5645 H   0  0  0  0  0  0
    3.7533   63.1104   68.4096 H   0  0  0  0  0  0
    4.7023   63.9535   69.6869 H   0  0  0  0  0  0
    4.2044   62.1931   71.9759 H   0  0  0  0  0  0
    3.8561   63.9550   71.9678 H   0  0  0  0  0  0
    2.5859   62.8064   72.4910 H   0  0  0  0  0  0
    0.2073   62.6221   70.0648 H   0  0  0  0  0  0
   -1.3381   64.2556   69.3657 H   0  0  0  0  0  0
   -0.7476   66.6256   69.1289 H   0  0  0  0  0  0
    0.6832   69.1941   60.5106 H   0  0  0  0  0  0
    0.4071   70.0472   62.0275 H   0  0  0  0  0  0
    1.9962   70.1081   61.2413 H   0  0  0  0  0  0
    5.9384   69.7078   61.7571 H   0  0  0  0  0  0
    6.0197   68.9512   63.3387 H   0  0  0  0  0  0
    5.4906   70.6418   63.1836 H   0  0  0  0  0  0
  1  3  1  0  0  0
  1 17  1  0  0  0
  1 18  1  0  0  0
  1 19  1  0  0  0
  2  6  1  0  0  0
  2  4  2  0  0  0
  2  9  1  0  0  0
  3  8  1  0  0  0
  3 20  2  0  0  0
  4  5  1  0  0  0
  4 25  1  0  0  0
  5 15  1  0  0  0
  5  7  2  0  0  0
  6 12  1  0  0  0
  6 10  2  0  0  0
  7 11  1  0  0  0
  7 16  1  0  0  0
  8 13  2  0  0  0
  8 26  1  0  0  0
  9 11  2  0  0  0
  9 27  1  0  0  0
 11 28  1  0  0  0
 12 14  1  0  0  0
 12 29  1  0  0  0
 12 30  1  0  0  0
 13 14  1  0  0  0
 13 22  1  0  0  0
 14 31  1  0  0  0
 14 32  1  0  0  0
 15 23  1  0  0  0
 16 24  1  0  0  0
 17 33  1  0  0  0
 17 34  1  0  0  0
 17 35  1  0  0  0
 18 36  1  0  0  0
 18 37  1  0  0  0
 18 38  1  0  0  0
 19 39  1  0  0  0
 19 40  1  0  0  0
 19 41  1  0  0  0
 20 21  1  0  0  0
 20 42  1  0  0  0
 21 22  2  0  0  0
 21 43  1  0  0  0
 22 44  1  0  0  0
 23 45  1  0  0  0
 23 46  1  0  0  0
 23 47  1  0  0  0
 24 48  1  0  0  0
 24 49  1  0  0  0
 24 50  1  0  0  0
M  CHG  1   1   1
M  END
> <s_m_entry_id>
8783

> <s_m_entry_name>
dock_pv.293

> <s_m_Source_Path>
/home/csk/Desktop/cluster/DUD-E-result/aces

> <s_m_Source_File>
dock_pv.maegz

> <i_m_Source_File_Index>
293

> <chembl_id>
CHEMBL294251

> <chembl_pref_name>
None

> <i_lp_mmshare_version>
53161

> <i_f3d_flags>
0

> <r_lp_tautomer_probability>
0.99990000499975

> <s_lp_Force_Field>
OPLS_2005

> <r_lp_Energy>
35.804715

> <b_lp_Chiralities_Consistent>
1

> <s_lp_Variant>
CHEMBL220_lig351-1

> <s_i_glide_gridfile>
glide-grid_1e66

> <i_i_glide_lignum>
405

> <i_i_glide_rotatable_bonds>
7

> <r_i_docking_score>
-6.9816924592529

> <r_i_glide_ligand_efficiency>
-0.290903852468871

> <r_i_glide_ligand_efficiency_sa>
-0.839111911559083

> <r_i_glide_ligand_efficiency_ln>
-1.67103937449065

> <r_i_glide_gscore>
-6.9816924592529

> <r_i_glide_lipo>
-3.43770188423364

> <r_i_glide_hbond>
0

> <r_i_glide_metal>
0

> <r_i_glide_rewards>
-2.67048337615008

> <r_i_glide_evdw>
-27.0099773406982

> <r_i_glide_ecoul>
-1.46331560611725

> <r_i_glide_erotb>
0.696489009083324

> <r_i_glide_esite>
0

> <r_i_glide_emodel>
-37.0262445022645

> <r_i_glide_energy>
-28.4732929468155

> <r_i_glide_einternal>
9.96259880065918

> <i_i_glide_confnum>
64

> <i_i_glide_posenum>
145

> <r_i_glide_eff_state_penalty>
0

> <s_user_duplicate_titles>
CHEMBL220_lig351

> <s_m_subgroup_title>
dock_pv

> <s_m_subgroupid>
dock_pv

> <b_m_subgroup_collapsed>
0

$$$$
CHEMBL220_lig648
                    3D
 Schrodinger Suite 2021-1.
 37 40  0  0  1  0            999 V2000
    1.7611   68.9291   66.5324 C   0  0  0  0  0  0
    3.0709   69.4033   66.3332 C   0  0  0  0  0  0
    1.1597   68.1751   65.5081 C   0  0  0  0  0  0
    1.7600   67.9549   64.3163 N   0  0  0  0  0  0
    0.9549   69.2051   67.8027 C   0  0  2  0  0  0
    3.7124   69.1849   65.0773 C   0  0  0  0  0  0
    1.1550   68.0637   68.7773 C   0  0  0  0  0  0
    2.9964   68.4505   64.0869 C   0  0  0  0  0  0
    0.3469   66.9951   68.8920 C   0  0  0  0  0  0
   -1.0365   67.9713   66.9393 C   0  0  2  0  0  0
   -0.2474   67.5948   65.6483 C   0  0  0  0  0  0
   -0.5492   69.3292   67.4717 C   0  0  0  0  0  0
    3.7153   70.1074   67.3614 N   0  0  0  0  0  0
   -0.8999   66.8637   68.0279 C   0  0  0  0  0  0
    5.0089   69.6695   64.7476 C   0  0  0  0  0  0
    0.6131   65.9019   69.9107 C   0  0  0  0  0  0
    3.5732   68.2200   62.8170 C   0  0  0  0  0  0
    5.5434   69.4336   63.4854 C   0  0  0  0  0  0
    4.8409   68.7106   62.5332 C   0  0  0  0  0  0
    1.2580   70.1389   68.2787 H   0  0  0  0  0  0
    2.0232   68.1073   69.4172 H   0  0  0  0  0  0
   -2.0927   68.0368   66.6712 H   0  0  0  0  0  0
   -0.1338   66.5141   65.5714 H   0  0  0  0  0  0
   -0.8259   67.9119   64.7790 H   0  0  0  0  0  0
   -0.7361   70.1081   66.7336 H   0  0  0  0  0  0
   -1.0972   69.6348   68.3657 H   0  0  0  0  0  0
    4.6301   70.4992   67.1980 H   0  0  0  0  0  0
    3.2450   70.2307   68.2456 H   0  0  0  0  0  0
   -1.7716   66.8735   68.6836 H   0  0  0  0  0  0
   -0.8853   65.8723   67.5919 H   0  0  0  0  0  0
    5.5780   70.2380   65.4678 H   0  0  0  0  0  0
   -0.1711   65.8972   70.6662 H   0  0  0  0  0  0
    0.6446   64.9242   69.4296 H   0  0  0  0  0  0
    1.5626   66.0519   70.4270 H   0  0  0  0  0  0
    3.0195   67.6728   62.0684 H   0  0  0  0  0  0
    6.5200   69.8143   63.2347 H   0  0  0  0  0  0
    5.2884   68.5360   61.5680 H   0  0  0  0  0  0
  1  2  1  0  0  0
  1  3  2  0  0  0
  1  5  1  0  0  0
  2  6  2  0  0  0
  2 13  1  0  0  0
  3  4  1  0  0  0
  3 11  1  0  0  0
  4  8  2  0  0  0
  5  7  1  0  0  0
  5 12  1  0  0  0
  5 20  1  0  0  0
  6  8  1  0  0  0
  6 15  1  0  0  0
  7  9  2  0  0  0
  7 21  1  0  0  0
  8 17  1  0  0  0
  9 14  1  0  0  0
  9 16  1  0  0  0
 10 11  1  0  0  0
 10 12  1  0  0  0
 10 14  1  0  0  0
 10 22  1  0  0  0
 11 23  1  0  0  0
 11 24  1  0  0  0
 12 25  1  0  0  0
 12 26  1  0  0  0
 13 27  1  0  0  0
 13 28  1  0  0  0
 14 29  1  0  0  0
 14 30  1  0  0  0
 15 18  2  0  0  0
 15 31  1  0  0  0
 16 32  1  0  0  0
 16 33  1  0  0  0
 16 34  1  0  0  0
 17 19  2  0  0  0
 17 35  1  0  0  0
 18 19  1  0  0  0
 18 36  1  0  0  0
 19 37  1  0  0  0
M  END
> <s_m_entry_id>
8784

> <s_m_entry_name>
dock_pv.294

> <s_m_Source_Path>
/home/csk/Desktop/cluster/DUD-E-result/aces

> <s_m_Source_File>
dock_pv.maegz

> <i_m_Source_File_Index>
294

> <chembl_id>
CHEMBL539072

> <chembl_pref_name>
None

> <i_lp_mmshare_version>
53161

> <i_f3d_flags>
0

> <r_lp_tautomer_probability>
1

> <s_lp_Force_Field>
OPLS_2005

> <r_lp_Energy>
27.868183

> <b_lp_Chiralities_Consistent>
1

> <s_lp_Variant>
CHEMBL220_lig648-1

> <s_i_glide_gridfile>
glide-grid_1e66

> <i_i_glide_lignum>
755

> <i_i_glide_rotatable_bonds>
0

> <r_i_docking_score>
-6.97707164198283

> <r_i_glide_ligand_efficiency>
-0.367214296946465

> <r_i_glide_ligand_efficiency_sa>
-0.979875234444489

> <r_i_glide_ligand_efficiency_ln>
-1.76883751500125

> <r_i_glide_gscore>
-6.97707164198283

> <r_i_glide_lipo>
-3.07996082815424

> <r_i_glide_hbond>
0

> <r_i_glide_metal>
0

> <r_i_glide_rewards>
-2.19057658311952

> <r_i_glide_evdw>
-28.0235900878906

> <r_i_glide_ecoul>
-2.0356981754303

> <r_i_glide_erotb>
0

> <r_i_glide_esite>
0

> <r_i_glide_emodel>
-40.1373396030069

> <r_i_glide_energy>
-30.0592882633209

> <r_i_glide_einternal>
0

> <i_i_glide_confnum>
1

> <i_i_glide_posenum>
60

> <r_i_glide_eff_state_penalty>
0

> <s_user_duplicate_titles>
CHEMBL220_lig648,552746,552307,643443

> <s_m_subgroup_title>
dock_pv

> <s_m_subgroupid>
dock_pv

> <b_m_subgroup_collapsed>
0

$$$$
CHEMBL220_lig304
                    3D
 Schrodinger Suite 2021-1.
 55 58  0  0  1  0            999 V2000
   -0.5991   66.1305   68.6588 C   0  0  0  0  0  0
   -0.0083   66.6448   69.9766 C   0  0  0  0  0  0
    0.9852   65.6508   70.6310 C   0  0  0  0  0  0
    0.5239   64.1782   70.7189 C   0  0  0  0  0  0
    1.5903   63.2763   71.3829 C   0  0  0  0  0  0
    2.8866   63.3515   70.6846 N   0  0  2  0  0  0
    3.9023   62.4881   71.3004 C   0  0  0  0  0  0
    3.6484   61.0044   71.0678 C   0  0  0  0  0  0
    3.3717   60.5309   69.7807 C   0  0  0  0  0  0
    3.1637   59.1740   69.5692 C   0  0  0  0  0  0
    3.2422   58.2884   70.6423 C   0  0  0  0  0  0
    3.5430   58.7491   71.9224 C   0  0  0  0  0  0
    3.7657   60.1075   72.1322 C   0  0  0  0  0  0
    3.3887   64.7248   70.5779 C   0  0  0  0  0  0
    2.3537   65.6640   69.9363 C   0  0  0  0  0  0
   -1.4391   67.3079   67.5679 S   0  0  0  0  0  0
   -0.2015   67.8685   66.4407 C   0  0  0  0  0  0
   -0.5675   68.2121   65.1422 C   0  0  0  0  0  0
    0.4440   68.5055   64.2306 C   0  0  0  0  0  0
    1.7720   68.5043   64.6773 C   0  0  0  0  0  0
    2.0640   68.1970   65.9727 N   0  0  0  0  0  0
    1.0952   67.8719   66.8421 N   0  0  0  0  0  0
    2.9315   68.8556   63.8021 C   0  0  0  0  0  0
    2.8555   68.6896   62.4110 C   0  0  0  0  0  0
    3.9379   69.0070   61.5982 C   0  0  0  0  0  0
    5.1066   69.4978   62.1676 C   0  0  0  0  0  0
    5.2077   69.6773   63.5403 C   0  0  0  0  0  0
    4.1254   69.3527   64.3514 C   0  0  0  0  0  0
    0.1941   65.7080   68.0584 H   0  0  0  0  0  0
   -1.2571   65.3023   68.8718 H   0  0  0  0  0  0
   -0.8046   66.8989   70.6783 H   0  0  0  0  0  0
    0.5004   67.5943   69.7937 H   0  0  0  0  0  0
    1.1413   65.9847   71.6496 H   0  0  0  0  0  0
    0.2835   63.7709   69.7367 H   0  0  0  0  0  0
   -0.4126   64.1151   71.2728 H   0  0  0  0  0  0
    1.2396   62.2431   71.3844 H   0  0  0  0  0  0
    1.7267   63.5541   72.4286 H   0  0  0  0  0  0
    3.9686   62.6916   72.3689 H   0  0  0  0  0  0
    4.8918   62.7069   70.8923 H   0  0  0  0  0  0
    3.2997   61.2225   68.9547 H   0  0  0  0  0  0
    2.9287   58.8091   68.5805 H   0  0  0  0  0  0
    3.0647   57.2349   70.4812 H   0  0  0  0  0  0
    3.6127   58.0538   72.7474 H   0  0  0  0  0  0
    4.0097   60.4609   73.1236 H   0  0  0  0  0  0
    3.6731   65.0801   71.5636 H   0  0  0  0  0  0
    4.3023   64.7313   69.9811 H   0  0  0  0  0  0
    2.7404   66.6792   69.9687 H   0  0  0  0  0  0
    2.2688   65.4201   68.8785 H   0  0  0  0  0  0
   -1.6019   68.1938   64.8286 H   0  0  0  0  0  0
    0.1860   68.7662   63.2149 H   0  0  0  0  0  0
    1.9622   68.2990   61.9473 H   0  0  0  0  0  0
    3.8813   68.8667   60.5280 H   0  0  0  0  0  0
    5.9425   69.7323   61.5292 H   0  0  0  0  0  0
    6.1172   70.0653   63.9723 H   0  0  0  0  0  0
    4.2206   69.5101   65.4172 H   0  0  0  0  0  0
  1  2  1  0  0  0
  1 16  1  0  0  0
  1 29  1  0  0  0
  1 30  1  0  0  0
  2  3  1  0  0  0
  2 31  1  0  0  0
  2 32  1  0  0  0
  3  4  1  0  0  0
  3 15  1  0  0  0
  3 33  1  0  0  0
  4  5  1  0  0  0
  4 34  1  0  0  0
  4 35  1  0  0  0
  5  6  1  0  0  0
  5 36  1  0  0  0
  5 37  1  0  0  0
  6  7  1  0  0  0
  6 14  1  0  0  0
  7  8  1  0  0  0
  7 38  1  0  0  0
  7 39  1  0  0  0
  8  9  2  0  0  0
  8 13  1  0  0  0
  9 10  1  0  0  0
  9 40  1  0  0  0
 10 11  2  0  0  0
 10 41  1  0  0  0
 11 12  1  0  0  0
 11 42  1  0  0  0
 12 13  2  0  0  0
 12 43  1  0  0  0
 13 44  1  0  0  0
 14 15  1  0  0  0
 14 45  1  0  0  0
 14 46  1  0  0  0
 15 47  1  0  0  0
 15 48  1  0  0  0
 16 17  1  0  0  0
 17 18  2  0  0  0
 17 22  1  0  0  0
 18 19  1  0  0  0
 18 49  1  0  0  0
 19 20  2  0  0  0
 19 50  1  0  0  0
 20 21  1  0  0  0
 20 23  1  0  0  0
 21 22  2  0  0  0
 23 24  2  0  0  0
 23 28  1  0  0  0
 24 25  1  0  0  0
 24 51  1  0  0  0
 25 26  2  0  0  0
 25 52  1  0  0  0
 26 27  1  0  0  0
 26 53  1  0  0  0
 27 28  2  0  0  0
 27 54  1  0  0  0
 28 55  1  0  0  0
M  END
> <s_m_entry_id>
8785

> <s_m_entry_name>
dock_pv.295

> <s_m_Source_Path>
/home/csk/Desktop/cluster/DUD-E-result/aces

> <s_m_Source_File>
dock_pv.maegz

> <i_m_Source_File_Index>
295

> <chembl_id>
CHEMBL1202874

> <chembl_pref_name>
None

> <i_lp_mmshare_version>
53161

> <i_f3d_flags>
0

> <r_lp_tautomer_probability>
1

> <s_lp_Force_Field>
OPLS_2005

> <r_lp_Energy>
34.940708

> <b_lp_Chiralities_Consistent>
1

> <s_lp_Variant>
CHEMBL220_lig304-1

> <s_i_glide_gridfile>
glide-grid_1e66

> <i_i_glide_lignum>
358

> <i_i_glide_rotatable_bonds>
7

> <r_i_docking_score>
-6.97670997143748

> <r_i_glide_ligand_efficiency>
-0.249168213265624

> <r_i_glide_ligand_efficiency_sa>
-0.756621447703952

> <r_i_glide_ligand_efficiency_ln>
-1.61042950651361

> <r_i_glide_gscore>
-6.97670997143748

> <r_i_glide_lipo>
-5.01278501257801

> <r_i_glide_hbond>
0

> <r_i_glide_metal>
0

> <r_i_glide_rewards>
-0.371093277505194

> <r_i_glide_evdw>
-46.9207763671875

> <r_i_glide_ecoul>
-0.973741114139557

> <r_i_glide_erotb>
0.899268304126032

> <r_i_glide_esite>
0

> <r_i_glide_emodel>
-60.4489826299798

> <r_i_glide_energy>
-47.8945174813271

> <r_i_glide_einternal>
8.61517906188965

> <i_i_glide_confnum>
48

> <i_i_glide_posenum>
307

> <r_i_glide_eff_state_penalty>
0

> <s_user_duplicate_titles>
CHEMBL220_lig304,676825

> <s_m_subgroup_title>
dock_pv

> <s_m_subgroupid>
dock_pv

> <b_m_subgroup_collapsed>
0

$$$$
CHEMBL220_lig505
                    3D
 Schrodinger Suite 2021-1.
 45 48  0  0  1  0            999 V2000
    1.8945   68.3516   65.7199 C   0  0  0  0  0  0
    2.9830   69.0484   66.3567 C   0  0  0  0  0  0
    1.4375   69.8841   68.0069 N   0  0  0  0  0  0
    0.5940   68.4716   66.2308 C   0  0  0  0  0  0
    0.4186   69.3093   67.3321 C   0  0  0  0  0  0
    2.6926   69.7874   67.5381 C   0  0  0  0  0  0
    2.0340   67.5425   64.5853 N   0  0  0  0  0  0
    4.3322   69.0433   65.9168 C   0  0  0  0  0  0
    3.7075   70.5003   68.2274 C   0  0  0  0  0  0
    1.9841   68.2705   63.3188 C   0  0  0  0  0  0
    5.3083   69.8008   66.5653 C   0  0  0  0  0  0
    5.0020   70.5087   67.7234 C   0  0  0  0  0  0
   -0.6088   67.7079   65.6439 C   0  0  0  0  0  0
    3.3944   68.4001   62.8098 C   0  0  0  0  0  0
   -0.9627   69.7265   67.7616 C   0  0  0  0  0  0
    6.7103   69.8398   66.0113 C   0  0  0  0  0  0
    4.0550   69.6245   62.8769 C   0  0  0  0  0  0
    4.0779   67.2434   62.4494 C   0  0  0  0  0  0
   -1.9956   68.2035   66.0979 C   0  0  0  0  0  0
   -1.9781   68.5901   67.5683 C   0  0  0  0  0  0
    5.4424   67.3001   62.2452 C   0  0  0  0  0  0
    5.4231   69.6827   62.6634 C   0  0  0  0  0  0
    6.1101   68.5096   62.3715 C   0  0  0  0  0  0
    1.3138   66.8340   64.5846 H   0  0  0  0  0  0
    4.6118   68.4325   65.0757 H   0  0  0  0  0  0
    3.4604   71.0567   69.1208 H   0  0  0  0  0  0
    1.5077   69.2492   63.4154 H   0  0  0  0  0  0
    1.3854   67.7098   62.6010 H   0  0  0  0  0  0
    5.7665   71.0789   68.2310 H   0  0  0  0  0  0
   -0.5790   67.7092   64.5544 H   0  0  0  0  0  0
   -0.4997   66.6704   65.9679 H   0  0  0  0  0  0
   -1.2749   70.5852   67.1664 H   0  0  0  0  0  0
   -0.8572   70.1093   68.7679 H   0  0  0  0  0  0
    6.7431   70.6072   65.2378 H   0  0  0  0  0  0
    7.4490   70.0619   66.7811 H   0  0  0  0  0  0
    6.9809   68.8779   65.5715 H   0  0  0  0  0  0
    3.5395   70.5078   63.2044 H   0  0  0  0  0  0
    3.5587   66.2993   62.4046 H   0  0  0  0  0  0
   -2.3100   69.0541   65.4906 H   0  0  0  0  0  0
   -2.7441   67.4241   65.9652 H   0  0  0  0  0  0
   -2.9694   68.9065   67.8867 H   0  0  0  0  0  0
   -1.7237   67.7064   68.1583 H   0  0  0  0  0  0
    5.9875   66.4158   61.9737 H   0  0  0  0  0  0
    5.9427   70.6232   62.7657 H   0  0  0  0  0  0
    7.1764   68.5341   62.2159 H   0  0  0  0  0  0
  1  2  1  0  0  0
  1  4  2  0  0  0
  1  7  1  0  0  0
  2  6  1  0  0  0
  2  8  2  0  0  0
  3  5  2  0  0  0
  3  6  1  0  0  0
  4  5  1  0  0  0
  4 13  1  0  0  0
  5 15  1  0  0  0
  6  9  2  0  0  0
  7 10  1  0  0  0
  7 24  1  0  0  0
  8 11  1  0  0  0
  8 25  1  0  0  0
  9 12  1  0  0  0
  9 26  1  0  0  0
 10 14  1  0  0  0
 10 27  1  0  0  0
 10 28  1  0  0  0
 11 12  2  0  0  0
 11 16  1  0  0  0
 12 29  1  0  0  0
 13 19  1  0  0  0
 13 30  1  0  0  0
 13 31  1  0  0  0
 14 17  2  0  0  0
 14 18  1  0  0  0
 15 20  1  0  0  0
 15 32  1  0  0  0
 15 33  1  0  0  0
 16 34  1  0  0  0
 16 35  1  0  0  0
 16 36  1  0  0  0
 17 22  1  0  0  0
 17 37  1  0  0  0
 18 21  2  0  0  0
 18 38  1  0  0  0
 19 20  1  0  0  0
 19 39  1  0  0  0
 19 40  1  0  0  0
 20 41  1  0  0  0
 20 42  1  0  0  0
 21 23  1  0  0  0
 21 43  1  0  0  0
 22 23  2  0  0  0
 22 44  1  0  0  0
 23 45  1  0  0  0
M  END
> <s_m_entry_id>
8786

> <s_m_entry_name>
dock_pv.296

> <s_m_Source_Path>
/home/csk/Desktop/cluster/DUD-E-result/aces

> <s_m_Source_File>
dock_pv.maegz

> <i_m_Source_File_Index>
296

> <chembl_id>
CHEMBL64815

> <chembl_pref_name>
None

> <i_lp_mmshare_version>
53161

> <i_f3d_flags>
0

> <r_lp_tautomer_probability>
1

> <s_lp_Force_Field>
OPLS_2005

> <r_lp_Energy>
29.28263

> <b_lp_Chiralities_Consistent>
1

> <s_lp_Variant>
CHEMBL220_lig505-1

> <s_i_glide_gridfile>
glide-grid_1e66

> <i_i_glide_lignum>
583

> <i_i_glide_rotatable_bonds>
3

> <r_i_docking_score>
-6.97489849115966

> <r_i_glide_ligand_efficiency>
-0.303256456137377

> <r_i_glide_ligand_efficiency_sa>
-0.862421021134518

> <r_i_glide_ligand_efficiency_ln>
-1.68659370004525

> <r_i_glide_gscore>
-6.97489849115966

> <r_i_glide_lipo>
-4.06343242445719

> <r_i_glide_hbond>
0

> <r_i_glide_metal>
0

> <r_i_glide_rewards>
-2.09399122320303

> <r_i_glide_evdw>
-28.044340133667

> <r_i_glide_ecoul>
-0.128186196088791

> <r_i_glide_erotb>
0.603970092597233

> <r_i_glide_esite>
0

> <r_i_glide_emodel>
-32.3012319579105

> <r_i_glide_energy>
-28.1725263297558

> <r_i_glide_einternal>
0.952538251876831

> <i_i_glide_confnum>
44

> <i_i_glide_posenum>
354

> <r_i_glide_eff_state_penalty>
0

> <s_user_duplicate_titles>
CHEMBL220_lig505

> <s_m_subgroup_title>
dock_pv

> <s_m_subgroupid>
dock_pv

> <b_m_subgroup_collapsed>
0

$$$$
CHEMBL220_lig426
                    3D
 Schrodinger Suite 2021-1.
 55 58  0  0  1  0            999 V2000
   -0.0655   67.0850   66.6878 N   0  0  0  0  0  0
    1.7299   68.4579   66.7112 C   0  0  0  0  0  0
    1.4424   68.0942   65.3959 C   0  0  0  0  0  0
    0.3433   67.3034   65.3680 O   0  0  0  0  0  0
    0.7700   67.7347   67.4705 C   0  0  0  0  0  0
    3.0409   63.0925   70.5869 N   0  0  2  0  0  0
    2.2059   68.4952   64.3055 C   0  0  0  0  0  0
    2.8050   69.3179   66.9638 C   0  0  0  0  0  0
    4.3872   69.2530   62.3538 C   0  0  0  0  0  0
    4.2368   69.7075   63.6074 N   0  0  0  0  0  0
    3.3346   69.2821   64.5839 C   0  0  0  0  0  0
    0.6423   67.7248   68.9699 C   0  0  0  0  0  0
    3.7601   68.3297   61.8340 O   0  0  0  0  0  0
    4.1348   62.1440   70.3375 C   0  0  0  0  0  0
    3.6094   69.7022   65.8899 C   0  0  0  0  0  0
    1.8374   62.7886   69.7834 C   0  0  0  0  0  0
    3.5325   64.4725   70.4321 C   0  0  0  0  0  0
    0.1970   66.3831   69.6052 C   0  0  0  0  0  0
    3.8506   60.7555   70.8973 C   0  0  0  0  0  0
    1.2932   65.2868   69.5671 C   0  0  0  0  0  0
    2.3983   65.5008   70.5905 C   0  0  0  0  0  0
    0.7396   63.8778   69.8703 C   0  0  0  0  0  0
    5.4679   69.9541   61.5676 C   0  0  0  0  0  0
    3.3335   59.7537   70.0688 C   0  0  0  0  0  0
    4.0221   60.5159   72.2635 C   0  0  0  0  0  0
    3.7010   59.2706   72.7960 C   0  0  0  0  0  0
    3.0127   58.5081   70.6028 C   0  0  0  0  0  0
    3.1952   58.2735   71.9635 C   0  0  0  0  0  0
    1.9253   68.1832   63.3128 H   0  0  0  0  0  0
    3.0448   69.6311   67.9696 H   0  0  0  0  0  0
    4.8883   70.4154   63.9093 H   0  0  0  0  0  0
    1.5707   68.0519   69.4372 H   0  0  0  0  0  0
   -0.0569   68.5231   69.1677 H   0  0  0  0  0  0
    4.3304   62.0847   69.2655 H   0  0  0  0  0  0
    5.0507   62.5052   70.8108 H   0  0  0  0  0  0
    4.4642   70.3335   66.0891 H   0  0  0  0  0  0
    2.1412   62.6783   68.7458 H   0  0  0  0  0  0
    1.4325   61.8215   70.0827 H   0  0  0  0  0  0
    3.9764   64.5692   69.4395 H   0  0  0  0  0  0
    4.3326   64.6756   71.1457 H   0  0  0  0  0  0
   -0.0933   66.5641   70.6417 H   0  0  0  0  0  0
   -0.7086   66.0286   69.1102 H   0  0  0  0  0  0
    1.7821   65.3096   68.5967 H   0  0  0  0  0  0
    2.8048   66.5080   70.5163 H   0  0  0  0  0  0
    1.9411   65.4370   71.5679 H   0  0  0  0  0  0
    0.2447   63.8389   70.8420 H   0  0  0  0  0  0
   -0.0611   63.6413   69.1685 H   0  0  0  0  0  0
    6.3430   69.3078   61.5677 H   0  0  0  0  0  0
    5.7306   70.9093   62.0163 H   0  0  0  0  0  0
    5.1436   70.1238   60.5419 H   0  0  0  0  0  0
    3.1677   59.9410   69.0179 H   0  0  0  0  0  0
    4.3940   61.2963   72.9127 H   0  0  0  0  0  0
    3.8363   59.0776   73.8516 H   0  0  0  0  0  0
    2.6115   57.7277   69.9703 H   0  0  0  0  0  0
    2.9486   57.3083   72.3804 H   0  0  0  0  0  0
  1  4  1  0  0  0
  1  5  2  0  0  0
  2  5  1  0  0  0
  2  8  2  0  0  0
  2  3  1  0  0  0
  3  4  1  0  0  0
  3  7  2  0  0  0
  5 12  1  0  0  0
  6 16  1  0  0  0
  6 14  1  0  0  0
  6 17  1  0  0  0
  7 11  1  0  0  0
  7 29  1  0  0  0
  8 15  1  0  0  0
  8 30  1  0  0  0
  9 10  1  0  0  0
  9 13  2  0  0  0
  9 23  1  0  0  0
 10 11  1  0  0  0
 10 31  1  0  0  0
 11 15  2  0  0  0
 12 18  1  0  0  0
 12 32  1  0  0  0
 12 33  1  0  0  0
 14 19  1  0  0  0
 14 34  1  0  0  0
 14 35  1  0  0  0
 15 36  1  0  0  0
 16 22  1  0  0  0
 16 37  1  0  0  0
 16 38  1  0  0  0
 17 21  1  0  0  0
 17 39  1  0  0  0
 17 40  1  0  0  0
 18 20  1  0  0  0
 18 41  1  0  0  0
 18 42  1  0  0  0
 19 24  2  0  0  0
 19 25  1  0  0  0
 20 21  1  0  0  0
 20 22  1  0  0  0
 20 43  1  0  0  0
 21 44  1  0  0  0
 21 45  1  0  0  0
 22 46  1  0  0  0
 22 47  1  0  0  0
 23 48  1  0  0  0
 23 49  1  0  0  0
 23 50  1  0  0  0
 24 27  1  0  0  0
 24 51  1  0  0  0
 25 26  2  0  0  0
 25 52  1  0  0  0
 26 28  1  0  0  0
 26 53  1  0  0  0
 27 28  2  0  0  0
 27 54  1  0  0  0
 28 55  1  0  0  0
M  END
> <s_m_entry_id>
8788

> <s_m_entry_name>
dock_pv.298

> <s_m_Source_Path>
/home/csk/Desktop/cluster/DUD-E-result/aces

> <s_m_Source_File>
dock_pv.maegz

> <i_m_Source_File_Index>
298

> <chembl_id>
CHEMBL92736

> <chembl_pref_name>
None

> <i_lp_mmshare_version>
53161

> <i_f3d_flags>
0

> <r_lp_tautomer_probability>
1

> <s_lp_Force_Field>
OPLS_2005

> <r_lp_Energy>
36.145032

> <b_lp_Chiralities_Consistent>
1

> <s_lp_Variant>
CHEMBL220_lig426-1

> <s_i_glide_gridfile>
glide-grid_1e66

> <i_i_glide_lignum>
486

> <i_i_glide_rotatable_bonds>
7

> <r_i_docking_score>
-6.95448071238986

> <r_i_glide_ligand_efficiency>
-0.248374311156781

> <r_i_glide_ligand_efficiency_sa>
-0.754210693318167

> <r_i_glide_ligand_efficiency_ln>
-1.60529834084601

> <r_i_glide_gscore>
-6.95448071238986

> <r_i_glide_lipo>
-3.49142449613343

> <r_i_glide_hbond>
0

> <r_i_glide_metal>
0

> <r_i_glide_rewards>
-1.94677251536299

> <r_i_glide_evdw>
-39.7009773254395

> <r_i_glide_ecoul>
-2.0442202091217

> <r_i_glide_erotb>
0.815585470720893

> <r_i_glide_esite>
-0.0401872739741002

> <r_i_glide_emodel>
-52.2797029735087

> <r_i_glide_energy>
-41.7451975345612

> <r_i_glide_einternal>
3.28204131126404

> <i_i_glide_confnum>
33

> <i_i_glide_posenum>
52

> <r_i_glide_eff_state_penalty>
0

> <s_user_duplicate_titles>
CHEMBL220_lig426,CHEMBL220_lig504

> <s_m_subgroup_title>
dock_pv

> <s_m_subgroupid>
dock_pv

> <b_m_subgroup_collapsed>
0

$$$$
CHEMBL220_lig1186
                    3D
 Schrodinger Suite 2021-1.
 49 51  0  0  1  0            999 V2000
    6.1420   70.5081   66.7245 C   0  0  0  0  0  0
    5.8032   70.9611   67.9965 C   0  0  0  0  0  0
    4.5130   70.7801   68.4899 C   0  0  0  0  0  0
    5.1897   69.9045   65.9112 C   0  0  0  0  0  0
    3.8684   69.6760   66.3941 C   0  0  0  0  0  0
    3.5415   70.1078   67.7095 C   0  0  0  0  0  0
    2.3207   69.8663   68.2488 N   0  0  0  0  0  0
    2.8499   69.0081   65.6510 C   0  0  0  0  0  0
    1.6347   68.6605   66.2564 C   0  0  0  0  0  0
    1.4005   69.1525   67.5483 C   0  0  0  0  0  0
    0.0727   68.9117   68.2449 C   0  0  0  0  0  0
   -0.8869   67.9167   67.5582 C   0  0  0  0  0  0
   -0.8190   68.0212   66.0346 C   0  0  0  0  0  0
    0.6143   67.7152   65.5949 C   0  0  0  0  0  0
    3.0714   68.6585   64.3241 N   0  0  0  0  0  0
    2.3529   69.4638   63.3563 C   0  0  0  0  0  0
    2.7278   69.0662   61.9250 C   0  0  0  0  0  0
    4.2058   69.3282   61.5678 C   0  0  0  0  0  0
    5.2006   68.5989   62.3678 N   0  0  1  0  0  0
    5.2405   67.1615   62.1063 C   0  0  0  0  0  0
    4.6419   66.3323   63.2608 C   0  0  0  0  0  0
    5.0779   64.9743   63.1680 O   0  0  0  0  0  0
    4.3487   64.0488   63.9772 N   0  3  0  0  0  0
    4.6682   62.9082   63.7531 O   0  0  0  0  0  0
    3.5413   64.4926   64.7642 O   0  5  0  0  0  0
    7.1491   70.6384   66.3540 H   0  0  0  0  0  0
    6.5470   71.4486   68.6099 H   0  0  0  0  0  0
    4.2521   71.1112   69.4850 H   0  0  0  0  0  0
    5.4694   69.5827   64.9187 H   0  0  0  0  0  0
   -0.4267   69.8724   68.3811 H   0  0  0  0  0  0
    0.3421   68.5079   69.2110 H   0  0  0  0  0  0
   -1.9076   68.0814   67.9036 H   0  0  0  0  0  0
   -0.6331   66.8988   67.8601 H   0  0  0  0  0  0
   -1.1193   69.0150   65.6992 H   0  0  0  0  0  0
   -1.5060   67.3115   65.5711 H   0  0  0  0  0  0
    0.6614   67.7004   64.5082 H   0  0  0  0  0  0
    0.8654   66.6959   65.8945 H   0  0  0  0  0  0
    4.0501   68.6552   64.0582 H   0  0  0  0  0  0
    2.6274   70.4999   63.5589 H   0  0  0  0  0  0
    1.2749   69.4412   63.5057 H   0  0  0  0  0  0
    2.0976   69.6276   61.2354 H   0  0  0  0  0  0
    2.4782   68.0204   61.7470 H   0  0  0  0  0  0
    4.4109   70.3880   61.7268 H   0  0  0  0  0  0
    4.3427   69.1570   60.5001 H   0  0  0  0  0  0
    6.1121   68.9732   62.1282 H   0  0  0  0  0  0
    6.2899   66.9063   61.9692 H   0  0  0  0  0  0
    4.7509   66.9124   61.1639 H   0  0  0  0  0  0
    3.5523   66.3950   63.2086 H   0  0  0  0  0  0
    4.9613   66.7294   64.2264 H   0  0  0  0  0  0
  1  2  2  0  0  0
  1  4  1  0  0  0
  1 26  1  0  0  0
  2  3  1  0  0  0
  2 27  1  0  0  0
  3  6  2  0  0  0
  3 28  1  0  0  0
  4  5  2  0  0  0
  4 29  1  0  0  0
  5  8  1  0  0  0
  5  6  1  0  0  0
  6  7  1  0  0  0
  7 10  2  0  0  0
  8 15  1  0  0  0
  8  9  2  0  0  0
  9 14  1  0  0  0
  9 10  1  0  0  0
 10 11  1  0  0  0
 11 12  1  0  0  0
 11 30  1  0  0  0
 11 31  1  0  0  0
 12 13  1  0  0  0
 12 32  1  0  0  0
 12 33  1  0  0  0
 13 14  1  0  0  0
 13 34  1  0  0  0
 13 35  1  0  0  0
 14 36  1  0  0  0
 14 37  1  0  0  0
 15 16  1  0  0  0
 15 38  1  0  0  0
 16 17  1  0  0  0
 16 39  1  0  0  0
 16 40  1  0  0  0
 17 18  1  0  0  0
 17 41  1  0  0  0
 17 42  1  0  0  0
 18 19  1  0  0  0
 18 43  1  0  0  0
 18 44  1  0  0  0
 19 20  1  0  0  0
 19 45  1  0  0  0
 20 21  1  0  0  0
 20 46  1  0  0  0
 20 47  1  0  0  0
 21 22  1  0  0  0
 21 48  1  0  0  0
 21 49  1  0  0  0
 22 23  1  0  0  0
 23 24  2  0  0  0
 23 25  1  0  0  0
M  CHG  2  23   1  25  -1
M  END
> <s_m_entry_id>
8790

> <s_m_entry_name>
dock_pv.300

> <s_m_Source_Path>
/home/csk/Desktop/cluster/DUD-E-result/aces

> <s_m_Source_File>
dock_pv.maegz

> <i_m_Source_File_Index>
300

> <chembl_id>
CHEMBL272229

> <chembl_pref_name>
None

> <i_lp_mmshare_version>
53161

> <i_f3d_flags>
0

> <r_lp_tautomer_probability>
1

> <s_lp_Force_Field>
OPLS_2005

> <r_lp_Energy>
30.595136

> <b_lp_Chiralities_Consistent>
1

> <s_lp_Variant>
CHEMBL220_lig1186-1

> <s_i_glide_gridfile>
glide-grid_1e66

> <i_i_glide_lignum>
1601

> <i_i_glide_rotatable_bonds>
9

> <r_i_docking_score>
-6.94880754755515

> <r_i_glide_ligand_efficiency>
-0.277952301902206

> <r_i_glide_ligand_efficiency_sa>
-0.812737460267114

> <r_i_glide_ligand_efficiency_ln>
-1.64707562772892

> <r_i_glide_gscore>
-6.94880754755515

> <r_i_glide_lipo>
-3.45011771909663

> <r_i_glide_hbond>
-0.326132184439433

> <r_i_glide_metal>
0

> <r_i_glide_rewards>
-1.76347406818578

> <r_i_glide_evdw>
-43.2035751342773

> <r_i_glide_ecoul>
-2.46264386177063

> <r_i_glide_erotb>
1.12049176014616

> <r_i_glide_esite>
0

> <r_i_glide_emodel>
-61.5808462510093

> <r_i_glide_energy>
-45.666218996048

> <r_i_glide_einternal>
8.65373420715332

> <i_i_glide_confnum>
72

> <i_i_glide_posenum>
162

> <r_i_glide_eff_state_penalty>
0

> <s_user_duplicate_titles>
CHEMBL220_lig1186,442169

> <s_m_subgroup_title>
dock_pv

> <s_m_subgroupid>
dock_pv

> <b_m_subgroup_collapsed>
0

$$$$
CHEMBL220_lig294
                    3D
 Schrodinger Suite 2021-1.
 27 29  0  0  1  0            999 V2000
    1.2159   68.5458   63.9175 C   0  0  0  0  0  0
    0.8455   68.5056   65.2711 C   0  0  0  0  0  0
    2.5794   68.7972   63.5556 C   0  0  0  0  0  0
    1.8688   68.6648   66.2200 C   0  0  0  0  0  0
    3.1639   68.8839   65.9198 N   0  0  0  0  0  0
    3.5232   68.9519   64.6175 C   0  0  0  0  0  0
    1.6424   68.7155   67.5792 O   0  0  0  0  0  0
    3.0529   68.9303   62.2160 C   0  0  0  0  0  0
    0.2193   68.3793   62.9527 N   0  0  0  0  0  0
    2.2139   68.8394   61.1626 F   0  0  0  0  0  0
   -0.6008   68.3415   65.7459 C   0  0  0  0  0  0
    4.8853   69.2007   64.3264 C   0  0  0  0  0  0
    5.3066   69.3135   63.0092 C   0  0  0  0  0  0
    4.3970   69.1915   61.9684 C   0  0  0  0  0  0
    0.4304   68.1163   68.0255 C   0  0  0  0  0  0
   -0.7533   68.6967   67.2327 C   0  0  0  0  0  0
   -0.7078   68.0990   63.2448 H   0  0  0  0  0  0
    0.4814   68.3978   61.9753 H   0  0  0  0  0  0
   -1.2841   68.9517   65.1513 H   0  0  0  0  0  0
   -0.9001   67.3079   65.5927 H   0  0  0  0  0  0
    5.5902   69.3190   65.1369 H   0  0  0  0  0  0
    6.3429   69.5113   62.7936 H   0  0  0  0  0  0
    4.7427   69.3080   60.9541 H   0  0  0  0  0  0
    0.3427   68.3090   69.0948 H   0  0  0  0  0  0
    0.4752   67.0337   67.8922 H   0  0  0  0  0  0
   -0.7786   69.7807   67.3602 H   0  0  0  0  0  0
   -1.7026   68.3172   67.6108 H   0  0  0  0  0  0
  1  2  2  0  0  0
  1  3  1  0  0  0
  1  9  1  0  0  0
  2  4  1  0  0  0
  2 11  1  0  0  0
  3  6  1  0  0  0
  3  8  2  0  0  0
  4  7  1  0  0  0
  4  5  2  0  0  0
  5  6  1  0  0  0
  6 12  2  0  0  0
  7 15  1  0  0  0
  8 10  1  0  0  0
  8 14  1  0  0  0
  9 17  1  0  0  0
  9 18  1  0  0  0
 11 16  1  0  0  0
 11 19  1  0  0  0
 11 20  1  0  0  0
 12 13  1  0  0  0
 12 21  1  0  0  0
 13 14  2  0  0  0
 13 22  1  0  0  0
 14 23  1  0  0  0
 15 16  1  0  0  0
 15 24  1  0  0  0
 15 25  1  0  0  0
 16 26  1  0  0  0
 16 27  1  0  0  0
M  END
> <s_m_entry_id>
8791

> <s_m_entry_name>
dock_pv.301

> <s_m_Source_Path>
/home/csk/Desktop/cluster/DUD-E-result/aces

> <s_m_Source_File>
dock_pv.maegz

> <i_m_Source_File_Index>
301

> <chembl_id>
CHEMBL133520

> <chembl_pref_name>
None

> <i_lp_mmshare_version>
53161

> <i_f3d_flags>
0

> <r_lp_tautomer_probability>
1

> <s_lp_Force_Field>
OPLS_2005

> <r_lp_Energy>
19.010576

> <b_lp_Chiralities_Consistent>
1

> <s_lp_Variant>
CHEMBL220_lig294-1

> <s_i_glide_gridfile>
glide-grid_1e66

> <i_i_glide_lignum>
348

> <i_i_glide_rotatable_bonds>
0

> <r_i_docking_score>
-6.94863740864862

> <r_i_glide_ligand_efficiency>
-0.434289838040539

> <r_i_glide_ligand_efficiency_sa>
-1.09434181639403

> <r_i_glide_ligand_efficiency_ln>
-1.8418751473453

> <r_i_glide_gscore>
-6.94863740864862

> <r_i_glide_lipo>
-2.56933589689302

> <r_i_glide_hbond>
0

> <r_i_glide_metal>
0

> <r_i_glide_rewards>
-2.52710795353951

> <r_i_glide_evdw>
-29.3529357910156

> <r_i_glide_ecoul>
-2.56364512443542

> <r_i_glide_erotb>
0

> <r_i_glide_esite>
0

> <r_i_glide_emodel>
-45.4734789516282

> <r_i_glide_energy>
-31.916580915451

> <r_i_glide_einternal>
0

> <i_i_glide_confnum>
2

> <i_i_glide_posenum>
381

> <r_i_glide_eff_state_penalty>
0

> <s_user_duplicate_titles>
CHEMBL220_lig294

> <s_m_subgroup_title>
dock_pv

> <s_m_subgroupid>
dock_pv

> <b_m_subgroup_collapsed>
0

$$$$
CHEMBL220_lig701
                    3D
 Schrodinger Suite 2021-1.
 61 63  0  0  1  0            999 V2000
   -0.1674   68.3867   64.7496 C   0  0  0  0  0  0
   -1.2580   67.9367   66.8890 C   0  0  0  0  0  0
   -2.5614   67.8139   67.5649 N   0  3  0  0  0  0
   -0.3124   68.8120   63.3351 N   0  3  0  0  0  0
   -1.2584   68.5096   65.6099 C   0  0  0  0  0  0
    0.9775   67.7464   65.2378 C   0  0  0  0  0  0
   -0.0647   67.3813   67.4063 C   0  0  0  0  0  0
    1.0354   67.3169   66.5535 C   0  0  0  0  0  0
    2.2978   61.0957   72.3807 C   0  0  0  0  0  0
    1.8108   62.2718   71.9211 O   0  0  0  0  0  0
    1.9663   67.3054   64.3686 N   0  0  0  0  0  0
    0.4900   62.1177   71.6885 C   0  0  0  0  0  0
    1.2634   60.1804   72.4847 C   0  0  0  0  0  0
    0.6764   69.0476   62.6493 O   0  5  0  0  0  0
   -3.4937   68.5070   67.1672 O   0  5  0  0  0  0
    0.1080   60.8371   72.0552 C   0  0  0  0  0  0
   -1.4478   68.9080   62.8941 O   0  0  0  0  0  0
   -2.6849   66.9542   68.4235 O   0  0  0  0  0  0
    3.7841   61.0578   72.6327 C   0  0  0  0  0  0
    0.0599   66.9084   68.7373 N   0  0  0  0  0  0
    4.5560   61.1642   71.3864 N   0  0  0  0  0  0
    3.3787   67.3327   64.7094 C   0  0  0  0  0  0
    0.3425   64.9166   71.7322 S   0  0  0  0  0  0
    4.0477   68.2828   63.7435 C   0  0  0  0  0  0
   -0.2221   63.3005   71.0941 C   0  0  0  0  0  0
    0.8872   65.7328   69.0336 C   0  0  0  0  0  0
    1.4353   65.5880   70.4542 C   0  0  0  0  0  0
    4.5673   62.5344   70.8655 C   0  0  0  0  0  0
    5.9214   60.7466   71.6545 C   0  0  0  0  0  0
    4.9939   69.1929   64.2137 C   0  0  0  0  0  0
    3.7038   68.2514   62.3846 C   0  0  0  0  0  0
    4.2217   69.1945   61.5219 C   0  0  0  0  0  0
    5.5448   70.1084   63.3274 C   0  0  0  0  0  0
    5.1477   70.1082   61.9931 C   0  0  0  0  0  0
   -2.1672   68.9515   65.2230 H   0  0  0  0  0  0
    1.9390   66.8388   66.8608 H   0  0  0  0  0  0
    1.6969   66.4375   63.9334 H   0  0  0  0  0  0
    1.3391   59.1553   72.8170 H   0  0  0  0  0  0
   -0.8853   60.4190   71.9847 H   0  0  0  0  0  0
    4.0155   60.1164   73.1353 H   0  0  0  0  0  0
    4.0747   61.8471   73.3285 H   0  0  0  0  0  0
   -0.7867   66.9808   69.2875 H   0  0  0  0  0  0
    3.5549   67.6575   65.7331 H   0  0  0  0  0  0
    3.8059   66.3409   64.5827 H   0  0  0  0  0  0
   -0.2487   63.2574   70.0081 H   0  0  0  0  0  0
   -1.2567   63.2101   71.4103 H   0  0  0  0  0  0
    1.7690   65.7041   68.4054 H   0  0  0  0  0  0
    0.2973   64.8625   68.7683 H   0  0  0  0  0  0
    1.8090   66.5607   70.7704 H   0  0  0  0  0  0
    2.3068   64.9345   70.4324 H   0  0  0  0  0  0
    3.5714   62.8735   70.5894 H   0  0  0  0  0  0
    5.1431   62.5979   69.9496 H   0  0  0  0  0  0
    4.9848   63.2485   71.5749 H   0  0  0  0  0  0
    5.9384   59.7076   71.9727 H   0  0  0  0  0  0
    6.5485   60.8356   70.7692 H   0  0  0  0  0  0
    6.3425   61.3472   72.4563 H   0  0  0  0  0  0
    5.2832   69.2139   65.2547 H   0  0  0  0  0  0
    2.9862   67.5400   62.0032 H   0  0  0  0  0  0
    3.9441   69.1904   60.4786 H   0  0  0  0  0  0
    6.2825   70.8223   63.6679 H   0  0  0  0  0  0
    5.5732   70.8234   61.3028 H   0  0  0  0  0  0
  1  4  1  0  0  0
  1  5  1  0  0  0
  1  6  2  0  0  0
  2  5  2  0  0  0
  2  3  1  0  0  0
  2  7  1  0  0  0
  3 15  1  0  0  0
  3 18  2  0  0  0
  4 14  1  0  0  0
  4 17  2  0  0  0
  5 35  1  0  0  0
  6  8  1  0  0  0
  6 11  1  0  0  0
  7  8  2  0  0  0
  7 20  1  0  0  0
  8 36  1  0  0  0
  9 10  1  0  0  0
  9 19  1  0  0  0
  9 13  2  0  0  0
 10 12  1  0  0  0
 11 22  1  0  0  0
 11 37  1  0  0  0
 12 25  1  0  0  0
 12 16  2  0  0  0
 13 16  1  0  0  0
 13 38  1  0  0  0
 16 39  1  0  0  0
 19 21  1  0  0  0
 19 40  1  0  0  0
 19 41  1  0  0  0
 20 26  1  0  0  0
 20 42  1  0  0  0
 21 28  1  0  0  0
 21 29  1  0  0  0
 22 24  1  0  0  0
 22 43  1  0  0  0
 22 44  1  0  0  0
 23 27  1  0  0  0
 23 25  1  0  0  0
 24 30  2  0  0  0
 24 31  1  0  0  0
 25 45  1  0  0  0
 25 46  1  0  0  0
 26 27  1  0  0  0
 26 47  1  0  0  0
 26 48  1  0  0  0
 27 49  1  0  0  0
 27 50  1  0  0  0
 28 51  1  0  0  0
 28 52  1  0  0  0
 28 53  1  0  0  0
 29 54  1  0  0  0
 29 55  1  0  0  0
 29 56  1  0  0  0
 30 33  1  0  0  0
 30 57  1  0  0  0
 31 32  2  0  0  0
 31 58  1  0  0  0
 32 34  1  0  0  0
 32 59  1  0  0  0
 33 34  2  0  0  0
 33 60  1  0  0  0
 34 61  1  0  0  0
M  CHG  4   3   1   4   1  14  -1  15  -1
M  END
> <s_m_entry_id>
8792

> <s_m_entry_name>
dock_pv.302

> <s_m_Source_Path>
/home/csk/Desktop/cluster/DUD-E-result/aces

> <s_m_Source_File>
dock_pv.maegz

> <i_m_Source_File_Index>
302

> <chembl_id>
CHEMBL106936

> <chembl_pref_name>
None

> <i_lp_mmshare_version>
53161

> <i_f3d_flags>
0

> <r_lp_tautomer_probability>
1

> <s_lp_Force_Field>
OPLS_2005

> <r_lp_Energy>
30.856638

> <b_lp_Chiralities_Consistent>
1

> <s_lp_Variant>
CHEMBL220_lig701-1

> <s_i_glide_gridfile>
glide-grid_1e66

> <i_i_glide_lignum>
828

> <i_i_glide_rotatable_bonds>
13

> <r_i_docking_score>
-6.94786177824403

> <r_i_glide_ligand_efficiency>
-0.204348875830707

> <r_i_glide_ligand_efficiency_sa>
-0.662011028940781

> <r_i_glide_ligand_efficiency_ln>
-1.53497754773593

> <r_i_glide_gscore>
-6.94786177824403

> <r_i_glide_lipo>
-4.10971896505346

> <r_i_glide_hbond>
0

> <r_i_glide_metal>
0

> <r_i_glide_rewards>
-1.30197962357584

> <r_i_glide_evdw>
-46.819580078125

> <r_i_glide_ecoul>
-0.34295266866684

> <r_i_glide_erotb>
0.861701245193523

> <r_i_glide_esite>
-0.00544253060197995

> <r_i_glide_emodel>
-39.6396155852484

> <r_i_glide_energy>
-47.1625327467918

> <r_i_glide_einternal>
17.9155826568604

> <i_i_glide_confnum>
77

> <i_i_glide_posenum>
376

> <r_i_glide_eff_state_penalty>
0

> <s_user_duplicate_titles>
CHEMBL220_lig701,174523

> <s_m_subgroup_title>
dock_pv

> <s_m_subgroupid>
dock_pv

> <b_m_subgroup_collapsed>
0

$$$$
CHEMBL220_lig397
                    3D
 Schrodinger Suite 2021-1.
 50 53  0  0  1  0            999 V2000
    4.4196   67.1977   63.7698 C   0  0  0  0  0  0
    4.6928   68.2933   62.9535 C   0  0  0  0  0  0
    3.7331   69.2748   62.7042 C   0  0  0  0  0  0
    2.4639   69.2127   63.2840 C   0  0  0  0  0  0
    3.1439   67.1404   64.3275 C   0  0  0  0  0  0
    2.1649   68.1193   64.1094 C   0  0  0  0  0  0
    1.0641   67.6645   64.8889 C   0  0  0  0  0  0
    1.3359   66.5080   65.4455 N   0  0  0  0  0  0
    2.6514   66.1566   65.1249 O   0  0  0  0  0  0
   -0.2341   68.3765   65.1835 C   0  0  0  0  0  0
   -0.1548   69.1444   66.5150 C   0  0  0  0  0  0
   -0.0912   68.3473   67.8373 C   0  0  0  0  0  0
   -1.0187   67.1102   67.9634 C   0  0  0  0  0  0
   -0.7531   66.1774   69.1678 C   0  0  0  0  0  0
    0.6639   65.9501   69.4575 N   0  0  1  0  0  0
    1.3596   67.2195   69.6668 C   0  0  0  0  0  0
    1.3125   68.1355   68.4263 C   0  0  0  0  0  0
    0.8392   65.0451   70.6025 C   0  0  0  0  0  0
    1.9464   64.0249   70.3672 C   0  0  0  0  0  0
    1.6094   62.7275   69.9681 C   0  0  0  0  0  0
    2.6078   61.7831   69.7478 C   0  0  0  0  0  0
    3.9429   62.1440   69.9106 C   0  0  0  0  0  0
    4.2906   63.4456   70.2679 C   0  0  0  0  0  0
    3.2910   64.3877   70.4918 C   0  0  0  0  0  0
    5.9429   68.4119   62.3680 N   0  0  0  0  0  0
    5.1430   66.4237   63.9628 H   0  0  0  0  0  0
    3.9793   70.1111   62.0670 H   0  0  0  0  0  0
    1.7349   69.9881   63.1003 H   0  0  0  0  0  0
   -0.4577   69.0722   64.3741 H   0  0  0  0  0  0
   -1.0913   67.7080   65.1916 H   0  0  0  0  0  0
    0.7683   69.7110   66.4763 H   0  0  0  0  0  0
   -0.9766   69.8614   66.5626 H   0  0  0  0  0  0
   -0.4570   69.0579   68.5711 H   0  0  0  0  0  0
   -2.0671   67.4073   67.9164 H   0  0  0  0  0  0
   -0.8842   66.4724   67.0907 H   0  0  0  0  0  0
   -1.2569   66.5306   70.0620 H   0  0  0  0  0  0
   -1.1993   65.2075   68.9561 H   0  0  0  0  0  0
    0.9392   67.7080   70.5434 H   0  0  0  0  0  0
    2.3979   67.0194   69.9134 H   0  0  0  0  0  0
    1.9430   67.7117   67.6529 H   0  0  0  0  0  0
    1.7776   69.0955   68.6569 H   0  0  0  0  0  0
    1.0315   65.5951   71.5256 H   0  0  0  0  0  0
   -0.0777   64.4801   70.7780 H   0  0  0  0  0  0
    0.5738   62.4475   69.8371 H   0  0  0  0  0  0
    2.3458   60.7764   69.4567 H   0  0  0  0  0  0
    4.7150   61.4069   69.7530 H   0  0  0  0  0  0
    5.3279   63.7272   70.3720 H   0  0  0  0  0  0
    3.5672   65.3924   70.7749 H   0  0  0  0  0  0
    6.6359   67.7077   62.5538 H   0  0  0  0  0  0
    5.9564   68.7949   61.4247 H   0  0  0  0  0  0
  1  2  2  0  0  0
  1  5  1  0  0  0
  1 26  1  0  0  0
  2  3  1  0  0  0
  2 25  1  0  0  0
  3  4  2  0  0  0
  3 27  1  0  0  0
  4  6  1  0  0  0
  4 28  1  0  0  0
  5  9  1  0  0  0
  5  6  2  0  0  0
  6  7  1  0  0  0
  7  8  2  0  0  0
  7 10  1  0  0  0
  8  9  1  0  0  0
 10 11  1  0  0  0
 10 29  1  0  0  0
 10 30  1  0  0  0
 11 12  1  0  0  0
 11 31  1  0  0  0
 11 32  1  0  0  0
 12 13  1  0  0  0
 12 17  1  0  0  0
 12 33  1  0  0  0
 13 14  1  0  0  0
 13 34  1  0  0  0
 13 35  1  0  0  0
 14 15  1  0  0  0
 14 36  1  0  0  0
 14 37  1  0  0  0
 15 16  1  0  0  0
 15 18  1  0  0  0
 16 17  1  0  0  0
 16 38  1  0  0  0
 16 39  1  0  0  0
 17 40  1  0  0  0
 17 41  1  0  0  0
 18 19  1  0  0  0
 18 42  1  0  0  0
 18 43  1  0  0  0
 19 20  2  0  0  0
 19 24  1  0  0  0
 20 21  1  0  0  0
 20 44  1  0  0  0
 21 22  2  0  0  0
 21 45  1  0  0  0
 22 23  1  0  0  0
 22 46  1  0  0  0
 23 24  2  0  0  0
 23 47  1  0  0  0
 24 48  1  0  0  0
 25 49  1  0  0  0
 25 50  1  0  0  0
M  END
> <s_m_entry_id>
8793

> <s_m_entry_name>
dock_pv.303

> <s_m_Source_Path>
/home/csk/Desktop/cluster/DUD-E-result/aces

> <s_m_Source_File>
dock_pv.maegz

> <i_m_Source_File_Index>
303

> <chembl_id>
CHEMBL420625

> <chembl_pref_name>
None

> <i_lp_mmshare_version>
53161

> <i_f3d_flags>
0

> <r_lp_tautomer_probability>
1

> <s_lp_Force_Field>
OPLS_2005

> <r_lp_Energy>
33.376007

> <b_lp_Chiralities_Consistent>
1

> <s_lp_Variant>
CHEMBL220_lig397-1

> <s_i_glide_gridfile>
glide-grid_1e66

> <i_i_glide_lignum>
456

> <i_i_glide_rotatable_bonds>
5

> <r_i_docking_score>
-6.93553179231258

> <r_i_glide_ligand_efficiency>
-0.277421271692503

> <r_i_glide_ligand_efficiency_sa>
-0.811184718516082

> <r_i_glide_ligand_efficiency_ln>
-1.64392887589415

> <r_i_glide_gscore>
-6.93553179231258

> <r_i_glide_lipo>
-3.70647004427477

> <r_i_glide_hbond>
-0.139590366820404

> <r_i_glide_metal>
0

> <r_i_glide_rewards>
-1.88677638186679

> <r_i_glide_evdw>
-37.5005149841309

> <r_i_glide_ecoul>
-0.348917007446289

> <r_i_glide_erotb>
0.838661544195077

> <r_i_glide_esite>
-0.113993243222201

> <r_i_glide_emodel>
-47.7988715433122

> <r_i_glide_energy>
-37.8494319915771

> <r_i_glide_einternal>
5.71948432922363

> <i_i_glide_confnum>
44

> <i_i_glide_posenum>
173

> <r_i_glide_eff_state_penalty>
0

> <s_user_duplicate_titles>
CHEMBL220_lig397,149725

> <s_m_subgroup_title>
dock_pv

> <s_m_subgroupid>
dock_pv

> <b_m_subgroup_collapsed>
0

$$$$
CHEMBL220_lig42
                    3D
 Schrodinger Suite 2021-1.
 50 53  0  0  1  0            999 V2000
    2.4005   66.1087   65.7920 O   0  0  0  0  0  0
    3.2517   65.7741   64.7680 C   0  0  0  0  0  0
    3.7035   64.6276   64.7931 O   0  0  0  0  0  0
    3.5408   66.8606   63.7983 C   0  0  0  0  0  0
    2.6288   67.8521   63.6644 C   0  0  0  0  0  0
    1.4015   67.8691   64.4762 C   0  0  0  0  0  0
    0.2422   68.5641   64.1427 C   0  0  0  0  0  0
   -0.8662   68.5151   64.9950 C   0  0  0  0  0  0
   -0.8390   67.7458   66.1715 C   0  0  0  0  0  0
    0.2843   66.9686   66.4343 C   0  0  0  0  0  0
    1.3703   66.9972   65.5658 C   0  0  0  0  0  0
    4.6572   66.7820   62.8752 C   0  0  0  0  0  0
    5.5848   67.9582   62.5427 C   0  0  0  0  0  0
    4.9175   65.7083   62.3681 O   0  0  0  0  0  0
   -1.8661   67.6593   67.0851 O   0  0  0  0  0  0
   -3.0362   68.4326   66.8725 C   0  0  0  0  0  0
    5.8278   68.8174   63.6886 N   0  0  0  0  0  0
    5.3328   70.1742   63.6297 C   0  0  0  0  0  0
    5.3400   70.8791   64.9862 C   0  0  0  0  0  0
    5.5918   70.1093   66.1810 N   0  0  0  0  0  0
    6.7408   69.2652   66.0378 C   0  0  0  0  0  0
    6.5744   68.3178   64.8437 C   0  0  0  0  0  0
    4.7365   70.1100   67.2470 C   0  0  0  0  0  0
    5.2246   70.5397   68.4767 C   0  0  0  0  0  0
    4.3437   70.6845   69.5329 C   0  0  0  0  0  0
    2.9916   70.4971   69.3161 C   0  0  0  0  0  0
    2.4936   70.0185   68.1120 C   0  0  0  0  0  0
    3.3852   69.7935   67.0730 C   0  0  0  0  0  0
    2.7644   68.6267   62.9213 H   0  0  0  0  0  0
    0.2029   69.1799   63.2553 H   0  0  0  0  0  0
   -1.7395   69.0913   64.7297 H   0  0  0  0  0  0
    0.2906   66.3175   67.2967 H   0  0  0  0  0  0
    6.5462   67.5536   62.2265 H   0  0  0  0  0  0
    5.2109   68.5155   61.6833 H   0  0  0  0  0  0
   -3.6717   68.3203   67.7463 H   0  0  0  0  0  0
   -3.5920   68.0927   65.9969 H   0  0  0  0  0  0
   -2.8047   69.4915   66.7675 H   0  0  0  0  0  0
    5.9458   70.7361   62.9290 H   0  0  0  0  0  0
    4.3188   70.1808   63.2222 H   0  0  0  0  0  0
    4.3465   71.2476   65.1620 H   0  0  0  0  0  0
    6.0225   71.7162   64.9780 H   0  0  0  0  0  0
    6.8725   68.7010   66.9500 H   0  0  0  0  0  0
    7.6282   69.8904   65.9707 H   0  0  0  0  0  0
    6.1194   67.3866   65.1694 H   0  0  0  0  0  0
    7.5683   68.1080   64.4943 H   0  0  0  0  0  0
    6.2744   70.7475   68.6164 H   0  0  0  0  0  0
    4.7029   70.9074   70.5248 H   0  0  0  0  0  0
    2.3383   70.6889   70.1330 H   0  0  0  0  0  0
    1.4358   69.8366   67.9884 H   0  0  0  0  0  0
    3.0219   69.4547   66.1158 H   0  0  0  0  0  0
  1  2  1  0  0  0
  1 11  1  0  0  0
  2  3  2  0  0  0
  2  4  1  0  0  0
  4  5  2  0  0  0
  4 12  1  0  0  0
  5  6  1  0  0  0
  5 29  1  0  0  0
  6  7  1  0  0  0
  6 11  2  0  0  0
  7  8  2  0  0  0
  7 30  1  0  0  0
  8  9  1  0  0  0
  8 31  1  0  0  0
  9 10  2  0  0  0
  9 15  1  0  0  0
 10 11  1  0  0  0
 10 32  1  0  0  0
 12 13  1  0  0  0
 12 14  2  0  0  0
 13 17  1  0  0  0
 13 33  1  0  0  0
 13 34  1  0  0  0
 15 16  1  0  0  0
 16 35  1  0  0  0
 16 36  1  0  0  0
 16 37  1  0  0  0
 17 18  1  0  0  0
 17 22  1  0  0  0
 18 19  1  0  0  0
 18 38  1  0  0  0
 18 39  1  0  0  0
 19 20  1  0  0  0
 19 40  1  0  0  0
 19 41  1  0  0  0
 20 21  1  0  0  0
 20 23  1  0  0  0
 21 22  1  0  0  0
 21 42  1  0  0  0
 21 43  1  0  0  0
 22 44  1  0  0  0
 22 45  1  0  0  0
 23 24  2  0  0  0
 23 28  1  0  0  0
 24 25  1  0  0  0
 24 46  1  0  0  0
 25 26  2  0  0  0
 25 47  1  0  0  0
 26 27  1  0  0  0
 26 48  1  0  0  0
 27 28  2  0  0  0
 27 49  1  0  0  0
 28 50  1  0  0  0
M  END
> <s_m_entry_id>
8794

> <s_m_entry_name>
dock_pv.304

> <s_m_Source_Path>
/home/csk/Desktop/cluster/DUD-E-result/aces

> <s_m_Source_File>
dock_pv.maegz

> <i_m_Source_File_Index>
304

> <chembl_id>
CHEMBL2381403

> <chembl_pref_name>
None

> <i_lp_mmshare_version>
53161

> <i_f3d_flags>
0

> <r_lp_tautomer_probability>
0.99990000499975

> <s_lp_Force_Field>
OPLS_2005

> <r_lp_Energy>
52.038479

> <b_lp_Chiralities_Consistent>
1

> <s_lp_Variant>
CHEMBL220_lig42-1

> <s_i_glide_gridfile>
glide-grid_1e66

> <i_i_glide_lignum>
45

> <i_i_glide_rotatable_bonds>
5

> <r_i_docking_score>
-6.93374842507746

> <r_i_glide_ligand_efficiency>
-0.247633872324195

> <r_i_glide_ligand_efficiency_sa>
-0.751962284927285

> <r_i_glide_ligand_efficiency_ln>
-1.6005127202079

> <r_i_glide_gscore>
-6.93374842507746

> <r_i_glide_lipo>
-2.97932839908615

> <r_i_glide_hbond>
-0.315732749821933

> <r_i_glide_metal>
0

> <r_i_glide_rewards>
-1.88867346132652

> <r_i_glide_evdw>
-15.6004114151001

> <r_i_glide_ecoul>
-9.8452844619751

> <r_i_glide_erotb>
0.54130301707917

> <r_i_glide_esite>
-0.0345035918707578

> <r_i_glide_emodel>
-21.6010856107577

> <r_i_glide_energy>
-25.4456958770752

> <r_i_glide_einternal>
9.38162803649902

> <i_i_glide_confnum>
11

> <i_i_glide_posenum>
303

> <r_i_glide_eff_state_penalty>
0

> <s_user_duplicate_titles>
CHEMBL220_lig42

> <s_m_subgroup_title>
dock_pv

> <s_m_subgroupid>
dock_pv

> <b_m_subgroup_collapsed>
0

$$$$
CHEMBL220_lig188
                    3D
 Schrodinger Suite 2021-1.
 51 52  0  0  1  0            999 V2000
    5.5217   61.7679   72.4700 C   0  0  0  0  0  0
    4.6155   62.5124   71.4887 C   0  0  0  0  0  0
    4.2813   61.7186   70.3027 N   0  0  0  0  0  0
    3.5749   60.4641   70.6192 C   0  0  0  0  0  0
    3.2820   59.5908   69.3875 C   0  0  0  0  0  0
    3.6323   62.5773   69.2968 C   0  0  0  0  0  0
    2.2941   63.1508   69.7309 C   0  0  0  0  0  0
    2.2286   64.4968   69.9292 O   0  0  0  0  0  0
    0.9423   64.8077   70.2535 C   0  0  0  0  0  0
    0.6421   66.2454   70.6281 C   0  0  0  0  0  0
    1.1278   67.2648   69.7026 N   0  0  1  0  0  0
    0.3201   67.3551   68.4971 C   0  0  0  0  0  0
    0.6475   68.7109   67.8554 C   0  0  0  0  0  0
    1.6114   68.5986   66.7674 N   0  0  0  0  0  0
    2.7587   69.4760   66.8307 C   0  0  0  0  0  0
    3.5687   68.9507   65.6763 C   0  0  0  0  0  0
    2.5099   68.5165   64.7927 N   0  0  0  0  0  0
    1.2735   68.5077   65.4185 C   0  0  0  0  0  0
    0.0772   68.4982   64.7874 C   0  0  0  0  0  0
   -1.1910   68.5079   65.4403 C   0  0  0  0  0  0
   -2.2229   68.5083   65.9653 N   0  0  0  0  0  0
    0.0293   68.4932   63.3663 C   0  0  0  0  0  0
    0.0711   68.5189   62.2127 N   0  0  0  0  0  0
    0.1959   63.6393   70.3005 C   0  0  0  0  0  0
    1.0551   62.5943   69.9885 C   0  0  0  0  0  0
    5.9430   62.4830   73.1698 H   0  0  0  0  0  0
    4.9763   61.0203   73.0453 H   0  0  0  0  0  0
    6.3435   61.2693   71.9575 H   0  0  0  0  0  0
    5.1428   63.4126   71.1672 H   0  0  0  0  0  0
    3.7127   62.8480   72.0009 H   0  0  0  0  0  0
    4.1999   59.8676   71.2833 H   0  0  0  0  0  0
    2.6539   60.6656   71.1679 H   0  0  0  0  0  0
    2.9335   58.6040   69.6924 H   0  0  0  0  0  0
    2.4974   60.0245   68.7683 H   0  0  0  0  0  0
    4.1710   59.4519   68.7722 H   0  0  0  0  0  0
    3.5077   62.0256   68.3688 H   0  0  0  0  0  0
    4.3139   63.3899   69.0414 H   0  0  0  0  0  0
    1.1411   66.4300   71.5675 H   0  0  0  0  0  0
   -0.4223   66.3946   70.8184 H   0  0  0  0  0  0
    1.1213   68.1758   70.1652 H   0  0  0  0  0  0
   -0.7422   67.3080   68.7383 H   0  0  0  0  0  0
    0.5331   66.5224   67.8231 H   0  0  0  0  0  0
    1.0235   69.4130   68.6022 H   0  0  0  0  0  0
   -0.2607   69.2045   67.5228 H   0  0  0  0  0  0
    3.2946   69.3976   67.7779 H   0  0  0  0  0  0
    2.4544   70.5077   66.6957 H   0  0  0  0  0  0
    4.2005   69.7210   65.2294 H   0  0  0  0  0  0
    4.1951   68.1078   65.9663 H   0  0  0  0  0  0
    2.5794   68.8440   63.8393 H   0  0  0  0  0  0
   -0.8454   63.5349   70.5600 H   0  0  0  0  0  0
    0.8045   61.5479   69.9679 H   0  0  0  0  0  0
  1  2  1  0  0  0
  1 26  1  0  0  0
  1 27  1  0  0  0
  1 28  1  0  0  0
  2  3  1  0  0  0
  2 29  1  0  0  0
  2 30  1  0  0  0
  3  4  1  0  0  0
  3  6  1  0  0  0
  4  5  1  0  0  0
  4 31  1  0  0  0
  4 32  1  0  0  0
  5 33  1  0  0  0
  5 34  1  0  0  0
  5 35  1  0  0  0
  6  7  1  0  0  0
  6 36  1  0  0  0
  6 37  1  0  0  0
  7  8  1  0  0  0
  7 25  2  0  0  0
  8  9  1  0  0  0
  9 10  1  0  0  0
  9 24  2  0  0  0
 10 11  1  0  0  0
 10 38  1  0  0  0
 10 39  1  0  0  0
 11 12  1  0  0  0
 11 40  1  0  0  0
 12 13  1  0  0  0
 12 41  1  0  0  0
 12 42  1  0  0  0
 13 14  1  0  0  0
 13 43  1  0  0  0
 13 44  1  0  0  0
 14 15  1  0  0  0
 14 18  1  0  0  0
 15 16  1  0  0  0
 15 45  1  0  0  0
 15 46  1  0  0  0
 16 17  1  0  0  0
 16 47  1  0  0  0
 16 48  1  0  0  0
 17 18  1  0  0  0
 17 49  1  0  0  0
 18 19  2  0  0  0
 19 20  1  0  0  0
 19 22  1  0  0  0
 20 21  3  0  0  0
 22 23  3  0  0  0
 24 25  1  0  0  0
 24 50  1  0  0  0
 25 51  1  0  0  0
M  END
> <s_m_entry_id>
8795

> <s_m_entry_name>
dock_pv.305

> <s_m_Source_Path>
/home/csk/Desktop/cluster/DUD-E-result/aces

> <s_m_Source_File>
dock_pv.maegz

> <i_m_Source_File_Index>
305

> <chembl_id>
CHEMBL1203539

> <chembl_pref_name>
None

> <i_lp_mmshare_version>
53161

> <i_f3d_flags>
0

> <r_lp_tautomer_probability>
0.5

> <s_lp_Force_Field>
OPLS_2005

> <r_lp_Energy>
36.582144

> <b_lp_Chiralities_Consistent>
1

> <s_lp_Variant>
CHEMBL220_lig188-1

> <s_i_glide_gridfile>
glide-grid_1e66

> <i_i_glide_lignum>
205

> <i_i_glide_rotatable_bonds>
9

> <r_i_docking_score>
-6.93253645210839

> <r_i_glide_ligand_efficiency>
-0.277301458084336

> <r_i_glide_ligand_efficiency_sa>
-0.810834381400897

> <r_i_glide_ligand_efficiency_ln>
-1.64321889050265

> <r_i_glide_gscore>
-6.93253645210839

> <r_i_glide_lipo>
-3.08279007789295

> <r_i_glide_hbond>
-0.158833710509937

> <r_i_glide_metal>
0

> <r_i_glide_rewards>
-2.57047822848003

> <r_i_glide_evdw>
-39.9020462036133

> <r_i_glide_ecoul>
-1.7152327299118

> <r_i_glide_erotb>
1.13195278444196

> <r_i_glide_esite>
0

> <r_i_glide_emodel>
-55.7032705121457

> <r_i_glide_energy>
-41.6172789335251

> <r_i_glide_einternal>
7.05742359161377

> <i_i_glide_confnum>
241

> <i_i_glide_posenum>
95

> <r_i_glide_eff_state_penalty>
0

> <s_user_duplicate_titles>
CHEMBL220_lig188,677490

> <s_m_subgroup_title>
dock_pv

> <s_m_subgroupid>
dock_pv

> <b_m_subgroup_collapsed>
0

$$$$
CHEMBL220_lig382
                    3D
 Schrodinger Suite 2021-1.
 39 41  0  0  1  0            999 V2000
    0.8830   66.8430   68.7273 N   0  0  2  0  0  0
    3.2314   63.2573   70.6943 C   0  0  0  0  0  0
    2.9144   64.6006   70.3680 C   0  0  0  0  0  0
    1.5876   65.0325   70.3374 C   0  0  0  0  0  0
    1.2705   66.5096   70.1018 C   0  0  0  0  0  0
    2.1726   62.3316   70.9455 C   0  0  0  0  0  0
    0.8352   62.7844   70.8644 C   0  0  0  0  0  0
    1.1430   68.2664   68.4465 C   0  0  0  0  0  0
   -0.5085   66.4650   68.4442 C   0  0  0  0  0  0
    0.5643   64.1198   70.5820 C   0  0  0  0  0  0
   -0.9515   66.8599   67.0260 C   0  0  0  0  0  0
    0.7606   68.6477   67.0055 C   0  0  0  0  0  0
   -0.7179   68.3426   66.7258 C   0  0  0  0  0  0
    4.5712   62.8127   70.8007 C   0  0  0  0  0  0
    2.4888   60.9941   71.2873 C   0  0  0  0  0  0
   -1.1244   68.6813   65.2899 C   0  0  0  0  0  0
    4.8483   61.4972   71.1678 C   0  0  0  0  0  0
    3.8180   60.5939   71.4024 C   0  0  0  0  0  0
    3.7170   65.3040   70.1957 H   0  0  0  0  0  0
    2.1665   67.0716   70.3673 H   0  0  0  0  0  0
    0.5030   66.8352   70.8058 H   0  0  0  0  0  0
    0.0233   62.0937   71.0528 H   0  0  0  0  0  0
    0.5798   68.8597   69.1669 H   0  0  0  0  0  0
    2.1920   68.5080   68.6183 H   0  0  0  0  0  0
   -1.1800   66.9069   69.1758 H   0  0  0  0  0  0
   -0.6070   65.3879   68.5629 H   0  0  0  0  0  0
   -0.4568   64.4528   70.5642 H   0  0  0  0  0  0
   -2.0017   66.6109   66.8713 H   0  0  0  0  0  0
   -0.4264   66.2254   66.3094 H   0  0  0  0  0  0
    1.4099   68.1236   66.3028 H   0  0  0  0  0  0
    0.9661   69.7047   66.8276 H   0  0  0  0  0  0
   -1.3147   68.9331   67.4236 H   0  0  0  0  0  0
    5.3717   63.5144   70.6140 H   0  0  0  0  0  0
    1.6895   60.2914   71.4772 H   0  0  0  0  0  0
   -0.6149   68.0452   64.5635 H   0  0  0  0  0  0
   -0.8606   69.7080   65.0528 H   0  0  0  0  0  0
   -2.1972   68.5699   65.1438 H   0  0  0  0  0  0
    5.8762   61.1777   71.2705 H   0  0  0  0  0  0
    4.0465   59.5774   71.6856 H   0  0  0  0  0  0
  1  5  1  0  0  0
  1  8  1  0  0  0
  1  9  1  0  0  0
  2  3  1  0  0  0
  2 14  2  0  0  0
  2  6  1  0  0  0
  3  4  2  0  0  0
  3 19  1  0  0  0
  4  5  1  0  0  0
  4 10  1  0  0  0
  5 20  1  0  0  0
  5 21  1  0  0  0
  6  7  1  0  0  0
  6 15  2  0  0  0
  7 10  2  0  0  0
  7 22  1  0  0  0
  8 12  1  0  0  0
  8 23  1  0  0  0
  8 24  1  0  0  0
  9 11  1  0  0  0
  9 25  1  0  0  0
  9 26  1  0  0  0
 10 27  1  0  0  0
 11 13  1  0  0  0
 11 28  1  0  0  0
 11 29  1  0  0  0
 12 13  1  0  0  0
 12 30  1  0  0  0
 12 31  1  0  0  0
 13 16  1  0  0  0
 13 32  1  0  0  0
 14 17  1  0  0  0
 14 33  1  0  0  0
 15 18  1  0  0  0
 15 34  1  0  0  0
 16 35  1  0  0  0
 16 36  1  0  0  0
 16 37  1  0  0  0
 17 18  2  0  0  0
 17 38  1  0  0  0
 18 39  1  0  0  0
M  END
> <s_m_entry_id>
8796

> <s_m_entry_name>
dock_pv.306

> <s_m_Source_Path>
/home/csk/Desktop/cluster/DUD-E-result/aces

> <s_m_Source_File>
dock_pv.maegz

> <i_m_Source_File_Index>
306

> <chembl_id>
CHEMBL155128

> <chembl_pref_name>
None

> <i_lp_mmshare_version>
53161

> <i_f3d_flags>
0

> <r_lp_tautomer_probability>
1

> <s_lp_Force_Field>
OPLS_2005

> <r_lp_Energy>
22.480867

> <b_lp_Chiralities_Consistent>
1

> <s_lp_Variant>
CHEMBL220_lig382-1

> <s_i_glide_gridfile>
glide-grid_1e66

> <i_i_glide_lignum>
440

> <i_i_glide_rotatable_bonds>
2

> <r_i_docking_score>
-6.92601044323579

> <r_i_glide_ligand_efficiency>
-0.384778357957544

> <r_i_glide_ligand_efficiency_sa>
-1.00840456932351

> <r_i_glide_ligand_efficiency_ln>
-1.78029527105688

> <r_i_glide_gscore>
-6.92601044323579

> <r_i_glide_lipo>
-3.31530828923389

> <r_i_glide_hbond>
0

> <r_i_glide_metal>
0

> <r_i_glide_rewards>
-2.67712268181818

> <r_i_glide_evdw>
-30.0580806732178

> <r_i_glide_ecoul>
-0.226178303360939

> <r_i_glide_erotb>
0.603251306981315

> <r_i_glide_esite>
0

> <r_i_glide_emodel>
-42.1263671704659

> <r_i_glide_energy>
-30.2842589765787

> <r_i_glide_einternal>
1.17780649662018

> <i_i_glide_confnum>
6

> <i_i_glide_posenum>
201

> <r_i_glide_eff_state_penalty>
0

> <s_user_duplicate_titles>
CHEMBL220_lig382

> <s_m_subgroup_title>
dock_pv

> <s_m_subgroupid>
dock_pv

> <b_m_subgroup_collapsed>
0

$$$$
CHEMBL220_lig713
                    3D
 Schrodinger Suite 2021-1.
 35 36  0  0  1  0            999 V2000
    5.0823   70.1862   67.0442 C   0  0  0  0  0  0
    1.9422   68.8683   64.2913 C   0  0  0  0  0  0
    5.2370   69.5618   65.8260 O   0  0  0  0  0  0
    6.3272   70.4580   67.6057 N   0  0  0  0  0  0
    2.2922   68.9075   62.9421 C   0  0  0  0  0  0
    2.9030   69.0890   65.2702 C   0  0  0  0  0  0
    4.0122   70.5025   67.5681 O   0  0  0  0  0  0
    0.4758   68.5496   64.4761 C   0  0  1  0  0  0
    4.2294   69.3450   64.9155 C   0  0  0  0  0  0
    1.0872   68.6529   62.0714 C   0  0  0  0  0  0
   -0.0919   68.5658   63.0466 C   0  0  0  0  0  0
    3.6206   69.1231   62.5730 C   0  0  0  0  0  0
    0.3430   67.2814   65.1679 N   0  0  1  0  0  0
    4.5823   69.3421   63.5617 C   0  0  0  0  0  0
    6.4514   71.3260   68.7696 C   0  0  0  0  0  0
    7.5449   69.8693   67.0798 C   0  0  0  0  0  0
    0.1581   67.4104   66.6084 C   0  0  0  0  0  0
    2.6152   69.0486   66.3069 H   0  0  0  0  0  0
   -0.0571   69.3079   65.0471 H   0  0  0  0  0  0
    0.9207   69.4394   61.3338 H   0  0  0  0  0  0
    1.1903   67.7080   61.5492 H   0  0  0  0  0  0
   -0.7203   69.4479   62.9149 H   0  0  0  0  0  0
   -0.7107   67.6986   62.8166 H   0  0  0  0  0  0
    3.9169   69.1354   61.5338 H   0  0  0  0  0  0
   -0.4131   66.7131   64.7680 H   0  0  0  0  0  0
    5.6095   69.5232   63.2763 H   0  0  0  0  0  0
    5.6683   72.0862   68.7680 H   0  0  0  0  0  0
    7.4090   71.8475   68.7699 H   0  0  0  0  0  0
    6.3743   70.7464   69.6895 H   0  0  0  0  0  0
    7.3807   68.9044   66.6013 H   0  0  0  0  0  0
    7.9430   70.5489   66.3319 H   0  0  0  0  0  0
    8.2774   69.7084   67.8678 H   0  0  0  0  0  0
    1.0270   67.8465   67.0980 H   0  0  0  0  0  0
   -0.7190   68.0154   66.8428 H   0  0  0  0  0  0
   -0.0004   66.4241   67.0450 H   0  0  0  0  0  0
  1  3  1  0  0  0
  1  4  1  0  0  0
  1  7  2  0  0  0
  2  6  2  0  0  0
  2  8  1  0  0  0
  2  5  1  0  0  0
  3  9  1  0  0  0
  4 15  1  0  0  0
  4 16  1  0  0  0
  5 12  2  0  0  0
  5 10  1  0  0  0
  6  9  1  0  0  0
  6 18  1  0  0  0
  8 11  1  0  0  0
  8 13  1  0  0  0
  8 19  1  0  0  0
  9 14  2  0  0  0
 10 11  1  0  0  0
 10 20  1  0  0  0
 10 21  1  0  0  0
 11 22  1  0  0  0
 11 23  1  0  0  0
 12 14  1  0  0  0
 12 24  1  0  0  0
 13 17  1  0  0  0
 13 25  1  0  0  0
 14 26  1  0  0  0
 15 27  1  0  0  0
 15 28  1  0  0  0
 15 29  1  0  0  0
 16 30  1  0  0  0
 16 31  1  0  0  0
 16 32  1  0  0  0
 17 33  1  0  0  0
 17 34  1  0  0  0
 17 35  1  0  0  0
M  END
> <s_m_entry_id>
8797

> <s_m_entry_name>
dock_pv.307

> <s_m_Source_Path>
/home/csk/Desktop/cluster/DUD-E-result/aces

> <s_m_Source_File>
dock_pv.maegz

> <i_m_Source_File_Index>
307

> <chembl_id>
CHEMBL544637

> <chembl_pref_name>
None

> <i_lp_mmshare_version>
53161

> <i_f3d_flags>
0

> <r_lp_tautomer_probability>
1

> <s_lp_Force_Field>
OPLS_2005

> <r_lp_Energy>
29.044455

> <b_lp_Chiralities_Consistent>
1

> <s_lp_Variant>
CHEMBL220_lig713-2

> <s_i_glide_gridfile>
glide-grid_1e66

> <i_i_glide_lignum>
848

> <i_i_glide_rotatable_bonds>
4

> <r_i_docking_score>
-6.92103386675257

> <r_i_glide_ligand_efficiency>
-0.40711963922074

> <r_i_glide_ligand_efficiency_sa>
-1.04681923253509

> <r_i_glide_ligand_efficiency_ln>
-1.80554361198923

> <r_i_glide_gscore>
-6.92103386675257

> <r_i_glide_lipo>
-2.91995619826816

> <r_i_glide_hbond>
-0.32

> <r_i_glide_metal>
0

> <r_i_glide_rewards>
-2.08739298113604

> <r_i_glide_evdw>
-26.9380931854248

> <r_i_glide_ecoul>
-5.81595230102539

> <r_i_glide_erotb>
0.625612817076668

> <r_i_glide_esite>
0

> <r_i_glide_emodel>
-45.0140276223384

> <r_i_glide_energy>
-32.7540454864502

> <r_i_glide_einternal>
2.7848916053772

> <i_i_glide_confnum>
13

> <i_i_glide_posenum>
264

> <r_i_glide_eff_state_penalty>
0

> <s_user_duplicate_titles>
CHEMBL220_lig713

> <s_m_subgroup_title>
dock_pv

> <s_m_subgroupid>
dock_pv

> <b_m_subgroup_collapsed>
0

$$$$
CHEMBL220_lig286
                    3D
 Schrodinger Suite 2021-1.
 30 33  0  0  1  0            999 V2000
    2.3597   68.3877   64.6429 N   0  0  0  0  0  0
    3.4606   68.4804   63.8732 C   0  0  0  0  0  0
    4.6672   69.0254   64.2799 C   0  0  0  0  0  0
    4.7876   69.5732   65.5526 C   0  0  0  0  0  0
    3.6277   69.5493   66.4121 C   0  0  0  0  0  0
    2.4411   68.9105   65.8972 C   0  0  0  0  0  0
    5.6058   68.8829   63.0897 C   0  0  1  0  0  0
    3.6427   68.0370   62.4332 C   0  0  2  0  0  0
    5.0910   67.5590   62.5260 C   0  0  0  0  0  0
    3.5585   70.1074   67.7393 C   0  0  0  0  0  0
    5.1430   69.8839   62.0065 C   0  0  0  0  0  0
    3.7794   69.3022   61.5538 C   0  0  0  0  0  0
    6.0251   70.1083   65.9139 N   0  0  0  0  0  0
    4.8796   70.9100   68.5153 Cl  0  0  0  0  0  0
    1.2780   68.8231   66.6951 C   0  0  0  0  0  0
    1.2584   69.3715   67.9678 C   0  0  0  0  0  0
    2.3795   70.0107   68.4742 C   0  0  0  0  0  0
    6.6755   68.9074   63.3037 H   0  0  0  0  0  0
    2.9268   67.3081   62.0630 H   0  0  0  0  0  0
    5.5416   67.3073   61.5674 H   0  0  0  0  0  0
    5.2261   66.7092   63.2000 H   0  0  0  0  0  0
    5.0696   70.8966   62.4047 H   0  0  0  0  0  0
    5.8434   69.9163   61.1701 H   0  0  0  0  0  0
    3.8056   69.0380   60.4947 H   0  0  0  0  0  0
    2.9561   70.0017   61.7027 H   0  0  0  0  0  0
    6.1233   70.5122   66.8368 H   0  0  0  0  0  0
    6.7960   70.0989   65.2553 H   0  0  0  0  0  0
    0.3953   68.3385   66.3010 H   0  0  0  0  0  0
    0.3656   69.3133   68.5730 H   0  0  0  0  0  0
    2.3351   70.4275   69.4700 H   0  0  0  0  0  0
  1  2  2  0  0  0
  1  6  1  0  0  0
  2  3  1  0  0  0
  2  8  1  0  0  0
  3  7  1  0  0  0
  3  4  2  0  0  0
  4  5  1  0  0  0
  4 13  1  0  0  0
  5  6  1  0  0  0
  5 10  2  0  0  0
  6 15  2  0  0  0
  7  9  1  0  0  0
  7 11  1  0  0  0
  7 18  1  0  0  0
  8  9  1  0  0  0
  8 12  1  0  0  0
  8 19  1  0  0  0
  9 20  1  0  0  0
  9 21  1  0  0  0
 10 14  1  0  0  0
 10 17  1  0  0  0
 11 12  1  0  0  0
 11 22  1  0  0  0
 11 23  1  0  0  0
 12 24  1  0  0  0
 12 25  1  0  0  0
 13 26  1  0  0  0
 13 27  1  0  0  0
 15 16  1  0  0  0
 15 28  1  0  0  0
 16 17  2  0  0  0
 16 29  1  0  0  0
 17 30  1  0  0  0
M  END
> <s_m_entry_id>
8798

> <s_m_entry_name>
dock_pv.308

> <s_m_Source_Path>
/home/csk/Desktop/cluster/DUD-E-result/aces

> <s_m_Source_File>
dock_pv.maegz

> <i_m_Source_File_Index>
308

> <chembl_id>
CHEMBL368196

> <chembl_pref_name>
None

> <i_lp_mmshare_version>
53161

> <i_f3d_flags>
0

> <r_lp_tautomer_probability>
1

> <s_lp_Force_Field>
OPLS_2005

> <r_lp_Energy>
68.880797

> <b_lp_Chiralities_Consistent>
1

> <s_lp_Variant>
CHEMBL220_lig286-2

> <s_i_glide_gridfile>
glide-grid_1e66

> <i_i_glide_lignum>
339

> <i_i_glide_rotatable_bonds>
0

> <r_i_docking_score>
-6.92097749283956

> <r_i_glide_ligand_efficiency>
-0.407116323108209

> <r_i_glide_ligand_efficiency_sa>
-1.046810705876

> <r_i_glide_ligand_efficiency_ln>
-1.80552890529071

> <r_i_glide_gscore>
-6.92097749283956

> <r_i_glide_lipo>
-2.45443137546929

> <r_i_glide_hbond>
-0.281948968617747

> <r_i_glide_metal>
0

> <r_i_glide_rewards>
-2.31134762392075

> <r_i_glide_evdw>
-33.1816825866699

> <r_i_glide_ecoul>
-1.42776930332184

> <r_i_glide_erotb>
0

> <r_i_glide_esite>
0

> <r_i_glide_emodel>
-49.0852561973603

> <r_i_glide_energy>
-34.6094518899918

> <r_i_glide_einternal>
0

> <i_i_glide_confnum>
1

> <i_i_glide_posenum>
253

> <r_i_glide_eff_state_penalty>
0

> <s_user_duplicate_titles>
CHEMBL220_lig286

> <s_m_subgroup_title>
dock_pv

> <s_m_subgroupid>
dock_pv

> <b_m_subgroup_collapsed>
0

$$$$
CHEMBL220_lig84
                    3D
 Schrodinger Suite 2021-1.
 60 63  0  0  1  0            999 V2000
    4.0743   69.7079   66.8267 C   0  0  0  0  0  0
    5.3383   70.2794   66.8220 C   0  0  0  0  0  0
    6.0767   70.3836   65.6501 C   0  0  0  0  0  0
    3.5095   69.1854   65.6641 C   0  0  0  0  0  0
    4.1846   69.3196   64.4365 C   0  0  0  0  0  0
    5.4804   69.9074   64.4786 C   0  0  0  0  0  0
    5.9430   69.8882   63.1954 N   0  0  0  0  0  0
    5.0191   69.3632   62.3468 C   0  0  0  0  0  0
    3.8791   69.0351   63.0367 C   0  0  0  0  0  0
    2.6046   68.5514   62.3697 C   0  0  0  0  0  0
    1.4059   68.5527   63.3245 C   0  0  0  0  0  0
    0.0447   69.0386   62.8216 C   0  0  0  0  0  0
   -1.0089   68.9079   63.6437 N   0  0  0  0  0  0
   -0.0569   69.6301   61.7498 O   0  0  0  0  0  0
   -1.0506   68.2006   64.9281 C   0  0  0  0  0  0
   -0.4902   68.9243   66.1564 C   0  0  0  0  0  0
   -0.4504   68.0789   67.4616 C   0  0  0  0  0  0
   -0.5588   66.5307   67.3828 C   0  0  0  0  0  0
   -0.3561   65.8307   68.7545 C   0  0  0  0  0  0
    0.9697   66.1384   69.3032 N   0  0  1  0  0  0
    1.0275   67.5657   69.5897 C   0  0  0  0  0  0
    0.7391   68.4759   68.3691 C   0  0  0  0  0  0
    1.2397   65.3772   70.5329 C   0  0  0  0  0  0
    1.7536   63.9720   70.2510 C   0  0  0  0  0  0
    2.9612   63.7994   69.5679 C   0  0  0  0  0  0
    3.4355   62.5174   69.3055 C   0  0  0  0  0  0
    2.7137   61.4110   69.7465 C   0  0  0  0  0  0
    1.5197   61.5773   70.4436 C   0  0  0  0  0  0
    1.0337   62.8586   70.6916 C   0  0  0  0  0  0
    3.5430   69.6402   67.7646 H   0  0  0  0  0  0
    5.7542   70.6477   67.7485 H   0  0  0  0  0  0
    7.0627   70.8259   65.6449 H   0  0  0  0  0  0
    2.5550   68.6978   65.7234 H   0  0  0  0  0  0
    6.8542   70.2019   62.8928 H   0  0  0  0  0  0
    5.2361   69.3089   61.2885 H   0  0  0  0  0  0
    2.4032   69.1637   61.4887 H   0  0  0  0  0  0
    2.7431   67.5475   61.9689 H   0  0  0  0  0  0
    1.4114   67.6758   63.9676 H   0  0  0  0  0  0
    1.5629   69.4129   63.9645 H   0  0  0  0  0  0
   -1.8634   69.3663   63.3572 H   0  0  0  0  0  0
   -2.0600   67.8608   65.1457 H   0  0  0  0  0  0
   -0.4569   67.3081   64.8343 H   0  0  0  0  0  0
    0.5067   69.2928   65.9445 H   0  0  0  0  0  0
   -1.0877   69.8201   66.3335 H   0  0  0  0  0  0
   -1.3702   68.3499   67.9680 H   0  0  0  0  0  0
   -1.5142   66.2457   66.9418 H   0  0  0  0  0  0
    0.1946   66.1389   66.6990 H   0  0  0  0  0  0
   -1.1284   66.1345   69.4631 H   0  0  0  0  0  0
   -0.4568   64.7528   68.6625 H   0  0  0  0  0  0
    0.3164   67.7079   70.3949 H   0  0  0  0  0  0
    2.0086   67.8176   69.9938 H   0  0  0  0  0  0
    1.6480   68.4327   67.7760 H   0  0  0  0  0  0
    0.6635   69.5211   68.6695 H   0  0  0  0  0  0
    1.9936   65.8647   71.1532 H   0  0  0  0  0  0
    0.3412   65.3337   71.1513 H   0  0  0  0  0  0
    3.5189   64.6613   69.2298 H   0  0  0  0  0  0
    4.3549   62.3834   68.7603 H   0  0  0  0  0  0
    3.0792   60.4147   69.5467 H   0  0  0  0  0  0
    0.9634   60.7140   70.7795 H   0  0  0  0  0  0
    0.1011   62.9817   71.2232 H   0  0  0  0  0  0
  1  2  2  0  0  0
  1  4  1  0  0  0
  1 30  1  0  0  0
  2  3  1  0  0  0
  2 31  1  0  0  0
  3  6  2  0  0  0
  3 32  1  0  0  0
  4  5  2  0  0  0
  4 33  1  0  0  0
  5  6  1  0  0  0
  5  9  1  0  0  0
  6  7  1  0  0  0
  7  8  1  0  0  0
  7 34  1  0  0  0
  8  9  2  0  0  0
  8 35  1  0  0  0
  9 10  1  0  0  0
 10 11  1  0  0  0
 10 36  1  0  0  0
 10 37  1  0  0  0
 11 12  1  0  0  0
 11 38  1  0  0  0
 11 39  1  0  0  0
 12 13  1  0  0  0
 12 14  2  0  0  0
 13 15  1  0  0  0
 13 40  1  0  0  0
 15 16  1  0  0  0
 15 41  1  0  0  0
 15 42  1  0  0  0
 16 17  1  0  0  0
 16 43  1  0  0  0
 16 44  1  0  0  0
 17 18  1  0  0  0
 17 22  1  0  0  0
 17 45  1  0  0  0
 18 19  1  0  0  0
 18 46  1  0  0  0
 18 47  1  0  0  0
 19 20  1  0  0  0
 19 48  1  0  0  0
 19 49  1  0  0  0
 20 21  1  0  0  0
 20 23  1  0  0  0
 21 22  1  0  0  0
 21 50  1  0  0  0
 21 51  1  0  0  0
 22 52  1  0  0  0
 22 53  1  0  0  0
 23 24  1  0  0  0
 23 54  1  0  0  0
 23 55  1  0  0  0
 24 25  2  0  0  0
 24 29  1  0  0  0
 25 26  1  0  0  0
 25 56  1  0  0  0
 26 27  2  0  0  0
 26 57  1  0  0  0
 27 28  1  0  0  0
 27 58  1  0  0  0
 28 29  2  0  0  0
 28 59  1  0  0  0
 29 60  1  0  0  0
M  END
> <s_m_entry_id>
8799

> <s_m_entry_name>
dock_pv.309

> <s_m_Source_Path>
/home/csk/Desktop/cluster/DUD-E-result/aces

> <s_m_Source_File>
dock_pv.maegz

> <i_m_Source_File_Index>
309

> <chembl_id>
CHEMBL3824248

> <chembl_pref_name>
None

> <i_lp_mmshare_version>
53161

> <i_f3d_flags>
0

> <r_lp_tautomer_probability>
1

> <s_lp_Force_Field>
OPLS_2005

> <r_lp_Energy>
23.364677

> <b_lp_Chiralities_Consistent>
1

> <s_lp_Variant>
CHEMBL220_lig84-1

> <s_i_glide_gridfile>
glide-grid_1e66

> <i_i_glide_lignum>
95

> <i_i_glide_rotatable_bonds>
9

> <r_i_docking_score>
-6.91797306235296

> <r_i_glide_ligand_efficiency>
-0.23855079525355

> <r_i_glide_ligand_efficiency_sa>
-0.732903621215588

> <r_i_glide_ligand_efficiency_ln>
-1.58404040661802

> <r_i_glide_gscore>
-6.91797306235296

> <r_i_glide_lipo>
-4.60100037458731

> <r_i_glide_hbond>
-0.173601167914377

> <r_i_glide_metal>
0

> <r_i_glide_rewards>
-0.606854743608003

> <r_i_glide_evdw>
-42.8569793701172

> <r_i_glide_ecoul>
-2.71067118644714

> <r_i_glide_erotb>
1.02784957824858

> <r_i_glide_esite>
-0.0149167080189277

> <r_i_glide_emodel>
-53.0739105018045

> <r_i_glide_energy>
-45.5676505565643

> <r_i_glide_einternal>
13.9929065704346

> <i_i_glide_confnum>
11

> <i_i_glide_posenum>
69

> <r_i_glide_eff_state_penalty>
0

> <s_user_duplicate_titles>
CHEMBL220_lig84

> <s_m_subgroup_title>
dock_pv

> <s_m_subgroupid>
dock_pv

> <b_m_subgroup_collapsed>
0

$$$$
CHEMBL220_lig885
                    3D
 Schrodinger Suite 2021-1.
 57 60  0  0  1  0            999 V2000
    3.1010   67.6107   65.1354 C   0  0  0  0  0  0
    1.6425   68.5575   66.8296 C   0  0  0  0  0  0
    4.0808   68.5144   65.3782 N   0  0  0  0  0  0
    1.8329   67.7147   65.7219 C   0  0  0  0  0  0
    0.3134   68.5297   67.5558 C   0  0  0  0  0  0
    3.4657   66.4694   64.4209 N   0  0  0  0  0  0
    0.0458   67.4562   68.3519 N   0  0  0  0  0  0
    2.7358   69.3911   67.2274 C   0  0  0  0  0  0
    3.9236   69.3718   66.4202 C   0  0  0  0  0  0
    4.5358   63.9762   63.3145 N   0  0  0  0  0  0
   -0.5347   69.3647   67.2421 O   0  0  0  0  0  0
    0.9755   67.0310   69.4286 C   0  0  0  0  0  0
    4.3381   66.4371   63.2422 C   0  0  0  0  0  0
    2.9716   65.1349   64.8459 C   0  0  0  0  0  0
    3.9208   63.9394   64.6358 C   0  0  0  0  0  0
    5.2958   65.2299   63.2519 C   0  0  0  0  0  0
    0.6596   66.9762   65.0923 C   0  0  0  0  0  0
    1.2098   65.5418   69.7475 C   0  0  0  0  0  0
   -1.3214   66.9167   68.3528 C   0  0  0  0  0  0
    5.3757   62.7781   63.1734 C   0  0  0  0  0  0
    2.7382   70.1966   68.3970 C   0  0  0  0  0  0
    5.0467   70.1469   66.7927 C   0  0  0  0  0  0
    0.1692   64.6092   69.8629 C   0  0  0  0  0  0
    2.5186   65.1111   69.9957 C   0  0  0  0  0  0
    3.8803   70.9024   68.7662 C   0  0  0  0  0  0
    5.0200   70.8932   67.9684 C   0  0  0  0  0  0
    2.7913   63.7857   70.3177 C   0  0  0  0  0  0
    0.4362   63.2799   70.1804 C   0  0  0  0  0  0
    1.7471   62.8723   70.4015 C   0  0  0  0  0  0
    0.6230   67.4897   70.3524 H   0  0  0  0  0  0
    1.9446   67.4960   69.2637 H   0  0  0  0  0  0
    3.7149   66.4111   62.3467 H   0  0  0  0  0  0
    4.9124   67.3648   63.1727 H   0  0  0  0  0  0
    2.7502   65.1894   65.9120 H   0  0  0  0  0  0
    2.0272   64.8929   64.3679 H   0  0  0  0  0  0
    4.6870   63.9318   65.4146 H   0  0  0  0  0  0
    3.3610   63.0109   64.7473 H   0  0  0  0  0  0
    5.9427   65.3063   62.3759 H   0  0  0  0  0  0
    5.9349   65.3020   64.1309 H   0  0  0  0  0  0
    0.8261   66.8102   64.0364 H   0  0  0  0  0  0
    0.4283   66.0320   65.5811 H   0  0  0  0  0  0
   -0.2111   67.6159   65.1187 H   0  0  0  0  0  0
   -2.0100   67.4807   67.7202 H   0  0  0  0  0  0
   -1.3070   65.9096   67.9555 H   0  0  0  0  0  0
   -1.7554   66.8842   69.3507 H   0  0  0  0  0  0
    6.1048   62.8477   62.3691 H   0  0  0  0  0  0
    5.9412   62.5332   64.0737 H   0  0  0  0  0  0
    4.7403   61.9169   62.9586 H   0  0  0  0  0  0
    1.8645   70.2265   69.0328 H   0  0  0  0  0  0
    5.9433   70.1088   66.1904 H   0  0  0  0  0  0
   -0.8569   64.8755   69.6983 H   0  0  0  0  0  0
    3.3398   65.8075   69.9691 H   0  0  0  0  0  0
    3.8730   71.4649   69.6844 H   0  0  0  0  0  0
    5.8904   71.4581   68.2708 H   0  0  0  0  0  0
    3.8058   63.4747   70.5100 H   0  0  0  0  0  0
   -0.3723   62.5669   70.2517 H   0  0  0  0  0  0
    1.9510   61.8401   70.6509 H   0  0  0  0  0  0
  1  3  2  0  0  0
  1  4  1  0  0  0
  1  6  1  0  0  0
  2  4  2  0  0  0
  2  5  1  0  0  0
  2  8  1  0  0  0
  3  9  1  0  0  0
  4 17  1  0  0  0
  5  7  1  0  0  0
  5 11  2  0  0  0
  6 13  1  0  0  0
  6 14  1  0  0  0
  7 12  1  0  0  0
  7 19  1  0  0  0
  8 21  2  0  0  0
  8  9  1  0  0  0
  9 22  2  0  0  0
 10 15  1  0  0  0
 10 20  1  0  0  0
 10 16  1  0  0  0
 12 18  1  0  0  0
 12 30  1  0  0  0
 12 31  1  0  0  0
 13 16  1  0  0  0
 13 32  1  0  0  0
 13 33  1  0  0  0
 14 15  1  0  0  0
 14 34  1  0  0  0
 14 35  1  0  0  0
 15 36  1  0  0  0
 15 37  1  0  0  0
 16 38  1  0  0  0
 16 39  1  0  0  0
 17 40  1  0  0  0
 17 41  1  0  0  0
 17 42  1  0  0  0
 18 23  2  0  0  0
 18 24  1  0  0  0
 19 43  1  0  0  0
 19 44  1  0  0  0
 19 45  1  0  0  0
 20 46  1  0  0  0
 20 47  1  0  0  0
 20 48  1  0  0  0
 21 25  1  0  0  0
 21 49  1  0  0  0
 22 26  1  0  0  0
 22 50  1  0  0  0
 23 28  1  0  0  0
 23 51  1  0  0  0
 24 27  2  0  0  0
 24 52  1  0  0  0
 25 26  2  0  0  0
 25 53  1  0  0  0
 26 54  1  0  0  0
 27 29  1  0  0  0
 27 55  1  0  0  0
 28 29  2  0  0  0
 28 56  1  0  0  0
 29 57  1  0  0  0
M  END
> <s_m_entry_id>
8800

> <s_m_entry_name>
dock_pv.310

> <s_m_Source_Path>
/home/csk/Desktop/cluster/DUD-E-result/aces

> <s_m_Source_File>
dock_pv.maegz

> <i_m_Source_File_Index>
310

> <chembl_id>
CHEMBL191084

> <chembl_pref_name>
None

> <i_lp_mmshare_version>
53161

> <i_f3d_flags>
0

> <r_lp_tautomer_probability>
1

> <s_lp_Force_Field>
OPLS_2005

> <r_lp_Energy>
53.358083

> <b_lp_Chiralities_Consistent>
1

> <s_lp_Variant>
CHEMBL220_lig885-1

> <s_i_glide_gridfile>
glide-grid_1e66

> <i_i_glide_lignum>
1192

> <i_i_glide_rotatable_bonds>
5

> <r_i_docking_score>
-6.91779850331374

> <r_i_glide_ligand_efficiency>
-0.238544775976336

> <r_i_glide_ligand_efficiency_sa>
-0.732885128088944

> <r_i_glide_ligand_efficiency_ln>
-1.58400043702447

> <r_i_glide_gscore>
-6.91779850331374

> <r_i_glide_lipo>
-3.98497323562954

> <r_i_glide_hbond>
-0.249812104998893

> <r_i_glide_metal>
0

> <r_i_glide_rewards>
-1.19517673555384

> <r_i_glide_evdw>
-36.2966461181641

> <r_i_glide_ecoul>
-1.26248466968536

> <r_i_glide_erotb>
0.516368579229551

> <r_i_glide_esite>
0

> <r_i_glide_emodel>
-67.5029200883576

> <r_i_glide_energy>
-37.5591307878494

> <r_i_glide_einternal>
7.55895900726318

> <i_i_glide_confnum>
11

> <i_i_glide_posenum>
216

> <r_i_glide_eff_state_penalty>
0

> <s_user_duplicate_titles>
CHEMBL220_lig885

> <s_m_subgroup_title>
dock_pv

> <s_m_subgroupid>
dock_pv

> <b_m_subgroup_collapsed>
0

$$$$
CHEMBL220_lig695
                    3D
 Schrodinger Suite 2021-1.
 39 42  0  0  1  0            999 V2000
    4.3607   64.5697   63.8184 C   0  0  0  0  0  0
    4.9217   63.5103   63.5680 O   0  0  0  0  0  0
    4.7394   65.7220   63.2123 N   0  0  0  0  0  0
    3.2763   64.7315   64.7679 C   0  0  0  0  0  0
    2.7428   65.9396   65.0620 C   0  0  0  0  0  0
    3.1984   67.1486   64.3678 C   0  0  0  0  0  0
    4.1998   66.9537   63.4541 C   0  0  0  0  0  0
    4.7796   68.0643   62.5678 C   0  0  0  0  0  0
    4.3232   69.4624   63.0273 C   0  0  2  0  0  0
    5.1383   69.8478   64.2619 C   0  0  0  0  0  0
    0.4253   69.0001   62.6326 C   0  0  0  0  0  0
    1.8888   69.0703   62.1823 C   0  0  0  0  0  0
    2.8078   69.4452   63.3719 C   0  0  1  0  0  0
    2.5823   68.5449   64.6235 C   0  0  1  0  0  0
    1.1497   68.5034   64.9510 N   0  0  1  0  0  0
    3.2926   69.2003   65.8475 C   0  0  0  0  0  0
    4.7040   69.7079   65.5338 C   0  0  0  0  0  0
    5.5415   70.1600   66.7144 C   0  0  0  0  0  0
    0.2419   68.1059   63.8739 C   0  0  0  0  0  0
    2.5028   70.4430   63.6752 H   0  0  0  0  0  0
    4.5146   70.1977   62.2421 H   0  0  0  0  0  0
    5.5049   65.6520   62.5688 H   0  0  0  0  0  0
    2.9189   63.8363   65.2461 H   0  0  0  0  0  0
    1.9424   66.0095   65.7846 H   0  0  0  0  0  0
    4.5283   67.8690   61.5235 H   0  0  0  0  0  0
    5.8689   68.0160   62.5763 H   0  0  0  0  0  0
    6.1306   70.2441   64.1050 H   0  0  0  0  0  0
   -0.1755   68.5958   61.8192 H   0  0  0  0  0  0
    0.0164   69.9934   62.8267 H   0  0  0  0  0  0
    2.1710   68.0991   61.7781 H   0  0  0  0  0  0
    2.0234   69.7698   61.3567 H   0  0  0  0  0  0
    0.9888   67.9569   65.7838 H   0  0  0  0  0  0
    3.3100   68.5331   66.7093 H   0  0  0  0  0  0
    2.7301   70.0687   66.1959 H   0  0  0  0  0  0
    5.7782   69.3076   67.3491 H   0  0  0  0  0  0
    6.4819   70.6125   66.4002 H   0  0  0  0  0  0
    4.9935   70.8939   67.3083 H   0  0  0  0  0  0
    0.4067   67.0585   63.6220 H   0  0  0  0  0  0
   -0.7824   68.1860   64.2411 H   0  0  0  0  0  0
  1  2  2  0  0  0
  1  3  1  0  0  0
  1  4  1  0  0  0
  3  7  1  0  0  0
  3 22  1  0  0  0
  4  5  2  0  0  0
  4 23  1  0  0  0
  5  6  1  0  0  0
  5 24  1  0  0  0
  6  7  2  0  0  0
  6 14  1  0  0  0
  7  8  1  0  0  0
  8  9  1  0  0  0
  8 25  1  0  0  0
  8 26  1  0  0  0
  9 10  1  0  0  0
  9 13  1  0  0  0
  9 21  1  0  0  0
 10 17  2  0  0  0
 10 27  1  0  0  0
 11 12  1  0  0  0
 11 19  1  0  0  0
 11 28  1  0  0  0
 11 29  1  0  0  0
 12 13  1  0  0  0
 12 30  1  0  0  0
 12 31  1  0  0  0
 13 14  1  0  0  0
 13 20  1  0  0  0
 14 15  1  0  0  0
 14 16  1  0  0  0
 15 19  1  0  0  0
 15 32  1  0  0  0
 16 17  1  0  0  0
 16 33  1  0  0  0
 16 34  1  0  0  0
 17 18  1  0  0  0
 18 35  1  0  0  0
 18 36  1  0  0  0
 18 37  1  0  0  0
 19 38  1  0  0  0
 19 39  1  0  0  0
M  END
> <s_m_entry_id>
8801

> <s_m_entry_name>
dock_pv.311

> <s_m_Source_Path>
/home/csk/Desktop/cluster/DUD-E-result/aces

> <s_m_Source_File>
dock_pv.maegz

> <i_m_Source_File_Index>
311

> <chembl_id>
CHEMBL245079

> <chembl_pref_name>
HUPERZINE B

> <i_lp_mmshare_version>
53161

> <i_f3d_flags>
0

> <r_lp_tautomer_probability>
0.999

> <s_lp_Force_Field>
OPLS_2005

> <r_lp_Energy>
40.338157

> <b_lp_Chiralities_Consistent>
1

> <s_lp_Variant>
CHEMBL220_lig695-1

> <s_i_glide_gridfile>
glide-grid_1e66

> <i_i_glide_lignum>
822

> <i_i_glide_rotatable_bonds>
0

> <r_i_docking_score>
-6.91296632821834

> <r_i_glide_ligand_efficiency>
-0.363840333064123

> <r_i_glide_ligand_efficiency_sa>
-0.970872143666957

> <r_i_glide_ligand_efficiency_ln>
-1.75258544110606

> <r_i_glide_gscore>
-6.91296632821834

> <r_i_glide_lipo>
-3.37354866327312

> <r_i_glide_hbond>
-0.0443890219567177

> <r_i_glide_metal>
0

> <r_i_glide_rewards>
-1.81062905864466

> <r_i_glide_evdw>
-33.7716331481934

> <r_i_glide_ecoul>
0.366436213254929

> <r_i_glide_erotb>
0

> <r_i_glide_esite>
-0.05078335892242

> <r_i_glide_emodel>
-46.8092072145658

> <r_i_glide_energy>
-33.4051969349384

> <r_i_glide_einternal>
0

> <i_i_glide_confnum>
1

> <i_i_glide_posenum>
120

> <r_i_glide_eff_state_penalty>
0

> <s_user_duplicate_titles>
CHEMBL220_lig695,391756

> <s_m_subgroup_title>
dock_pv

> <s_m_subgroupid>
dock_pv

> <b_m_subgroup_collapsed>
0

$$$$
CHEMBL220_lig824
                    3D
 Schrodinger Suite 2021-1.
 32 34  0  0  1  0            999 V2000
    4.0856   69.1748   65.2663 N   0  0  0  0  0  0
    3.0609   68.6683   64.7005 C   0  0  0  0  0  0
    1.8262   68.4826   65.3668 N   0  0  0  0  0  0
    1.5872   68.9836   66.6717 C   0  0  0  0  0  0
    3.9957   69.7080   66.5629 C   0  0  0  0  0  0
    2.7872   69.6655   67.2954 C   0  0  0  0  0  0
    5.1410   70.3189   67.1096 C   0  0  0  0  0  0
    0.4095   68.9078   67.3378 C   0  0  0  0  0  0
    0.7633   67.7225   64.6777 C   0  0  0  0  0  0
    2.7599   70.2553   68.5696 C   0  0  0  0  0  0
    6.6546   70.3707   66.2717 Cl  0  0  0  0  0  0
    3.1930   68.2971   63.2187 C   0  0  0  0  0  0
    3.8903   70.8753   69.0987 C   0  0  0  0  0  0
    5.0753   70.9080   68.3699 C   0  0  0  0  0  0
    0.0227   68.5079   63.5745 C   0  0  0  0  0  0
    2.2462   69.0578   62.2654 C   0  0  0  0  0  0
    0.7647   68.6461   62.2315 C   0  0  0  0  0  0
    0.2692   69.3032   68.3311 H   0  0  0  0  0  0
   -0.4707   68.4520   66.9143 H   0  0  0  0  0  0
    0.0472   67.2598   65.3544 H   0  0  0  0  0  0
    1.2198   66.8438   64.2268 H   0  0  0  0  0  0
    1.8654   70.2588   69.1680 H   0  0  0  0  0  0
    3.1337   67.2196   63.0831 H   0  0  0  0  0  0
    4.2094   68.5292   62.8906 H   0  0  0  0  0  0
    3.8428   71.3078   70.0868 H   0  0  0  0  0  0
    5.9509   71.3794   68.7918 H   0  0  0  0  0  0
   -0.2916   69.4753   63.9601 H   0  0  0  0  0  0
   -0.9213   68.0007   63.3730 H   0  0  0  0  0  0
    2.2966   70.1080   62.5211 H   0  0  0  0  0  0
    2.6430   68.9965   61.2510 H   0  0  0  0  0  0
    0.2208   69.3592   61.6096 H   0  0  0  0  0  0
    0.6894   67.7080   61.6910 H   0  0  0  0  0  0
  1  2  2  0  0  0
  1  5  1  0  0  0
  2  3  1  0  0  0
  2 12  1  0  0  0
  3  9  1  0  0  0
  3  4  1  0  0  0
  4  6  1  0  0  0
  4  8  2  0  0  0
  5  6  1  0  0  0
  5  7  2  0  0  0
  6 10  2  0  0  0
  7 11  1  0  0  0
  7 14  1  0  0  0
  8 18  1  0  0  0
  8 19  1  0  0  0
  9 15  1  0  0  0
  9 20  1  0  0  0
  9 21  1  0  0  0
 10 13  1  0  0  0
 10 22  1  0  0  0
 12 16  1  0  0  0
 12 23  1  0  0  0
 12 24  1  0  0  0
 13 14  2  0  0  0
 13 25  1  0  0  0
 14 26  1  0  0  0
 15 17  1  0  0  0
 15 27  1  0  0  0
 15 28  1  0  0  0
 16 17  1  0  0  0
 16 29  1  0  0  0
 16 30  1  0  0  0
 17 31  1  0  0  0
 17 32  1  0  0  0
M  END
> <s_m_entry_id>
8802

> <s_m_entry_name>
dock_pv.312

> <s_m_Source_Path>
/home/csk/Desktop/cluster/DUD-E-result/aces

> <s_m_Source_File>
dock_pv.maegz

> <i_m_Source_File_Index>
312

> <chembl_id>
CHEMBL1161720

> <chembl_pref_name>
None

> <i_lp_mmshare_version>
53161

> <i_f3d_flags>
0

> <r_lp_tautomer_probability>
0.999601159137504

> <s_lp_Force_Field>
OPLS_2005

> <r_lp_Energy>
23.42993

> <b_lp_Chiralities_Consistent>
1

> <s_lp_Variant>
CHEMBL220_lig824-1

> <s_i_glide_gridfile>
glide-grid_1e66

> <i_i_glide_lignum>
1020

> <i_i_glide_rotatable_bonds>
0

> <r_i_docking_score>
-6.9085976156091

> <r_i_glide_ligand_efficiency>
-0.40638809503583

> <r_i_glide_ligand_efficiency_sa>
-1.04493822644145

> <r_i_glide_ligand_efficiency_ln>
-1.80229927100759

> <r_i_glide_gscore>
-6.9085976156091

> <r_i_glide_lipo>
-3.03705663081184

> <r_i_glide_hbond>
0

> <r_i_glide_metal>
0

> <r_i_glide_rewards>
-2.28343461035468

> <r_i_glide_evdw>
-32.662670135498

> <r_i_glide_ecoul>
0.3001808822155

> <r_i_glide_erotb>
0

> <r_i_glide_esite>
0

> <r_i_glide_emodel>
-45.0429357621156

> <r_i_glide_energy>
-32.3624892532825

> <r_i_glide_einternal>
0

> <i_i_glide_confnum>
2

> <i_i_glide_posenum>
78

> <r_i_glide_eff_state_penalty>
0

> <s_user_duplicate_titles>
CHEMBL220_lig824

> <s_m_subgroup_title>
dock_pv

> <s_m_subgroupid>
dock_pv

> <b_m_subgroup_collapsed>
0

$$$$
CHEMBL220_lig968
                    3D
 Schrodinger Suite 2021-1.
 55 57  0  0  1  0            999 V2000
    4.8741   68.0365   62.7440 C   0  0  0  0  0  0
    4.2337   68.7237   63.9677 C   0  0  2  0  0  0
    5.5436   68.9309   61.9680 O   0  0  0  0  0  0
    4.7549   66.8377   62.4886 O   0  0  0  0  0  0
    2.9956   69.6007   63.5615 C   0  0  0  0  0  0
    5.2754   69.5307   64.7962 C   0  0  0  0  0  0
    4.8211   69.8379   66.2399 C   0  0  0  0  0  0
    5.8430   70.6567   67.0348 C   0  0  0  0  0  0
    1.6110   68.9081   63.3442 C   0  0  0  0  0  0
    1.2844   68.0180   64.5919 C   0  0  0  0  0  0
    1.2450   68.6666   65.7773 N   0  0  0  0  0  0
    1.1435   66.8047   64.4921 O   0  0  0  0  0  0
    0.0878   68.1360   61.5825 C   0  0  0  0  0  0
   -0.4573   69.4800   61.9906 C   0  0  0  0  0  0
    0.3723   69.8440   63.1680 C   0  0  0  0  0  0
    1.5649   68.2008   61.9856 C   0  0  0  0  0  0
    0.9536   68.1121   67.0018 C   0  0  0  0  0  0
    1.5430   68.5140   68.0906 N   0  0  0  0  0  0
    1.2187   67.7080   69.1688 N   0  0  0  0  0  0
    0.3438   66.7746   68.8967 C   0  0  0  0  0  0
   -0.2761   66.9080   67.2745 S   0  0  0  0  0  0
   -0.0569   65.7102   69.8987 C   0  0  0  0  0  0
    0.9783   64.6078   70.1379 C   0  0  0  0  0  0
    0.5644   63.2716   70.1516 C   0  0  0  0  0  0
    1.4881   62.2521   70.3689 C   0  0  0  0  0  0
    2.8281   62.5676   70.5816 C   0  0  0  0  0  0
    3.2507   63.8943   70.5834 C   0  0  0  0  0  0
    2.3258   64.9123   70.3679 C   0  0  0  0  0  0
    3.9198   67.9055   64.6156 H   0  0  0  0  0  0
    5.8463   68.5581   61.1162 H   0  0  0  0  0  0
    2.8560   70.3664   64.3147 H   0  0  0  0  0  0
    3.2584   70.1441   62.6570 H   0  0  0  0  0  0
    5.5196   70.4617   64.2795 H   0  0  0  0  0  0
    6.2152   68.9764   64.8576 H   0  0  0  0  0  0
    4.6280   68.9080   66.7681 H   0  0  0  0  0  0
    3.8764   70.3780   66.2448 H   0  0  0  0  0  0
    5.5258   70.7728   68.0717 H   0  0  0  0  0  0
    5.9429   71.6541   66.6085 H   0  0  0  0  0  0
    6.8250   70.1811   67.0381 H   0  0  0  0  0  0
    1.5910   69.6126   65.7975 H   0  0  0  0  0  0
   -0.4570   67.3178   62.0725 H   0  0  0  0  0  0
   -0.0568   68.1080   60.5173 H   0  0  0  0  0  0
   -1.4927   69.4195   62.3616 H   0  0  0  0  0  0
   -0.3844   70.2267   61.1972 H   0  0  0  0  0  0
   -0.3619   69.7080   63.9704 H   0  0  0  0  0  0
    0.6108   70.9009   63.1679 H   0  0  0  0  0  0
    2.0543   68.8300   61.2387 H   0  0  0  0  0  0
    2.1653   67.3080   61.9676 H   0  0  0  0  0  0
   -0.2614   66.1824   70.8613 H   0  0  0  0  0  0
   -0.9844   65.2507   69.5677 H   0  0  0  0  0  0
   -0.4721   63.0161   69.9844 H   0  0  0  0  0  0
    1.1637   61.2215   70.3733 H   0  0  0  0  0  0
    3.5441   61.7773   70.7528 H   0  0  0  0  0  0
    4.2890   64.1375   70.7569 H   0  0  0  0  0  0
    2.6682   65.9365   70.3851 H   0  0  0  0  0  0
  1  3  1  0  0  0
  1  2  1  0  0  0
  1  4  2  0  0  0
  2  5  1  0  0  0
  2  6  1  0  0  0
  2 29  1  0  0  0
  3 30  1  0  0  0
  5  9  1  0  0  0
  5 31  1  0  0  0
  5 32  1  0  0  0
  6  7  1  0  0  0
  6 33  1  0  0  0
  6 34  1  0  0  0
  7  8  1  0  0  0
  7 35  1  0  0  0
  7 36  1  0  0  0
  8 37  1  0  0  0
  8 38  1  0  0  0
  8 39  1  0  0  0
  9 15  1  0  0  0
  9 16  1  0  0  0
  9 10  1  0  0  0
 10 11  1  0  0  0
 10 12  2  0  0  0
 11 17  1  0  0  0
 11 40  1  0  0  0
 13 16  1  0  0  0
 13 14  1  0  0  0
 13 41  1  0  0  0
 13 42  1  0  0  0
 14 15  1  0  0  0
 14 43  1  0  0  0
 14 44  1  0  0  0
 15 45  1  0  0  0
 15 46  1  0  0  0
 16 47  1  0  0  0
 16 48  1  0  0  0
 17 18  2  0  0  0
 17 21  1  0  0  0
 18 19  1  0  0  0
 19 20  2  0  0  0
 20 21  1  0  0  0
 20 22  1  0  0  0
 22 23  1  0  0  0
 22 49  1  0  0  0
 22 50  1  0  0  0
 23 24  2  0  0  0
 23 28  1  0  0  0
 24 25  1  0  0  0
 24 51  1  0  0  0
 25 26  2  0  0  0
 25 52  1  0  0  0
 26 27  1  0  0  0
 26 53  1  0  0  0
 27 28  2  0  0  0
 27 54  1  0  0  0
 28 55  1  0  0  0
M  END
> <s_m_entry_id>
8803

> <s_m_entry_name>
dock_pv.313

> <s_m_Source_Path>
/home/csk/Desktop/cluster/DUD-E-result/aces

> <s_m_Source_File>
dock_pv.maegz

> <i_m_Source_File_Index>
313

> <chembl_id>
CHEMBL379935

> <chembl_pref_name>
None

> <i_lp_mmshare_version>
53161

> <i_f3d_flags>
0

> <r_lp_tautomer_probability>
1

> <s_lp_Force_Field>
OPLS_2005

> <r_lp_Energy>
32.609526

> <b_lp_Chiralities_Consistent>
1

> <s_lp_Variant>
CHEMBL220_lig968-1

> <s_i_glide_gridfile>
glide-grid_1e66

> <i_i_glide_lignum>
1324

> <i_i_glide_rotatable_bonds>
11

> <r_i_docking_score>
-6.90535571611398

> <r_i_glide_ligand_efficiency>
-0.246619847004071

> <r_i_glide_ligand_efficiency_sa>
-0.748883106826414

> <r_i_glide_ligand_efficiency_ln>
-1.59395884933297

> <r_i_glide_gscore>
-6.90535571611398

> <r_i_glide_lipo>
-4.01719767944887

> <r_i_glide_hbond>
0

> <r_i_glide_metal>
0

> <r_i_glide_rewards>
-1.68973192152154

> <r_i_glide_evdw>
-26.6905879974365

> <r_i_glide_ecoul>
-6.11204099655151

> <r_i_glide_erotb>
1.09498096996642

> <r_i_glide_esite>
-0.0420715357554337

> <r_i_glide_emodel>
-30.8737213142558

> <r_i_glide_energy>
-32.802628993988

> <r_i_glide_einternal>
8.87288856506348

> <i_i_glide_confnum>
224

> <i_i_glide_posenum>
122

> <r_i_glide_eff_state_penalty>
0

> <s_user_duplicate_titles>
CHEMBL220_lig968

> <s_m_subgroup_title>
dock_pv

> <s_m_subgroupid>
dock_pv

> <b_m_subgroup_collapsed>
0

$$$$
CHEMBL220_lig849
                    3D
 Schrodinger Suite 2021-1.
 56 58  0  0  1  0            999 V2000
   -0.0311   68.1083   64.9652 S   0  0  0  0  0  0
    1.6235   68.4153   64.4782 C   0  0  0  0  0  0
    1.9231   62.6496   70.9635 N   0  3  0  0  0  0
    2.4071   68.9658   65.4888 C   0  0  0  0  0  0
    0.2157   68.7890   66.6188 C   0  0  2  0  0  0
    2.1620   68.1659   63.2248 C   0  0  0  0  0  0
    1.7078   69.1331   66.8128 C   0  0  0  0  0  0
    3.4764   68.5277   62.9470 C   0  0  0  0  0  0
    3.7300   69.3084   65.2214 C   0  0  0  0  0  0
    4.2624   69.1538   63.9299 C   0  0  0  0  0  0
   -0.4411   67.7774   67.5680 C   0  0  0  0  0  0
   -1.6656   67.6414   67.5677 O   0  0  0  0  0  0
    0.4563   66.9409   68.4986 C   0  0  0  0  0  0
    2.5300   63.8626   70.9268 C   0  0  0  0  0  0
    0.6679   62.4714   70.4869 C   0  0  0  0  0  0
    0.5220   64.8262   69.9678 C   0  0  0  0  0  0
   -0.2954   66.0166   69.4834 C   0  0  0  0  0  0
    3.9565   68.2698   61.6872 O   0  0  0  0  0  0
    2.6103   61.4834   71.5715 C   0  0  0  0  0  0
    5.5137   69.6143   63.5757 O   0  0  0  0  0  0
   -0.0553   63.5551   69.9896 C   0  0  0  0  0  0
    1.8387   64.9712   70.4232 C   0  0  0  0  0  0
    2.4026   59.7846   73.3335 O   0  0  0  0  0  0
    1.8986   61.0242   72.8612 C   0  0  0  0  0  0
    3.6402   59.8592   74.0207 C   0  0  0  0  0  0
    3.8247   69.3590   60.7842 C   0  0  0  0  0  0
    6.1214   70.6194   64.3881 C   0  0  0  0  0  0
    3.8782   58.5151   74.7099 C   0  0  0  0  0  0
   -0.3823   69.7024   66.6668 H   0  0  0  0  0  0
    1.5586   67.7103   62.4540 H   0  0  0  0  0  0
    2.2124   68.5085   67.5449 H   0  0  0  0  0  0
    1.7867   70.1578   67.1718 H   0  0  0  0  0  0
    4.3236   69.7382   66.0145 H   0  0  0  0  0  0
    1.1133   66.3451   67.8620 H   0  0  0  0  0  0
    1.0729   67.6192   69.0862 H   0  0  0  0  0  0
    3.5363   63.9209   71.3156 H   0  0  0  0  0  0
    0.2627   61.4678   70.5355 H   0  0  0  0  0  0
   -0.5762   66.5849   70.3728 H   0  0  0  0  0  0
   -1.2286   65.6583   69.0452 H   0  0  0  0  0  0
    2.6085   60.6971   70.8174 H   0  0  0  0  0  0
    3.6512   61.7484   71.7601 H   0  0  0  0  0  0
   -1.0662   63.4053   69.6356 H   0  0  0  0  0  0
    2.3141   65.9421   70.4217 H   0  0  0  0  0  0
    1.9332   61.7933   73.6358 H   0  0  0  0  0  0
    0.8419   60.8447   72.6654 H   0  0  0  0  0  0
    4.4516   60.0804   73.3253 H   0  0  0  0  0  0
    3.6042   60.6511   74.7683 H   0  0  0  0  0  0
    3.9429   69.0079   59.7604 H   0  0  0  0  0  0
    2.8387   69.8240   60.8534 H   0  0  0  0  0  0
    4.5859   70.1189   60.9800 H   0  0  0  0  0  0
    6.7436   71.2382   63.7474 H   0  0  0  0  0  0
    6.7370   70.1858   65.1764 H   0  0  0  0  0  0
    5.4243   71.3080   64.8564 H   0  0  0  0  0  0
    4.8095   58.5202   75.2717 H   0  0  0  0  0  0
    3.0700   58.2809   75.4038 H   0  0  0  0  0  0
    3.9283   57.7091   73.9757 H   0  0  0  0  0  0
  1  2  1  0  0  0
  1  5  1  0  0  0
  2  4  2  0  0  0
  2  6  1  0  0  0
  3 14  2  0  0  0
  3 19  1  0  0  0
  3 15  1  0  0  0
  4  9  1  0  0  0
  4  7  1  0  0  0
  5  7  1  0  0  0
  5 11  1  0  0  0
  5 29  1  0  0  0
  6  8  2  0  0  0
  6 30  1  0  0  0
  7 31  1  0  0  0
  7 32  1  0  0  0
  8 10  1  0  0  0
  8 18  1  0  0  0
  9 10  2  0  0  0
  9 33  1  0  0  0
 10 20  1  0  0  0
 11 12  2  0  0  0
 11 13  1  0  0  0
 13 17  1  0  0  0
 13 34  1  0  0  0
 13 35  1  0  0  0
 14 22  1  0  0  0
 14 36  1  0  0  0
 15 21  2  0  0  0
 15 37  1  0  0  0
 16 17  1  0  0  0
 16 21  1  0  0  0
 16 22  2  0  0  0
 17 38  1  0  0  0
 17 39  1  0  0  0
 18 26  1  0  0  0
 19 24  1  0  0  0
 19 40  1  0  0  0
 19 41  1  0  0  0
 20 27  1  0  0  0
 21 42  1  0  0  0
 22 43  1  0  0  0
 23 24  1  0  0  0
 23 25  1  0  0  0
 24 44  1  0  0  0
 24 45  1  0  0  0
 25 28  1  0  0  0
 25 46  1  0  0  0
 25 47  1  0  0  0
 26 48  1  0  0  0
 26 49  1  0  0  0
 26 50  1  0  0  0
 27 51  1  0  0  0
 27 52  1  0  0  0
 27 53  1  0  0  0
 28 54  1  0  0  0
 28 55  1  0  0  0
 28 56  1  0  0  0
M  CHG  1   3   1
M  END
> <s_m_entry_id>
8804

> <s_m_entry_name>
dock_pv.314

> <s_m_Source_Path>
/home/csk/Desktop/cluster/DUD-E-result/aces

> <s_m_Source_File>
dock_pv.maegz

> <i_m_Source_File_Index>
314

> <chembl_id>
CHEMBL186264

> <chembl_pref_name>
None

> <i_lp_mmshare_version>
53161

> <i_f3d_flags>
0

> <r_lp_tautomer_probability>
0.999999960000001

> <s_lp_Force_Field>
OPLS_2005

> <r_lp_Energy>
33.904872

> <b_lp_Chiralities_Consistent>
1

> <s_lp_Variant>
CHEMBL220_lig849-1

> <s_i_glide_gridfile>
glide-grid_1e66

> <i_i_glide_lignum>
1102

> <i_i_glide_rotatable_bonds>
10

> <r_i_docking_score>
-6.89608879667593

> <r_i_glide_ligand_efficiency>
-0.246288885595569

> <r_i_glide_ligand_efficiency_sa>
-0.747878113064357

> <r_i_glide_ligand_efficiency_ln>
-1.59181977223809

> <r_i_glide_gscore>
-6.89608879667593

> <r_i_glide_lipo>
-3.25169608667947

> <r_i_glide_hbond>
0

> <r_i_glide_metal>
0

> <r_i_glide_rewards>
-2.1593056788729

> <r_i_glide_evdw>
-41.6051406860352

> <r_i_glide_ecoul>
-1.68438625335693

> <r_i_glide_erotb>
0.847827941181732

> <r_i_glide_esite>
0

> <r_i_glide_emodel>
-37.3159442604907

> <r_i_glide_energy>
-43.2895269393921

> <r_i_glide_einternal>
12.695463180542

> <i_i_glide_confnum>
13

> <i_i_glide_posenum>
48

> <r_i_glide_eff_state_penalty>
0

> <s_user_duplicate_titles>
CHEMBL220_lig849

> <s_m_subgroup_title>
dock_pv

> <s_m_subgroupid>
dock_pv

> <b_m_subgroup_collapsed>
0

$$$$
CHEMBL220_lig596
                    3D
 Schrodinger Suite 2021-1.
 24 25  0  0  1  0            999 V2000
    2.5940   68.8304   64.2597 C   0  0  0  0  0  0
    2.6628   68.9081   61.9072 C   0  0  0  0  0  0
    3.4208   69.0599   63.1628 C   0  0  0  0  0  0
    1.2241   68.3813   63.8094 C   0  0  0  0  0  0
    1.2044   68.6077   62.2907 C   0  0  1  0  0  0
    3.1168   68.9965   60.7679 O   0  0  0  0  0  0
    3.1078   68.9532   65.5555 C   0  0  0  0  0  0
    4.7678   69.3891   63.3355 C   0  0  0  0  0  0
    0.2551   69.7464   61.8535 C   0  0  0  0  0  0
    5.2828   69.5124   64.6258 C   0  0  0  0  0  0
    4.4521   69.3080   65.7296 C   0  0  0  0  0  0
    2.2205   68.7342   66.7680 C   0  0  0  0  0  0
    0.4150   68.9078   64.3151 H   0  0  0  0  0  0
    1.0789   67.3204   64.0200 H   0  0  0  0  0  0
    0.8913   67.7082   61.7713 H   0  0  0  0  0  0
    5.4156   69.5610   62.4862 H   0  0  0  0  0  0
    0.3913   70.0271   60.8071 H   0  0  0  0  0  0
   -0.7795   69.4269   61.9690 H   0  0  0  0  0  0
    0.3436   70.6395   62.4690 H   0  0  0  0  0  0
    6.3247   69.7723   64.7688 H   0  0  0  0  0  0
    4.8614   69.4145   66.7240 H   0  0  0  0  0  0
    2.7417   68.9109   67.7093 H   0  0  0  0  0  0
    1.3645   69.4086   66.7303 H   0  0  0  0  0  0
    1.8300   67.7160   66.7668 H   0  0  0  0  0  0
  1  3  1  0  0  0
  1  4  1  0  0  0
  1  7  2  0  0  0
  2  3  1  0  0  0
  2  6  2  0  0  0
  2  5  1  0  0  0
  3  8  2  0  0  0
  4  5  1  0  0  0
  4 13  1  0  0  0
  4 14  1  0  0  0
  5  9  1  0  0  0
  5 15  1  0  0  0
  7 11  1  0  0  0
  7 12  1  0  0  0
  8 10  1  0  0  0
  8 16  1  0  0  0
  9 17  1  0  0  0
  9 18  1  0  0  0
  9 19  1  0  0  0
 10 11  2  0  0  0
 10 20  1  0  0  0
 11 21  1  0  0  0
 12 22  1  0  0  0
 12 23  1  0  0  0
 12 24  1  0  0  0
M  END
> <s_m_entry_id>
8805

> <s_m_entry_name>
dock_pv.315

> <s_m_Source_Path>
/home/csk/Desktop/cluster/DUD-E-result/aces

> <s_m_Source_File>
dock_pv.maegz

> <i_m_Source_File_Index>
315

> <chembl_id>
CHEMBL352247

> <chembl_pref_name>
None

> <i_lp_mmshare_version>
53161

> <i_f3d_flags>
0

> <r_lp_tautomer_probability>
0.99995

> <s_lp_Force_Field>
OPLS_2005

> <r_lp_Energy>
23.040328

> <b_lp_Chiralities_Consistent>
1

> <s_lp_Variant>
CHEMBL220_lig596-2

> <s_i_glide_gridfile>
glide-grid_1e66

> <i_i_glide_lignum>
689

> <i_i_glide_rotatable_bonds>
0

> <r_i_docking_score>
-6.89027769833517

> <r_i_glide_ligand_efficiency>
-0.574189808194597

> <r_i_glide_ligand_efficiency_sa>
-1.31456650164978

> <r_i_glide_ligand_efficiency_ln>
-1.9771771214458

> <r_i_glide_gscore>
-6.89027769833517

> <r_i_glide_lipo>
-2.66230923941889

> <r_i_glide_hbond>
0

> <r_i_glide_metal>
0

> <r_i_glide_rewards>
-2.72281680562649

> <r_i_glide_evdw>
-23.7126407623291

> <r_i_glide_ecoul>
-2.13013076782227

> <r_i_glide_erotb>
0

> <r_i_glide_esite>
0

> <r_i_glide_emodel>
-35.6771736508414

> <r_i_glide_energy>
-25.8427715301514

> <r_i_glide_einternal>
0

> <i_i_glide_confnum>
1

> <i_i_glide_posenum>
293

> <r_i_glide_eff_state_penalty>
0

> <s_user_duplicate_titles>
CHEMBL220_lig596,257521

> <s_m_subgroup_title>
dock_pv

> <s_m_subgroupid>
dock_pv

> <b_m_subgroup_collapsed>
0

$$$$
CHEMBL220_lig666
                    3D
 Schrodinger Suite 2021-1.
 31 33  0  0  1  0            999 V2000
    1.5558   68.1361   64.0271 N   0  0  0  0  0  0
    2.7991   68.2304   63.7538 C   0  0  0  0  0  0
    3.7769   68.5839   64.7066 N   0  0  0  0  0  0
    1.0989   68.3754   65.3277 C   0  0  0  0  0  0
    1.9207   68.9413   66.3174 C   0  0  0  0  0  0
    3.3552   69.3070   65.9272 C   0  0  0  0  0  0
   -0.2480   68.1193   65.5856 C   0  0  0  0  0  0
    1.3749   69.2319   67.5675 C   0  0  0  0  0  0
   -0.7884   68.4276   66.8330 C   0  0  0  0  0  0
    0.0225   69.0024   67.8129 C   0  0  0  0  0  0
    5.1778   68.8244   64.3623 C   0  0  0  0  0  0
   -2.4555   68.1079   67.1514 Cl  0  0  0  0  0  0
    3.2188   68.0421   62.2980 C   0  0  0  0  0  0
    5.3771   70.0485   63.4545 C   0  0  0  0  0  0
    3.7334   69.2985   61.5747 C   0  0  0  0  0  0
    5.1430   69.7561   61.9681 C   0  0  0  0  0  0
    4.0268   69.0641   66.7527 H   0  0  0  0  0  0
    3.4375   70.3807   65.7637 H   0  0  0  0  0  0
   -0.8790   67.7096   64.8131 H   0  0  0  0  0  0
    1.9803   69.6911   68.3360 H   0  0  0  0  0  0
   -0.3891   69.3075   68.7638 H   0  0  0  0  0  0
    5.5821   67.9366   63.8735 H   0  0  0  0  0  0
    5.7904   68.9322   65.2606 H   0  0  0  0  0  0
    2.3515   67.7083   61.7267 H   0  0  0  0  0  0
    3.9345   67.2241   62.2118 H   0  0  0  0  0  0
    6.3910   70.4184   63.5687 H   0  0  0  0  0  0
    4.7448   70.8717   63.7815 H   0  0  0  0  0  0
    3.0231   70.1089   61.7275 H   0  0  0  0  0  0
    3.7284   69.1082   60.4986 H   0  0  0  0  0  0
    5.3999   70.6438   61.3855 H   0  0  0  0  0  0
    5.8601   68.9985   61.6480 H   0  0  0  0  0  0
  1  2  2  0  0  0
  1  4  1  0  0  0
  2  3  1  0  0  0
  2 13  1  0  0  0
  3 11  1  0  0  0
  3  6  1  0  0  0
  4  5  1  0  0  0
  4  7  2  0  0  0
  5  6  1  0  0  0
  5  8  2  0  0  0
  6 17  1  0  0  0
  6 18  1  0  0  0
  7  9  1  0  0  0
  7 19  1  0  0  0
  8 10  1  0  0  0
  8 20  1  0  0  0
  9 10  2  0  0  0
  9 12  1  0  0  0
 10 21  1  0  0  0
 11 14  1  0  0  0
 11 22  1  0  0  0
 11 23  1  0  0  0
 13 15  1  0  0  0
 13 24  1  0  0  0
 13 25  1  0  0  0
 14 16  1  0  0  0
 14 26  1  0  0  0
 14 27  1  0  0  0
 15 16  1  0  0  0
 15 28  1  0  0  0
 15 29  1  0  0  0
 16 30  1  0  0  0
 16 31  1  0  0  0
M  END
> <s_m_entry_id>
8806

> <s_m_entry_name>
dock_pv.316

> <s_m_Source_Path>
/home/csk/Desktop/cluster/DUD-E-result/aces

> <s_m_Source_File>
dock_pv.maegz

> <i_m_Source_File_Index>
316

> <chembl_id>
CHEMBL445130

> <chembl_pref_name>
None

> <i_lp_mmshare_version>
53161

> <i_f3d_flags>
0

> <r_lp_tautomer_probability>
0.999601159137504

> <s_lp_Force_Field>
OPLS_2005

> <r_lp_Energy>
18.90157

> <b_lp_Chiralities_Consistent>
1

> <s_lp_Variant>
CHEMBL220_lig666-1

> <s_i_glide_gridfile>
glide-grid_1e66

> <i_i_glide_lignum>
784

> <i_i_glide_rotatable_bonds>
0

> <r_i_docking_score>
-6.88534434963634

> <r_i_glide_ligand_efficiency>
-0.430334021852272

> <r_i_glide_ligand_efficiency_sa>
-1.08437378423302

> <r_i_glide_ligand_efficiency_ln>
-1.82509805774654

> <r_i_glide_gscore>
-6.88534434963634

> <r_i_glide_lipo>
-2.68847821067361

> <r_i_glide_hbond>
0

> <r_i_glide_metal>
0

> <r_i_glide_rewards>
-2.48652613678359

> <r_i_glide_evdw>
-32.4290084838867

> <r_i_glide_ecoul>
-0.592597186565399

> <r_i_glide_erotb>
0

> <r_i_glide_esite>
0

> <r_i_glide_emodel>
-45.4872502402787

> <r_i_glide_energy>
-33.0216056704521

> <r_i_glide_einternal>
0

> <i_i_glide_confnum>
1

> <i_i_glide_posenum>
310

> <r_i_glide_eff_state_penalty>
0

> <s_user_duplicate_titles>
CHEMBL220_lig666,272265

> <s_m_subgroup_title>
dock_pv

> <s_m_subgroupid>
dock_pv

> <b_m_subgroup_collapsed>
0

$$$$
CHEMBL220_lig984
                    3D
 Schrodinger Suite 2021-1.
 54 55  0  0  1  0            999 V2000
   -0.6056   67.9919   66.4092 C   0  0  0  0  0  0
   -0.8820   66.5080   66.7716 C   0  0  0  0  0  0
   -0.6800   66.3726   68.2889 C   0  0  0  0  0  0
    0.3275   67.4615   68.6318 C   0  0  0  0  0  0
   -0.1024   68.6284   67.7346 C   0  0  0  0  0  0
   -1.9013   68.6685   65.8820 C   0  0  0  0  0  0
    0.4106   68.1847   65.3529 N   0  0  0  0  0  0
   -3.0059   68.5913   66.7680 O   0  0  0  0  0  0
    5.8060   69.4499   65.1372 C   0  0  0  0  0  0
    4.4629   69.3269   65.8660 C   0  0  2  0  0  0
    6.3430   70.6981   65.1635 O   0  0  0  0  0  0
    6.3430   68.5080   64.5821 O   0  0  0  0  0  0
    3.2747   69.5838   64.8872 C   0  0  0  0  0  0
    4.5173   70.1548   67.1782 C   0  0  0  0  0  0
    3.2810   70.1030   68.0753 C   0  0  0  0  0  0
    3.5379   70.8426   69.3857 C   0  0  0  0  0  0
    2.5980   68.3441   64.1917 C   0  0  0  0  0  0
    1.6580   67.6799   65.2430 C   0  0  0  0  0  0
    2.0908   66.7867   65.9677 O   0  0  0  0  0  0
    3.9324   67.7294   62.1792 C   0  0  0  0  0  0
    2.8614   68.7484   61.7710 C   0  0  0  0  0  0
    1.8334   68.7703   62.9086 C   0  0  0  0  0  0
    3.5981   67.2996   63.6163 C   0  0  0  0  0  0
   -1.8843   66.1831   66.4884 H   0  0  0  0  0  0
   -0.2072   65.8394   66.2440 H   0  0  0  0  0  0
   -1.6235   66.5538   68.8067 H   0  0  0  0  0  0
   -0.3332   65.3824   68.5855 H   0  0  0  0  0  0
    0.3426   67.7079   69.6930 H   0  0  0  0  0  0
    1.3343   67.1317   68.3797 H   0  0  0  0  0  0
    0.7369   69.2957   67.5805 H   0  0  0  0  0  0
   -0.8700   69.2279   68.2197 H   0  0  0  0  0  0
   -1.7089   69.7089   65.6457 H   0  0  0  0  0  0
   -2.1923   68.2160   64.9337 H   0  0  0  0  0  0
    0.1272   68.8128   64.6178 H   0  0  0  0  0  0
   -3.0483   69.3954   67.3006 H   0  0  0  0  0  0
    4.3767   68.2936   66.1838 H   0  0  0  0  0  0
    7.2252   70.6213   64.7680 H   0  0  0  0  0  0
    2.4940   70.1080   65.4271 H   0  0  0  0  0  0
    3.5844   70.2994   64.1245 H   0  0  0  0  0  0
    4.7432   71.2017   66.9723 H   0  0  0  0  0  0
    5.3634   69.7961   67.7695 H   0  0  0  0  0  0
    2.9882   69.0739   68.2783 H   0  0  0  0  0  0
    2.4406   70.5700   67.5716 H   0  0  0  0  0  0
    2.6200   70.9081   69.9684 H   0  0  0  0  0  0
    3.9141   71.8429   69.1680 H   0  0  0  0  0  0
    4.2853   70.3381   69.9976 H   0  0  0  0  0  0
    3.9517   66.8771   61.5010 H   0  0  0  0  0  0
    4.9225   68.1872   62.1353 H   0  0  0  0  0  0
    2.4026   68.5074   60.8111 H   0  0  0  0  0  0
    3.3161   69.7347   61.6647 H   0  0  0  0  0  0
    1.0595   68.0410   62.6573 H   0  0  0  0  0  0
    1.3283   69.7322   63.0066 H   0  0  0  0  0  0
    4.4633   67.1051   64.2390 H   0  0  0  0  0  0
    3.1430   66.3145   63.5680 H   0  0  0  0  0  0
  1  6  1  0  0  0
  1  2  1  0  0  0
  1  7  1  0  0  0
  1  5  1  0  0  0
  2  3  1  0  0  0
  2 24  1  0  0  0
  2 25  1  0  0  0
  3  4  1  0  0  0
  3 26  1  0  0  0
  3 27  1  0  0  0
  4  5  1  0  0  0
  4 28  1  0  0  0
  4 29  1  0  0  0
  5 30  1  0  0  0
  5 31  1  0  0  0
  6  8  1  0  0  0
  6 32  1  0  0  0
  6 33  1  0  0  0
  7 18  1  0  0  0
  7 34  1  0  0  0
  8 35  1  0  0  0
  9 12  2  0  0  0
  9 10  1  0  0  0
  9 11  1  0  0  0
 10 13  1  0  0  0
 10 14  1  0  0  0
 10 36  1  0  0  0
 11 37  1  0  0  0
 13 17  1  0  0  0
 13 38  1  0  0  0
 13 39  1  0  0  0
 14 15  1  0  0  0
 14 40  1  0  0  0
 14 41  1  0  0  0
 15 16  1  0  0  0
 15 42  1  0  0  0
 15 43  1  0  0  0
 16 44  1  0  0  0
 16 45  1  0  0  0
 16 46  1  0  0  0
 17 18  1  0  0  0
 17 22  1  0  0  0
 17 23  1  0  0  0
 18 19  2  0  0  0
 20 21  1  0  0  0
 20 23  1  0  0  0
 20 47  1  0  0  0
 20 48  1  0  0  0
 21 22  1  0  0  0
 21 49  1  0  0  0
 21 50  1  0  0  0
 22 51  1  0  0  0
 22 52  1  0  0  0
 23 53  1  0  0  0
 23 54  1  0  0  0
M  END
> <s_m_entry_id>
8807

> <s_m_entry_name>
dock_pv.317

> <s_m_Source_Path>
/home/csk/Desktop/cluster/DUD-E-result/aces

> <s_m_Source_File>
dock_pv.maegz

> <i_m_Source_File_Index>
317

> <chembl_id>
CHEMBL212065

> <chembl_pref_name>
None

> <i_lp_mmshare_version>
53161

> <i_f3d_flags>
0

> <r_lp_tautomer_probability>
1

> <s_lp_Force_Field>
OPLS_2005

> <r_lp_Energy>
43.967864

> <b_lp_Chiralities_Consistent>
1

> <s_lp_Variant>
CHEMBL220_lig984-1

> <s_i_glide_gridfile>
glide-grid_1e66

> <i_i_glide_lignum>
1356

> <i_i_glide_rotatable_bonds>
11

> <r_i_docking_score>
-6.884507953136

> <r_i_glide_ligand_efficiency>
-0.299326432745043

> <r_i_glide_ligand_efficiency_sa>
-0.851244557390698

> <r_i_glide_ligand_efficiency_ln>
-1.66473644833504

> <r_i_glide_gscore>
-6.884507953136

> <r_i_glide_lipo>
-3.20301161889042

> <r_i_glide_hbond>
-0.304

> <r_i_glide_metal>
0

> <r_i_glide_rewards>
-1.96704130316386

> <r_i_glide_evdw>
-33.5366325378418

> <r_i_glide_ecoul>
-7.66146993637085

> <r_i_glide_erotb>
1.415597086266

> <r_i_glide_esite>
0

> <r_i_glide_emodel>
-46.7876400839228

> <r_i_glide_energy>
-41.1981024742126

> <r_i_glide_einternal>
23.6474189758301

> <i_i_glide_confnum>
82

> <i_i_glide_posenum>
360

> <r_i_glide_eff_state_penalty>
0

> <s_user_duplicate_titles>
CHEMBL220_lig984

> <s_m_subgroup_title>
dock_pv

> <s_m_subgroupid>
dock_pv

> <b_m_subgroup_collapsed>
0

$$$$
CHEMBL220_lig619
                    3D
 Schrodinger Suite 2021-1.
 36 36  0  0  1  0            999 V2000
    3.1457   69.6759   67.2453 N   0  3  0  0  0  0
    4.4640   70.1080   67.0176 C   0  0  0  0  0  0
    4.8766   70.8081   68.1541 N   0  0  0  0  0  0
    2.7919   70.1083   68.5188 C   0  0  0  0  0  0
    3.8414   70.8073   69.0715 C   0  0  0  0  0  0
    5.3031   69.8932   65.8195 C   0  0  0  0  0  0
    2.3031   68.8790   66.3646 C   0  0  0  0  0  0
    4.9899   69.0834   64.8954 N   0  0  0  0  0  0
   -1.1153   68.2806   66.4906 C   0  0  0  0  0  0
    1.2927   68.1802   67.0349 O   0  0  0  0  0  0
    5.9412   69.0332   63.8574 O   0  0  0  0  0  0
    6.1872   71.3918   68.4188 C   0  0  0  0  0  0
    0.0687   68.8647   67.3055 C   0  0  0  0  0  0
   -2.4162   68.9904   66.9102 C   0  0  0  0  0  0
   -1.2634   66.7714   66.7866 C   0  0  0  0  0  0
   -0.9063   68.5088   64.9783 C   0  0  0  0  0  0
    1.8272   69.8694   68.9450 H   0  0  0  0  0  0
    3.9430   71.2702   70.0436 H   0  0  0  0  0  0
    6.1982   70.5095   65.8000 H   0  0  0  0  0  0
    2.9294   68.0915   65.9508 H   0  0  0  0  0  0
    1.9410   69.5044   65.5492 H   0  0  0  0  0  0
    6.6381   69.6391   64.1354 H   0  0  0  0  0  0
    6.9691   70.8784   67.8600 H   0  0  0  0  0  0
    6.1674   72.4449   68.1366 H   0  0  0  0  0  0
    6.4205   71.3096   69.4809 H   0  0  0  0  0  0
    0.1514   69.9429   67.1689 H   0  0  0  0  0  0
   -0.1299   68.7277   68.3677 H   0  0  0  0  0  0
   -3.2783   68.6276   66.3484 H   0  0  0  0  0  0
   -2.3544   70.0684   66.7508 H   0  0  0  0  0  0
   -2.6306   68.8325   67.9670 H   0  0  0  0  0  0
   -0.4328   66.1963   66.3745 H   0  0  0  0  0  0
   -1.2936   66.5739   67.8587 H   0  0  0  0  0  0
   -2.1841   66.3654   66.3681 H   0  0  0  0  0  0
    0.0082   68.0385   64.6171 H   0  0  0  0  0  0
   -1.7320   68.1081   64.3922 H   0  0  0  0  0  0
   -0.8571   69.5693   64.7422 H   0  0  0  0  0  0
  1  2  2  0  0  0
  1  4  1  0  0  0
  1  7  1  0  0  0
  2  3  1  0  0  0
  2  6  1  0  0  0
  3 12  1  0  0  0
  3  5  1  0  0  0
  4  5  2  0  0  0
  4 17  1  0  0  0
  5 18  1  0  0  0
  6  8  2  0  0  0
  6 19  1  0  0  0
  7 10  1  0  0  0
  7 20  1  0  0  0
  7 21  1  0  0  0
  8 11  1  0  0  0
  9 13  1  0  0  0
  9 14  1  0  0  0
  9 15  1  0  0  0
  9 16  1  0  0  0
 10 13  1  0  0  0
 11 22  1  0  0  0
 12 23  1  0  0  0
 12 24  1  0  0  0
 12 25  1  0  0  0
 13 26  1  0  0  0
 13 27  1  0  0  0
 14 28  1  0  0  0
 14 29  1  0  0  0
 14 30  1  0  0  0
 15 31  1  0  0  0
 15 32  1  0  0  0
 15 33  1  0  0  0
 16 34  1  0  0  0
 16 35  1  0  0  0
 16 36  1  0  0  0
M  CHG  1   1   1
M  END
> <s_m_entry_id>
8808

> <s_m_entry_name>
dock_pv.318

> <s_m_Source_Path>
/home/csk/Desktop/cluster/DUD-E-result/aces

> <s_m_Source_File>
dock_pv.maegz

> <i_m_Source_File_Index>
318

> <chembl_id>
CHEMBL33101

> <chembl_pref_name>
None

> <i_lp_mmshare_version>
53161

> <i_f3d_flags>
0

> <r_lp_tautomer_probability>
1

> <s_lp_Force_Field>
OPLS_2005

> <r_lp_Energy>
12.606735

> <b_lp_Chiralities_Consistent>
1

> <s_lp_Variant>
CHEMBL220_lig619-1

> <s_i_glide_gridfile>
glide-grid_1e66

> <i_i_glide_lignum>
721

> <i_i_glide_rotatable_bonds>
6

> <r_i_docking_score>
-6.8756487863368

> <r_i_glide_ligand_efficiency>
-0.42972804914605

> <r_i_glide_ligand_efficiency_sa>
-1.08284682869797

> <r_i_glide_ligand_efficiency_ln>
-1.82252805502073

> <r_i_glide_gscore>
-6.8756487863368

> <r_i_glide_lipo>
-1.75832538379825

> <r_i_glide_hbond>
-0.271431845482331

> <r_i_glide_metal>
0

> <r_i_glide_rewards>
-3.86859678806821

> <r_i_glide_evdw>
-29.7114772796631

> <r_i_glide_ecoul>
-7.61372804641724

> <r_i_glide_erotb>
1.65901155710159

> <r_i_glide_esite>
-0.00867325514386068

> <r_i_glide_emodel>
-54.7831510675177

> <r_i_glide_energy>
-37.3252053260803

> <r_i_glide_einternal>
3.26167297363281

> <i_i_glide_confnum>
25

> <i_i_glide_posenum>
6

> <r_i_glide_eff_state_penalty>
0

> <s_user_duplicate_titles>
CHEMBL220_lig619

> <s_m_subgroup_title>
dock_pv

> <s_m_subgroupid>
dock_pv

> <b_m_subgroup_collapsed>
0

$$$$
CHEMBL220_lig1129
                    3D
 Schrodinger Suite 2021-1.
 52 55  0  0  1  0            999 V2000
    2.4641   68.3399   65.1057 C   0  0  0  0  0  0
    1.9094   68.7141   63.7020 C   0  0  0  0  0  0
    3.0968   68.6353   62.7428 C   0  0  0  0  0  0
    3.9019   67.4420   63.2428 C   0  0  0  0  0  0
    3.6821   67.4207   64.7618 C   0  0  0  0  0  0
    1.5428   68.1909   67.1722 N   0  0  0  0  0  0
    2.3052   69.3085   67.0536 C   0  0  0  0  0  0
    2.8354   69.4515   65.9071 N   0  0  0  0  0  0
    1.4420   67.5956   65.9554 C   0  0  0  0  0  0
    0.8055   66.6002   65.6079 O   0  0  0  0  0  0
    1.0035   67.6339   68.4357 C   0  0  0  0  0  0
    2.4594   70.2886   68.2288 C   0  0  0  0  0  0
    3.9116   70.6826   68.6496 C   0  0  0  0  0  0
    5.0951   70.4511   67.6801 C   0  0  0  0  0  0
    6.4259   70.9855   68.2302 C   0  0  0  0  0  0
    1.0799   66.1072   68.5034 C   0  0  0  0  0  0
    1.2116   65.4162   69.7985 N   0  0  0  0  0  0
    2.0757   64.3758   69.9723 C   0  0  0  0  0  0
    0.3584   65.5997   70.8329 C   0  0  0  0  0  0
    2.9739   64.0046   69.2121 O   0  0  0  0  0  0
   -0.4543   66.5080   70.9595 O   0  0  0  0  0  0
    0.6414   64.4806   71.7708 C   0  0  0  0  0  0
    1.6874   63.7598   71.2621 C   0  0  0  0  0  0
    2.2037   62.6526   71.9368 C   0  0  0  0  0  0
    1.6307   62.2885   73.1601 C   0  0  0  0  0  0
    0.5611   63.0246   73.6845 C   0  0  0  0  0  0
    0.0580   64.1300   72.9895 C   0  0  0  0  0  0
    1.4675   69.7066   63.6629 H   0  0  0  0  0  0
    1.1369   68.0178   63.3669 H   0  0  0  0  0  0
    3.6922   69.5455   62.8180 H   0  0  0  0  0  0
    2.7887   68.5267   61.7019 H   0  0  0  0  0  0
    4.9572   67.5360   62.9820 H   0  0  0  0  0  0
    3.5439   66.5179   62.7914 H   0  0  0  0  0  0
    3.5513   66.3901   65.1021 H   0  0  0  0  0  0
    4.5869   67.7909   65.2496 H   0  0  0  0  0  0
    1.6052   67.9859   69.2722 H   0  0  0  0  0  0
   -0.0120   67.9915   68.6087 H   0  0  0  0  0  0
    1.8731   71.1660   67.9774 H   0  0  0  0  0  0
    1.9450   69.9547   69.1257 H   0  0  0  0  0  0
    3.9025   71.7431   68.8988 H   0  0  0  0  0  0
    4.1401   70.1779   69.5908 H   0  0  0  0  0  0
    5.2053   69.3853   67.4773 H   0  0  0  0  0  0
    4.8959   70.9139   66.7145 H   0  0  0  0  0  0
    7.2417   70.7787   67.5383 H   0  0  0  0  0  0
    6.3861   72.0646   68.3840 H   0  0  0  0  0  0
    6.6788   70.5205   69.1834 H   0  0  0  0  0  0
    0.1940   65.7098   68.0052 H   0  0  0  0  0  0
    1.9340   65.7876   67.9035 H   0  0  0  0  0  0
    3.0292   62.0832   71.5343 H   0  0  0  0  0  0
    2.0177   61.4393   73.7048 H   0  0  0  0  0  0
    0.1269   62.7430   74.6332 H   0  0  0  0  0  0
   -0.7529   64.7036   73.4111 H   0  0  0  0  0  0
  1  8  1  0  0  0
  1  9  1  0  0  0
  1  5  1  0  0  0
  1  2  1  0  0  0
  2  3  1  0  0  0
  2 28  1  0  0  0
  2 29  1  0  0  0
  3  4  1  0  0  0
  3 30  1  0  0  0
  3 31  1  0  0  0
  4  5  1  0  0  0
  4 32  1  0  0  0
  4 33  1  0  0  0
  5 34  1  0  0  0
  5 35  1  0  0  0
  6  9  1  0  0  0
  6 11  1  0  0  0
  6  7  1  0  0  0
  7  8  2  0  0  0
  7 12  1  0  0  0
  9 10  2  0  0  0
 11 16  1  0  0  0
 11 36  1  0  0  0
 11 37  1  0  0  0
 12 13  1  0  0  0
 12 38  1  0  0  0
 12 39  1  0  0  0
 13 14  1  0  0  0
 13 40  1  0  0  0
 13 41  1  0  0  0
 14 15  1  0  0  0
 14 42  1  0  0  0
 14 43  1  0  0  0
 15 44  1  0  0  0
 15 45  1  0  0  0
 15 46  1  0  0  0
 16 17  1  0  0  0
 16 47  1  0  0  0
 16 48  1  0  0  0
 17 18  1  0  0  0
 17 19  1  0  0  0
 18 23  1  0  0  0
 18 20  2  0  0  0
 19 22  1  0  0  0
 19 21  2  0  0  0
 22 23  2  0  0  0
 22 27  1  0  0  0
 23 24  1  0  0  0
 24 25  2  0  0  0
 24 49  1  0  0  0
 25 26  1  0  0  0
 25 50  1  0  0  0
 26 27  2  0  0  0
 26 51  1  0  0  0
 27 52  1  0  0  0
M  END
> <s_m_entry_id>
8809

> <s_m_entry_name>
dock_pv.319

> <s_m_Source_Path>
/home/csk/Desktop/cluster/DUD-E-result/aces

> <s_m_Source_File>
dock_pv.maegz

> <i_m_Source_File_Index>
319

> <chembl_id>
CHEMBL240793

> <chembl_pref_name>
None

> <i_lp_mmshare_version>
53161

> <i_f3d_flags>
0

> <r_lp_tautomer_probability>
1

> <s_lp_Force_Field>
OPLS_2005

> <r_lp_Energy>
61.674607

> <b_lp_Chiralities_Consistent>
1

> <s_lp_Variant>
CHEMBL220_lig1129-1

> <s_i_glide_gridfile>
glide-grid_1e66

> <i_i_glide_lignum>
1534

> <i_i_glide_rotatable_bonds>
6

> <r_i_docking_score>
-6.8677306784466

> <r_i_glide_ligand_efficiency>
-0.254360395498022

> <r_i_glide_ligand_efficiency_sa>
-0.763081185655737

> <r_i_glide_ligand_efficiency_ln>
-1.59869447855325

> <r_i_glide_gscore>
-6.8677306784466

> <r_i_glide_lipo>
-2.78596741692361

> <r_i_glide_hbond>
0

> <r_i_glide_metal>
0

> <r_i_glide_rewards>
-3.34091196272105

> <r_i_glide_evdw>
-30.6584606170654

> <r_i_glide_ecoul>
0.525709927082062

> <r_i_glide_erotb>
0.713215242989012

> <r_i_glide_esite>
0

> <r_i_glide_emodel>
-25.9806936217741

> <r_i_glide_energy>
-30.1327506899834

> <r_i_glide_einternal>
8.96284294128418

> <i_i_glide_confnum>
171

> <i_i_glide_posenum>
243

> <r_i_glide_eff_state_penalty>
0

> <s_user_duplicate_titles>
CHEMBL220_lig1129,404965

> <s_m_subgroup_title>
dock_pv

> <s_m_subgroupid>
dock_pv

> <b_m_subgroup_collapsed>
0

$$$$
CHEMBL220_lig663
                    3D
 Schrodinger Suite 2021-1.
 46 49  0  0  1  0            999 V2000
    0.9762   68.7936   66.0371 C   0  0  0  0  0  0
    0.6220   68.5080   64.7139 C   0  0  0  0  0  0
    1.5975   68.6306   63.6746 C   0  0  0  0  0  0
    2.3287   69.0610   66.3199 C   0  0  0  0  0  0
    3.2980   69.0028   65.3891 N   0  0  0  0  0  0
    2.9397   68.8915   64.0939 C   0  0  0  0  0  0
   -0.0864   68.9212   67.1395 C   0  0  1  0  0  0
    1.3335   68.6247   62.2635 C   0  0  0  0  0  0
    0.5370   67.0756   68.8053 C   0  0  0  0  0  0
    1.7080   69.3526   68.7617 C   0  0  1  0  0  0
    1.5430   67.8918   69.2076 C   0  0  0  0  0  0
    2.7599   69.5831   67.6770 C   0  0  0  0  0  0
   -0.4670   67.5382   67.7385 C   0  0  0  0  0  0
    0.3443   69.8640   68.2599 C   0  0  0  0  0  0
    2.3483   68.9086   61.3672 C   0  0  0  0  0  0
    3.9380   69.1914   63.1537 C   0  0  0  0  0  0
    3.6032   69.2735   61.8140 C   0  0  0  0  0  0
   -0.7250   68.2538   64.4722 N   0  0  0  0  0  0
   -0.0570   68.4936   61.6894 C   0  0  0  0  0  0
    0.2117   65.7399   69.4745 C   0  0  0  0  0  0
    4.5788   69.8388   60.8379 C   0  0  0  0  0  0
    0.9554   65.3834   70.7722 C   0  0  0  0  0  0
   -0.9795   69.3664   66.6984 H   0  0  0  0  0  0
    2.0339   69.9738   69.5799 H   0  0  0  0  0  0
    2.2043   67.5467   69.9865 H   0  0  0  0  0  0
    2.8489   70.6601   67.5678 H   0  0  0  0  0  0
    3.7685   69.3080   67.9680 H   0  0  0  0  0  0
   -0.5834   66.7683   66.9740 H   0  0  0  0  0  0
   -1.4410   67.5978   68.2220 H   0  0  0  0  0  0
   -0.4562   69.9031   68.9835 H   0  0  0  0  0  0
    0.4491   70.9030   67.9680 H   0  0  0  0  0  0
    2.1259   68.9486   60.3118 H   0  0  0  0  0  0
    4.9261   69.4696   63.4942 H   0  0  0  0  0  0
   -0.9032   67.5033   63.8153 H   0  0  0  0  0  0
   -1.3160   68.2649   65.2890 H   0  0  0  0  0  0
   -0.0568   68.5082   60.5995 H   0  0  0  0  0  0
   -0.5416   67.5739   62.0020 H   0  0  0  0  0  0
   -0.6601   69.3387   62.0249 H   0  0  0  0  0  0
    0.3431   64.9327   68.7680 H   0  0  0  0  0  0
   -0.8570   65.7494   69.6803 H   0  0  0  0  0  0
    5.5940   69.6082   61.1680 H   0  0  0  0  0  0
    4.3430   69.4432   59.8496 H   0  0  0  0  0  0
    4.4944   70.9080   60.7683 H   0  0  0  0  0  0
    0.6386   64.4074   71.1407 H   0  0  0  0  0  0
    0.7431   66.1082   71.5578 H   0  0  0  0  0  0
    2.0347   65.3395   70.6223 H   0  0  0  0  0  0
  1  2  1  0  0  0
  1  4  2  0  0  0
  1  7  1  0  0  0
  2  3  2  0  0  0
  2 18  1  0  0  0
  3  8  1  0  0  0
  3  6  1  0  0  0
  4  5  1  0  0  0
  4 12  1  0  0  0
  5  6  2  0  0  0
  6 16  1  0  0  0
  7 13  1  0  0  0
  7 14  1  0  0  0
  7 23  1  0  0  0
  8 15  2  0  0  0
  8 19  1  0  0  0
  9 13  1  0  0  0
  9 20  1  0  0  0
  9 11  2  0  0  0
 10 14  1  0  0  0
 10 11  1  0  0  0
 10 12  1  0  0  0
 10 24  1  0  0  0
 11 25  1  0  0  0
 12 26  1  0  0  0
 12 27  1  0  0  0
 13 28  1  0  0  0
 13 29  1  0  0  0
 14 30  1  0  0  0
 14 31  1  0  0  0
 15 17  1  0  0  0
 15 32  1  0  0  0
 16 17  2  0  0  0
 16 33  1  0  0  0
 17 21  1  0  0  0
 18 34  1  0  0  0
 18 35  1  0  0  0
 19 36  1  0  0  0
 19 37  1  0  0  0
 19 38  1  0  0  0
 20 22  1  0  0  0
 20 39  1  0  0  0
 20 40  1  0  0  0
 21 41  1  0  0  0
 21 42  1  0  0  0
 21 43  1  0  0  0
 22 44  1  0  0  0
 22 45  1  0  0  0
 22 46  1  0  0  0
M  END
> <s_m_entry_id>
8810

> <s_m_entry_name>
dock_pv.320

> <s_m_Source_Path>
/home/csk/Desktop/cluster/DUD-E-result/aces

> <s_m_Source_File>
dock_pv.maegz

> <i_m_Source_File_Index>
320

> <chembl_id>
CHEMBL143094

> <chembl_pref_name>
None

> <i_lp_mmshare_version>
53161

> <i_f3d_flags>
0

> <r_lp_tautomer_probability>
1

> <s_lp_Force_Field>
OPLS_2005

> <r_lp_Energy>
29.84616

> <b_lp_Chiralities_Consistent>
1

> <s_lp_Variant>
CHEMBL220_lig663-2

> <s_i_glide_gridfile>
glide-grid_1e66

> <i_i_glide_lignum>
780

> <i_i_glide_rotatable_bonds>
1

> <r_i_docking_score>
-6.86435140964136

> <r_i_glide_ligand_efficiency>
-0.312015973165517

> <r_i_glide_ligand_efficiency_sa>
-0.87428102770168

> <r_i_glide_ligand_efficiency_ln>
-1.67789786781764

> <r_i_glide_gscore>
-6.86435140964136

> <r_i_glide_lipo>
-3.42643904593553

> <r_i_glide_hbond>
-0.207563683872108

> <r_i_glide_metal>
0

> <r_i_glide_rewards>
-1.88029377932058

> <r_i_glide_evdw>
-15.8961486816406

> <r_i_glide_ecoul>
-3.50651264190674

> <r_i_glide_erotb>
0

> <r_i_glide_esite>
-0.0292705701451038

> <r_i_glide_emodel>
-41.4730999157163

> <r_i_glide_energy>
-19.4026613235474

> <r_i_glide_einternal>
1.68812036514282

> <i_i_glide_confnum>
1

> <i_i_glide_posenum>
223

> <r_i_glide_eff_state_penalty>
0

> <s_user_duplicate_titles>
CHEMBL220_lig663

> <s_m_subgroup_title>
dock_pv

> <s_m_subgroupid>
dock_pv

> <b_m_subgroup_collapsed>
0

$$$$
CHEMBL220_lig911
                    3D
 Schrodinger Suite 2021-1.
 44 46  0  0  1  0            999 V2000
    2.0360   68.7694   65.8909 C   0  0  0  0  0  0
    1.6931   68.7631   64.5124 C   0  0  0  0  0  0
    2.6789   69.0832   63.5320 C   0  0  0  0  0  0
    4.1469   69.3140   64.0014 C   0  0  2  0  0  0
    1.0302   68.5080   66.8353 C   0  0  0  0  0  0
    0.3620   68.5080   64.0941 C   0  0  0  0  0  0
    4.1804   69.8205   65.3125 O   0  0  0  0  0  0
    3.4785   69.0518   66.2791 C   0  0  0  0  0  0
   -0.3038   68.2868   66.4397 C   0  0  0  0  0  0
   -0.6213   68.2799   65.0756 C   0  0  0  0  0  0
    2.3575   69.1770   62.2115 N   0  0  0  0  0  0
    4.7047   70.2906   63.1703 O   0  0  0  0  0  0
    1.4001   68.5539   68.1633 O   0  0  0  0  0  0
   -1.2620   68.1138   67.4237 O   0  0  0  0  0  0
    1.0869   68.9085   61.8251 C   0  0  0  0  0  0
    0.0695   68.5599   62.7120 C   0  0  0  0  0  0
    4.9757   67.9999   63.9214 C   0  0  0  0  0  0
    4.3430   65.3081   62.5992 O   0  0  0  0  0  0
    4.2725   66.5475   61.9179 C   0  0  0  0  0  0
    6.0528   70.6592   63.4343 C   0  0  0  0  0  0
    1.1431   67.3994   68.9571 C   0  0  0  0  0  0
   -2.6304   67.9373   67.0661 C   0  0  0  0  0  0
    5.2802   67.5534   62.4668 C   0  0  0  0  0  0
    3.5442   69.5562   67.2438 H   0  0  0  0  0  0
    3.9882   68.1080   66.3679 H   0  0  0  0  0  0
   -1.6308   68.1099   64.7357 H   0  0  0  0  0  0
    0.8884   68.9780   60.7650 H   0  0  0  0  0  0
   -0.9353   68.3631   62.3690 H   0  0  0  0  0  0
    4.4553   67.2087   64.4581 H   0  0  0  0  0  0
    5.9096   68.1560   64.4626 H   0  0  0  0  0  0
    4.0403   65.4470   63.5022 H   0  0  0  0  0  0
    3.2684   66.9080   62.0999 H   0  0  0  0  0  0
    4.3432   66.4920   60.8348 H   0  0  0  0  0  0
    6.3429   71.5080   62.8189 H   0  0  0  0  0  0
    6.2238   70.9358   64.4756 H   0  0  0  0  0  0
    6.7285   69.8457   63.1685 H   0  0  0  0  0  0
    1.6850   67.4979   69.8981 H   0  0  0  0  0  0
    0.0911   67.2836   69.2126 H   0  0  0  0  0  0
    1.4987   66.4876   68.4734 H   0  0  0  0  0  0
   -3.2294   67.8236   67.9691 H   0  0  0  0  0  0
   -3.0182   68.8017   66.5243 H   0  0  0  0  0  0
   -2.7755   67.0387   66.4642 H   0  0  0  0  0  0
    5.2952   68.4089   61.7908 H   0  0  0  0  0  0
    6.2849   67.1466   62.3681 H   0  0  0  0  0  0
  1  2  2  0  0  0
  1  5  1  0  0  0
  1  8  1  0  0  0
  2  3  1  0  0  0
  2  6  1  0  0  0
  3 11  2  0  0  0
  3  4  1  0  0  0
  4  7  1  0  0  0
  4 12  1  0  0  0
  4 17  1  0  0  0
  5  9  2  0  0  0
  5 13  1  0  0  0
  6 16  1  0  0  0
  6 10  2  0  0  0
  7  8  1  0  0  0
  8 24  1  0  0  0
  8 25  1  0  0  0
  9 10  1  0  0  0
  9 14  1  0  0  0
 10 26  1  0  0  0
 11 15  1  0  0  0
 12 20  1  0  0  0
 13 21  1  0  0  0
 14 22  1  0  0  0
 15 16  2  0  0  0
 15 27  1  0  0  0
 16 28  1  0  0  0
 17 23  1  0  0  0
 17 29  1  0  0  0
 17 30  1  0  0  0
 18 19  1  0  0  0
 18 31  1  0  0  0
 19 23  1  0  0  0
 19 32  1  0  0  0
 19 33  1  0  0  0
 20 34  1  0  0  0
 20 35  1  0  0  0
 20 36  1  0  0  0
 21 37  1  0  0  0
 21 38  1  0  0  0
 21 39  1  0  0  0
 22 40  1  0  0  0
 22 41  1  0  0  0
 22 42  1  0  0  0
 23 43  1  0  0  0
 23 44  1  0  0  0
M  END
> <s_m_entry_id>
8811

> <s_m_entry_name>
dock_pv.321

> <s_m_Source_Path>
/home/csk/Desktop/cluster/DUD-E-result/aces

> <s_m_Source_File>
dock_pv.maegz

> <i_m_Source_File_Index>
321

> <chembl_id>
CHEMBL196177

> <chembl_pref_name>
None

> <i_lp_mmshare_version>
53161

> <i_f3d_flags>
0

> <r_lp_tautomer_probability>
1

> <s_lp_Force_Field>
OPLS_2005

> <r_lp_Energy>
33.219969

> <b_lp_Chiralities_Consistent>
1

> <s_lp_Variant>
CHEMBL220_lig911-2

> <s_i_glide_gridfile>
glide-grid_1e66

> <i_i_glide_lignum>
1241

> <i_i_glide_rotatable_bonds>
7

> <r_i_docking_score>
-6.85749199253068

> <r_i_glide_ligand_efficiency>
-0.298151825762203

> <r_i_glide_ligand_efficiency_sa>
-0.847904131381388

> <r_i_glide_ligand_efficiency_ln>
-1.65820374409349

> <r_i_glide_gscore>
-6.85749199253068

> <r_i_glide_lipo>
-2.8130686737087

> <r_i_glide_hbond>
-0.32

> <r_i_glide_metal>
0

> <r_i_glide_rewards>
-1.56864233019672

> <r_i_glide_evdw>
-30.599006652832

> <r_i_glide_ecoul>
-7.83107376098633

> <r_i_glide_erotb>
0.548830408164298

> <r_i_glide_esite>
0

> <r_i_glide_emodel>
-52.8714228955008

> <r_i_glide_energy>
-38.4300804138184

> <r_i_glide_einternal>
5.89027404785156

> <i_i_glide_confnum>
12

> <i_i_glide_posenum>
315

> <r_i_glide_eff_state_penalty>
0

> <s_user_duplicate_titles>
CHEMBL220_lig911

> <s_m_subgroup_title>
dock_pv

> <s_m_subgroupid>
dock_pv

> <b_m_subgroup_collapsed>
0

$$$$
CHEMBL220_lig292
                    3D
 Schrodinger Suite 2021-1.
 56 59  0  0  1  0            999 V2000
    0.7949   67.2742   65.9486 N   0  0  0  0  0  0
    0.4907   66.9162   67.2065 N   0  0  0  0  0  0
    3.2980   60.9936   70.3991 N   0  0  1  0  0  0
    1.5447   68.3846   65.7131 C   0  0  0  0  0  0
    0.8807   67.6921   68.2539 C   0  0  0  0  0  0
    3.5809   59.5839   70.6929 C   0  0  0  0  0  0
    1.9434   68.6204   64.3001 C   0  0  0  0  0  0
    1.9312   69.2334   66.7573 C   0  0  0  0  0  0
    0.7438   67.2203   69.5677 N   0  0  0  0  0  0
    1.8912   61.2775   70.0739 C   0  0  0  0  0  0
    3.8990   61.9477   71.3452 C   0  0  0  0  0  0
    1.5449   68.9059   68.0527 C   0  0  0  0  0  0
    2.9872   59.0676   72.0015 C   0  0  0  0  0  0
    1.7450   62.7165   69.5423 C   0  0  0  0  0  0
    3.7400   63.3958   70.8369 C   0  0  0  0  0  0
    0.7342   65.7858   69.8655 C   0  0  0  0  0  0
    2.2678   63.7604   70.5497 C   0  0  0  0  0  0
    1.0079   68.5060   63.2639 C   0  0  0  0  0  0
    3.2660   68.9615   63.9895 C   0  0  0  0  0  0
    2.1590   65.2226   70.0554 C   0  0  0  0  0  0
    3.6962   59.2227   73.1979 C   0  0  0  0  0  0
    1.7078   58.5065   72.0181 C   0  0  0  0  0  0
    1.3905   68.7198   61.9427 C   0  0  0  0  0  0
    3.6543   69.1583   62.6663 C   0  0  0  0  0  0
    1.1536   58.0695   73.2188 C   0  0  0  0  0  0
    3.1448   58.7856   74.3983 C   0  0  0  0  0  0
    2.7149   69.0301   61.6487 C   0  0  0  0  0  0
    1.8773   58.2069   74.4028 C   0  0  0  0  0  0
    4.6622   59.4535   70.7221 H   0  0  0  0  0  0
    3.2102   58.9760   69.8651 H   0  0  0  0  0  0
    2.5228   70.1151   66.5641 H   0  0  0  0  0  0
    1.0497   67.8498   70.2960 H   0  0  0  0  0  0
    1.5453   60.5801   69.3098 H   0  0  0  0  0  0
    1.2653   61.1097   70.9517 H   0  0  0  0  0  0
    3.4591   61.8233   72.3364 H   0  0  0  0  0  0
    4.9630   61.7243   71.4446 H   0  0  0  0  0  0
    1.8479   69.5204   68.8903 H   0  0  0  0  0  0
    2.2812   62.8021   68.5972 H   0  0  0  0  0  0
    0.7078   62.9218   69.2709 H   0  0  0  0  0  0
    4.1441   64.0919   71.5674 H   0  0  0  0  0  0
    4.3688   63.5503   69.9573 H   0  0  0  0  0  0
    0.2056   65.2155   69.1039 H   0  0  0  0  0  0
    0.1441   65.6273   70.7690 H   0  0  0  0  0  0
    1.7042   63.6494   71.4780 H   0  0  0  0  0  0
   -0.0199   68.2483   63.4845 H   0  0  0  0  0  0
    4.0020   69.0596   64.7753 H   0  0  0  0  0  0
    2.6935   65.8706   70.7537 H   0  0  0  0  0  0
    2.6992   65.3068   69.1118 H   0  0  0  0  0  0
    4.6756   59.6772   73.1947 H   0  0  0  0  0  0
    1.1424   58.4074   71.1050 H   0  0  0  0  0  0
    0.6642   68.6278   61.1481 H   0  0  0  0  0  0
    4.6798   69.4130   62.4308 H   0  0  0  0  0  0
    0.1659   57.6289   73.2337 H   0  0  0  0  0  0
    3.6966   58.8931   75.3213 H   0  0  0  0  0  0
    3.0169   69.1798   60.6220 H   0  0  0  0  0  0
    1.4510   57.8649   75.3356 H   0  0  0  0  0  0
  1  2  1  0  0  0
  1  4  2  0  0  0
  2  5  2  0  0  0
  3  6  1  0  0  0
  3 10  1  0  0  0
  3 11  1  0  0  0
  4  7  1  0  0  0
  4  8  1  0  0  0
  5  9  1  0  0  0
  5 12  1  0  0  0
  6 13  1  0  0  0
  6 29  1  0  0  0
  6 30  1  0  0  0
  7 18  1  0  0  0
  7 19  2  0  0  0
  8 12  2  0  0  0
  8 31  1  0  0  0
  9 16  1  0  0  0
  9 32  1  0  0  0
 10 14  1  0  0  0
 10 33  1  0  0  0
 10 34  1  0  0  0
 11 15  1  0  0  0
 11 35  1  0  0  0
 11 36  1  0  0  0
 12 37  1  0  0  0
 13 21  2  0  0  0
 13 22  1  0  0  0
 14 17  1  0  0  0
 14 38  1  0  0  0
 14 39  1  0  0  0
 15 17  1  0  0  0
 15 40  1  0  0  0
 15 41  1  0  0  0
 16 20  1  0  0  0
 16 42  1  0  0  0
 16 43  1  0  0  0
 17 20  1  0  0  0
 17 44  1  0  0  0
 18 23  2  0  0  0
 18 45  1  0  0  0
 19 24  1  0  0  0
 19 46  1  0  0  0
 20 47  1  0  0  0
 20 48  1  0  0  0
 21 26  1  0  0  0
 21 49  1  0  0  0
 22 25  2  0  0  0
 22 50  1  0  0  0
 23 27  1  0  0  0
 23 51  1  0  0  0
 24 27  2  0  0  0
 24 52  1  0  0  0
 25 28  1  0  0  0
 25 53  1  0  0  0
 26 28  2  0  0  0
 26 54  1  0  0  0
 27 55  1  0  0  0
 28 56  1  0  0  0
M  END
> <s_m_entry_id>
8812

> <s_m_entry_name>
dock_pv.322

> <s_m_Source_Path>
/home/csk/Desktop/cluster/DUD-E-result/aces

> <s_m_Source_File>
dock_pv.maegz

> <i_m_Source_File_Index>
322

> <chembl_id>
CHEMBL3215535

> <chembl_pref_name>
None

> <i_lp_mmshare_version>
53161

> <i_f3d_flags>
0

> <r_lp_tautomer_probability>
0.999978240473126

> <s_lp_Force_Field>
OPLS_2005

> <r_lp_Energy>
34.534852

> <b_lp_Chiralities_Consistent>
1

> <s_lp_Variant>
CHEMBL220_lig292-1

> <s_i_glide_gridfile>
glide-grid_1e66

> <i_i_glide_lignum>
346

> <i_i_glide_rotatable_bonds>
7

> <r_i_docking_score>
-6.85538038052055

> <r_i_glide_ligand_efficiency>
-0.24483501359002

> <r_i_glide_ligand_efficiency_sa>
-0.743463301370691

> <r_i_glide_ligand_efficiency_ln>
-1.5824230745384

> <r_i_glide_gscore>
-6.85538038052055

> <r_i_glide_lipo>
-4.03363756730097

> <r_i_glide_hbond>
-0.051188679597254

> <r_i_glide_metal>
0

> <r_i_glide_rewards>
-1.48474998482262

> <r_i_glide_evdw>
-43.357738494873

> <r_i_glide_ecoul>
-0.566150546073914

> <r_i_glide_erotb>
0.97436952255816

> <r_i_glide_esite>
-0.00736416470312886

> <r_i_glide_emodel>
-52.8167377425552

> <r_i_glide_energy>
-43.923889040947

> <r_i_glide_einternal>
13.6351003646851

> <i_i_glide_confnum>
21

> <i_i_glide_posenum>
388

> <r_i_glide_eff_state_penalty>
0

> <s_user_duplicate_titles>
CHEMBL220_lig292,548373

> <s_m_subgroup_title>
dock_pv

> <s_m_subgroupid>
dock_pv

> <b_m_subgroup_collapsed>
0

$$$$
CHEMBL220_lig514
                    3D
 Schrodinger Suite 2021-1.
 53 57  0  0  1  0            999 V2000
    0.4779   61.5033   71.1687 C   0  0  0  0  0  0
    0.2847   62.8898   71.1079 C   0  0  0  0  0  0
    1.7240   60.9506   70.8680 C   0  0  0  0  0  0
    2.8132   61.7299   70.5489 C   0  0  0  0  0  0
    3.9837   60.8530   70.2555 C   0  0  0  0  0  0
    3.3710   59.4558   70.3619 C   0  0  0  0  0  0
    2.0992   59.6188   70.7712 N   0  0  0  0  0  0
    3.9426   58.4009   70.1042 O   0  0  0  0  0  0
    2.6331   63.1138   70.5450 C   0  0  0  0  0  0
    1.3834   63.7096   70.7853 C   0  0  0  0  0  0
    1.6402   65.0991   70.5808 C   0  0  0  0  0  0
    2.9218   65.3078   70.3670 N   0  0  0  0  0  0
    3.5690   64.0685   70.2997 O   0  0  0  0  0  0
    0.6520   66.2493   70.5608 C   0  0  0  0  0  0
   -0.1185   66.3236   69.2244 C   0  0  0  0  0  0
    0.6734   66.8390   67.9938 C   0  0  0  0  0  0
   -0.1724   66.7196   66.7228 C   0  0  0  0  0  0
    0.6750   66.9704   65.4762 C   0  0  0  0  0  0
    1.2637   68.3046   65.5035 N   0  0  1  0  0  0
    1.9430   68.7163   66.7454 C   0  0  0  0  0  0
    1.1443   68.3146   68.0271 C   0  0  0  0  0  0
    1.8072   68.6936   64.1956 C   0  0  0  0  0  0
    3.3038   68.5662   63.9693 C   0  0  0  0  0  0
    3.8081   67.4438   63.3159 C   0  0  0  0  0  0
    5.1271   67.4235   62.8888 C   0  0  0  0  0  0
    5.9463   68.5081   63.1744 C   0  0  0  0  0  0
    5.4855   69.5851   63.9244 C   0  0  0  0  0  0
    4.1580   69.6099   64.3338 C   0  0  0  0  0  0
   -0.3633   60.8662   71.4032 H   0  0  0  0  0  0
   -0.6910   63.3118   71.2992 H   0  0  0  0  0  0
    4.7855   60.9774   70.9839 H   0  0  0  0  0  0
    4.3675   61.0149   69.2499 H   0  0  0  0  0  0
    1.4716   58.8419   70.9143 H   0  0  0  0  0  0
   -0.0552   66.1342   71.3824 H   0  0  0  0  0  0
    1.1396   67.2033   70.7616 H   0  0  0  0  0  0
   -0.4903   65.3215   69.0024 H   0  0  0  0  0  0
   -1.0226   66.9080   69.3457 H   0  0  0  0  0  0
    1.5424   66.1969   67.8700 H   0  0  0  0  0  0
   -0.5477   65.7080   66.6395 H   0  0  0  0  0  0
   -1.0783   67.3282   66.7458 H   0  0  0  0  0  0
    1.4375   66.2051   65.3216 H   0  0  0  0  0  0
    0.0100   66.9562   64.6190 H   0  0  0  0  0  0
    2.9453   68.2941   66.7597 H   0  0  0  0  0  0
    2.0721   69.7990   66.7184 H   0  0  0  0  0  0
    0.3031   68.9957   68.1700 H   0  0  0  0  0  0
    1.7588   68.4902   68.9094 H   0  0  0  0  0  0
    1.3039   68.1265   63.4097 H   0  0  0  0  0  0
    1.5424   69.7094   63.9680 H   0  0  0  0  0  0
    3.1619   66.6208   63.0844 H   0  0  0  0  0  0
    5.5165   66.5911   62.3229 H   0  0  0  0  0  0
    6.9669   68.5086   62.8196 H   0  0  0  0  0  0
    6.1443   70.4100   64.1568 H   0  0  0  0  0  0
    3.7837   70.4695   64.8701 H   0  0  0  0  0  0
  1  3  1  0  0  0
  1  2  2  0  0  0
  1 29  1  0  0  0
  2 10  1  0  0  0
  2 30  1  0  0  0
  3  7  1  0  0  0
  3  4  2  0  0  0
  4  5  1  0  0  0
  4  9  1  0  0  0
  5  6  1  0  0  0
  5 31  1  0  0  0
  5 32  1  0  0  0
  6  7  1  0  0  0
  6  8  2  0  0  0
  7 33  1  0  0  0
  9 13  1  0  0  0
  9 10  2  0  0  0
 10 11  1  0  0  0
 11 14  1  0  0  0
 11 12  2  0  0  0
 12 13  1  0  0  0
 14 15  1  0  0  0
 14 34  1  0  0  0
 14 35  1  0  0  0
 15 16  1  0  0  0
 15 36  1  0  0  0
 15 37  1  0  0  0
 16 17  1  0  0  0
 16 21  1  0  0  0
 16 38  1  0  0  0
 17 18  1  0  0  0
 17 39  1  0  0  0
 17 40  1  0  0  0
 18 19  1  0  0  0
 18 41  1  0  0  0
 18 42  1  0  0  0
 19 20  1  0  0  0
 19 22  1  0  0  0
 20 21  1  0  0  0
 20 43  1  0  0  0
 20 44  1  0  0  0
 21 45  1  0  0  0
 21 46  1  0  0  0
 22 23  1  0  0  0
 22 47  1  0  0  0
 22 48  1  0  0  0
 23 24  2  0  0  0
 23 28  1  0  0  0
 24 25  1  0  0  0
 24 49  1  0  0  0
 25 26  2  0  0  0
 25 50  1  0  0  0
 26 27  1  0  0  0
 26 51  1  0  0  0
 27 28  2  0  0  0
 27 52  1  0  0  0
 28 53  1  0  0  0
M  END
> <s_m_entry_id>
8813

> <s_m_entry_name>
dock_pv.323

> <s_m_Source_Path>
/home/csk/Desktop/cluster/DUD-E-result/aces

> <s_m_Source_File>
dock_pv.maegz

> <i_m_Source_File_Index>
323

> <chembl_id>
CHEMBL95020

> <chembl_pref_name>
None

> <i_lp_mmshare_version>
53161

> <i_f3d_flags>
0

> <r_lp_tautomer_probability>
1

> <s_lp_Force_Field>
OPLS_2005

> <r_lp_Energy>
52.370336

> <b_lp_Chiralities_Consistent>
1

> <s_lp_Variant>
CHEMBL220_lig514-1

> <s_i_glide_gridfile>
glide-grid_1e66

> <i_i_glide_lignum>
592

> <i_i_glide_rotatable_bonds>
5

> <r_i_docking_score>
-6.85386807292207

> <r_i_glide_ligand_efficiency>
-0.24478100260436

> <r_i_glide_ligand_efficiency_sa>
-0.743299292207458

> <r_i_glide_ligand_efficiency_ln>
-1.58207398954139

> <r_i_glide_gscore>
-6.85386807292207

> <r_i_glide_lipo>
-3.12680464579276

> <r_i_glide_hbond>
-0.193971667199242

> <r_i_glide_metal>
0

> <r_i_glide_rewards>
-1.96911432878992

> <r_i_glide_evdw>
-39.5991668701172

> <r_i_glide_ecoul>
-1.80146551132202

> <r_i_glide_erotb>
0.686200739064019

> <r_i_glide_esite>
0

> <r_i_glide_emodel>
-40.1363157955686

> <r_i_glide_energy>
-41.4006323814392

> <r_i_glide_einternal>
8.62798500061035

> <i_i_glide_confnum>
41

> <i_i_glide_posenum>
339

> <r_i_glide_eff_state_penalty>
0

> <s_user_duplicate_titles>
CHEMBL220_lig514

> <s_m_subgroup_title>
dock_pv

> <s_m_subgroupid>
dock_pv

> <b_m_subgroup_collapsed>
0

$$$$
CHEMBL220_lig169
                    3D
 Schrodinger Suite 2021-1.
 35 36  0  0  1  0            999 V2000
    3.6449   66.4495   64.2601 N   0  0  0  0  0  0
    2.5138   66.3106   64.9533 N   0  0  0  0  0  0
    2.0675   67.5317   65.0706 C   0  0  0  0  0  0
    2.8100   68.4788   64.5330 N   0  0  0  0  0  0
    3.8153   67.8080   64.0210 C   0  0  0  0  0  0
    4.4108   65.3498   63.7306 C   0  0  0  0  0  0
    4.2571   64.1045   64.2733 N   0  0  0  0  0  0
    5.1430   65.5457   62.7680 O   0  0  0  0  0  0
    4.7020   62.9047   63.5573 C   0  0  0  0  0  0
    3.6074   63.7641   65.5349 C   0  0  0  0  0  0
    5.1546   68.5906   63.1667 S   0  0  0  0  0  0
    0.7748   67.7763   65.7383 C   0  0  0  0  0  0
   -0.2319   68.5080   65.1062 C   0  0  0  0  0  0
   -1.4759   68.6302   65.7142 C   0  0  0  0  0  0
   -1.6959   68.0237   66.9493 C   0  0  0  0  0  0
   -0.6882   67.3083   67.5873 C   0  0  0  0  0  0
    0.5502   67.1895   66.9832 C   0  0  0  0  0  0
    5.5393   69.8786   64.3883 C   0  0  0  0  0  0
   -3.0340   68.1259   67.6205 C   0  0  0  0  0  0
    4.9019   63.0752   62.5033 H   0  0  0  0  0  0
    3.9430   62.1238   63.5947 H   0  0  0  0  0  0
    5.6099   62.5080   64.0107 H   0  0  0  0  0  0
    3.7676   64.5080   66.3108 H   0  0  0  0  0  0
    2.5443   63.7080   65.3233 H   0  0  0  0  0  0
    3.9430   62.8052   65.9279 H   0  0  0  0  0  0
   -0.0657   68.9452   64.1326 H   0  0  0  0  0  0
   -2.2625   69.1844   65.2223 H   0  0  0  0  0  0
   -0.8629   66.8401   68.5451 H   0  0  0  0  0  0
    1.3209   66.6103   67.4700 H   0  0  0  0  0  0
    6.3428   70.5146   64.0175 H   0  0  0  0  0  0
    4.6706   70.5080   64.5781 H   0  0  0  0  0  0
    5.8604   69.4312   65.3289 H   0  0  0  0  0  0
   -3.8400   68.3474   66.9200 H   0  0  0  0  0  0
   -3.2572   67.1885   68.1286 H   0  0  0  0  0  0
   -2.9576   68.9080   68.3677 H   0  0  0  0  0  0
  1  5  1  0  0  0
  1  2  1  0  0  0
  1  6  1  0  0  0
  2  3  2  0  0  0
  3 12  1  0  0  0
  3  4  1  0  0  0
  4  5  2  0  0  0
  5 11  1  0  0  0
  6  7  1  0  0  0
  6  8  2  0  0  0
  7 10  1  0  0  0
  7  9  1  0  0  0
  9 20  1  0  0  0
  9 21  1  0  0  0
  9 22  1  0  0  0
 10 23  1  0  0  0
 10 24  1  0  0  0
 10 25  1  0  0  0
 11 18  1  0  0  0
 12 13  2  0  0  0
 12 17  1  0  0  0
 13 14  1  0  0  0
 13 26  1  0  0  0
 14 15  2  0  0  0
 14 27  1  0  0  0
 15 16  1  0  0  0
 15 19  1  0  0  0
 16 17  2  0  0  0
 16 28  1  0  0  0
 17 29  1  0  0  0
 18 30  1  0  0  0
 18 31  1  0  0  0
 18 32  1  0  0  0
 19 33  1  0  0  0
 19 34  1  0  0  0
 19 35  1  0  0  0
M  END
> <s_m_entry_id>
8814

> <s_m_entry_name>
dock_pv.324

> <s_m_Source_Path>
/home/csk/Desktop/cluster/DUD-E-result/aces

> <s_m_Source_File>
dock_pv.maegz

> <i_m_Source_File_Index>
324

> <chembl_id>
CHEMBL133388

> <chembl_pref_name>
None

> <i_lp_mmshare_version>
53161

> <i_f3d_flags>
0

> <r_lp_tautomer_probability>
1

> <s_lp_Force_Field>
OPLS_2005

> <r_lp_Energy>
29.736897

> <b_lp_Chiralities_Consistent>
1

> <s_lp_Variant>
CHEMBL220_lig169-1

> <s_i_glide_gridfile>
glide-grid_1e66

> <i_i_glide_lignum>
185

> <i_i_glide_rotatable_bonds>
4

> <r_i_docking_score>
-6.85378645578496

> <r_i_glide_ligand_efficiency>
-0.360725602936051

> <r_i_glide_ligand_efficiency_sa>
-0.962560792666042

> <r_i_glide_ligand_efficiency_ln>
-1.73758207237708

> <r_i_glide_gscore>
-6.85378645578496

> <r_i_glide_lipo>
-2.20102454862472

> <r_i_glide_hbond>
-0.33058140011868

> <r_i_glide_metal>
0

> <r_i_glide_rewards>
-2.27579505942925

> <r_i_glide_evdw>
-36.6279945373535

> <r_i_glide_ecoul>
-4.41271448135376

> <r_i_glide_erotb>
0.471109606753193

> <r_i_glide_esite>
-0.0241881552947598

> <r_i_glide_emodel>
-51.2688220965054

> <r_i_glide_energy>
-41.0407090187073

> <r_i_glide_einternal>
3.11716246604919

> <i_i_glide_confnum>
5

> <i_i_glide_posenum>
19

> <r_i_glide_eff_state_penalty>
0

> <s_user_duplicate_titles>
CHEMBL220_lig169,218523

> <s_m_subgroup_title>
dock_pv

> <s_m_subgroupid>
dock_pv

> <b_m_subgroup_collapsed>
0

$$$$
CHEMBL220_lig243
                    3D
 Schrodinger Suite 2021-1.
 61 64  0  0  1  0            999 V2000
    1.3302   65.4444   70.1979 C   0  0  0  0  0  0
    2.5991   64.2717   69.9226 S   0  0  0  0  0  0
    1.6814   63.0472   70.7850 C   0  0  0  0  0  0
    0.3605   64.9771   71.0598 C   0  0  0  0  0  0
    0.4974   63.5915   71.3504 C   0  0  0  0  0  0
   -0.0808   68.4197   64.9418 N   0  3  1  0  0  0
    1.4312   66.7521   69.5682 C   0  0  0  0  0  0
    2.0127   61.6954   70.9346 C   0  0  0  0  0  0
    1.1374   60.8572   71.6414 C   0  0  0  0  0  0
    1.0491   66.9343   68.1051 C   0  0  0  0  0  0
   -0.3465   62.7411   72.0762 C   0  0  0  0  0  0
   -0.4403   67.1161   67.7034 C   0  0  1  0  0  0
   -0.0364   61.3778   72.2054 C   0  0  0  0  0  0
    1.9429   67.7070   70.1109 O   0  0  0  0  0  0
    0.8954   68.9018   63.8081 C   0  0  0  0  0  0
   -0.8394   68.5964   67.4759 C   0  0  0  0  0  0
   -0.6307   66.4354   66.3679 C   0  0  0  0  0  0
    0.3434   66.9843   65.2970 C   0  0  0  0  0  0
   -0.1957   69.3075   66.2363 C   0  0  0  0  0  0
   -1.2764   66.5080   68.6612 O   0  0  0  0  0  0
    1.3655   59.5015   71.8137 O   0  0  0  0  0  0
   -0.8554   60.4833   72.8721 O   0  0  0  0  0  0
   -1.4848   68.3900   64.2670 C   0  0  0  0  0  0
    2.4289   68.9080   63.9358 C   0  0  0  0  0  0
    2.5149   58.8923   71.2362 C   0  0  0  0  0  0
   -2.0929   60.9249   73.4216 C   0  0  0  0  0  0
    3.1242   68.9200   65.1531 C   0  0  0  0  0  0
    3.1581   68.9034   62.7390 C   0  0  0  0  0  0
    4.5503   68.9338   62.7508 C   0  0  0  0  0  0
    4.5170   68.9567   65.1675 C   0  0  0  0  0  0
    5.2231   68.9681   63.9680 C   0  0  0  0  0  0
   -0.4463   65.5896   71.4243 H   0  0  0  0  0  0
    2.9212   61.3185   70.4933 H   0  0  0  0  0  0
    1.5963   67.8032   67.7468 H   0  0  0  0  0  0
    1.5063   66.1077   67.5789 H   0  0  0  0  0  0
   -1.2505   63.1426   72.5034 H   0  0  0  0  0  0
    0.6819   68.2020   62.9967 H   0  0  0  0  0  0
    0.5225   69.8448   63.4230 H   0  0  0  0  0  0
   -1.9228   68.6736   67.3645 H   0  0  0  0  0  0
   -0.5415   69.1873   68.3459 H   0  0  0  0  0  0
   -0.4567   65.3850   66.4112 H   0  0  0  0  0  0
   -1.6626   66.5138   66.0302 H   0  0  0  0  0  0
    0.3436   66.4389   64.3613 H   0  0  0  0  0  0
    1.3795   67.0014   65.6190 H   0  0  0  0  0  0
   -0.8584   70.1245   65.9680 H   0  0  0  0  0  0
    0.7846   69.7011   66.4845 H   0  0  0  0  0  0
   -1.2538   67.0439   69.4576 H   0  0  0  0  0  0
   -1.4667   67.7080   63.4305 H   0  0  0  0  0  0
   -2.2747   68.1781   64.9832 H   0  0  0  0  0  0
   -1.6955   69.3107   63.7836 H   0  0  0  0  0  0
    2.5104   57.8269   71.4667 H   0  0  0  0  0  0
    2.5167   58.9921   70.1494 H   0  0  0  0  0  0
    3.4365   59.3124   71.6415 H   0  0  0  0  0  0
   -2.6104   60.0753   73.8665 H   0  0  0  0  0  0
   -2.7489   61.3414   72.6563 H   0  0  0  0  0  0
   -1.9413   61.6685   74.2052 H   0  0  0  0  0  0
    2.6252   68.9061   66.1042 H   0  0  0  0  0  0
    2.6461   68.8929   61.7872 H   0  0  0  0  0  0
    5.1055   68.9409   61.8209 H   0  0  0  0  0  0
    5.0482   68.9791   66.1088 H   0  0  0  0  0  0
    6.3018   69.0087   63.9811 H   0  0  0  0  0  0
  1  2  1  0  0  0
  1  4  2  0  0  0
  1  7  1  0  0  0
  2  3  1  0  0  0
  3  8  2  0  0  0
  3  5  1  0  0  0
  4  5  1  0  0  0
  4 32  1  0  0  0
  5 11  2  0  0  0
  6 18  1  0  0  0
  6 15  1  0  0  0
  6 23  1  0  0  0
  6 19  1  0  0  0
  7 10  1  0  0  0
  7 14  2  0  0  0
  8  9  1  0  0  0
  8 33  1  0  0  0
  9 21  1  0  0  0
  9 13  2  0  0  0
 10 12  1  0  0  0
 10 34  1  0  0  0
 10 35  1  0  0  0
 11 13  1  0  0  0
 11 36  1  0  0  0
 12 16  1  0  0  0
 12 17  1  0  0  0
 12 20  1  0  0  0
 13 22  1  0  0  0
 15 24  1  0  0  0
 15 37  1  0  0  0
 15 38  1  0  0  0
 16 19  1  0  0  0
 16 39  1  0  0  0
 16 40  1  0  0  0
 17 18  1  0  0  0
 17 41  1  0  0  0
 17 42  1  0  0  0
 18 43  1  0  0  0
 18 44  1  0  0  0
 19 45  1  0  0  0
 19 46  1  0  0  0
 20 47  1  0  0  0
 21 25  1  0  0  0
 22 26  1  0  0  0
 23 48  1  0  0  0
 23 49  1  0  0  0
 23 50  1  0  0  0
 24 27  2  0  0  0
 24 28  1  0  0  0
 25 51  1  0  0  0
 25 52  1  0  0  0
 25 53  1  0  0  0
 26 54  1  0  0  0
 26 55  1  0  0  0
 26 56  1  0  0  0
 27 30  1  0  0  0
 27 57  1  0  0  0
 28 29  2  0  0  0
 28 58  1  0  0  0
 29 31  1  0  0  0
 29 59  1  0  0  0
 30 31  2  0  0  0
 30 60  1  0  0  0
 31 61  1  0  0  0
M  CHG  1   6   1
M  END
> <s_m_entry_id>
8815

> <s_m_entry_name>
dock_pv.325

> <s_m_Source_Path>
/home/csk/Desktop/cluster/DUD-E-result/aces

> <s_m_Source_File>
dock_pv.maegz

> <i_m_Source_File_Index>
325

> <chembl_id>
CHEMBL83005

> <chembl_pref_name>
None

> <i_lp_mmshare_version>
53161

> <i_f3d_flags>
0

> <r_lp_tautomer_probability>
0.99990000499975

> <s_lp_Force_Field>
OPLS_2005

> <r_lp_Energy>
43.717324

> <b_lp_Chiralities_Consistent>
1

> <s_lp_Variant>
CHEMBL220_lig243-1

> <s_i_glide_gridfile>
glide-grid_1e66

> <i_i_glide_lignum>
279

> <i_i_glide_rotatable_bonds>
8

> <r_i_docking_score>
-6.85130419744449

> <r_i_glide_ligand_efficiency>
-0.22100981282079

> <r_i_glide_ligand_efficiency_sa>
-0.694275949189161

> <r_i_glide_ligand_efficiency_ln>
-1.54517906378127

> <r_i_glide_gscore>
-6.85130419744449

> <r_i_glide_lipo>
-4.18136874652537

> <r_i_glide_hbond>
0

> <r_i_glide_metal>
0

> <r_i_glide_rewards>
-1.57880929819715

> <r_i_glide_evdw>
-22.9235877990723

> <r_i_glide_ecoul>
-3.06197643280029

> <r_i_glide_erotb>
0.514349702151694

> <r_i_glide_esite>
0

> <r_i_glide_emodel>
-37.1508145686087

> <r_i_glide_energy>
-25.9855642318726

> <r_i_glide_einternal>
29.0844612121582

> <i_i_glide_confnum>
57

> <i_i_glide_posenum>
272

> <r_i_glide_eff_state_penalty>
0

> <s_user_duplicate_titles>
CHEMBL220_lig243,138084

> <s_m_subgroup_title>
dock_pv

> <s_m_subgroupid>
dock_pv

> <b_m_subgroup_collapsed>
0

$$$$
CHEMBL220_lig278
                    3D
 Schrodinger Suite 2021-1.
 30 33  0  0  1  0            999 V2000
    2.4465   68.7778   66.0247 N   0  0  0  0  0  0
    1.1267   68.6420   66.2825 C   0  0  0  0  0  0
    0.1513   68.4366   65.3197 C   0  0  0  0  0  0
    0.5124   68.4303   63.9709 C   0  0  0  0  0  0
    2.8336   68.7139   64.7177 C   0  0  0  0  0  0
    1.8976   68.5595   63.6417 C   0  0  0  0  0  0
   -1.1656   68.2900   66.0832 C   0  0  2  0  0  0
    0.4105   68.6869   67.6249 C   0  0  1  0  0  0
   -0.9255   69.3076   67.1898 C   0  0  0  0  0  0
    4.2141   68.8013   64.4274 C   0  0  0  0  0  0
    2.3919   68.5368   62.3078 C   0  0  0  0  0  0
   -1.1240   66.9768   66.9086 C   0  0  0  0  0  0
   -0.0272   67.2452   67.9681 C   0  0  0  0  0  0
   -0.4668   68.3183   62.9914 N   0  0  0  0  0  0
    4.6597   68.7432   63.1091 C   0  0  0  0  0  0
    3.7582   68.6222   62.0602 C   0  0  0  0  0  0
    6.3437   68.7988   62.7685 Cl  0  0  0  0  0  0
   -2.0794   68.4456   65.5075 H   0  0  0  0  0  0
    0.9233   69.2202   68.4261 H   0  0  0  0  0  0
   -0.8575   70.3318   66.8273 H   0  0  0  0  0  0
   -1.6941   69.2917   67.9670 H   0  0  0  0  0  0
    4.9227   68.8981   65.2378 H   0  0  0  0  0  0
    1.7072   68.4252   61.4797 H   0  0  0  0  0  0
   -2.0874   66.7767   67.3792 H   0  0  0  0  0  0
   -0.8722   66.1077   66.3100 H   0  0  0  0  0  0
    0.7946   66.5295   67.8988 H   0  0  0  0  0  0
   -0.4393   67.1759   68.9752 H   0  0  0  0  0  0
   -0.1977   68.1870   62.0307 H   0  0  0  0  0  0
   -1.3943   68.0634   63.2993 H   0  0  0  0  0  0
    4.1271   68.5858   61.0442 H   0  0  0  0  0  0
  1  2  2  0  0  0
  1  5  1  0  0  0
  2  3  1  0  0  0
  2  8  1  0  0  0
  3  7  1  0  0  0
  3  4  2  0  0  0
  4  6  1  0  0  0
  4 14  1  0  0  0
  5  6  1  0  0  0
  5 10  2  0  0  0
  6 11  2  0  0  0
  7  9  1  0  0  0
  7 12  1  0  0  0
  7 18  1  0  0  0
  8  9  1  0  0  0
  8 13  1  0  0  0
  8 19  1  0  0  0
  9 20  1  0  0  0
  9 21  1  0  0  0
 10 15  1  0  0  0
 10 22  1  0  0  0
 11 16  1  0  0  0
 11 23  1  0  0  0
 12 13  1  0  0  0
 12 24  1  0  0  0
 12 25  1  0  0  0
 13 26  1  0  0  0
 13 27  1  0  0  0
 14 28  1  0  0  0
 14 29  1  0  0  0
 15 16  2  0  0  0
 15 17  1  0  0  0
 16 30  1  0  0  0
M  END
> <s_m_entry_id>
8816

> <s_m_entry_name>
dock_pv.326

> <s_m_Source_Path>
/home/csk/Desktop/cluster/DUD-E-result/aces

> <s_m_Source_File>
dock_pv.maegz

> <i_m_Source_File_Index>
326

> <chembl_id>
CHEMBL352500

> <chembl_pref_name>
None

> <i_lp_mmshare_version>
53161

> <i_f3d_flags>
0

> <r_lp_tautomer_probability>
1

> <s_lp_Force_Field>
OPLS_2005

> <r_lp_Energy>
62.415929

> <b_lp_Chiralities_Consistent>
1

> <s_lp_Variant>
CHEMBL220_lig278-1

> <s_i_glide_gridfile>
glide-grid_1e66

> <i_i_glide_lignum>
328

> <i_i_glide_rotatable_bonds>
0

> <r_i_docking_score>
-6.84587952746887

> <r_i_glide_ligand_efficiency>
-0.402698795733463

> <r_i_glide_ligand_efficiency_sa>
-1.03545199907181

> <r_i_glide_ligand_efficiency_ln>
-1.78593751847496

> <r_i_glide_gscore>
-6.84587952746887

> <r_i_glide_lipo>
-3.12308979918229

> <r_i_glide_hbond>
0

> <r_i_glide_metal>
0

> <r_i_glide_rewards>
-1.95994998777183

> <r_i_glide_evdw>
-33.0933876037598

> <r_i_glide_ecoul>
-0.72113573551178

> <r_i_glide_erotb>
0

> <r_i_glide_esite>
0

> <r_i_glide_emodel>
-47.7124025340347

> <r_i_glide_energy>
-33.8145233392715

> <r_i_glide_einternal>
0

> <i_i_glide_confnum>
1

> <i_i_glide_posenum>
350

> <r_i_glide_eff_state_penalty>
0

> <s_user_duplicate_titles>
CHEMBL220_lig278

> <s_m_subgroup_title>
dock_pv

> <s_m_subgroupid>
dock_pv

> <b_m_subgroup_collapsed>
0

$$$$
CHEMBL220_lig578
                    3D
 Schrodinger Suite 2021-1.
 30 32  0  0  1  0            999 V2000
    3.0149   68.7371   65.5687 N   0  0  0  0  0  0
    3.2581   68.8284   64.2362 C   0  0  0  0  0  0
    2.2110   68.7584   63.2846 C   0  0  0  0  0  0
    0.9037   68.5094   63.7434 C   0  0  0  0  0  0
    0.6487   68.3934   65.1416 C   0  0  0  0  0  0
    1.7541   68.5429   66.0242 C   0  0  0  0  0  0
    4.7401   68.9503   63.8128 C   0  0  2  0  0  0
   -0.1471   68.4446   62.8204 N   0  0  0  0  0  0
    2.4917   69.0252   61.8008 C   0  0  0  0  0  0
    5.5427   69.7428   64.6760 O   0  0  0  0  0  0
   -0.6433   68.1796   65.7060 C   0  0  0  0  0  0
    1.5430   68.5091   67.4198 C   0  0  0  0  0  0
    3.9410   68.7552   61.4076 C   0  0  0  0  0  0
    4.9163   69.4380   62.3674 C   0  0  0  0  0  0
   -0.8131   68.1167   67.0876 C   0  0  0  0  0  0
    0.2761   68.2790   67.9360 C   0  0  0  0  0  0
    5.1622   67.9465   63.8799 H   0  0  0  0  0  0
    0.0552   68.4733   61.8325 H   0  0  0  0  0  0
   -1.0711   68.2095   63.1553 H   0  0  0  0  0  0
    1.8384   68.4401   61.1551 H   0  0  0  0  0  0
    2.2597   70.0710   61.5996 H   0  0  0  0  0  0
    6.4582   69.7176   64.3737 H   0  0  0  0  0  0
   -1.5029   68.0696   65.0619 H   0  0  0  0  0  0
    2.3664   68.6607   68.0989 H   0  0  0  0  0  0
    4.1335   67.6806   61.3815 H   0  0  0  0  0  0
    4.1044   69.1172   60.3924 H   0  0  0  0  0  0
    5.9489   69.3145   62.0402 H   0  0  0  0  0  0
    4.7551   70.5173   62.3332 H   0  0  0  0  0  0
   -1.7976   67.9506   67.5045 H   0  0  0  0  0  0
    0.1496   68.2358   69.0067 H   0  0  0  0  0  0
  1  2  2  0  0  0
  1  6  1  0  0  0
  2  3  1  0  0  0
  2  7  1  0  0  0
  3  9  1  0  0  0
  3  4  2  0  0  0
  4  5  1  0  0  0
  4  8  1  0  0  0
  5  6  1  0  0  0
  5 11  2  0  0  0
  6 12  2  0  0  0
  7 10  1  0  0  0
  7 14  1  0  0  0
  7 17  1  0  0  0
  8 18  1  0  0  0
  8 19  1  0  0  0
  9 13  1  0  0  0
  9 20  1  0  0  0
  9 21  1  0  0  0
 10 22  1  0  0  0
 11 15  1  0  0  0
 11 23  1  0  0  0
 12 16  1  0  0  0
 12 24  1  0  0  0
 13 14  1  0  0  0
 13 25  1  0  0  0
 13 26  1  0  0  0
 14 27  1  0  0  0
 14 28  1  0  0  0
 15 16  2  0  0  0
 15 29  1  0  0  0
 16 30  1  0  0  0
M  END
> <s_m_entry_id>
8817

> <s_m_entry_name>
dock_pv.327

> <s_m_Source_Path>
/home/csk/Desktop/cluster/DUD-E-result/aces

> <s_m_Source_File>
dock_pv.maegz

> <i_m_Source_File_Index>
327

> <chembl_id>
CHEMBL319451

> <chembl_pref_name>
None

> <i_lp_mmshare_version>
53161

> <i_f3d_flags>
0

> <r_lp_tautomer_probability>
1

> <s_lp_Force_Field>
OPLS_2005

> <r_lp_Energy>
17.024406

> <b_lp_Chiralities_Consistent>
1

> <s_lp_Variant>
CHEMBL220_lig578-1

> <s_i_glide_gridfile>
glide-grid_1e66

> <i_i_glide_lignum>
666

> <i_i_glide_rotatable_bonds>
1

> <r_i_docking_score>
-6.83991820022191

> <r_i_glide_ligand_efficiency>
-0.427494887513869

> <r_i_glide_ligand_efficiency_sa>
-1.07721961400677

> <r_i_glide_ligand_efficiency_ln>
-1.81305694943632

> <r_i_glide_gscore>
-6.83991820022191

> <r_i_glide_lipo>
-2.67544715343327

> <r_i_glide_hbond>
-0.250358468992943

> <r_i_glide_metal>
0

> <r_i_glide_rewards>
-2.11573746597738

> <r_i_glide_evdw>
-30.9901866912842

> <r_i_glide_ecoul>
-1.65910518169403

> <r_i_glide_erotb>
0

> <r_i_glide_esite>
0

> <r_i_glide_emodel>
-45.8453965790954

> <r_i_glide_energy>
-32.6492918729782

> <r_i_glide_einternal>
0.0103111024945974

> <i_i_glide_confnum>
1

> <i_i_glide_posenum>
296

> <r_i_glide_eff_state_penalty>
0

> <s_user_duplicate_titles>
CHEMBL220_lig578

> <s_m_subgroup_title>
dock_pv

> <s_m_subgroupid>
dock_pv

> <b_m_subgroup_collapsed>
0

$$$$
CHEMBL220_lig621
                    3D
 Schrodinger Suite 2021-1.
 30 30  0  0  1  0            999 V2000
    4.2572   68.6776   62.8340 N   0  3  0  0  0  0
    3.6914   68.8844   64.2299 C   0  0  0  0  0  0
    4.4189   69.6131   65.1850 C   0  0  0  0  0  0
    5.9938   70.5088   67.5644 C   0  0  0  0  0  0
    3.9454   69.7583   66.4944 C   0  0  0  0  0  0
    4.6296   70.4361   67.4931 O   0  0  0  0  0  0
    6.8229   70.0009   66.8075 O   0  0  0  0  0  0
    5.5424   69.5014   62.5603 C   0  0  0  0  0  0
    4.6513   67.2001   62.6112 C   0  0  0  0  0  0
    3.2545   69.0597   61.7179 C   0  0  0  0  0  0
    2.4585   68.3149   64.5844 C   0  0  0  0  0  0
    1.9512   68.5197   65.8705 C   0  0  0  0  0  0
    6.4497   71.3076   68.7688 C   0  0  0  0  0  0
    2.6819   69.2538   66.8065 C   0  0  0  0  0  0
    5.3500   70.0900   64.9365 H   0  0  0  0  0  0
    5.8940   69.3085   61.5559 H   0  0  0  0  0  0
    5.2953   70.5581   62.6797 H   0  0  0  0  0  0
    6.3182   69.1917   63.2612 H   0  0  0  0  0  0
    5.0877   67.1053   61.6131 H   0  0  0  0  0  0
    5.3769   66.9454   63.3828 H   0  0  0  0  0  0
    3.7531   66.5916   62.7093 H   0  0  0  0  0  0
    3.7483   68.9302   60.7517 H   0  0  0  0  0  0
    2.3857   68.4045   61.7813 H   0  0  0  0  0  0
    2.9684   70.1017   61.8693 H   0  0  0  0  0  0
    1.8792   67.7239   63.8895 H   0  0  0  0  0  0
    0.9923   68.1043   66.1491 H   0  0  0  0  0  0
    6.1079   72.3367   68.6826 H   0  0  0  0  0  0
    7.5366   71.3091   68.8489 H   0  0  0  0  0  0
    6.0342   70.8754   69.6773 H   0  0  0  0  0  0
    2.2801   69.4012   67.7997 H   0  0  0  0  0  0
  1  2  1  0  0  0
  1  8  1  0  0  0
  1  9  1  0  0  0
  1 10  1  0  0  0
  2  3  2  0  0  0
  2 11  1  0  0  0
  3  5  1  0  0  0
  3 15  1  0  0  0
  4  6  1  0  0  0
  4  7  2  0  0  0
  4 13  1  0  0  0
  5  6  1  0  0  0
  5 14  2  0  0  0
  8 16  1  0  0  0
  8 17  1  0  0  0
  8 18  1  0  0  0
  9 19  1  0  0  0
  9 20  1  0  0  0
  9 21  1  0  0  0
 10 22  1  0  0  0
 10 23  1  0  0  0
 10 24  1  0  0  0
 11 12  2  0  0  0
 11 25  1  0  0  0
 12 14  1  0  0  0
 12 26  1  0  0  0
 13 27  1  0  0  0
 13 28  1  0  0  0
 13 29  1  0  0  0
 14 30  1  0  0  0
M  CHG  1   1   1
M  END
> <s_m_entry_id>
8818

> <s_m_entry_name>
dock_pv.328

> <s_m_Source_Path>
/home/csk/Desktop/cluster/DUD-E-result/aces

> <s_m_Source_File>
dock_pv.maegz

> <i_m_Source_File_Index>
328

> <chembl_id>
CHEMBL343344

> <chembl_pref_name>
None

> <i_lp_mmshare_version>
53161

> <i_f3d_flags>
0

> <r_lp_tautomer_probability>
1

> <s_lp_Force_Field>
OPLS_2005

> <r_lp_Energy>
18.581943

> <b_lp_Chiralities_Consistent>
1

> <s_lp_Variant>
CHEMBL220_lig621-1

> <s_i_glide_gridfile>
glide-grid_1e66

> <i_i_glide_lignum>
724

> <i_i_glide_rotatable_bonds>
3

> <r_i_docking_score>
-6.83634855738447

> <r_i_glide_ligand_efficiency>
-0.488310611241748

> <r_i_glide_ligand_efficiency_sa>
-1.17689804116368

> <r_i_glide_ligand_efficiency_ln>
-1.87860424779492

> <r_i_glide_gscore>
-6.83634855738447

> <r_i_glide_lipo>
-2.05846137269211

> <r_i_glide_hbond>
0

> <r_i_glide_metal>
0

> <r_i_glide_rewards>
-3.61685246622666

> <r_i_glide_evdw>
-28.7846584320068

> <r_i_glide_ecoul>
-1.00291240215302

> <r_i_glide_erotb>
0.428635063457592

> <r_i_glide_esite>
0

> <r_i_glide_emodel>
-48.7551360704022

> <r_i_glide_energy>
-29.7875708341599

> <r_i_glide_einternal>
1.40995490550995

> <i_i_glide_confnum>
1

> <i_i_glide_posenum>
385

> <r_i_glide_eff_state_penalty>
0

> <s_user_duplicate_titles>
CHEMBL220_lig621,226912

> <s_m_subgroup_title>
dock_pv

> <s_m_subgroupid>
dock_pv

> <b_m_subgroup_collapsed>
0

$$$$
CHEMBL220_lig49
                    3D
 Schrodinger Suite 2021-1.
 57 59  0  0  1  0            999 V2000
   -1.0573   67.1261   67.7789 C   0  0  0  0  0  0
   -2.2956   67.5040   67.2490 C   0  0  0  0  0  0
   -2.4068   68.1080   65.9921 C   0  0  0  0  0  0
    0.0944   67.4850   67.0551 C   0  0  0  0  0  0
   -0.0247   68.0027   65.7625 C   0  0  0  0  0  0
   -1.2671   68.2900   65.1998 C   0  0  0  0  0  0
   -1.3375   68.6875   63.7579 C   0  0  0  0  0  0
   -0.0509   68.8258   63.1124 C   0  0  0  0  0  0
    1.1031   68.6014   63.7693 C   0  0  0  0  0  0
    1.1505   68.1863   65.0584 O   0  0  0  0  0  0
    2.4604   68.8155   63.2148 C   0  0  0  0  0  0
    3.5545   69.0099   64.0737 C   0  0  0  0  0  0
    4.8139   69.3071   63.5633 C   0  0  0  0  0  0
    4.9796   69.4180   62.1883 C   0  0  0  0  0  0
    3.9116   69.2202   61.3222 C   0  0  0  0  0  0
    2.6592   68.9082   61.8312 C   0  0  0  0  0  0
   -2.3944   68.9080   63.1682 O   0  0  0  0  0  0
   -1.0772   66.5080   69.0249 O   0  0  0  0  0  0
   -0.2147   65.4203   69.3549 C   0  0  0  0  0  0
    0.3430   65.5635   70.7837 C   0  0  0  0  0  0
    1.0254   64.2734   71.2879 C   0  0  0  0  0  0
    2.4221   64.0200   70.6718 C   0  0  0  0  0  0
    3.0444   62.7718   71.1397 N   0  0  0  0  0  0
    2.3482   61.5503   70.6925 C   0  0  0  0  0  0
    2.3682   61.3139   69.1690 C   0  0  0  0  0  0
    5.2294   61.6149   71.5633 C   0  0  0  0  0  0
    4.4894   62.7732   70.8647 C   0  0  0  0  0  0
    1.4882   67.3901   67.6188 C   0  0  0  0  0  0
   -3.1938   67.3077   67.8172 H   0  0  0  0  0  0
   -3.3908   68.3410   65.6061 H   0  0  0  0  0  0
   -0.0438   69.1764   62.0948 H   0  0  0  0  0  0
    3.4312   68.9627   65.1462 H   0  0  0  0  0  0
    5.6515   69.4710   64.2266 H   0  0  0  0  0  0
    5.9430   69.6583   61.7722 H   0  0  0  0  0  0
    4.0609   69.3083   60.2567 H   0  0  0  0  0  0
    1.8469   68.7589   61.1358 H   0  0  0  0  0  0
    0.6385   65.3085   68.7137 H   0  0  0  0  0  0
   -0.7957   64.5023   69.2595 H   0  0  0  0  0  0
   -0.4569   65.8357   71.4706 H   0  0  0  0  0  0
    1.0417   66.4000   70.8237 H   0  0  0  0  0  0
    0.3520   63.4330   71.1248 H   0  0  0  0  0  0
    1.1412   64.3554   72.3677 H   0  0  0  0  0  0
    3.0522   64.8655   70.9552 H   0  0  0  0  0  0
    2.3846   64.0610   69.5828 H   0  0  0  0  0  0
    1.3179   61.5541   71.0453 H   0  0  0  0  0  0
    2.7840   60.6883   71.1963 H   0  0  0  0  0  0
    1.9430   60.3399   68.9309 H   0  0  0  0  0  0
    3.3802   61.3198   68.7682 H   0  0  0  0  0  0
    1.7869   62.0666   68.6366 H   0  0  0  0  0  0
    6.3078   61.7079   71.4530 H   0  0  0  0  0  0
    5.0142   61.5981   72.6323 H   0  0  0  0  0  0
    4.9590   60.6445   71.1488 H   0  0  0  0  0  0
    4.6849   62.7618   69.7923 H   0  0  0  0  0  0
    4.9163   63.7078   71.2297 H   0  0  0  0  0  0
    2.0627   68.2720   67.3293 H   0  0  0  0  0  0
    1.5397   67.3619   68.7069 H   0  0  0  0  0  0
    1.9430   66.5065   67.1680 H   0  0  0  0  0  0
  1  2  2  0  0  0
  1  4  1  0  0  0
  1 18  1  0  0  0
  2  3  1  0  0  0
  2 29  1  0  0  0
  3  6  2  0  0  0
  3 30  1  0  0  0
  4  5  2  0  0  0
  4 28  1  0  0  0
  5  6  1  0  0  0
  5 10  1  0  0  0
  6  7  1  0  0  0
  7  8  1  0  0  0
  7 17  2  0  0  0
  8  9  2  0  0  0
  8 31  1  0  0  0
  9 10  1  0  0  0
  9 11  1  0  0  0
 11 12  2  0  0  0
 11 16  1  0  0  0
 12 13  1  0  0  0
 12 32  1  0  0  0
 13 14  2  0  0  0
 13 33  1  0  0  0
 14 15  1  0  0  0
 14 34  1  0  0  0
 15 16  2  0  0  0
 15 35  1  0  0  0
 16 36  1  0  0  0
 18 19  1  0  0  0
 19 20  1  0  0  0
 19 37  1  0  0  0
 19 38  1  0  0  0
 20 21  1  0  0  0
 20 39  1  0  0  0
 20 40  1  0  0  0
 21 22  1  0  0  0
 21 41  1  0  0  0
 21 42  1  0  0  0
 22 23  1  0  0  0
 22 43  1  0  0  0
 22 44  1  0  0  0
 23 24  1  0  0  0
 23 27  1  0  0  0
 24 25  1  0  0  0
 24 45  1  0  0  0
 24 46  1  0  0  0
 25 47  1  0  0  0
 25 48  1  0  0  0
 25 49  1  0  0  0
 26 27  1  0  0  0
 26 50  1  0  0  0
 26 51  1  0  0  0
 26 52  1  0  0  0
 27 53  1  0  0  0
 27 54  1  0  0  0
 28 55  1  0  0  0
 28 56  1  0  0  0
 28 57  1  0  0  0
M  END
> <s_m_entry_id>
8819

> <s_m_entry_name>
dock_pv.329

> <s_m_Source_Path>
/home/csk/Desktop/cluster/DUD-E-result/aces

> <s_m_Source_File>
dock_pv.maegz

> <i_m_Source_File_Index>
329

> <chembl_id>
CHEMBL2393067

> <chembl_pref_name>
None

> <i_lp_mmshare_version>
53161

> <i_f3d_flags>
0

> <r_lp_tautomer_probability>
1

> <s_lp_Force_Field>
OPLS_2005

> <r_lp_Energy>
25.750291

> <b_lp_Chiralities_Consistent>
1

> <s_lp_Variant>
CHEMBL220_lig49-1

> <s_i_glide_gridfile>
glide-grid_1e66

> <i_i_glide_lignum>
52

> <i_i_glide_rotatable_bonds>
9

> <r_i_docking_score>
-6.83297681459709

> <r_i_glide_ligand_efficiency>
-0.24403488623561

> <r_i_glide_ligand_efficiency_sa>
-0.741033643472894

> <r_i_glide_ligand_efficiency_ln>
-1.57725167372598

> <r_i_glide_gscore>
-6.83297681459709

> <r_i_glide_lipo>
-4.81926809009889

> <r_i_glide_hbond>
-0.0232493168700075

> <r_i_glide_metal>
0

> <r_i_glide_rewards>
-1.14607704446357

> <r_i_glide_evdw>
-32.8957176208496

> <r_i_glide_ecoul>
-0.947293341159821

> <r_i_glide_erotb>
0.942497519051829

> <r_i_glide_esite>
0

> <r_i_glide_emodel>
-34.7479243463487

> <r_i_glide_energy>
-33.8430109620094

> <r_i_glide_einternal>
11.8212566375732

> <i_i_glide_confnum>
2

> <i_i_glide_posenum>
176

> <r_i_glide_eff_state_penalty>
0

> <s_user_duplicate_titles>
CHEMBL220_lig49

> <s_m_subgroup_title>
dock_pv

> <s_m_subgroupid>
dock_pv

> <b_m_subgroup_collapsed>
0

$$$$
CHEMBL220_lig893
                    3D
 Schrodinger Suite 2021-1.
 72 75  0  0  1  0            999 V2000
    1.8323   69.1012   66.9292 C   0  0  0  0  0  0
    4.1653   69.6198   65.4449 N   0  0  0  0  0  0
    2.9489   69.7041   67.5441 C   0  0  0  0  0  0
    1.8817   68.7930   65.5319 C   0  0  0  0  0  0
    4.1136   69.8956   66.7689 C   0  0  0  0  0  0
    3.0792   69.1053   64.8243 C   0  0  0  0  0  0
    1.3605   57.0506   73.0395 S   0  0  0  0  0  0
   -0.0287   58.4510   73.5627 S   0  0  0  0  0  0
    3.5384   61.6308   69.7332 C   0  0  0  0  0  0
    0.6596   68.9155   67.6911 N   0  0  0  0  0  0
    2.3469   61.7821   69.4628 O   0  0  0  0  0  0
    4.2799   62.5499   70.3712 N   0  0  0  0  0  0
    2.7858   58.1877   73.0953 C   0  0  2  0  0  0
    2.8980   70.1530   69.0138 C   0  0  0  0  0  0
    2.3824   59.5393   73.7209 C   0  0  0  0  0  0
    0.7806   68.2732   64.7899 C   0  0  0  0  0  0
    1.1578   59.3180   74.6087 C   0  0  0  0  0  0
    5.3725   70.5089   67.3747 C   0  0  0  0  0  0
    3.1391   68.9321   63.4197 C   0  0  0  0  0  0
    4.2649   60.3345   69.3416 C   0  0  0  0  0  0
    0.2530   67.5470   67.9959 C   0  0  0  0  0  0
    3.8167   63.8099   70.9572 C   0  0  0  0  0  0
    3.4950   58.2915   71.7262 C   0  0  0  0  0  0
    3.3537   59.0813   69.2540 C   0  0  0  0  0  0
    0.8750   67.0326   69.3047 C   0  0  0  0  0  0
    2.9303   64.7201   70.0759 C   0  0  0  0  0  0
    2.5916   58.7071   70.5439 C   0  0  0  0  0  0
    0.5019   65.5840   69.6639 C   0  0  0  0  0  0
    1.4792   64.8346   70.5897 C   0  0  0  0  0  0
    4.2124   70.7216   69.5824 C   0  0  0  0  0  0
    0.8597   68.1375   63.4074 C   0  0  0  0  0  0
    5.0524   71.4600   68.5360 C   0  0  0  0  0  0
    2.0225   68.4802   62.7251 C   0  0  0  0  0  0
    0.6135   69.5001   68.5163 H   0  0  0  0  0  0
    5.2545   62.3431   70.5197 H   0  0  0  0  0  0
    3.4808   57.7085   73.7872 H   0  0  0  0  0  0
    2.1278   70.9212   69.0877 H   0  0  0  0  0  0
    2.5562   69.3416   69.6542 H   0  0  0  0  0  0
    2.1329   60.2731   72.9546 H   0  0  0  0  0  0
    3.2069   59.9626   74.2964 H   0  0  0  0  0  0
   -0.1467   68.0336   65.2902 H   0  0  0  0  0  0
    0.7276   60.2567   74.9613 H   0  0  0  0  0  0
    1.3877   58.6958   75.4753 H   0  0  0  0  0  0
    5.9509   71.0303   66.6101 H   0  0  0  0  0  0
    6.0128   69.7060   67.7370 H   0  0  0  0  0  0
    4.0452   69.1889   62.8883 H   0  0  0  0  0  0
    5.0797   60.1477   70.0397 H   0  0  0  0  0  0
    4.7418   60.5040   68.3756 H   0  0  0  0  0  0
    0.5029   66.8658   67.1810 H   0  0  0  0  0  0
   -0.8355   67.5022   68.0556 H   0  0  0  0  0  0
    3.3620   63.6230   71.9325 H   0  0  0  0  0  0
    4.7332   64.3611   71.1681 H   0  0  0  0  0  0
    4.3279   58.9871   71.8329 H   0  0  0  0  0  0
    3.9433   57.3260   71.4858 H   0  0  0  0  0  0
    3.9437   58.2233   68.9459 H   0  0  0  0  0  0
    2.6276   59.2210   68.4512 H   0  0  0  0  0  0
    0.6249   67.6990   70.1296 H   0  0  0  0  0  0
    1.9431   67.1222   69.1986 H   0  0  0  0  0  0
    3.3821   65.7079   70.0715 H   0  0  0  0  0  0
    2.9388   64.3904   69.0357 H   0  0  0  0  0  0
    1.9254   57.8755   70.3149 H   0  0  0  0  0  0
    1.9306   59.5250   70.8304 H   0  0  0  0  0  0
    0.3384   64.9944   68.7684 H   0  0  0  0  0  0
   -0.4572   65.6053   70.1626 H   0  0  0  0  0  0
    1.0811   63.8320   70.7548 H   0  0  0  0  0  0
    1.4720   65.3089   71.5676 H   0  0  0  0  0  0
    3.9434   71.3085   70.4501 H   0  0  0  0  0  0
    4.8573   69.9780   70.0324 H   0  0  0  0  0  0
    0.0008   67.7766   62.8597 H   0  0  0  0  0  0
    4.5279   72.3489   68.1944 H   0  0  0  0  0  0
    5.9913   71.7989   68.9765 H   0  0  0  0  0  0
    2.0626   68.3748   61.6509 H   0  0  0  0  0  0
  1  3  2  0  0  0
  1  4  1  0  0  0
  1 10  1  0  0  0
  2  6  1  0  0  0
  2  5  2  0  0  0
  3  5  1  0  0  0
  3 14  1  0  0  0
  4  6  1  0  0  0
  4 16  2  0  0  0
  5 18  1  0  0  0
  6 19  2  0  0  0
  7 13  1  0  0  0
  7  8  1  0  0  0
  8 17  1  0  0  0
  9 12  1  0  0  0
  9 11  2  0  0  0
  9 20  1  0  0  0
 10 21  1  0  0  0
 10 34  1  0  0  0
 12 22  1  0  0  0
 12 35  1  0  0  0
 13 23  1  0  0  0
 13 15  1  0  0  0
 13 36  1  0  0  0
 14 30  1  0  0  0
 14 37  1  0  0  0
 14 38  1  0  0  0
 15 17  1  0  0  0
 15 39  1  0  0  0
 15 40  1  0  0  0
 16 31  1  0  0  0
 16 41  1  0  0  0
 17 42  1  0  0  0
 17 43  1  0  0  0
 18 32  1  0  0  0
 18 44  1  0  0  0
 18 45  1  0  0  0
 19 33  1  0  0  0
 19 46  1  0  0  0
 20 24  1  0  0  0
 20 47  1  0  0  0
 20 48  1  0  0  0
 21 25  1  0  0  0
 21 49  1  0  0  0
 21 50  1  0  0  0
 22 26  1  0  0  0
 22 51  1  0  0  0
 22 52  1  0  0  0
 23 27  1  0  0  0
 23 53  1  0  0  0
 23 54  1  0  0  0
 24 27  1  0  0  0
 24 55  1  0  0  0
 24 56  1  0  0  0
 25 28  1  0  0  0
 25 57  1  0  0  0
 25 58  1  0  0  0
 26 29  1  0  0  0
 26 59  1  0  0  0
 26 60  1  0  0  0
 27 61  1  0  0  0
 27 62  1  0  0  0
 28 29  1  0  0  0
 28 63  1  0  0  0
 28 64  1  0  0  0
 29 65  1  0  0  0
 29 66  1  0  0  0
 30 32  1  0  0  0
 30 67  1  0  0  0
 30 68  1  0  0  0
 31 33  2  0  0  0
 31 69  1  0  0  0
 32 70  1  0  0  0
 32 71  1  0  0  0
 33 72  1  0  0  0
M  END
> <s_m_entry_id>
8820

> <s_m_entry_name>
dock_pv.330

> <s_m_Source_Path>
/home/csk/Desktop/cluster/DUD-E-result/aces

> <s_m_Source_File>
dock_pv.maegz

> <i_m_Source_File_Index>
330

> <chembl_id>
CHEMBL278963

> <chembl_pref_name>
None

> <i_lp_mmshare_version>
53161

> <i_f3d_flags>
0

> <r_lp_tautomer_probability>
1

> <s_lp_Force_Field>
OPLS_2005

> <r_lp_Energy>
30.782043

> <b_lp_Chiralities_Consistent>
1

> <s_lp_Variant>
CHEMBL220_lig893-2

> <s_i_glide_gridfile>
glide-grid_1e66

> <i_i_glide_lignum>
1205

> <i_i_glide_rotatable_bonds>
14

> <r_i_docking_score>
-6.82607686653591

> <r_i_glide_ligand_efficiency>
-0.206850814137452

> <r_i_glide_ligand_efficiency_sa>
-0.663481086760174

> <r_i_glide_ligand_efficiency_ln>
-1.51808415158312

> <r_i_glide_gscore>
-6.82607686653591

> <r_i_glide_lipo>
-4.44911977354048

> <r_i_glide_hbond>
0

> <r_i_glide_metal>
0

> <r_i_glide_rewards>
-0.944695137454135

> <r_i_glide_evdw>
-47.7401542663574

> <r_i_glide_ecoul>
-0.523626685142517

> <r_i_glide_erotb>
1.03328976054795

> <r_i_glide_esite>
0

> <r_i_glide_emodel>
-59.7027197004354

> <r_i_glide_energy>
-48.2637809514999

> <r_i_glide_einternal>
9.04620933532715

> <i_i_glide_confnum>
7

> <i_i_glide_posenum>
208

> <r_i_glide_eff_state_penalty>
0

> <s_user_duplicate_titles>
CHEMBL220_lig893,323657

> <s_m_subgroup_title>
dock_pv

> <s_m_subgroupid>
dock_pv

> <b_m_subgroup_collapsed>
0

$$$$
CHEMBL220_lig1026
                    3D
 Schrodinger Suite 2021-1.
 28 30  0  0  1  0            999 V2000
    0.2299   68.7066   66.8419 C   0  0  0  0  0  0
    0.9954   69.3073   67.8358 C   0  0  0  0  0  0
    2.3432   69.6138   67.6737 C   0  0  0  0  0  0
    0.8227   68.3765   65.6115 C   0  0  0  0  0  0
    2.1753   68.7009   65.3941 C   0  0  0  0  0  0
    2.9272   69.3081   66.4367 C   0  0  0  0  0  0
    4.2191   69.5123   65.9659 N   0  0  0  0  0  0
    3.0246   68.5826   64.2789 C   0  0  0  0  0  0
    4.3004   69.0788   64.6544 C   0  0  0  0  0  0
    5.3541   69.0717   63.7320 C   0  0  0  0  0  0
    5.1664   68.6082   62.4723 N   0  0  0  0  0  0
    3.9443   68.1493   62.1100 C   0  0  0  0  0  0
    2.8432   68.1079   62.9673 C   0  0  0  0  0  0
   -1.0982   68.4995   67.1594 O   0  0  0  0  0  0
   -1.9687   67.9330   66.1915 C   0  0  0  0  0  0
    5.3290   70.0877   66.7127 C   0  0  0  0  0  0
    0.5161   69.5590   68.7680 H   0  0  0  0  0  0
    2.8929   70.0832   68.4761 H   0  0  0  0  0  0
    0.2484   67.9124   64.8250 H   0  0  0  0  0  0
    6.3411   69.4411   63.9736 H   0  0  0  0  0  0
    3.8603   67.8106   61.0876 H   0  0  0  0  0  0
    1.8913   67.7165   62.6344 H   0  0  0  0  0  0
   -2.9834   67.9044   66.5911 H   0  0  0  0  0  0
   -1.9932   68.5159   65.2680 H   0  0  0  0  0  0
   -1.6744   66.9080   65.9683 H   0  0  0  0  0  0
    4.9973   70.4553   67.6845 H   0  0  0  0  0  0
    6.0933   69.3218   66.8632 H   0  0  0  0  0  0
    5.7535   70.9180   66.1457 H   0  0  0  0  0  0
  1  2  2  0  0  0
  1  4  1  0  0  0
  1 14  1  0  0  0
  2  3  1  0  0  0
  2 17  1  0  0  0
  3  6  2  0  0  0
  3 18  1  0  0  0
  4  5  2  0  0  0
  4 19  1  0  0  0
  5  8  1  0  0  0
  5  6  1  0  0  0
  6  7  1  0  0  0
  7  9  1  0  0  0
  7 16  1  0  0  0
  8  9  2  0  0  0
  8 13  1  0  0  0
  9 10  1  0  0  0
 10 11  2  0  0  0
 10 20  1  0  0  0
 11 12  1  0  0  0
 12 13  2  0  0  0
 12 21  1  0  0  0
 13 22  1  0  0  0
 14 15  1  0  0  0
 15 23  1  0  0  0
 15 24  1  0  0  0
 15 25  1  0  0  0
 16 26  1  0  0  0
 16 27  1  0  0  0
 16 28  1  0  0  0
M  END
> <s_m_entry_id>
8821

> <s_m_entry_name>
dock_pv.331

> <s_m_Source_Path>
/home/csk/Desktop/cluster/DUD-E-result/aces

> <s_m_Source_File>
dock_pv.maegz

> <i_m_Source_File_Index>
331

> <chembl_id>
CHEMBL221794

> <chembl_pref_name>
None

> <i_lp_mmshare_version>
53161

> <i_f3d_flags>
0

> <r_lp_tautomer_probability>
1

> <s_lp_Force_Field>
OPLS_2005

> <r_lp_Energy>
14.174469

> <b_lp_Chiralities_Consistent>
1

> <s_lp_Variant>
CHEMBL220_lig1026-1

> <s_i_glide_gridfile>
glide-grid_1e66

> <i_i_glide_lignum>
1425

> <i_i_glide_rotatable_bonds>
1

> <r_i_docking_score>
-6.82157722670789

> <r_i_glide_ligand_efficiency>
-0.426348576669243

> <r_i_glide_ligand_efficiency_sa>
-1.0743310916837

> <r_i_glide_ligand_efficiency_ln>
-1.80819530803716

> <r_i_glide_gscore>
-6.82157722670789

> <r_i_glide_lipo>
-2.74414213958235

> <r_i_glide_hbond>
0

> <r_i_glide_metal>
0

> <r_i_glide_rewards>
-2.29091942207122

> <r_i_glide_evdw>
-30.5646362304688

> <r_i_glide_ecoul>
-1.72189235687256

> <r_i_glide_erotb>
0

> <r_i_glide_esite>
0

> <r_i_glide_emodel>
-46.3027962268724

> <r_i_glide_energy>
-32.2865285873413

> <r_i_glide_einternal>
0.106181308627129

> <i_i_glide_confnum>
1

> <i_i_glide_posenum>
306

> <r_i_glide_eff_state_penalty>
0

> <s_user_duplicate_titles>
CHEMBL220_lig1026

> <s_m_subgroup_title>
dock_pv

> <s_m_subgroupid>
dock_pv

> <b_m_subgroup_collapsed>
0

$$$$
CHEMBL220_lig663
                    3D
 Schrodinger Suite 2021-1.
 46 49  0  0  1  0            999 V2000
    3.6291   68.8190   64.9024 C   0  0  0  0  0  0
    3.2319   69.3078   66.1603 C   0  0  0  0  0  0
    4.1842   69.9737   67.0098 C   0  0  0  0  0  0
    4.9444   69.0721   64.4695 C   0  0  0  0  0  0
    5.8699   69.6256   65.2774 N   0  0  0  0  0  0
    5.5218   70.0470   66.5139 C   0  0  0  0  0  0
    2.7161   67.9264   64.0474 C   0  0  2  0  0  0
    3.9389   70.4847   68.3375 C   0  0  0  0  0  0
    3.9432   65.6526   63.9654 C   0  0  0  0  0  0
    4.5395   67.5946   62.4057 C   0  0  2  0  0  0
    4.7364   66.2020   63.0101 C   0  0  0  0  0  0
    5.4238   68.6703   63.0713 C   0  0  0  0  0  0
    2.7760   66.4573   64.5739 C   0  0  0  0  0  0
    3.0608   67.9841   62.5507 C   0  0  0  0  0  0
    5.0087   70.9079   69.1168 C   0  0  0  0  0  0
    6.5672   70.5079   67.3372 C   0  0  0  0  0  0
    6.3132   70.9077   68.6416 C   0  0  0  0  0  0
    1.9226   69.0373   66.5739 N   0  0  0  0  0  0
    2.5660   70.4323   68.9948 C   0  0  0  0  0  0
    4.0465   64.1860   64.3994 C   0  0  0  0  0  0
    7.4697   71.2199   69.5681 C   0  0  0  0  0  0
    4.7707   63.2303   63.4338 C   0  0  0  0  0  0
    1.6966   68.2989   64.1547 H   0  0  0  0  0  0
    4.7754   67.5348   61.3425 H   0  0  0  0  0  0
    5.5433   65.6160   62.6099 H   0  0  0  0  0  0
    6.4736   68.3747   63.0798 H   0  0  0  0  0  0
    5.3861   69.5682   62.4529 H   0  0  0  0  0  0
    1.8414   65.9379   64.3682 H   0  0  0  0  0  0
    2.8353   66.4181   65.6624 H   0  0  0  0  0  0
    2.8909   68.9899   62.1610 H   0  0  0  0  0  0
    2.4267   67.3227   61.9679 H   0  0  0  0  0  0
    4.8197   71.1126   70.1561 H   0  0  0  0  0  0
    7.5748   70.4997   66.9526 H   0  0  0  0  0  0
    1.6242   69.3437   67.4885 H   0  0  0  0  0  0
    1.3005   68.5219   65.9699 H   0  0  0  0  0  0
    2.5629   70.9084   69.9701 H   0  0  0  0  0  0
    1.8092   70.9354   68.3933 H   0  0  0  0  0  0
    2.2637   69.3992   69.1672 H   0  0  0  0  0  0
    3.0279   63.8124   64.5146 H   0  0  0  0  0  0
    4.4961   64.1130   65.3902 H   0  0  0  0  0  0
    8.2151   70.4253   69.5276 H   0  0  0  0  0  0
    7.9443   72.1417   69.2492 H   0  0  0  0  0  0
    7.1591   71.3073   70.6085 H   0  0  0  0  0  0
    4.6676   62.1945   63.7498 H   0  0  0  0  0  0
    5.8370   63.4458   63.3675 H   0  0  0  0  0  0
    4.3430   63.2862   62.4338 H   0  0  0  0  0  0
  1  2  1  0  0  0
  1  4  2  0  0  0
  1  7  1  0  0  0
  2  3  2  0  0  0
  2 18  1  0  0  0
  3  8  1  0  0  0
  3  6  1  0  0  0
  4  5  1  0  0  0
  4 12  1  0  0  0
  5  6  2  0  0  0
  6 16  1  0  0  0
  7 13  1  0  0  0
  7 14  1  0  0  0
  7 23  1  0  0  0
  8 15  2  0  0  0
  8 19  1  0  0  0
  9 13  1  0  0  0
  9 20  1  0  0  0
  9 11  2  0  0  0
 10 14  1  0  0  0
 10 11  1  0  0  0
 10 12  1  0  0  0
 10 24  1  0  0  0
 11 25  1  0  0  0
 12 26  1  0  0  0
 12 27  1  0  0  0
 13 28  1  0  0  0
 13 29  1  0  0  0
 14 30  1  0  0  0
 14 31  1  0  0  0
 15 17  1  0  0  0
 15 32  1  0  0  0
 16 17  2  0  0  0
 16 33  1  0  0  0
 17 21  1  0  0  0
 18 34  1  0  0  0
 18 35  1  0  0  0
 19 36  1  0  0  0
 19 37  1  0  0  0
 19 38  1  0  0  0
 20 22  1  0  0  0
 20 39  1  0  0  0
 20 40  1  0  0  0
 21 41  1  0  0  0
 21 42  1  0  0  0
 21 43  1  0  0  0
 22 44  1  0  0  0
 22 45  1  0  0  0
 22 46  1  0  0  0
M  END
> <s_m_entry_id>
8822

> <s_m_entry_name>
dock_pv.332

> <s_m_Source_Path>
/home/csk/Desktop/cluster/DUD-E-result/aces

> <s_m_Source_File>
dock_pv.maegz

> <i_m_Source_File_Index>
332

> <chembl_id>
CHEMBL143094

> <chembl_pref_name>
None

> <i_lp_mmshare_version>
53161

> <i_f3d_flags>
0

> <r_lp_tautomer_probability>
1

> <s_lp_Force_Field>
OPLS_2005

> <r_lp_Energy>
29.846145

> <b_lp_Chiralities_Consistent>
1

> <s_lp_Variant>
CHEMBL220_lig663-1

> <s_i_glide_gridfile>
glide-grid_1e66

> <i_i_glide_lignum>
779

> <i_i_glide_rotatable_bonds>
1

> <r_i_docking_score>
-6.82118552530344

> <r_i_glide_ligand_efficiency>
-0.310053887513793

> <r_i_glide_ligand_efficiency_sa>
-0.868783186541099

> <r_i_glide_ligand_efficiency_ln>
-1.66734655117156

> <r_i_glide_gscore>
-6.82118552530344

> <r_i_glide_lipo>
-3.87179526884411

> <r_i_glide_hbond>
0

> <r_i_glide_metal>
0

> <r_i_glide_rewards>
-1.41533209090909

> <r_i_glide_evdw>
-34.5669746398926

> <r_i_glide_ecoul>
1.29527044296265

> <r_i_glide_erotb>
0

> <r_i_glide_esite>
0

> <r_i_glide_emodel>
-36.2672263840273

> <r_i_glide_energy>
-33.2717041969299

> <r_i_glide_einternal>
0.577041923999786

> <i_i_glide_confnum>
1

> <i_i_glide_posenum>
357

> <r_i_glide_eff_state_penalty>
0

> <s_user_duplicate_titles>
CHEMBL220_lig663,236596

> <s_m_subgroup_title>
dock_pv

> <s_m_subgroupid>
dock_pv

> <b_m_subgroup_collapsed>
0

$$$$
CHEMBL220_lig607
                    3D
 Schrodinger Suite 2021-1.
 25 26  0  0  1  0            999 V2000
    2.4964   68.9068   64.2638 C   0  0  0  0  0  0
    2.6347   68.9095   61.9076 C   0  0  0  0  0  0
    3.3496   69.1250   63.1838 C   0  0  0  0  0  0
    1.1578   68.4025   63.7869 C   0  0  0  0  0  0
    1.1689   68.6084   62.2670 C   0  0  1  0  0  0
    2.9559   69.0964   65.5711 C   0  0  0  0  0  0
    3.1214   68.9599   60.7766 O   0  0  0  0  0  0
    4.6778   69.5056   63.3906 C   0  0  0  0  0  0
    2.0304   68.8704   66.5710 O   0  0  0  0  0  0
    0.2238   69.7395   61.8020 C   0  0  0  0  0  0
    5.1390   69.7007   64.6932 C   0  0  0  0  0  0
    4.2825   69.5078   65.7802 C   0  0  0  0  0  0
    2.1927   69.5189   67.8291 C   0  0  0  0  0  0
    0.3190   68.9091   64.2636 H   0  0  0  0  0  0
    1.0452   67.3439   64.0145 H   0  0  0  0  0  0
    0.8639   67.7076   61.7480 H   0  0  0  0  0  0
    5.3470   69.6676   62.5565 H   0  0  0  0  0  0
    0.3327   69.9600   60.7383 H   0  0  0  0  0  0
   -0.8110   69.4453   61.9708 H   0  0  0  0  0  0
    0.3433   70.6643   62.3619 H   0  0  0  0  0  0
    6.1612   70.0085   64.8602 H   0  0  0  0  0  0
    4.6677   69.6689   66.7742 H   0  0  0  0  0  0
    1.4014   69.1928   68.5052 H   0  0  0  0  0  0
    3.1426   69.3058   68.3145 H   0  0  0  0  0  0
    2.0985   70.5989   67.7216 H   0  0  0  0  0  0
  1  3  1  0  0  0
  1  4  1  0  0  0
  1  6  2  0  0  0
  2  3  1  0  0  0
  2  7  2  0  0  0
  2  5  1  0  0  0
  3  8  2  0  0  0
  4  5  1  0  0  0
  4 14  1  0  0  0
  4 15  1  0  0  0
  5 10  1  0  0  0
  5 16  1  0  0  0
  6  9  1  0  0  0
  6 12  1  0  0  0
  8 11  1  0  0  0
  8 17  1  0  0  0
  9 13  1  0  0  0
 10 18  1  0  0  0
 10 19  1  0  0  0
 10 20  1  0  0  0
 11 12  2  0  0  0
 11 21  1  0  0  0
 12 22  1  0  0  0
 13 23  1  0  0  0
 13 24  1  0  0  0
 13 25  1  0  0  0
M  END
> <s_m_entry_id>
8823

> <s_m_entry_name>
dock_pv.333

> <s_m_Source_Path>
/home/csk/Desktop/cluster/DUD-E-result/aces

> <s_m_Source_File>
dock_pv.maegz

> <i_m_Source_File_Index>
333

> <chembl_id>
CHEMBL422338

> <chembl_pref_name>
None

> <i_lp_mmshare_version>
53161

> <i_f3d_flags>
0

> <r_lp_tautomer_probability>
0.99995

> <s_lp_Force_Field>
OPLS_2005

> <r_lp_Energy>
25.922449

> <b_lp_Chiralities_Consistent>
1

> <s_lp_Variant>
CHEMBL220_lig607-2

> <s_i_glide_gridfile>
glide-grid_1e66

> <i_i_glide_lignum>
704

> <i_i_glide_rotatable_bonds>
1

> <r_i_docking_score>
-6.81738746815057

> <r_i_glide_ligand_efficiency>
-0.524414420626967

> <r_i_glide_ligand_efficiency_sa>
-1.23307381690691

> <r_i_glide_ligand_efficiency_ln>
-1.91233781593042

> <r_i_glide_gscore>
-6.81738746815057

> <r_i_glide_lipo>
-2.56690948609733

> <r_i_glide_hbond>
0

> <r_i_glide_metal>
0

> <r_i_glide_rewards>
-2.65764695454545

> <r_i_glide_evdw>
-25.5277938842773

> <r_i_glide_ecoul>
-2.1096088886261

> <r_i_glide_erotb>
0

> <r_i_glide_esite>
0

> <r_i_glide_emodel>
-38.1527279414299

> <r_i_glide_energy>
-27.6374027729034

> <r_i_glide_einternal>
1.80862700939178

> <i_i_glide_confnum>
1

> <i_i_glide_posenum>
323

> <r_i_glide_eff_state_penalty>
0

> <s_user_duplicate_titles>
CHEMBL220_lig607

> <s_m_subgroup_title>
dock_pv

> <s_m_subgroupid>
dock_pv

> <b_m_subgroup_collapsed>
0

$$$$
CHEMBL220_lig644
                    3D
 Schrodinger Suite 2021-1.
 28 30  0  0  1  0            999 V2000
    2.2770   67.7736   65.2301 N   0  0  0  0  0  0
    1.0869   67.9717   65.6529 C   0  0  0  0  0  0
    0.0619   68.4599   64.8162 N   0  0  0  0  0  0
    2.6518   68.1547   63.9356 C   0  0  0  0  0  0
    1.7132   68.5354   62.9600 C   0  0  0  0  0  0
    0.2269   68.5154   63.3454 C   0  0  0  0  0  0
   -1.3304   68.6581   65.2522 C   0  0  0  0  0  0
    0.7980   67.5841   67.1043 C   0  0  0  0  0  0
    2.1744   68.9295   61.7003 C   0  0  0  0  0  0
    4.0144   68.1113   63.6338 C   0  0  0  0  0  0
   -1.6877   67.8003   66.4778 C   0  0  0  0  0  0
   -0.6258   67.9506   67.5680 C   0  0  0  0  0  0
    3.5385   68.9025   61.4042 C   0  0  0  0  0  0
    4.4574   68.4896   62.3674 C   0  0  0  0  0  0
   -0.2702   67.6617   62.8852 H   0  0  0  0  0  0
   -0.2593   69.4147   62.9634 H   0  0  0  0  0  0
   -2.0458   68.5114   64.4408 H   0  0  0  0  0  0
   -1.3633   69.7053   65.5581 H   0  0  0  0  0  0
    1.5250   68.0568   67.7650 H   0  0  0  0  0  0
    0.9340   66.5076   67.1974 H   0  0  0  0  0  0
    1.4719   69.2420   60.9412 H   0  0  0  0  0  0
    4.7278   67.8071   64.3857 H   0  0  0  0  0  0
   -2.6765   68.0705   66.8515 H   0  0  0  0  0  0
   -1.7548   66.7519   66.1905 H   0  0  0  0  0  0
   -0.8929   67.3083   68.4072 H   0  0  0  0  0  0
   -0.6376   68.9740   67.9485 H   0  0  0  0  0  0
    3.8910   69.1941   60.4252 H   0  0  0  0  0  0
    5.5115   68.4726   62.1262 H   0  0  0  0  0  0
  1  2  2  0  0  0
  1  4  1  0  0  0
  2  3  1  0  0  0
  2  8  1  0  0  0
  3  7  1  0  0  0
  3  6  1  0  0  0
  4  5  1  0  0  0
  4 10  2  0  0  0
  5  6  1  0  0  0
  5  9  2  0  0  0
  6 15  1  0  0  0
  6 16  1  0  0  0
  7 11  1  0  0  0
  7 17  1  0  0  0
  7 18  1  0  0  0
  8 12  1  0  0  0
  8 19  1  0  0  0
  8 20  1  0  0  0
  9 13  1  0  0  0
  9 21  1  0  0  0
 10 14  1  0  0  0
 10 22  1  0  0  0
 11 12  1  0  0  0
 11 23  1  0  0  0
 11 24  1  0  0  0
 12 25  1  0  0  0
 12 26  1  0  0  0
 13 14  2  0  0  0
 13 27  1  0  0  0
 14 28  1  0  0  0
M  END
> <s_m_entry_id>
8824

> <s_m_entry_name>
dock_pv.334

> <s_m_Source_Path>
/home/csk/Desktop/cluster/DUD-E-result/aces

> <s_m_Source_File>
dock_pv.maegz

> <i_m_Source_File_Index>
334

> <chembl_id>
CHEMBL163362

> <chembl_pref_name>
None

> <i_lp_mmshare_version>
53161

> <i_f3d_flags>
0

> <r_lp_tautomer_probability>
0.999601159137504

> <s_lp_Force_Field>
OPLS_2005

> <r_lp_Energy>
17.514083

> <b_lp_Chiralities_Consistent>
1

> <s_lp_Variant>
CHEMBL220_lig644-1

> <s_i_glide_gridfile>
glide-grid_1e66

> <i_i_glide_lignum>
750

> <i_i_glide_rotatable_bonds>
0

> <r_i_docking_score>
-6.81692506696017

> <r_i_glide_ligand_efficiency>
-0.486923219068584

> <r_i_glide_ligand_efficiency_sa>
-1.17355422865309

> <r_i_glide_ligand_efficiency_ln>
-1.87326674176933

> <r_i_glide_gscore>
-6.81692506696017

> <r_i_glide_lipo>
-2.4742962930165

> <r_i_glide_hbond>
0

> <r_i_glide_metal>
0

> <r_i_glide_rewards>
-2.67417751242329

> <r_i_glide_evdw>
-29.0053100585938

> <r_i_glide_ecoul>
-1.45457172393799

> <r_i_glide_erotb>
0

> <r_i_glide_esite>
0

> <r_i_glide_emodel>
-42.7425630395679

> <r_i_glide_energy>
-30.4598817825317

> <r_i_glide_einternal>
0

> <i_i_glide_confnum>
1

> <i_i_glide_posenum>
191

> <r_i_glide_eff_state_penalty>
0

> <s_user_duplicate_titles>
CHEMBL220_lig644

> <s_m_subgroup_title>
dock_pv

> <s_m_subgroupid>
dock_pv

> <b_m_subgroup_collapsed>
0

$$$$
CHEMBL220_lig608
                    3D
 Schrodinger Suite 2021-1.
 29 30  0  0  1  0            999 V2000
    2.5287   68.5789   64.8727 C   0  0  0  0  0  0
    3.5374   68.4762   63.7883 C   0  0  0  0  0  0
    3.1085   69.1253   66.0132 C   0  0  0  0  0  0
    1.1681   68.2422   64.8625 C   0  0  0  0  0  0
    4.8601   69.0047   64.3557 C   0  0  2  0  0  0
    4.5545   69.4744   65.7833 C   0  0  0  0  0  0
    0.3812   68.4343   66.0186 C   0  0  0  0  0  0
    2.3420   69.3080   67.1639 C   0  0  0  0  0  0
    3.3626   68.0609   62.6428 O   0  0  0  0  0  0
    0.9947   68.9580   67.1695 C   0  0  0  0  0  0
    0.6760   67.7139   63.6897 O   0  0  0  0  0  0
   -0.9609   68.1009   65.9653 O   0  0  0  0  0  0
    5.4468   70.0929   63.4286 C   0  0  0  0  0  0
   -0.4213   68.3951   63.0928 C   0  0  0  0  0  0
   -1.7839   68.3014   67.1087 C   0  0  0  0  0  0
    5.5581   68.1673   64.3932 H   0  0  0  0  0  0
    5.2176   68.9723   66.4896 H   0  0  0  0  0  0
    4.7161   70.5492   65.8763 H   0  0  0  0  0  0
    2.7802   69.7304   68.0570 H   0  0  0  0  0  0
    0.4387   69.1216   68.0819 H   0  0  0  0  0  0
    5.7255   69.6859   62.4557 H   0  0  0  0  0  0
    4.7427   70.9071   63.2560 H   0  0  0  0  0  0
    6.3431   70.5321   63.8660 H   0  0  0  0  0  0
   -0.4571   68.1250   62.0376 H   0  0  0  0  0  0
   -1.3756   68.1083   63.5352 H   0  0  0  0  0  0
   -0.3172   69.4791   63.1525 H   0  0  0  0  0  0
   -2.8046   68.0009   66.8772 H   0  0  0  0  0  0
   -1.4478   67.6966   67.9516 H   0  0  0  0  0  0
   -1.8091   69.3499   67.4057 H   0  0  0  0  0  0
  1  2  1  0  0  0
  1  3  1  0  0  0
  1  4  2  0  0  0
  2  5  1  0  0  0
  2  9  2  0  0  0
  3  6  1  0  0  0
  3  8  2  0  0  0
  4  7  1  0  0  0
  4 11  1  0  0  0
  5 13  1  0  0  0
  5  6  1  0  0  0
  5 16  1  0  0  0
  6 17  1  0  0  0
  6 18  1  0  0  0
  7 10  2  0  0  0
  7 12  1  0  0  0
  8 10  1  0  0  0
  8 19  1  0  0  0
 10 20  1  0  0  0
 11 14  1  0  0  0
 12 15  1  0  0  0
 13 21  1  0  0  0
 13 22  1  0  0  0
 13 23  1  0  0  0
 14 24  1  0  0  0
 14 25  1  0  0  0
 14 26  1  0  0  0
 15 27  1  0  0  0
 15 28  1  0  0  0
 15 29  1  0  0  0
M  END
> <s_m_entry_id>
8825

> <s_m_entry_name>
dock_pv.335

> <s_m_Source_Path>
/home/csk/Desktop/cluster/DUD-E-result/aces

> <s_m_Source_File>
dock_pv.maegz

> <i_m_Source_File_Index>
335

> <chembl_id>
CHEMBL350916

> <chembl_pref_name>
None

> <i_lp_mmshare_version>
53161

> <i_f3d_flags>
0

> <r_lp_tautomer_probability>
0.99995

> <s_lp_Force_Field>
OPLS_2005

> <r_lp_Energy>
34.860321

> <b_lp_Chiralities_Consistent>
1

> <s_lp_Variant>
CHEMBL220_lig608-2

> <s_i_glide_gridfile>
glide-grid_1e66

> <i_i_glide_lignum>
706

> <i_i_glide_rotatable_bonds>
2

> <r_i_docking_score>
-6.80076985541316

> <r_i_glide_ligand_efficiency>
-0.453384657027544

> <r_i_glide_ligand_efficiency_sa>
-1.11814271446818

> <r_i_glide_ligand_efficiency_ln>
-1.83405549725072

> <r_i_glide_gscore>
-6.80076985541316

> <r_i_glide_lipo>
-2.78202853302639

> <r_i_glide_hbond>
0

> <r_i_glide_metal>
0

> <r_i_glide_rewards>
-2.38484215222647

> <r_i_glide_evdw>
-27.9875926971436

> <r_i_glide_ecoul>
-1.56346356868744

> <r_i_glide_erotb>
0

> <r_i_glide_esite>
0

> <r_i_glide_emodel>
-41.6530102766563

> <r_i_glide_energy>
-29.551056265831

> <r_i_glide_einternal>
0.582016885280609

> <i_i_glide_confnum>
1

> <i_i_glide_posenum>
187

> <r_i_glide_eff_state_penalty>
0

> <s_user_duplicate_titles>
CHEMBL220_lig608,257909

> <s_m_subgroup_title>
dock_pv

> <s_m_subgroupid>
dock_pv

> <b_m_subgroup_collapsed>
0

$$$$
628876
                    3D
 Schrodinger Suite 2021-1.
 63 68  0  0  1  0            999 V2000
   -1.6748   66.6189   74.6745 C   0  0  0  0  0  0
   -0.7847   65.6602   73.9835 N   0  3  0  0  0  0
   -0.4571   64.5141   74.6279 C   0  0  0  0  0  0
    0.2118   63.4824   73.9727 C   0  0  0  0  0  0
    0.6328   63.6958   72.6512 C   0  0  0  0  0  0
    1.3825   62.9153   71.7660 C   0  0  0  0  0  0
    1.8896   61.6095   71.8555 C   0  0  0  0  0  0
    2.7147   61.1418   70.8369 C   0  0  0  0  0  0
    3.0427   61.9508   69.7550 C   0  0  0  0  0  0
    2.5451   63.2482   69.6276 C   0  0  0  0  0  0
    1.6891   63.7211   70.6375 C   0  0  0  0  0  0
    1.0489   64.9499   70.8070 N   0  0  0  0  0  0
    0.3430   64.9332   72.0167 C   0  0  0  0  0  0
   -0.4312   65.9000   72.6969 C   0  0  0  0  0  0
    1.3442   66.1383   69.9906 C   0  0  0  0  0  0
    0.1225   66.9135   69.4579 C   0  0  0  0  0  0
   -0.2925   66.6062   68.0085 C   0  0  0  0  0  0
    0.6987   67.0129   66.8892 C   0  0  0  0  0  0
    0.9217   68.5357   66.7160 C   0  0  0  0  0  0
    1.9603   68.8162   65.7146 N   0  0  0  0  0  0
    1.8011   68.7162   64.3363 C   0  0  0  0  0  0
    0.6732   68.4108   63.5638 C   0  0  0  0  0  0
    0.8034   68.5082   62.1789 C   0  0  0  0  0  0
    2.0119   68.8397   61.5713 C   0  0  0  0  0  0
    3.1539   69.0753   62.3301 C   0  0  0  0  0  0
    3.0431   69.0490   63.7290 C   0  0  0  0  0  0
    3.9473   69.3511   64.7526 C   0  0  0  0  0  0
    3.2376   69.2955   65.9797 C   0  0  0  0  0  0
    3.8537   69.7079   67.1678 C   0  0  0  0  0  0
    5.1463   70.1152   67.1120 N   0  3  0  0  0  0
    5.8673   70.1262   65.9679 C   0  0  0  0  0  0
    5.2961   69.7441   64.7540 C   0  0  0  0  0  0
    5.7914   70.6426   68.3316 C   0  0  0  0  0  0
   -1.5746   66.5070   75.7574 H   0  0  0  0  0  0
   -1.4443   67.6286   74.3655 H   0  0  0  0  0  0
   -2.7113   66.4899   74.3695 H   0  0  0  0  0  0
   -0.8021   64.4171   75.6493 H   0  0  0  0  0  0
    0.4387   62.5594   74.4878 H   0  0  0  0  0  0
    1.6682   60.9833   72.7078 H   0  0  0  0  0  0
    3.1189   60.1417   70.8992 H   0  0  0  0  0  0
    3.7076   61.5663   68.9972 H   0  0  0  0  0  0
    2.8215   63.8451   68.7699 H   0  0  0  0  0  0
   -0.7112   66.8555   72.2861 H   0  0  0  0  0  0
    1.9969   65.8610   69.1684 H   0  0  0  0  0  0
    1.9473   66.7964   70.6154 H   0  0  0  0  0  0
    0.3440   67.9777   69.5301 H   0  0  0  0  0  0
   -0.7397   66.7471   70.0995 H   0  0  0  0  0  0
   -1.2614   67.0659   67.8054 H   0  0  0  0  0  0
   -0.4570   65.5365   67.9665 H   0  0  0  0  0  0
    0.3205   66.6050   65.9495 H   0  0  0  0  0  0
    1.6505   66.5110   67.0442 H   0  0  0  0  0  0
    1.2071   68.9979   67.6606 H   0  0  0  0  0  0
   -0.0011   69.0339   66.4140 H   0  0  0  0  0  0
   -0.2788   68.1583   64.0096 H   0  0  0  0  0  0
   -0.0549   68.3039   61.5605 H   0  0  0  0  0  0
    2.0651   68.9069   60.4954 H   0  0  0  0  0  0
    4.0869   69.3343   61.8482 H   0  0  0  0  0  0
    3.3600   69.7409   68.1282 H   0  0  0  0  0  0
    6.8814   70.4941   66.0411 H   0  0  0  0  0  0
    5.8627   69.8082   63.8358 H   0  0  0  0  0  0
    6.7313   70.1079   68.4739 H   0  0  0  0  0  0
    5.9684   71.7068   68.1709 H   0  0  0  0  0  0
    5.1404   70.5024   69.1947 H   0  0  0  0  0  0
  1  2  1  0  0  0
  1 34  1  0  0  0
  1 35  1  0  0  0
  1 36  1  0  0  0
  2 14  1  0  0  0
  2  3  2  0  0  0
  3  4  1  0  0  0
  3 37  1  0  0  0
  4  5  2  0  0  0
  4 38  1  0  0  0
  5 13  1  0  0  0
  5  6  1  0  0  0
  6 11  2  0  0  0
  6  7  1  0  0  0
  7  8  2  0  0  0
  7 39  1  0  0  0
  8  9  1  0  0  0
  8 40  1  0  0  0
  9 10  2  0  0  0
  9 41  1  0  0  0
 10 11  1  0  0  0
 10 42  1  0  0  0
 11 12  1  0  0  0
 12 13  1  0  0  0
 12 15  1  0  0  0
 13 14  2  0  0  0
 14 43  1  0  0  0
 15 16  1  0  0  0
 15 44  1  0  0  0
 15 45  1  0  0  0
 16 17  1  0  0  0
 16 46  1  0  0  0
 16 47  1  0  0  0
 17 18  1  0  0  0
 17 48  1  0  0  0
 17 49  1  0  0  0
 18 19  1  0  0  0
 18 50  1  0  0  0
 18 51  1  0  0  0
 19 20  1  0  0  0
 19 52  1  0  0  0
 19 53  1  0  0  0
 20 28  1  0  0  0
 20 21  1  0  0  0
 21 26  2  0  0  0
 21 22  1  0  0  0
 22 23  2  0  0  0
 22 54  1  0  0  0
 23 24  1  0  0  0
 23 55  1  0  0  0
 24 25  2  0  0  0
 24 56  1  0  0  0
 25 26  1  0  0  0
 25 57  1  0  0  0
 26 27  1  0  0  0
 27 32  2  0  0  0
 27 28  1  0  0  0
 28 29  2  0  0  0
 29 30  1  0  0  0
 29 58  1  0  0  0
 30 31  2  0  0  0
 30 33  1  0  0  0
 31 32  1  0  0  0
 31 59  1  0  0  0
 32 60  1  0  0  0
 33 61  1  0  0  0
 33 62  1  0  0  0
 33 63  1  0  0  0
M  CHG  2   2   1  30   1
M  END
> <s_m_entry_id>
9559

> <s_m_entry_name>
ligand_docking-pose.1

> <s_m_Source_Path>
/home/csk/Desktop/cluster/DUD-E-result/aces

> <s_m_Source_File>
ligand_docking-pose.sdf

> <i_m_Source_File_Index>
1

> <i_lp_mmshare_version>
53161

> <r_lp_tautomer_probability>
1

> <s_lp_Force_Field>
OPLS_2005

> <r_lp_Energy>
37.058691

> <b_lp_Chiralities_Consistent>
1

> <s_lp_Variant>
628876-1

> <s_i_glide_gridfile>
glide-grid_1e66

> <i_i_glide_lignum>
1508

> <i_i_glide_rotatable_bonds>
6

> <r_i_docking_score>
-11.0649850591691

> <r_i_glide_ligand_efficiency>
-0.33530257755058

> <r_i_glide_ligand_efficiency_sa>
-1.07549452717608

> <r_i_glide_ligand_efficiency_ln>
-2.46079538573275

> <r_i_glide_gscore>
-11.0649850591691

> <r_i_glide_lipo>
-5.169002196916

> <r_i_glide_hbond>
0

> <r_i_glide_metal>
0

> <r_i_glide_rewards>
-3.32816770838889

> <r_i_glide_evdw>
-39.9390411376953

> <r_i_glide_ecoul>
-8.02419662475586

> <r_i_glide_erotb>
0.632766396733913

> <r_i_glide_esite>
0

> <r_i_glide_emodel>
-77.9895414209312

> <r_i_glide_energy>
-47.9632377624512

> <r_i_glide_einternal>
6.68142414093018

> <i_i_glide_confnum>
71

> <i_i_glide_posenum>
256

> <r_i_glide_eff_state_penalty>
0

> <i_f3d_flags>
0

> <s_user_duplicate_titles>
628876

> <s_m_subgroup_title>
dock_pv

> <s_m_subgroupid>
dock_pv1

> <b_m_subgroup_collapsed>
1

$$$$
489934
                    3D
 Schrodinger Suite 2021-1.
 59 60  0  0  1  0            999 V2000
    5.2804   68.6436   64.7485 C   0  0  0  0  0  0
    4.6115   68.7750   63.3524 N   0  3  0  0  0  0
    5.1681   67.6269   62.4773 C   0  0  0  0  0  0
    5.1522   70.1060   62.7826 C   0  0  0  0  0  0
    3.0940   68.7279   63.3621 C   0  0  0  0  0  0
    2.4032   69.0185   62.1780 C   0  0  0  0  0  0
    1.0132   68.9671   62.1569 C   0  0  0  0  0  0
    0.3081   68.5809   63.2978 C   0  0  0  0  0  0
    0.9764   68.2781   64.4881 C   0  0  0  0  0  0
    2.3794   68.3669   64.5152 C   0  0  0  0  0  0
    0.1963   67.9224   65.5751 O   0  0  0  0  0  0
    0.8225   67.6280   66.8249 C   0  0  0  0  0  0
   -0.1719   66.9827   67.8060 C   0  0  0  0  0  0
    0.4664   66.6197   69.1679 C   0  0  0  0  0  0
    0.0708   65.3045   69.5709 O   0  0  0  0  0  0
    0.9527   64.4628   70.2268 C   0  0  0  0  0  0
    0.3889   63.4225   70.9726 C   0  0  0  0  0  0
    1.2038   62.5195   71.6757 C   0  0  0  0  0  0
    2.5975   62.6319   71.5937 C   0  0  0  0  0  0
    3.1664   63.6462   70.8304 C   0  0  0  0  0  0
    2.3534   64.5553   70.1588 C   0  0  0  0  0  0
    4.5274   63.7477   70.7443 O   0  0  0  0  0  0
    0.6100   61.4161   72.5363 N   0  3  0  0  0  0
   -0.9418   61.3924   72.5856 C   0  0  0  0  0  0
    1.0731   61.5445   74.0108 C   0  0  0  0  0  0
    1.0419   60.0191   72.0250 C   0  0  0  0  0  0
    0.3431   69.3109   61.0146 O   0  0  0  0  0  0
    6.3643   68.7121   64.6347 H   0  0  0  0  0  0
    4.9128   69.4605   65.3729 H   0  0  0  0  0  0
    5.0136   67.6763   65.1673 H   0  0  0  0  0  0
    6.2562   67.7109   62.4310 H   0  0  0  0  0  0
    4.8577   66.6867   62.9336 H   0  0  0  0  0  0
    4.7466   67.7288   61.4758 H   0  0  0  0  0  0
    6.2361   70.1029   62.8805 H   0  0  0  0  0  0
    4.8704   70.2002   61.7340 H   0  0  0  0  0  0
    4.7263   70.9066   63.3847 H   0  0  0  0  0  0
    2.9285   69.2897   61.2746 H   0  0  0  0  0  0
   -0.7714   68.5338   63.2710 H   0  0  0  0  0  0
    2.8978   68.1585   65.4339 H   0  0  0  0  0  0
    1.2405   68.5449   67.2490 H   0  0  0  0  0  0
    1.6387   66.9164   66.6779 H   0  0  0  0  0  0
   -0.5727   66.0852   67.3328 H   0  0  0  0  0  0
   -1.0276   67.6438   67.9602 H   0  0  0  0  0  0
    0.1200   67.3077   69.9367 H   0  0  0  0  0  0
    1.5398   66.7833   69.1253 H   0  0  0  0  0  0
   -0.6850   63.3483   70.9878 H   0  0  0  0  0  0
    3.2541   61.9496   72.1123 H   0  0  0  0  0  0
    2.8409   65.3077   69.5692 H   0  0  0  0  0  0
    4.8196   64.5372   70.2807 H   0  0  0  0  0  0
   -1.2709   60.5691   73.2228 H   0  0  0  0  0  0
   -1.3039   61.2475   71.5681 H   0  0  0  0  0  0
   -1.2875   62.3433   72.9957 H   0  0  0  0  0  0
    0.6063   60.7522   74.5989 H   0  0  0  0  0  0
    2.1585   61.4492   74.0502 H   0  0  0  0  0  0
    0.7599   62.5271   74.3688 H   0  0  0  0  0  0
    0.5690   59.2531   72.6416 H   0  0  0  0  0  0
    0.7180   59.9400   70.9872 H   0  0  0  0  0  0
    2.1273   59.9437   72.0937 H   0  0  0  0  0  0
    0.9108   69.6218   60.3019 H   0  0  0  0  0  0
  1  2  1  0  0  0
  1 28  1  0  0  0
  1 29  1  0  0  0
  1 30  1  0  0  0
  2  3  1  0  0  0
  2  4  1  0  0  0
  2  5  1  0  0  0
  3 31  1  0  0  0
  3 32  1  0  0  0
  3 33  1  0  0  0
  4 34  1  0  0  0
  4 35  1  0  0  0
  4 36  1  0  0  0
  5 10  1  0  0  0
  5  6  2  0  0  0
  6  7  1  0  0  0
  6 37  1  0  0  0
  7  8  2  0  0  0
  7 27  1  0  0  0
  8  9  1  0  0  0
  8 38  1  0  0  0
  9 10  2  0  0  0
  9 11  1  0  0  0
 10 39  1  0  0  0
 11 12  1  0  0  0
 12 13  1  0  0  0
 12 40  1  0  0  0
 12 41  1  0  0  0
 13 14  1  0  0  0
 13 42  1  0  0  0
 13 43  1  0  0  0
 14 15  1  0  0  0
 14 44  1  0  0  0
 14 45  1  0  0  0
 15 16  1  0  0  0
 16 21  1  0  0  0
 16 17  2  0  0  0
 17 18  1  0  0  0
 17 46  1  0  0  0
 18 19  2  0  0  0
 18 23  1  0  0  0
 19 20  1  0  0  0
 19 47  1  0  0  0
 20 21  2  0  0  0
 20 22  1  0  0  0
 21 48  1  0  0  0
 22 49  1  0  0  0
 23 24  1  0  0  0
 23 25  1  0  0  0
 23 26  1  0  0  0
 24 50  1  0  0  0
 24 51  1  0  0  0
 24 52  1  0  0  0
 25 53  1  0  0  0
 25 54  1  0  0  0
 25 55  1  0  0  0
 26 56  1  0  0  0
 26 57  1  0  0  0
 26 58  1  0  0  0
 27 59  1  0  0  0
M  CHG  2   2   1  23   1
M  END
> <s_m_entry_id>
9560

> <s_m_entry_name>
ligand_docking-pose.2

> <s_m_Source_Path>
/home/csk/Desktop/cluster/DUD-E-result/aces

> <s_m_Source_File>
ligand_docking-pose.sdf

> <i_m_Source_File_Index>
2

> <i_lp_mmshare_version>
53161

> <r_lp_tautomer_probability>
1

> <s_lp_Force_Field>
OPLS_2005

> <r_lp_Energy>
37.115291

> <b_lp_Chiralities_Consistent>
1

> <s_lp_Variant>
489934-1

> <s_i_glide_gridfile>
glide-grid_1e66

> <i_i_glide_lignum>
1732

> <i_i_glide_rotatable_bonds>
10

> <r_i_docking_score>
-10.7213987925482

> <r_i_glide_ligand_efficiency>
-0.397088844168452

> <r_i_glide_ligand_efficiency_sa>
-1.19126653119662

> <r_i_glide_ligand_efficiency_ln>
-2.49576488283189

> <r_i_glide_gscore>
-10.7213987925482

> <r_i_glide_lipo>
-4.10167256482683

> <r_i_glide_hbond>
-0.228292121574512

> <r_i_glide_metal>
0

> <r_i_glide_rewards>
-3.66306944439423

> <r_i_glide_evdw>
-49.0358276367188

> <r_i_glide_ecoul>
-7.30667209625244

> <r_i_glide_erotb>
0.819427534521181

> <r_i_glide_esite>
0

> <r_i_glide_emodel>
-99.3508872269721

> <r_i_glide_energy>
-56.3424997329712

> <r_i_glide_einternal>
7.90429639816284

> <i_i_glide_confnum>
57

> <i_i_glide_posenum>
131

> <r_i_glide_eff_state_penalty>
0

> <i_f3d_flags>
0

> <s_user_duplicate_titles>
489934

> <s_m_subgroup_title>
dock_pv

> <s_m_subgroupid>
dock_pv1

> <b_m_subgroup_collapsed>
1

$$$$
628958
                    3D
 Schrodinger Suite 2021-1.
 75 80  0  0  1  0            999 V2000
   -3.8350   60.9516   74.9709 C   0  0  0  0  0  0
   -2.5091   60.5285   74.4787 N   0  3  0  0  0  0
   -2.2503   59.2039   74.3718 C   0  0  0  0  0  0
   -1.0149   58.7457   73.9036 C   0  0  0  0  0  0
   -0.0398   59.6971   73.5594 C   0  0  0  0  0  0
    1.2608   59.6016   73.0396 C   0  0  0  0  0  0
    2.0525   58.5078   72.6560 C   0  0  0  0  0  0
    3.3299   58.7500   72.1591 C   0  0  0  0  0  0
    3.8289   60.0454   72.0497 C   0  0  0  0  0  0
    3.0707   61.1569   72.4209 C   0  0  0  0  0  0
    1.7778   60.9220   72.9161 C   0  0  0  0  0  0
    0.7924   61.7979   73.3620 N   0  0  0  0  0  0
   -0.3343   61.0741   73.7309 C   0  0  0  0  0  0
   -1.5872   61.4819   74.2070 C   0  0  0  0  0  0
    0.8916   63.2584   73.3927 C   0  0  0  0  0  0
    0.1244   63.9215   72.2286 C   0  0  0  0  0  0
    0.5787   63.4886   70.8198 C   0  0  0  0  0  0
   -0.1865   64.1873   69.6812 C   0  0  0  0  0  0
    0.2181   65.6644   69.4453 C   0  0  0  0  0  0
   -0.5580   66.3159   68.2812 C   0  0  0  0  0  0
   -0.1445   67.7525   67.9121 C   0  0  0  0  0  0
    1.2814   67.9244   67.3950 C   0  0  0  0  0  0
    1.4472   69.2747   66.6887 C   0  0  0  0  0  0
    2.8150   69.4913   66.2296 N   0  0  0  0  0  0
    3.8506   69.9899   67.0094 C   0  0  0  0  0  0
    3.8750   70.3922   68.3510 C   0  0  0  0  0  0
    5.1078   70.7707   68.8716 C   0  0  0  0  0  0
    6.2590   70.8383   68.0919 C   0  0  0  0  0  0
    6.2291   70.4839   66.7459 C   0  0  0  0  0  0
    5.0117   70.0575   66.1920 C   0  0  0  0  0  0
    4.6334   69.6734   64.8959 C   0  0  0  0  0  0
    3.2636   69.3053   64.9292 C   0  0  0  0  0  0
    2.6062   68.8944   63.7598 C   0  0  0  0  0  0
    3.3163   68.8727   62.6052 N   0  3  0  0  0  0
    4.6194   69.2238   62.5373 C   0  0  0  0  0  0
    5.3172   69.6238   63.6739 C   0  0  0  0  0  0
    2.6142   68.5321   61.3541 C   0  0  0  0  0  0
   -4.5896   60.2472   74.6110 H   0  0  0  0  0  0
   -3.7933   60.9604   76.0612 H   0  0  0  0  0  0
   -4.0601   61.9475   74.5834 H   0  0  0  0  0  0
   -3.0492   58.5293   74.6484 H   0  0  0  0  0  0
   -0.8208   57.6884   73.8013 H   0  0  0  0  0  0
    1.6862   57.4962   72.7362 H   0  0  0  0  0  0
    3.9409   57.9122   71.8594 H   0  0  0  0  0  0
    4.8273   60.1948   71.6689 H   0  0  0  0  0  0
    3.4775   62.1516   72.3216 H   0  0  0  0  0  0
   -1.8748   62.5081   74.3659 H   0  0  0  0  0  0
    1.9433   63.5349   73.3624 H   0  0  0  0  0  0
    0.5101   63.6033   74.3545 H   0  0  0  0  0  0
    0.2219   65.0030   72.3268 H   0  0  0  0  0  0
   -0.9379   63.7061   72.3380 H   0  0  0  0  0  0
    0.4338   62.4116   70.7133 H   0  0  0  0  0  0
    1.6505   63.6590   70.6993 H   0  0  0  0  0  0
   -1.2552   64.1027   69.8479 H   0  0  0  0  0  0
   -0.0555   63.6031   68.7766 H   0  0  0  0  0  0
    1.2888   65.7075   69.2430 H   0  0  0  0  0  0
    0.0573   66.2517   70.3508 H   0  0  0  0  0  0
   -1.6229   66.3140   68.5251 H   0  0  0  0  0  0
   -0.4572   65.7086   67.3847 H   0  0  0  0  0  0
   -0.2019   68.4105   68.7675 H   0  0  0  0  0  0
   -0.8603   68.1321   67.1794 H   0  0  0  0  0  0
    1.5505   67.1060   66.7258 H   0  0  0  0  0  0
    1.9390   67.9008   68.2616 H   0  0  0  0  0  0
    1.1623   70.1007   67.3448 H   0  0  0  0  0  0
    0.7701   69.3078   65.8379 H   0  0  0  0  0  0
    3.0024   70.3284   68.9862 H   0  0  0  0  0  0
    5.1847   70.9073   69.9372 H   0  0  0  0  0  0
    7.1886   71.1300   68.5547 H   0  0  0  0  0  0
    7.1345   70.5086   66.1546 H   0  0  0  0  0  0
    1.5622   68.6221   63.7083 H   0  0  0  0  0  0
    5.0918   69.2010   61.5680 H   0  0  0  0  0  0
    6.3429   69.9318   63.5987 H   0  0  0  0  0  0
    3.3300   68.1078   60.6478 H   0  0  0  0  0  0
    1.8309   67.8052   61.5710 H   0  0  0  0  0  0
    2.1817   69.4546   60.9661 H   0  0  0  0  0  0
  1  2  1  0  0  0
  1 38  1  0  0  0
  1 39  1  0  0  0
  1 40  1  0  0  0
  2 14  1  0  0  0
  2  3  2  0  0  0
  3  4  1  0  0  0
  3 41  1  0  0  0
  4  5  2  0  0  0
  4 42  1  0  0  0
  5 13  1  0  0  0
  5  6  1  0  0  0
  6 11  2  0  0  0
  6  7  1  0  0  0
  7  8  2  0  0  0
  7 43  1  0  0  0
  8  9  1  0  0  0
  8 44  1  0  0  0
  9 10  2  0  0  0
  9 45  1  0  0  0
 10 11  1  0  0  0
 10 46  1  0  0  0
 11 12  1  0  0  0
 12 13  1  0  0  0
 12 15  1  0  0  0
 13 14  2  0  0  0
 14 47  1  0  0  0
 15 16  1  0  0  0
 15 48  1  0  0  0
 15 49  1  0  0  0
 16 17  1  0  0  0
 16 50  1  0  0  0
 16 51  1  0  0  0
 17 18  1  0  0  0
 17 52  1  0  0  0
 17 53  1  0  0  0
 18 19  1  0  0  0
 18 54  1  0  0  0
 18 55  1  0  0  0
 19 20  1  0  0  0
 19 56  1  0  0  0
 19 57  1  0  0  0
 20 21  1  0  0  0
 20 58  1  0  0  0
 20 59  1  0  0  0
 21 22  1  0  0  0
 21 60  1  0  0  0
 21 61  1  0  0  0
 22 23  1  0  0  0
 22 62  1  0  0  0
 22 63  1  0  0  0
 23 24  1  0  0  0
 23 64  1  0  0  0
 23 65  1  0  0  0
 24 32  1  0  0  0
 24 25  1  0  0  0
 25 30  2  0  0  0
 25 26  1  0  0  0
 26 27  2  0  0  0
 26 66  1  0  0  0
 27 28  1  0  0  0
 27 67  1  0  0  0
 28 29  2  0  0  0
 28 68  1  0  0  0
 29 30  1  0  0  0
 29 69  1  0  0  0
 30 31  1  0  0  0
 31 36  2  0  0  0
 31 32  1  0  0  0
 32 33  2  0  0  0
 33 34  1  0  0  0
 33 70  1  0  0  0
 34 35  2  0  0  0
 34 37  1  0  0  0
 35 36  1  0  0  0
 35 71  1  0  0  0
 36 72  1  0  0  0
 37 73  1  0  0  0
 37 74  1  0  0  0
 37 75  1  0  0  0
M  CHG  2   2   1  34   1
M  END
> <s_m_entry_id>
9562

> <s_m_entry_name>
ligand_docking-pose.4

> <s_m_Source_Path>
/home/csk/Desktop/cluster/DUD-E-result/aces

> <s_m_Source_File>
ligand_docking-pose.sdf

> <i_m_Source_File_Index>
4

> <i_lp_mmshare_version>
53161

> <r_lp_tautomer_probability>
1

> <s_lp_Force_Field>
OPLS_2005

> <r_lp_Energy>
39.21613

> <b_lp_Chiralities_Consistent>
1

> <s_lp_Variant>
628958-1

> <s_i_glide_gridfile>
glide-grid_1e66

> <i_i_glide_lignum>
1506

> <i_i_glide_rotatable_bonds>
10

> <r_i_docking_score>
-9.86018257828018

> <r_i_glide_ligand_efficiency>
-0.266491421034599

> <r_i_glide_ligand_efficiency_sa>
-0.888008535378832

> <r_i_glide_ligand_efficiency_ln>
-2.13844244575277

> <r_i_glide_gscore>
-9.86018257828018

> <r_i_glide_lipo>
-4.90942591775382

> <r_i_glide_hbond>
0

> <r_i_glide_metal>
0

> <r_i_glide_rewards>
-2.75460627049289

> <r_i_glide_evdw>
-42.5536308288574

> <r_i_glide_ecoul>
-6.09181785583496

> <r_i_glide_erotb>
0.845303829784651

> <r_i_glide_esite>
0

> <r_i_glide_emodel>
-81.3706779142093

> <r_i_glide_energy>
-48.6454486846924

> <r_i_glide_einternal>
3.03890895843506

> <i_i_glide_confnum>
9

> <i_i_glide_posenum>
354

> <r_i_glide_eff_state_penalty>
0

> <i_f3d_flags>
0

> <s_user_duplicate_titles>
628958

> <s_m_subgroup_title>
dock_pv

> <s_m_subgroupid>
dock_pv1

> <b_m_subgroup_collapsed>
1

$$$$
629624
                    3D
 Schrodinger Suite 2021-1.
 48 53  0  0  1  0            999 V2000
    1.1209   69.3111   61.6481 C   0  0  0  0  0  0
    2.4647   68.9499   61.7303 C   0  0  0  0  0  0
    2.9985   68.3658   62.8799 C   0  0  0  0  0  0
    2.1194   68.1458   63.9478 C   0  0  0  0  0  0
    0.7478   68.5087   63.8784 C   0  0  0  0  0  0
    0.2485   69.0989   62.7108 C   0  0  0  0  0  0
    0.1530   68.1922   65.1090 C   0  0  0  0  0  0
   -1.1415   68.3572   65.6317 C   0  0  0  0  0  0
   -1.4232   67.7885   66.8757 C   0  0  0  0  0  0
   -0.4646   67.1357   67.5808 N   0  3  0  0  0  0
    0.8188   67.0465   67.1560 C   0  0  0  0  0  0
    1.1407   67.5656   65.9024 C   0  0  0  0  0  0
    2.3253   67.5844   65.1916 N   0  0  0  0  0  0
   -0.8681   66.3267   68.7570 C   0  0  0  0  0  0
    0.0266   66.4796   70.0169 C   0  0  0  0  0  0
    0.9359   65.3189   70.2326 N   0  3  0  0  0  0
    2.2622   65.5488   70.3664 C   0  0  0  0  0  0
    3.1604   64.5203   70.6510 C   0  0  0  0  0  0
    2.6426   63.2339   70.8514 C   0  0  0  0  0  0
    3.2142   62.0207   71.2526 C   0  0  0  0  0  0
    4.5149   61.6655   71.6289 C   0  0  0  0  0  0
    4.7516   60.3577   72.0346 C   0  0  0  0  0  0
    3.7331   59.4036   72.0434 C   0  0  0  0  0  0
    2.4311   59.7175   71.6496 C   0  0  0  0  0  0
    2.1838   61.0427   71.2738 C   0  0  0  0  0  0
    1.0147   61.6742   70.8970 N   0  0  0  0  0  0
    1.2554   63.0164   70.6773 C   0  0  0  0  0  0
    0.4022   64.0740   70.3550 C   0  0  0  0  0  0
    3.2112   67.2332   65.5245 H   0  0  0  0  0  0
    0.1123   61.2224   70.8325 H   0  0  0  0  0  0
    0.7440   69.7897   60.7598 H   0  0  0  0  0  0
    3.1145   69.1361   60.8871 H   0  0  0  0  0  0
    4.0451   68.1018   62.9309 H   0  0  0  0  0  0
   -0.7876   69.3970   62.6418 H   0  0  0  0  0  0
   -1.9172   68.8458   65.0592 H   0  0  0  0  0  0
   -2.4205   67.8039   67.2944 H   0  0  0  0  0  0
    1.5174   66.5080   67.7736 H   0  0  0  0  0  0
   -1.9037   66.5717   69.0018 H   0  0  0  0  0  0
   -0.8570   65.3094   68.3686 H   0  0  0  0  0  0
    0.6096   67.4041   69.9958 H   0  0  0  0  0  0
   -0.5707   66.5307   70.9285 H   0  0  0  0  0  0
    2.5827   66.5744   70.2896 H   0  0  0  0  0  0
    4.2144   64.7289   70.7693 H   0  0  0  0  0  0
    5.3103   62.3947   71.6437 H   0  0  0  0  0  0
    5.7460   60.1082   72.3646 H   0  0  0  0  0  0
    3.9431   58.3965   72.3768 H   0  0  0  0  0  0
    1.6489   58.9716   71.6701 H   0  0  0  0  0  0
   -0.6564   63.9532   70.2052 H   0  0  0  0  0  0
  1  6  1  0  0  0
  1  2  2  0  0  0
  1 31  1  0  0  0
  2  3  1  0  0  0
  2 32  1  0  0  0
  3  4  2  0  0  0
  3 33  1  0  0  0
  4 13  1  0  0  0
  4  5  1  0  0  0
  5  6  2  0  0  0
  5  7  1  0  0  0
  6 34  1  0  0  0
  7 12  2  0  0  0
  7  8  1  0  0  0
  8  9  2  0  0  0
  8 35  1  0  0  0
  9 10  1  0  0  0
  9 36  1  0  0  0
 10 11  2  0  0  0
 10 14  1  0  0  0
 11 12  1  0  0  0
 11 37  1  0  0  0
 12 13  1  0  0  0
 13 29  1  0  0  0
 14 15  1  0  0  0
 14 38  1  0  0  0
 14 39  1  0  0  0
 15 16  1  0  0  0
 15 40  1  0  0  0
 15 41  1  0  0  0
 16 28  1  0  0  0
 16 17  2  0  0  0
 17 18  1  0  0  0
 17 42  1  0  0  0
 18 19  2  0  0  0
 18 43  1  0  0  0
 19 27  1  0  0  0
 19 20  1  0  0  0
 20 25  2  0  0  0
 20 21  1  0  0  0
 21 22  2  0  0  0
 21 44  1  0  0  0
 22 23  1  0  0  0
 22 45  1  0  0  0
 23 24  2  0  0  0
 23 46  1  0  0  0
 24 25  1  0  0  0
 24 47  1  0  0  0
 25 26  1  0  0  0
 26 30  1  0  0  0
 26 27  1  0  0  0
 27 28  2  0  0  0
 28 48  1  0  0  0
M  CHG  2  10   1  16   1
M  END
> <s_m_entry_id>
9565

> <s_m_entry_name>
ligand_docking-pose.7

> <s_m_Source_Path>
/home/csk/Desktop/cluster/DUD-E-result/aces

> <s_m_Source_File>
ligand_docking-pose.sdf

> <i_m_Source_File_Index>
7

> <i_lp_mmshare_version>
53161

> <r_lp_tautomer_probability>
1

> <s_lp_Force_Field>
OPLS_2005

> <r_lp_Energy>
36.856653

> <b_lp_Chiralities_Consistent>
1

> <s_lp_Variant>
629624-1

> <s_i_glide_gridfile>
glide-grid_1e66

> <i_i_glide_lignum>
74

> <i_i_glide_rotatable_bonds>
3

> <r_i_docking_score>
-9.67421037083503

> <r_i_glide_ligand_efficiency>
-0.345507513244108

> <r_i_glide_ligand_efficiency_sa>
-1.0491643032519

> <r_i_glide_ligand_efficiency_ln>
-2.23309180074783

> <r_i_glide_gscore>
-9.67421037083503

> <r_i_glide_lipo>
-5.29062541346524

> <r_i_glide_hbond>
0

> <r_i_glide_metal>
0

> <r_i_glide_rewards>
-1.92314187985111

> <r_i_glide_evdw>
-44.7735862731934

> <r_i_glide_ecoul>
-4.37333679199219

> <r_i_glide_erotb>
0.43423675493982

> <r_i_glide_esite>
0

> <r_i_glide_emodel>
-83.1316642787258

> <r_i_glide_energy>
-49.1469230651855

> <r_i_glide_einternal>
5.51913118362427

> <i_i_glide_confnum>
17

> <i_i_glide_posenum>
269

> <r_i_glide_eff_state_penalty>
0

> <i_f3d_flags>
0

> <s_user_duplicate_titles>
629624

> <s_m_subgroup_title>
dock_pv

> <s_m_subgroupid>
dock_pv1

> <b_m_subgroup_collapsed>
1

$$$$
630882
                    3D
 Schrodinger Suite 2021-1.
 56 60  0  0  1  0            999 V2000
    2.2734   63.2901   70.5895 C   0  0  0  0  0  0
    0.9042   63.1909   70.3544 C   0  0  0  0  0  0
    0.1892   64.3222   69.9682 C   0  0  0  0  0  0
    0.8281   65.5591   69.8408 C   0  0  0  0  0  0
    2.2017   65.6411   70.0723 C   0  0  0  0  0  0
    2.9276   64.5103   70.4417 C   0  0  0  0  0  0
    0.0503   66.7959   69.3785 C   0  0  0  0  0  0
   -0.2328   66.8355   67.9337 N   0  0  1  0  0  0
   -1.2489   67.8472   67.5874 C   0  0  0  0  0  0
   -1.5913   67.8351   66.0811 C   0  0  0  0  0  0
   -0.3401   68.0562   65.1998 C   0  0  0  0  0  0
    0.6727   66.9579   65.6138 C   0  0  0  0  0  0
    0.9860   66.9756   67.1239 C   0  0  0  0  0  0
   -0.5810   68.1103   63.6567 C   0  0  0  0  0  0
    0.1592   69.1932   62.8411 C   0  0  0  0  0  0
    1.6671   69.0156   62.7507 C   0  0  0  0  0  0
    2.6736   69.1555   63.7607 C   0  0  0  0  0  0
    2.7441   69.4053   65.1423 C   0  0  0  0  0  0
    3.9600   69.6845   65.7558 C   0  0  0  0  0  0
    5.1215   69.6265   64.9708 C   0  0  0  0  0  0
    5.1204   69.2439   63.6288 C   0  0  0  0  0  0
    3.8708   69.0420   63.0478 C   0  0  0  0  0  0
    3.6098   68.7596   61.7434 O   0  0  0  0  0  0
    2.2203   68.7625   61.5809 N   0  0  0  0  0  0
    6.3430   69.9247   65.5683 N   0  0  0  0  0  0
    6.5282   69.9250   67.0211 C   0  0  0  0  0  0
    5.3541   70.6869   67.6256 C   0  0  0  0  0  0
    5.4978   71.6538   68.3679 O   0  0  0  0  0  0
    3.9858   70.1214   67.2322 C   0  0  0  0  0  0
    2.8313   62.4135   70.8830 H   0  0  0  0  0  0
    0.4013   62.2400   70.4527 H   0  0  0  0  0  0
   -0.8580   64.2310   69.7409 H   0  0  0  0  0  0
    2.7109   66.5866   69.9711 H   0  0  0  0  0  0
    3.9901   64.5874   70.6218 H   0  0  0  0  0  0
    0.5914   67.7004   69.6632 H   0  0  0  0  0  0
   -0.8867   66.7929   69.9321 H   0  0  0  0  0  0
   -0.9070   68.8346   67.9044 H   0  0  0  0  0  0
   -2.1599   67.6379   68.1513 H   0  0  0  0  0  0
   -2.3272   68.6105   65.8632 H   0  0  0  0  0  0
   -2.1138   66.9086   65.8762 H   0  0  0  0  0  0
   -0.0089   69.0349   65.5184 H   0  0  0  0  0  0
    0.3479   65.9627   65.3180 H   0  0  0  0  0  0
    1.5986   67.0659   65.0569 H   0  0  0  0  0  0
    1.5073   67.8910   67.4073 H   0  0  0  0  0  0
    1.6604   66.1504   67.3505 H   0  0  0  0  0  0
   -1.6502   68.2141   63.4663 H   0  0  0  0  0  0
   -0.2705   67.1951   63.1680 H   0  0  0  0  0  0
   -0.0928   70.1971   63.1682 H   0  0  0  0  0  0
   -0.2599   69.1640   61.8344 H   0  0  0  0  0  0
    1.8739   69.5305   65.7509 H   0  0  0  0  0  0
    6.0291   69.1823   63.0472 H   0  0  0  0  0  0
    7.2082   69.8964   65.0263 H   0  0  0  0  0  0
    6.5229   68.9080   67.3989 H   0  0  0  0  0  0
    7.4684   70.4042   67.2965 H   0  0  0  0  0  0
    3.7521   69.3036   67.9025 H   0  0  0  0  0  0
    3.2434   70.8900   67.4358 H   0  0  0  0  0  0
  1  6  1  0  0  0
  1  2  2  0  0  0
  1 30  1  0  0  0
  2  3  1  0  0  0
  2 31  1  0  0  0
  3  4  2  0  0  0
  3 32  1  0  0  0
  4  5  1  0  0  0
  4  7  1  0  0  0
  5  6  2  0  0  0
  5 33  1  0  0  0
  6 34  1  0  0  0
  7  8  1  0  0  0
  7 35  1  0  0  0
  7 36  1  0  0  0
  8 13  1  0  0  0
  8  9  1  0  0  0
  9 10  1  0  0  0
  9 37  1  0  0  0
  9 38  1  0  0  0
 10 11  1  0  0  0
 10 39  1  0  0  0
 10 40  1  0  0  0
 11 12  1  0  0  0
 11 14  1  0  0  0
 11 41  1  0  0  0
 12 13  1  0  0  0
 12 42  1  0  0  0
 12 43  1  0  0  0
 13 44  1  0  0  0
 13 45  1  0  0  0
 14 15  1  0  0  0
 14 46  1  0  0  0
 14 47  1  0  0  0
 15 16  1  0  0  0
 15 48  1  0  0  0
 15 49  1  0  0  0
 16 24  2  0  0  0
 16 17  1  0  0  0
 17 22  2  0  0  0
 17 18  1  0  0  0
 18 19  2  0  0  0
 18 50  1  0  0  0
 19 29  1  0  0  0
 19 20  1  0  0  0
 20 21  2  0  0  0
 20 25  1  0  0  0
 21 22  1  0  0  0
 21 51  1  0  0  0
 22 23  1  0  0  0
 23 24  1  0  0  0
 25 26  1  0  0  0
 25 52  1  0  0  0
 26 27  1  0  0  0
 26 53  1  0  0  0
 26 54  1  0  0  0
 27 28  2  0  0  0
 27 29  1  0  0  0
 29 55  1  0  0  0
 29 56  1  0  0  0
M  END
> <s_m_entry_id>
9566

> <s_m_entry_name>
ligand_docking-pose.8

> <s_m_Source_Path>
/home/csk/Desktop/cluster/DUD-E-result/aces

> <s_m_Source_File>
ligand_docking-pose.sdf

> <i_m_Source_File_Index>
8

> <i_lp_mmshare_version>
53161

> <r_lp_tautomer_probability>
0.99999998

> <s_lp_Force_Field>
OPLS_2005

> <r_lp_Energy>
38.101475

> <b_lp_Chiralities_Consistent>
1

> <s_lp_Variant>
630882-1

> <s_i_glide_gridfile>
glide-grid_1e66

> <i_i_glide_lignum>
330

> <i_i_glide_rotatable_bonds>
5

> <r_i_docking_score>
-9.60476318240496

> <r_i_glide_ligand_efficiency>
-0.331198730427757

> <r_i_glide_ligand_efficiency_sa>
-1.01754743099686

> <r_i_glide_ligand_efficiency_ln>
-2.199247212991

> <r_i_glide_gscore>
-9.60476318240496

> <r_i_glide_lipo>
-4.58057572996524

> <r_i_glide_hbond>
-0.32

> <r_i_glide_metal>
0

> <r_i_glide_rewards>
-2.83999160146316

> <r_i_glide_evdw>
-39.254753112793

> <r_i_glide_ecoul>
-3.51613521575928

> <r_i_glide_erotb>
0.642533525595938

> <r_i_glide_esite>
-0.0165714385689553

> <r_i_glide_emodel>
-57.7089591040079

> <r_i_glide_energy>
-42.7708883285522

> <r_i_glide_einternal>
3.00047874450684

> <i_i_glide_confnum>
83

> <i_i_glide_posenum>
32

> <r_i_glide_eff_state_penalty>
0

> <i_f3d_flags>
0

> <s_user_duplicate_titles>
630882

> <s_m_subgroup_title>
dock_pv

> <s_m_subgroupid>
dock_pv1

> <b_m_subgroup_collapsed>
1

$$$$
267874
                    3D
 Schrodinger Suite 2021-1.
 56 58  0  0  1  0            999 V2000
    2.2066   62.8242   70.4594 C   0  0  0  0  0  0
    2.9656   63.9884   70.5542 C   0  0  0  0  0  0
    2.3528   65.2241   70.3661 C   0  0  0  0  0  0
    0.9827   65.2982   70.0963 C   0  0  0  0  0  0
    0.2358   64.1238   69.9697 C   0  0  0  0  0  0
    0.8451   62.8863   70.1670 C   0  0  0  0  0  0
    0.3380   66.6541   69.8524 C   0  0  0  0  0  0
    0.5632   67.1011   68.4720 N   0  0  1  0  0  0
   -0.6540   67.0775   67.6555 C   0  0  0  0  0  0
   -0.3186   67.2350   66.1649 C   0  0  0  0  0  0
    0.6901   68.3498   65.8064 C   0  0  0  0  0  0
    1.6487   68.7296   66.9512 C   0  0  0  0  0  0
    1.1686   68.4296   68.3861 C   0  0  0  0  0  0
    1.3394   68.1788   64.4063 C   0  0  0  0  0  0
    2.5280   69.1015   64.0560 C   0  0  0  0  0  0
    3.8196   68.6294   64.5602 N   0  0  0  0  0  0
    5.0428   68.9210   63.9868 C   0  0  0  0  0  0
    5.4132   68.5206   62.7533 C   0  0  0  0  0  0
    4.5129   67.6769   61.9736 N   0  3  0  0  0  0
    4.5962   66.4673   62.1749 O   0  5  0  0  0  0
    3.7676   68.2387   61.1773 O   0  0  0  0  0  0
    5.9426   69.6336   64.7672 N   0  0  0  0  0  0
    5.9074   70.0335   66.1174 C   0  0  0  0  0  0
    7.0993   70.0657   66.8353 C   0  0  0  0  0  0
    7.1127   70.5078   68.1587 C   0  0  0  0  0  0
    5.9346   70.9105   68.7664 C   0  0  0  0  0  0
    4.7416   70.8984   68.0642 C   0  0  0  0  0  0
    4.7412   70.4556   66.7462 C   0  0  0  0  0  0
    2.6773   61.8634   70.6102 H   0  0  0  0  0  0
    4.0224   63.9357   70.7738 H   0  0  0  0  0  0
    2.9423   66.1292   70.4336 H   0  0  0  0  0  0
   -0.8161   64.1651   69.7260 H   0  0  0  0  0  0
    0.2647   61.9784   70.0848 H   0  0  0  0  0  0
    0.7585   67.3527   70.5748 H   0  0  0  0  0  0
   -0.7300   66.5858   70.0650 H   0  0  0  0  0  0
   -1.3825   67.8252   67.9751 H   0  0  0  0  0  0
   -1.1352   66.1087   67.7846 H   0  0  0  0  0  0
   -1.2240   67.3206   65.5691 H   0  0  0  0  0  0
    0.1155   66.2711   65.8978 H   0  0  0  0  0  0
    0.0448   69.2292   65.7582 H   0  0  0  0  0  0
    2.5358   68.1162   66.8013 H   0  0  0  0  0  0
    1.9708   69.7625   66.8653 H   0  0  0  0  0  0
    0.4906   69.1951   68.7672 H   0  0  0  0  0  0
    2.0455   68.4513   69.0351 H   0  0  0  0  0  0
    0.5635   68.3140   63.6505 H   0  0  0  0  0  0
    1.6668   67.1432   64.2902 H   0  0  0  0  0  0
    2.3441   70.1066   64.4237 H   0  0  0  0  0  0
    2.5576   69.2139   62.9740 H   0  0  0  0  0  0
    3.8162   68.5891   65.5695 H   0  0  0  0  0  0
    6.3398   68.7292   62.2425 H   0  0  0  0  0  0
    6.9011   69.6567   64.4241 H   0  0  0  0  0  0
    8.0022   69.7073   66.3692 H   0  0  0  0  0  0
    8.0023   70.4909   68.7584 H   0  0  0  0  0  0
    5.9546   71.2211   69.7972 H   0  0  0  0  0  0
    3.8250   71.2286   68.5306 H   0  0  0  0  0  0
    3.8255   70.5083   66.1885 H   0  0  0  0  0  0
  1  6  1  0  0  0
  1  2  2  0  0  0
  1 29  1  0  0  0
  2  3  1  0  0  0
  2 30  1  0  0  0
  3  4  2  0  0  0
  3 31  1  0  0  0
  4  5  1  0  0  0
  4  7  1  0  0  0
  5  6  2  0  0  0
  5 32  1  0  0  0
  6 33  1  0  0  0
  7  8  1  0  0  0
  7 34  1  0  0  0
  7 35  1  0  0  0
  8 13  1  0  0  0
  8  9  1  0  0  0
  9 10  1  0  0  0
  9 36  1  0  0  0
  9 37  1  0  0  0
 10 11  1  0  0  0
 10 38  1  0  0  0
 10 39  1  0  0  0
 11 12  1  0  0  0
 11 14  1  0  0  0
 11 40  1  0  0  0
 12 13  1  0  0  0
 12 41  1  0  0  0
 12 42  1  0  0  0
 13 43  1  0  0  0
 13 44  1  0  0  0
 14 15  1  0  0  0
 14 45  1  0  0  0
 14 46  1  0  0  0
 15 16  1  0  0  0
 15 47  1  0  0  0
 15 48  1  0  0  0
 16 17  1  0  0  0
 16 49  1  0  0  0
 17 18  2  0  0  0
 17 22  1  0  0  0
 18 19  1  0  0  0
 18 50  1  0  0  0
 19 20  1  0  0  0
 19 21  2  0  0  0
 22 23  1  0  0  0
 22 51  1  0  0  0
 23 28  1  0  0  0
 23 24  2  0  0  0
 24 25  1  0  0  0
 24 52  1  0  0  0
 25 26  2  0  0  0
 25 53  1  0  0  0
 26 27  1  0  0  0
 26 54  1  0  0  0
 27 28  2  0  0  0
 27 55  1  0  0  0
 28 56  1  0  0  0
M  CHG  2  19   1  20  -1
M  END
> <s_m_entry_id>
9570

> <s_m_entry_name>
ligand_docking-pose.12

> <s_m_Source_Path>
/home/csk/Desktop/cluster/DUD-E-result/aces

> <s_m_Source_File>
ligand_docking-pose.sdf

> <i_m_Source_File_Index>
12

> <i_lp_mmshare_version>
53161

> <r_lp_tautomer_probability>
1

> <s_lp_Force_Field>
OPLS_2005

> <r_lp_Energy>
42.377331

> <b_lp_Chiralities_Consistent>
1

> <s_lp_Variant>
267874-1

> <s_i_glide_gridfile>
glide-grid_1e66

> <i_i_glide_lignum>
419

> <i_i_glide_rotatable_bonds>
9

> <r_i_docking_score>
-9.49296162316444

> <r_i_glide_ligand_efficiency>
-0.339034343684444

> <r_i_glide_ligand_efficiency_sa>
-1.02950794797578

> <r_i_glide_ligand_efficiency_ln>
-2.19125426809099

> <r_i_glide_gscore>
-9.49296162316444

> <r_i_glide_lipo>
-4.31816648100332

> <r_i_glide_hbond>
-0.32

> <r_i_glide_metal>
0

> <r_i_glide_rewards>
-2.37411813853429

> <r_i_glide_evdw>
-43.2953033447266

> <r_i_glide_ecoul>
-8.04097652435303

> <r_i_glide_erotb>
1.07211687828911

> <r_i_glide_esite>
-0.181882236026662

> <r_i_glide_emodel>
-67.8136882300267

> <r_i_glide_energy>
-51.3362798690796

> <r_i_glide_einternal>
16.7747783660889

> <i_i_glide_confnum>
20

> <i_i_glide_posenum>
250

> <r_i_glide_eff_state_penalty>
0

> <i_f3d_flags>
0

> <s_user_duplicate_titles>
267874

> <s_m_subgroup_title>
dock_pv

> <s_m_subgroupid>
dock_pv1

> <b_m_subgroup_collapsed>
1

$$$$
509508
                    3D
 Schrodinger Suite 2021-1.
 82 86  0  0  1  0            999 V2000
    4.5560   70.7142   68.1668 C   0  0  0  0  0  0
    5.8595   70.7918   67.6891 C   0  0  0  0  0  0
    6.1728   70.2634   66.4394 C   0  0  0  0  0  0
    5.1903   69.6397   65.6671 C   0  0  0  0  0  0
    3.8580   69.5410   66.1339 C   0  0  0  0  0  0
    3.5630   70.1078   67.3945 C   0  0  0  0  0  0
    2.8318   68.8151   65.3242 C   0  0  0  0  0  0
    3.1477   68.6958   63.8123 C   0  0  1  0  0  0
    2.0355   69.2355   62.8716 C   0  0  0  0  0  0
    2.3384   68.8882   61.4067 C   0  0  0  0  0  0
    3.7173   69.4231   60.9718 C   0  0  0  0  0  0
    4.8466   69.0545   61.9675 C   0  0  0  0  0  0
    4.4565   69.4414   63.4079 C   0  0  2  0  0  0
    5.5430   69.2367   64.3655 N   0  0  0  0  0  0
    1.8188   68.3221   65.9393 N   0  0  0  0  0  0
    0.8157   67.5010   65.2629 C   0  0  0  0  0  0
   -0.5514   68.2335   65.2063 C   0  0  0  0  0  0
   -1.6308   67.7823   66.2103 C   0  0  0  0  0  0
   -1.2737   67.8598   67.7072 C   0  0  0  0  0  0
   -0.2449   66.8085   68.1668 C   0  0  0  0  0  0
   -0.1849   66.5042   69.6663 C   0  0  0  0  0  0
    0.5274   65.1524   69.8909 C   0  0  0  0  0  0
    0.5371   64.6565   71.3455 C   0  0  0  0  0  0
    1.4817   63.5595   71.5534 N   0  0  2  0  0  0
    1.1093   62.2942   70.9164 C   0  0  2  0  0  0
    0.1333   61.4623   71.7783 C   0  0  0  0  0  0
    0.7931   60.7241   72.9553 C   0  0  0  0  0  0
    1.8682   59.8594   72.4782 N   0  0  1  0  0  0
    2.9091   60.5373   71.7031 C   0  0  1  0  0  0
    2.3250   61.3900   70.5323 C   0  0  2  0  0  0
    3.4603   62.1136   69.7514 C   0  0  0  0  0  0
    4.4874   62.8485   70.6456 C   0  0  0  0  0  0
    5.0223   61.9486   71.7781 C   0  0  0  0  0  0
    3.8743   61.3377   72.6055 C   0  0  0  0  0  0
    4.3072   71.1231   69.1350 H   0  0  0  0  0  0
    6.6256   71.2722   68.2814 H   0  0  0  0  0  0
    7.1799   70.3578   66.0610 H   0  0  0  0  0  0
    2.5604   70.0530   67.7952 H   0  0  0  0  0  0
    1.8578   70.2843   63.0700 H   0  0  0  0  0  0
    1.0525   68.8304   63.0806 H   0  0  0  0  0  0
    2.3241   67.8054   61.2924 H   0  0  0  0  0  0
    1.5544   69.2789   60.7595 H   0  0  0  0  0  0
    3.9430   69.0490   59.9749 H   0  0  0  0  0  0
    3.6700   70.5081   60.8800 H   0  0  0  0  0  0
    5.0622   67.9860   61.9068 H   0  0  0  0  0  0
    5.7668   69.5621   61.6712 H   0  0  0  0  0  0
    4.2627   70.5130   63.4106 H   0  0  0  0  0  0
    6.4573   69.5156   64.0268 H   0  0  0  0  0  0
    3.2946   67.6321   63.6225 H   0  0  0  0  0  0
    1.1154   67.1567   64.2740 H   0  0  0  0  0  0
    0.7218   66.5411   65.7662 H   0  0  0  0  0  0
   -0.4314   69.3081   65.3083 H   0  0  0  0  0  0
   -0.9661   68.1077   64.2071 H   0  0  0  0  0  0
   -2.5144   68.4001   66.0457 H   0  0  0  0  0  0
   -1.9532   66.7727   65.9707 H   0  0  0  0  0  0
   -0.9289   68.8631   67.9659 H   0  0  0  0  0  0
   -2.2045   67.6982   68.2556 H   0  0  0  0  0  0
   -0.4569   65.8844   67.6300 H   0  0  0  0  0  0
    0.7592   67.1059   67.8849 H   0  0  0  0  0  0
    0.3428   67.3041   70.1888 H   0  0  0  0  0  0
   -1.1952   66.5080   70.0658 H   0  0  0  0  0  0
    0.0611   64.3999   69.2487 H   0  0  0  0  0  0
    1.5569   65.2459   69.5369 H   0  0  0  0  0  0
    0.8405   65.4939   71.9685 H   0  0  0  0  0  0
   -0.4572   64.3821   71.6905 H   0  0  0  0  0  0
    1.6768   63.4089   72.5322 H   0  0  0  0  0  0
    0.6208   62.4587   69.9561 H   0  0  0  0  0  0
   -0.6392   62.1210   72.1777 H   0  0  0  0  0  0
   -0.4565   60.7781   71.1685 H   0  0  0  0  0  0
    1.1810   61.4310   73.6898 H   0  0  0  0  0  0
    0.0533   60.1054   73.4651 H   0  0  0  0  0  0
    2.2792   59.3326   73.2367 H   0  0  0  0  0  0
    3.5313   59.7613   71.2521 H   0  0  0  0  0  0
    1.9221   60.6404   69.8474 H   0  0  0  0  0  0
    4.0054   61.3634   69.1769 H   0  0  0  0  0  0
    3.0402   62.7814   68.9975 H   0  0  0  0  0  0
    4.0388   63.7413   71.0790 H   0  0  0  0  0  0
    5.3123   63.2184   70.0367 H   0  0  0  0  0  0
    5.6899   62.5080   72.4335 H   0  0  0  0  0  0
    5.6285   61.1476   71.3505 H   0  0  0  0  0  0
    3.3431   62.1307   73.1302 H   0  0  0  0  0  0
    4.2953   60.6889   73.3754 H   0  0  0  0  0  0
  1  6  1  0  0  0
  1  2  2  0  0  0
  1 35  1  0  0  0
  2  3  1  0  0  0
  2 36  1  0  0  0
  3  4  2  0  0  0
  3 37  1  0  0  0
  4 14  1  0  0  0
  4  5  1  0  0  0
  5  6  2  0  0  0
  5  7  1  0  0  0
  6 38  1  0  0  0
  7  8  1  0  0  0
  7 15  2  0  0  0
  8 13  1  0  0  0
  8  9  1  0  0  0
  8 49  1  0  0  0
  9 10  1  0  0  0
  9 39  1  0  0  0
  9 40  1  0  0  0
 10 11  1  0  0  0
 10 41  1  0  0  0
 10 42  1  0  0  0
 11 12  1  0  0  0
 11 43  1  0  0  0
 11 44  1  0  0  0
 12 13  1  0  0  0
 12 45  1  0  0  0
 12 46  1  0  0  0
 13 14  1  0  0  0
 13 47  1  0  0  0
 14 48  1  0  0  0
 15 16  1  0  0  0
 16 17  1  0  0  0
 16 50  1  0  0  0
 16 51  1  0  0  0
 17 18  1  0  0  0
 17 52  1  0  0  0
 17 53  1  0  0  0
 18 19  1  0  0  0
 18 54  1  0  0  0
 18 55  1  0  0  0
 19 20  1  0  0  0
 19 56  1  0  0  0
 19 57  1  0  0  0
 20 21  1  0  0  0
 20 58  1  0  0  0
 20 59  1  0  0  0
 21 22  1  0  0  0
 21 60  1  0  0  0
 21 61  1  0  0  0
 22 23  1  0  0  0
 22 62  1  0  0  0
 22 63  1  0  0  0
 23 24  1  0  0  0
 23 64  1  0  0  0
 23 65  1  0  0  0
 24 25  1  0  0  0
 24 66  1  0  0  0
 25 30  1  0  0  0
 25 26  1  0  0  0
 25 67  1  0  0  0
 26 27  1  0  0  0
 26 68  1  0  0  0
 26 69  1  0  0  0
 27 28  1  0  0  0
 27 70  1  0  0  0
 27 71  1  0  0  0
 28 29  1  0  0  0
 28 72  1  0  0  0
 29 34  1  0  0  0
 29 30  1  0  0  0
 29 73  1  0  0  0
 30 31  1  0  0  0
 30 74  1  0  0  0
 31 32  1  0  0  0
 31 75  1  0  0  0
 31 76  1  0  0  0
 32 33  1  0  0  0
 32 77  1  0  0  0
 32 78  1  0  0  0
 33 34  1  0  0  0
 33 79  1  0  0  0
 33 80  1  0  0  0
 34 81  1  0  0  0
 34 82  1  0  0  0
M  END
> <s_m_entry_id>
9571

> <s_m_entry_name>
ligand_docking-pose.13

> <s_m_Source_Path>
/home/csk/Desktop/cluster/DUD-E-result/aces

> <s_m_Source_File>
ligand_docking-pose.sdf

> <i_m_Source_File_Index>
13

> <i_lp_mmshare_version>
53161

> <r_lp_tautomer_probability>
0.4999964999755

> <s_lp_Force_Field>
OPLS_2005

> <r_lp_Energy>
53.630325

> <b_lp_Chiralities_Consistent>
1

> <s_lp_Variant>
509508-29

> <s_i_glide_gridfile>
glide-grid_1e66

> <i_i_glide_lignum>
112

> <i_i_glide_rotatable_bonds>
10

> <r_i_docking_score>
-9.48230146507547

> <r_i_glide_ligand_efficiency>
-0.278891219561043

> <r_i_glide_ligand_efficiency_sa>
-0.903499285100604

> <r_i_glide_ligand_efficiency_ln>
-2.09490636318228

> <r_i_glide_gscore>
-9.48230146507547

> <r_i_glide_lipo>
-5.74250847394291

> <r_i_glide_hbond>
-0.236138014769132

> <r_i_glide_metal>
0

> <r_i_glide_rewards>
-1.7959425481205

> <r_i_glide_evdw>
-50.2312660217285

> <r_i_glide_ecoul>
-0.242149382829666

> <r_i_glide_erotb>
0.840173280267954

> <r_i_glide_esite>
0

> <r_i_glide_emodel>
-75.9205927115226

> <r_i_glide_energy>
-50.4734154045582

> <r_i_glide_einternal>
6.64862489700317

> <i_i_glide_confnum>
2

> <i_i_glide_posenum>
329

> <r_i_glide_eff_state_penalty>
0

> <i_f3d_flags>
0

> <s_user_duplicate_titles>
509508

> <s_m_subgroup_title>
dock_pv

> <s_m_subgroupid>
dock_pv1

> <b_m_subgroup_collapsed>
1

$$$$
489864
                    3D
 Schrodinger Suite 2021-1.
 56 58  0  0  1  0            999 V2000
    0.5389   60.0669   71.9794 C   0  0  0  0  0  0
    1.8470   60.6840   71.4845 C   0  0  0  0  0  0
    3.0072   59.9854   71.3785 C   0  0  0  0  0  0
    4.2495   60.6447   70.9024 C   0  0  0  0  0  0
    5.3600   60.1265   70.7681 O   0  0  0  0  0  0
    4.1726   61.9914   70.5693 O   0  0  0  0  0  0
    2.9903   62.7110   70.6632 C   0  0  0  0  0  0
    1.8032   62.1221   71.1207 C   0  0  0  0  0  0
    0.6494   62.9122   71.1969 C   0  0  0  0  0  0
    0.6814   64.2500   70.8095 C   0  0  0  0  0  0
    1.8584   64.8353   70.3219 C   0  0  0  0  0  0
    3.0184   64.0550   70.2749 C   0  0  0  0  0  0
    1.9414   66.1433   69.8761 O   0  0  0  0  0  0
    0.7397   66.8786   69.6023 C   0  0  0  0  0  0
    0.9999   68.0194   68.5909 C   0  0  0  0  0  0
   -0.0873   68.2065   67.5078 C   0  0  0  0  0  0
   -0.1422   67.0634   66.4751 C   0  0  0  0  0  0
    1.0652   66.9971   65.7104 O   0  0  0  0  0  0
    1.2242   67.7603   64.5698 C   0  0  0  0  0  0
    2.4978   67.7579   63.9985 C   0  0  0  0  0  0
    2.7904   68.4809   62.8308 C   0  0  0  0  0  0
    1.7473   69.2048   62.2353 C   0  0  0  0  0  0
    0.4875   69.2542   62.8117 C   0  0  0  0  0  0
    0.2154   68.5217   63.9633 C   0  0  0  0  0  0
   -0.4570   70.0825   62.2740 O   0  0  0  0  0  0
    4.0943   68.4946   62.2659 N   0  0  0  0  0  0
    5.2227   67.8731   62.9580 C   0  0  0  0  0  0
    4.4300   69.5652   61.3237 C   0  0  0  0  0  0
    3.1625   58.4832   71.6427 C   0  0  0  0  0  0
    0.6246   59.0280   72.2885 H   0  0  0  0  0  0
    0.1697   60.6135   72.8467 H   0  0  0  0  0  0
   -0.2182   60.1150   71.1971 H   0  0  0  0  0  0
   -0.2879   62.5058   71.5473 H   0  0  0  0  0  0
   -0.2247   64.8230   70.8902 H   0  0  0  0  0  0
    3.9365   64.4958   69.9153 H   0  0  0  0  0  0
    0.3477   67.3042   70.5283 H   0  0  0  0  0  0
   -0.0314   66.2199   69.2040 H   0  0  0  0  0  0
    1.9428   67.8863   68.0777 H   0  0  0  0  0  0
    1.1404   68.9451   69.1418 H   0  0  0  0  0  0
    0.0904   69.1458   66.9818 H   0  0  0  0  0  0
   -1.0688   68.3138   67.9678 H   0  0  0  0  0  0
   -1.0414   67.1465   65.8712 H   0  0  0  0  0  0
   -0.2552   66.1086   66.9834 H   0  0  0  0  0  0
    3.2615   67.1853   64.4985 H   0  0  0  0  0  0
    1.9055   69.7795   61.3362 H   0  0  0  0  0  0
   -0.7763   68.5802   64.3812 H   0  0  0  0  0  0
   -1.1481   70.3189   62.9077 H   0  0  0  0  0  0
    4.9968   66.8479   63.2536 H   0  0  0  0  0  0
    5.4673   68.4333   63.8629 H   0  0  0  0  0  0
    6.1107   67.8458   62.3229 H   0  0  0  0  0  0
    3.9535   69.3892   60.3579 H   0  0  0  0  0  0
    4.0611   70.5079   61.7132 H   0  0  0  0  0  0
    5.5007   69.7082   61.1712 H   0  0  0  0  0  0
    3.4530   58.3121   72.6803 H   0  0  0  0  0  0
    2.2461   57.9295   71.4493 H   0  0  0  0  0  0
    3.9177   58.0173   71.0069 H   0  0  0  0  0  0
  1  2  1  0  0  0
  1 30  1  0  0  0
  1 31  1  0  0  0
  1 32  1  0  0  0
  2  8  1  0  0  0
  2  3  2  0  0  0
  3  4  1  0  0  0
  3 29  1  0  0  0
  4  5  2  0  0  0
  4  6  1  0  0  0
  6  7  1  0  0  0
  7 12  1  0  0  0
  7  8  2  0  0  0
  8  9  1  0  0  0
  9 10  2  0  0  0
  9 33  1  0  0  0
 10 11  1  0  0  0
 10 34  1  0  0  0
 11 12  2  0  0  0
 11 13  1  0  0  0
 12 35  1  0  0  0
 13 14  1  0  0  0
 14 15  1  0  0  0
 14 36  1  0  0  0
 14 37  1  0  0  0
 15 16  1  0  0  0
 15 38  1  0  0  0
 15 39  1  0  0  0
 16 17  1  0  0  0
 16 40  1  0  0  0
 16 41  1  0  0  0
 17 18  1  0  0  0
 17 42  1  0  0  0
 17 43  1  0  0  0
 18 19  1  0  0  0
 19 24  1  0  0  0
 19 20  2  0  0  0
 20 21  1  0  0  0
 20 44  1  0  0  0
 21 22  2  0  0  0
 21 26  1  0  0  0
 22 23  1  0  0  0
 22 45  1  0  0  0
 23 24  2  0  0  0
 23 25  1  0  0  0
 24 46  1  0  0  0
 25 47  1  0  0  0
 26 27  1  0  0  0
 26 28  1  0  0  0
 27 48  1  0  0  0
 27 49  1  0  0  0
 27 50  1  0  0  0
 28 51  1  0  0  0
 28 52  1  0  0  0
 28 53  1  0  0  0
 29 54  1  0  0  0
 29 55  1  0  0  0
 29 56  1  0  0  0
M  END
> <s_m_entry_id>
9574

> <s_m_entry_name>
ligand_docking-pose.16

> <s_m_Source_Path>
/home/csk/Desktop/cluster/DUD-E-result/aces

> <s_m_Source_File>
ligand_docking-pose.sdf

> <i_m_Source_File_Index>
16

> <i_lp_mmshare_version>
53161

> <r_lp_tautomer_probability>
1

> <s_lp_Force_Field>
OPLS_2005

> <r_lp_Energy>
33.143203

> <b_lp_Chiralities_Consistent>
1

> <s_lp_Variant>
489864-1

> <s_i_glide_gridfile>
glide-grid_1e66

> <i_i_glide_lignum>
832

> <i_i_glide_rotatable_bonds>
9

> <r_i_docking_score>
-9.225443081053

> <r_i_glide_ligand_efficiency>
-0.318118726932862

> <r_i_glide_ligand_efficiency_sa>
-0.977361516224572

> <r_i_glide_ligand_efficiency_ln>
-2.11239252850924

> <r_i_glide_gscore>
-9.225443081053

> <r_i_glide_lipo>
-3.71636554188725

> <r_i_glide_hbond>
-0.608

> <r_i_glide_metal>
0

> <r_i_glide_rewards>
-2.0704652530307

> <r_i_glide_evdw>
-46.3915863037109

> <r_i_glide_ecoul>
-9.18935203552246

> <r_i_glide_erotb>
0.867369834378863

> <r_i_glide_esite>
0

> <r_i_glide_emodel>
-80.6367433798884

> <r_i_glide_energy>
-55.5809383392334

> <r_i_glide_einternal>
9.70010948181152

> <i_i_glide_confnum>
17

> <i_i_glide_posenum>
205

> <r_i_glide_eff_state_penalty>
0

> <i_f3d_flags>
0

> <s_user_duplicate_titles>
489864

> <s_m_subgroup_title>
dock_pv

> <s_m_subgroupid>
dock_pv1

> <b_m_subgroup_collapsed>
1

$$$$
489935
                    3D
 Schrodinger Suite 2021-1.
 62 63  0  0  1  0            999 V2000
    1.0848   60.1120   72.1360 C   0  0  0  0  0  0
    2.5001   60.5728   71.6927 N   0  3  0  0  0  0
    3.4251   60.3299   72.9132 C   0  0  0  0  0  0
    2.9249   59.5873   70.5748 C   0  0  0  0  0  0
    2.5845   62.0177   71.2179 C   0  0  0  0  0  0
    3.8202   62.5218   70.7877 C   0  0  0  0  0  0
    3.9235   63.8469   70.3684 C   0  0  0  0  0  0
    2.7998   64.6726   70.3657 C   0  0  0  0  0  0
    1.5563   64.1861   70.7967 C   0  0  0  0  0  0
    1.4550   62.8556   71.2175 C   0  0  0  0  0  0
    0.4044   64.9464   70.8715 O   0  0  0  0  0  0
    0.3428   66.2592   70.3077 C   0  0  0  0  0  0
    0.2899   66.2046   68.7679 C   0  0  0  0  0  0
   -0.4297   67.3824   68.0884 C   0  0  0  0  0  0
   -0.3467   67.4311   66.5592 C   0  0  0  0  0  0
    1.0129   67.5883   66.1712 O   0  0  0  0  0  0
    1.3237   68.0510   64.9099 C   0  0  0  0  0  0
    2.6839   68.0687   64.5930 C   0  0  0  0  0  0
    3.1236   68.5320   63.3425 C   0  0  0  0  0  0
    2.1848   68.9578   62.3946 C   0  0  0  0  0  0
    0.8336   68.9791   62.7206 C   0  0  0  0  0  0
    0.3972   68.5078   63.9582 C   0  0  0  0  0  0
   -0.0570   69.4913   61.8246 O   0  0  0  0  0  0
    4.5994   68.5313   62.9909 N   0  3  0  0  0  0
    5.5411   68.6410   64.2222 C   0  0  0  0  0  0
    4.9611   67.2230   62.2561 C   0  0  0  0  0  0
    5.0078   69.7068   62.0683 C   0  0  0  0  0  0
    5.1402   64.3341   69.9702 O   0  0  0  0  0  0
    1.1304   59.0678   72.4549 H   0  0  0  0  0  0
    0.4112   60.2143   71.2811 H   0  0  0  0  0  0
    0.7675   60.7443   72.9686 H   0  0  0  0  0  0
    3.3303   59.2885   73.2298 H   0  0  0  0  0  0
    4.4543   60.5429   72.6234 H   0  0  0  0  0  0
    3.1047   61.0083   73.7079 H   0  0  0  0  0  0
    2.8377   58.5664   70.9519 H   0  0  0  0  0  0
    2.2551   59.7457   69.7278 H   0  0  0  0  0  0
    3.9550   59.7993   70.2946 H   0  0  0  0  0  0
    4.7108   61.9101   70.7857 H   0  0  0  0  0  0
    2.9055   65.6998   70.0654 H   0  0  0  0  0  0
    0.4854   62.5180   71.5483 H   0  0  0  0  0  0
   -0.5730   66.7081   70.6912 H   0  0  0  0  0  0
    1.1459   66.9021   70.6708 H   0  0  0  0  0  0
    1.2977   66.1085   68.3739 H   0  0  0  0  0  0
   -0.2445   65.3080   68.4779 H   0  0  0  0  0  0
   -1.4848   67.3347   68.3658 H   0  0  0  0  0  0
   -0.0484   68.3254   68.4849 H   0  0  0  0  0  0
   -0.7545   66.5176   66.1242 H   0  0  0  0  0  0
   -0.9658   68.2675   66.2339 H   0  0  0  0  0  0
    3.3643   67.7166   65.3480 H   0  0  0  0  0  0
    2.4736   69.3038   61.4164 H   0  0  0  0  0  0
   -0.6628   68.5252   64.1582 H   0  0  0  0  0  0
    0.3485   69.7840   61.0044 H   0  0  0  0  0  0
    6.5701   68.7265   63.8697 H   0  0  0  0  0  0
    5.2510   69.5323   64.7793 H   0  0  0  0  0  0
    5.4402   67.7423   64.8271 H   0  0  0  0  0  0
    6.0177   67.2640   61.9812 H   0  0  0  0  0  0
    4.7445   66.3948   62.9309 H   0  0  0  0  0  0
    4.3425   67.1753   61.3579 H   0  0  0  0  0  0
    6.0710   69.6240   61.8756 H   0  0  0  0  0  0
    4.4948   69.6291   61.1113 H   0  0  0  0  0  0
    4.7646   70.6328   62.5903 H   0  0  0  0  0  0
    5.1263   65.2698   69.7466 H   0  0  0  0  0  0
  1  2  1  0  0  0
  1 29  1  0  0  0
  1 30  1  0  0  0
  1 31  1  0  0  0
  2  3  1  0  0  0
  2  4  1  0  0  0
  2  5  1  0  0  0
  3 32  1  0  0  0
  3 33  1  0  0  0
  3 34  1  0  0  0
  4 35  1  0  0  0
  4 36  1  0  0  0
  4 37  1  0  0  0
  5 10  1  0  0  0
  5  6  2  0  0  0
  6  7  1  0  0  0
  6 38  1  0  0  0
  7  8  2  0  0  0
  7 28  1  0  0  0
  8  9  1  0  0  0
  8 39  1  0  0  0
  9 10  2  0  0  0
  9 11  1  0  0  0
 10 40  1  0  0  0
 11 12  1  0  0  0
 12 13  1  0  0  0
 12 41  1  0  0  0
 12 42  1  0  0  0
 13 14  1  0  0  0
 13 43  1  0  0  0
 13 44  1  0  0  0
 14 15  1  0  0  0
 14 45  1  0  0  0
 14 46  1  0  0  0
 15 16  1  0  0  0
 15 47  1  0  0  0
 15 48  1  0  0  0
 16 17  1  0  0  0
 17 22  1  0  0  0
 17 18  2  0  0  0
 18 19  1  0  0  0
 18 49  1  0  0  0
 19 20  2  0  0  0
 19 24  1  0  0  0
 20 21  1  0  0  0
 20 50  1  0  0  0
 21 22  2  0  0  0
 21 23  1  0  0  0
 22 51  1  0  0  0
 23 52  1  0  0  0
 24 25  1  0  0  0
 24 26  1  0  0  0
 24 27  1  0  0  0
 25 53  1  0  0  0
 25 54  1  0  0  0
 25 55  1  0  0  0
 26 56  1  0  0  0
 26 57  1  0  0  0
 26 58  1  0  0  0
 27 59  1  0  0  0
 27 60  1  0  0  0
 27 61  1  0  0  0
 28 62  1  0  0  0
M  CHG  2   2   1  24   1
M  END
> <s_m_entry_id>
9575

> <s_m_entry_name>
ligand_docking-pose.17

> <s_m_Source_Path>
/home/csk/Desktop/cluster/DUD-E-result/aces

> <s_m_Source_File>
ligand_docking-pose.sdf

> <i_m_Source_File_Index>
17

> <i_lp_mmshare_version>
53161

> <r_lp_tautomer_probability>
1

> <s_lp_Force_Field>
OPLS_2005

> <r_lp_Energy>
37.054403

> <b_lp_Chiralities_Consistent>
1

> <s_lp_Variant>
489935-1

> <s_i_glide_gridfile>
glide-grid_1e66

> <i_i_glide_lignum>
1731

> <i_i_glide_rotatable_bonds>
11

> <r_i_docking_score>
-9.20484809264134

> <r_i_glide_ligand_efficiency>
-0.328744574737191

> <r_i_glide_ligand_efficiency_sa>
-0.998262149102103

> <r_i_glide_ligand_efficiency_ln>
-2.12474920586542

> <r_i_glide_gscore>
-9.20484809264134

> <r_i_glide_lipo>
-4.24859050444129

> <r_i_glide_hbond>
0

> <r_i_glide_metal>
0

> <r_i_glide_rewards>
-2.36179430471894

> <r_i_glide_evdw>
-50.1399307250977

> <r_i_glide_ecoul>
-6.55181694030762

> <r_i_glide_erotb>
0.895305793819922

> <r_i_glide_esite>
0

> <r_i_glide_emodel>
-93.3057213674277

> <r_i_glide_energy>
-56.6917476654053

> <r_i_glide_einternal>
5.41996097564697

> <i_i_glide_confnum>
25

> <i_i_glide_posenum>
287

> <r_i_glide_eff_state_penalty>
0

> <i_f3d_flags>
0

> <s_user_duplicate_titles>
489935

> <s_m_subgroup_title>
dock_pv

> <s_m_subgroupid>
dock_pv1

> <b_m_subgroup_collapsed>
1

$$$$
689469
                    3D
 Schrodinger Suite 2021-1.
 50 53  0  0  1  0            999 V2000
    4.0881   59.3081   71.4257 C   0  0  0  0  0  0
    5.0914   60.4741   71.4475 C   0  0  0  0  0  0
    4.7430   61.4818   70.5008 O   0  0  0  0  0  0
    3.7270   62.3738   70.7748 C   0  0  0  0  0  0
    2.9691   62.3614   71.9640 C   0  0  0  0  0  0
    1.9404   63.2801   72.1657 C   0  0  0  0  0  0
    1.6785   64.2111   71.1680 C   0  0  0  0  0  0
    2.4174   64.2432   70.0170 C   0  0  0  0  0  0
    3.4529   63.3391   69.7948 C   0  0  0  0  0  0
    1.9877   65.2227   69.1680 O   0  0  0  0  0  0
    0.8803   65.7955   69.7085 C   0  0  0  0  0  0
    0.0381   66.6448   69.0693 C   0  0  0  0  0  0
    0.1073   67.2269   67.6997 C   0  0  0  0  0  0
    1.1430   66.9080   66.8252 C   0  0  0  0  0  0
    1.1398   67.3352   65.5084 C   0  0  0  0  0  0
    0.1926   68.1947   65.0747 N   0  3  0  0  0  0
   -0.8276   68.5707   65.8914 C   0  0  0  0  0  0
   -0.8920   68.0846   67.2089 C   0  0  0  0  0  0
    0.2523   68.6696   63.6609 C   0  0  0  0  0  0
    1.6581   68.9204   63.0787 C   0  0  0  0  0  0
    1.8670   68.7578   61.7067 C   0  0  0  0  0  0
    3.1429   68.9080   61.1606 C   0  0  0  0  0  0
    4.2213   69.2488   61.9739 C   0  0  0  0  0  0
    4.0259   69.4556   63.3391 C   0  0  0  0  0  0
    2.7454   69.3080   63.8802 C   0  0  0  0  0  0
    5.1860   69.8887   64.2183 C   0  0  0  0  0  0
    0.7196   65.2919   71.0732 C   0  0  0  0  0  0
   -0.0570   65.7074   71.9281 O   0  0  0  0  0  0
    4.3430   58.5584   72.1752 H   0  0  0  0  0  0
    4.0741   58.8187   70.4521 H   0  0  0  0  0  0
    3.0699   59.6322   71.6357 H   0  0  0  0  0  0
    5.2149   60.8864   72.4505 H   0  0  0  0  0  0
    6.0771   60.1075   71.1660 H   0  0  0  0  0  0
    3.1580   61.6470   72.7496 H   0  0  0  0  0  0
    1.3690   63.2584   73.0836 H   0  0  0  0  0  0
    4.0329   63.3655   68.8853 H   0  0  0  0  0  0
   -0.8377   66.9080   69.6368 H   0  0  0  0  0  0
    1.9202   66.2232   67.1153 H   0  0  0  0  0  0
    1.8873   67.0142   64.7980 H   0  0  0  0  0  0
   -1.5710   69.2340   65.4684 H   0  0  0  0  0  0
   -1.7216   68.3702   67.8405 H   0  0  0  0  0  0
   -0.2664   67.8943   63.0923 H   0  0  0  0  0  0
   -0.3412   69.5828   63.5798 H   0  0  0  0  0  0
    1.0449   68.4867   61.0595 H   0  0  0  0  0  0
    3.3042   68.7573   60.1031 H   0  0  0  0  0  0
    5.2052   69.3609   61.5392 H   0  0  0  0  0  0
    2.6051   69.4977   64.9348 H   0  0  0  0  0  0
    5.8951   70.4982   63.6557 H   0  0  0  0  0  0
    4.8399   70.5074   65.0476 H   0  0  0  0  0  0
    5.7150   69.0243   64.6196 H   0  0  0  0  0  0
  1  2  1  0  0  0
  1 29  1  0  0  0
  1 30  1  0  0  0
  1 31  1  0  0  0
  2  3  1  0  0  0
  2 32  1  0  0  0
  2 33  1  0  0  0
  3  4  1  0  0  0
  4  9  1  0  0  0
  4  5  2  0  0  0
  5  6  1  0  0  0
  5 34  1  0  0  0
  6  7  2  0  0  0
  6 35  1  0  0  0
  7 27  1  0  0  0
  7  8  1  0  0  0
  8  9  2  0  0  0
  8 10  1  0  0  0
  9 36  1  0  0  0
 10 11  1  0  0  0
 11 12  2  0  0  0
 11 27  1  0  0  0
 12 13  1  0  0  0
 12 37  1  0  0  0
 13 18  1  0  0  0
 13 14  2  0  0  0
 14 15  1  0  0  0
 14 38  1  0  0  0
 15 16  2  0  0  0
 15 39  1  0  0  0
 16 17  1  0  0  0
 16 19  1  0  0  0
 17 18  2  0  0  0
 17 40  1  0  0  0
 18 41  1  0  0  0
 19 20  1  0  0  0
 19 42  1  0  0  0
 19 43  1  0  0  0
 20 25  1  0  0  0
 20 21  2  0  0  0
 21 22  1  0  0  0
 21 44  1  0  0  0
 22 23  2  0  0  0
 22 45  1  0  0  0
 23 24  1  0  0  0
 23 46  1  0  0  0
 24 25  2  0  0  0
 24 26  1  0  0  0
 25 47  1  0  0  0
 26 48  1  0  0  0
 26 49  1  0  0  0
 26 50  1  0  0  0
 27 28  2  0  0  0
M  CHG  1  16   1
M  END
> <s_m_entry_id>
9576

> <s_m_entry_name>
ligand_docking-pose.18

> <s_m_Source_Path>
/home/csk/Desktop/cluster/DUD-E-result/aces

> <s_m_Source_File>
ligand_docking-pose.sdf

> <i_m_Source_File_Index>
18

> <i_lp_mmshare_version>
53161

> <r_lp_tautomer_probability>
1

> <s_lp_Force_Field>
OPLS_2005

> <r_lp_Energy>
40.523512

> <b_lp_Chiralities_Consistent>
1

> <s_lp_Variant>
689469-1

> <s_i_glide_gridfile>
glide-grid_1e66

> <i_i_glide_lignum>
1388

> <i_i_glide_rotatable_bonds>
5

> <r_i_docking_score>
-9.19126145349123

> <r_i_glide_ligand_efficiency>
-0.328259337624687

> <r_i_glide_ligand_efficiency_sa>
-0.996788683439166

> <r_i_glide_ligand_efficiency_ln>
-2.12161301062851

> <r_i_glide_gscore>
-9.19126145349123

> <r_i_glide_lipo>
-4.65618339448814

> <r_i_glide_hbond>
0

> <r_i_glide_metal>
0

> <r_i_glide_rewards>
-2.4633066451855

> <r_i_glide_evdw>
-41.7685546875

> <r_i_glide_ecoul>
-3.60208129882812

> <r_i_glide_erotb>
0.556968515381635

> <r_i_glide_esite>
0

> <r_i_glide_emodel>
-65.306036822544

> <r_i_glide_energy>
-45.3706359863281

> <r_i_glide_einternal>
10.821662902832

> <i_i_glide_confnum>
1

> <i_i_glide_posenum>
198

> <r_i_glide_eff_state_penalty>
0

> <i_f3d_flags>
0

> <s_user_duplicate_titles>
689469

> <s_m_subgroup_title>
dock_pv

> <s_m_subgroupid>
dock_pv1

> <b_m_subgroup_collapsed>
1

$$$$
593392
                    3D
 Schrodinger Suite 2021-1.
 66 69  0  0  1  0            999 V2000
   -3.6262   68.6393   65.5084 C   0  0  0  0  0  0
   -2.1900   68.6731   66.0469 C   0  0  0  0  0  0
   -2.1082   68.4615   67.5678 C   0  0  0  0  0  0
   -2.1196   67.0094   68.0659 C   0  0  0  0  0  0
   -0.9132   66.1325   67.7526 C   0  0  0  0  0  0
    0.5109   66.4493   68.1628 C   0  0  0  0  0  0
    1.2268   65.8352   69.1608 C   0  0  0  0  0  0
    0.9495   64.6827   70.0998 C   0  0  0  0  0  0
    1.8406   64.5079   71.1662 C   0  0  0  0  0  0
    1.6789   63.4834   72.1018 C   0  0  0  0  0  0
    0.6287   62.5900   71.9822 C   0  0  0  0  0  0
   -0.2325   62.6954   70.9068 C   0  0  0  0  0  0
   -0.0574   63.7071   69.9681 C   0  0  0  0  0  0
    1.0856   67.3804   67.2277 C   0  0  0  0  0  0
    1.9429   66.9733   66.3662 N   0  0  0  0  0  0
    2.4893   67.8099   65.2796 C   0  0  2  0  0  0
    1.2881   68.3617   64.4317 C   0  0  0  0  0  0
    1.6759   68.9152   63.0637 C   0  0  0  0  0  0
    2.8764   68.6303   62.5219 C   0  0  0  0  0  0
    3.9607   67.7856   63.1890 C   0  0  2  0  0  0
    3.3353   66.9307   64.3026 C   0  0  0  0  0  0
    3.5328   65.5925   64.4097 C   0  0  0  0  0  0
    4.4131   64.7104   63.5424 C   0  0  0  0  0  0
    5.0513   68.6688   63.8211 C   0  0  0  0  0  0
    4.6350   69.2589   65.1674 C   0  0  0  0  0  0
    3.4572   68.9401   65.8017 C   0  0  0  0  0  0
    3.2699   69.6621   67.0732 C   0  0  0  0  0  0
    4.2580   70.4035   67.6199 C   0  0  0  0  0  0
    5.5696   70.5069   67.0149 C   0  0  0  0  0  0
    6.5674   70.9080   67.6047 O   0  0  0  0  0  0
    5.6109   70.0491   65.7392 N   0  0  0  0  0  0
    0.5996   69.6483   62.2823 C   0  0  0  0  0  0
    4.3961   67.1787   62.3972 H   0  0  0  0  0  0
    6.4998   70.1824   65.2799 H   0  0  0  0  0  0
   -3.6544   68.9438   64.4618 H   0  0  0  0  0  0
   -4.0598   67.6455   65.5736 H   0  0  0  0  0  0
   -4.2793   69.3080   66.0680 H   0  0  0  0  0  0
   -1.7658   69.6508   65.8164 H   0  0  0  0  0  0
   -1.5706   67.9453   65.5226 H   0  0  0  0  0  0
   -2.9808   68.9078   68.0262 H   0  0  0  0  0  0
   -1.2542   69.0047   67.9679 H   0  0  0  0  0  0
   -2.9796   66.5213   67.6144 H   0  0  0  0  0  0
   -2.3217   66.9179   69.1371 H   0  0  0  0  0  0
   -0.9262   65.8220   66.7024 H   0  0  0  0  0  0
   -1.1628   65.3081   68.3699 H   0  0  0  0  0  0
    2.2309   66.2024   69.2991 H   0  0  0  0  0  0
    2.6785   65.1810   71.2657 H   0  0  0  0  0  0
    2.3433   63.3809   72.9416 H   0  0  0  0  0  0
    0.4969   61.8040   72.7121 H   0  0  0  0  0  0
   -1.0330   61.9829   70.7905 H   0  0  0  0  0  0
   -0.7236   63.6288   69.1384 H   0  0  0  0  0  0
    0.6921   68.3882   67.2836 H   0  0  0  0  0  0
    0.5880   67.5483   64.2289 H   0  0  0  0  0  0
    0.6883   69.0696   64.9933 H   0  0  0  0  0  0
    3.0882   69.0214   61.5371 H   0  0  0  0  0  0
    3.0408   65.0567   65.2078 H   0  0  0  0  0  0
    4.9458   63.9974   64.1715 H   0  0  0  0  0  0
    3.8037   64.1481   62.8383 H   0  0  0  0  0  0
    5.1607   65.2759   62.9913 H   0  0  0  0  0  0
    5.3431   69.4705   63.1395 H   0  0  0  0  0  0
    5.9744   68.1080   63.9615 H   0  0  0  0  0  0
    2.3167   69.6834   67.5719 H   0  0  0  0  0  0
    4.0847   70.9476   68.5359 H   0  0  0  0  0  0
    0.3356   70.5855   62.7680 H   0  0  0  0  0  0
    0.9191   69.8813   61.2656 H   0  0  0  0  0  0
   -0.3002   69.0355   62.2184 H   0  0  0  0  0  0
  1  2  1  0  0  0
  1 35  1  0  0  0
  1 36  1  0  0  0
  1 37  1  0  0  0
  2  3  1  0  0  0
  2 38  1  0  0  0
  2 39  1  0  0  0
  3  4  1  0  0  0
  3 40  1  0  0  0
  3 41  1  0  0  0
  4  5  1  0  0  0
  4 42  1  0  0  0
  4 43  1  0  0  0
  5  6  1  0  0  0
  5 44  1  0  0  0
  5 45  1  0  0  0
  6  7  2  0  0  0
  6 14  1  0  0  0
  7  8  1  0  0  0
  7 46  1  0  0  0
  8 13  1  0  0  0
  8  9  2  0  0  0
  9 10  1  0  0  0
  9 47  1  0  0  0
 10 11  2  0  0  0
 10 48  1  0  0  0
 11 12  1  0  0  0
 11 49  1  0  0  0
 12 13  2  0  0  0
 12 50  1  0  0  0
 13 51  1  0  0  0
 14 15  2  0  0  0
 14 52  1  0  0  0
 15 16  1  0  0  0
 16 21  1  0  0  0
 16 26  1  0  0  0
 16 17  1  0  0  0
 17 18  1  0  0  0
 17 53  1  0  0  0
 17 54  1  0  0  0
 18 19  2  0  0  0
 18 32  1  0  0  0
 19 20  1  0  0  0
 19 55  1  0  0  0
 20 33  1  0  0  0
 20 21  1  0  0  0
 20 24  1  0  0  0
 21 22  2  0  0  0
 22 23  1  0  0  0
 22 56  1  0  0  0
 23 57  1  0  0  0
 23 58  1  0  0  0
 23 59  1  0  0  0
 24 25  1  0  0  0
 24 60  1  0  0  0
 24 61  1  0  0  0
 25 31  1  0  0  0
 25 26  2  0  0  0
 26 27  1  0  0  0
 27 28  2  0  0  0
 27 62  1  0  0  0
 28 29  1  0  0  0
 28 63  1  0  0  0
 29 30  2  0  0  0
 29 31  1  0  0  0
 31 34  1  0  0  0
 32 64  1  0  0  0
 32 65  1  0  0  0
 32 66  1  0  0  0
M  END
> <s_m_entry_id>
9578

> <s_m_entry_name>
ligand_docking-pose.20

> <s_m_Source_Path>
/home/csk/Desktop/cluster/DUD-E-result/aces

> <s_m_Source_File>
ligand_docking-pose.sdf

> <i_m_Source_File_Index>
20

> <i_lp_mmshare_version>
53161

> <r_lp_tautomer_probability>
0.999

> <s_lp_Force_Field>
OPLS_2005

> <r_lp_Energy>
34.737999

> <b_lp_Chiralities_Consistent>
1

> <s_lp_Variant>
593392-1

> <s_i_glide_gridfile>
glide-grid_1e66

> <i_i_glide_lignum>
991

> <i_i_glide_rotatable_bonds>
7

> <r_i_docking_score>
-9.10838819236163

> <r_i_glide_ligand_efficiency>
-0.284637131011301

> <r_i_glide_ligand_efficiency_sa>
-0.903666561349142

> <r_i_glide_ligand_efficiency_ln>
-2.03961640155461

> <r_i_glide_gscore>
-9.10838819236163

> <r_i_glide_lipo>
-5.39823029730699

> <r_i_glide_hbond>
-0.0590240027286239

> <r_i_glide_metal>
0

> <r_i_glide_rewards>
-2.26898891097818

> <r_i_glide_evdw>
-34.9958992004395

> <r_i_glide_ecoul>
-1.18443119525909

> <r_i_glide_erotb>
0.545314657963004

> <r_i_glide_esite>
0

> <r_i_glide_emodel>
-45.7641737008474

> <r_i_glide_energy>
-36.1803303956985

> <r_i_glide_einternal>
8.6511058807373

> <i_i_glide_confnum>
38

> <i_i_glide_posenum>
383

> <r_i_glide_eff_state_penalty>
0

> <i_f3d_flags>
0

> <s_user_duplicate_titles>
593392

> <s_m_subgroup_title>
dock_pv

> <s_m_subgroupid>
dock_pv1

> <b_m_subgroup_collapsed>
1

$$$$
554012
                    3D
 Schrodinger Suite 2021-1.
 44 48  0  0  1  0            999 V2000
   -2.9899   68.8632   65.5680 C   0  0  0  0  0  0
   -1.5908   68.5080   65.7593 N   0  0  0  0  0  0
   -1.0696   68.6600   67.0315 C   0  0  0  0  0  0
    0.2474   68.8597   67.2356 C   0  0  0  0  0  0
    1.1867   68.8642   66.0990 C   0  0  0  0  0  0
    2.4764   69.2676   66.1949 C   0  0  0  0  0  0
    3.3434   69.2608   64.9943 C   0  0  0  0  0  0
    4.6980   69.7787   65.2050 C   0  0  0  0  0  0
    5.1077   70.1072   66.4618 C   0  0  0  0  0  0
    6.5154   70.3423   66.7869 C   0  0  0  0  0  0
    6.9114   70.5412   68.0485 C   0  0  0  0  0  0
    5.9607   70.6446   69.1253 C   0  0  0  0  0  0
    4.6335   70.5082   68.8765 C   0  0  0  0  0  0
    4.1350   70.1080   67.5684 C   0  0  0  0  0  0
    2.9269   69.7080   67.4113 N   0  0  0  0  0  0
    6.7168   70.5080   70.9498 Br  0  0  0  0  0  0
    5.5433   69.9600   64.0330 C   0  0  0  0  0  0
    6.3058   70.9079   63.8602 O   0  0  0  0  0  0
    5.3848   68.8498   63.0234 C   0  0  0  0  0  0
    3.8943   68.6633   62.6248 N   0  3  0  0  0  0
    2.9076   68.7965   63.7841 C   0  0  0  0  0  0
    1.4754   68.4291   63.5572 C   0  0  0  0  0  0
    1.0204   68.1250   62.4557 O   0  0  0  0  0  0
    0.6258   68.5081   64.7771 C   0  0  0  0  0  0
   -0.7260   68.3892   64.6726 C   0  0  0  0  0  0
    3.6595   69.6556   61.4650 C   0  0  0  0  0  0
    3.9420   67.2761   61.9678 C   0  0  0  0  0  0
   -3.2540   69.7075   66.2041 H   0  0  0  0  0  0
   -3.2123   69.1370   64.5355 H   0  0  0  0  0  0
   -3.6335   68.0272   65.8450 H   0  0  0  0  0  0
   -1.7910   68.6328   67.8352 H   0  0  0  0  0  0
    0.6047   68.9893   68.2491 H   0  0  0  0  0  0
    7.2739   70.2312   66.0357 H   0  0  0  0  0  0
    7.9429   70.5079   68.2978 H   0  0  0  0  0  0
    3.9632   70.5083   69.7246 H   0  0  0  0  0  0
    5.9866   69.0256   62.1291 H   0  0  0  0  0  0
    5.7117   67.9283   63.5031 H   0  0  0  0  0  0
   -1.2139   68.1718   63.7310 H   0  0  0  0  0  0
    4.2826   69.3797   60.6120 H   0  0  0  0  0  0
    2.6022   69.6737   61.2019 H   0  0  0  0  0  0
    3.9917   70.5945   61.8593 H   0  0  0  0  0  0
    4.8298   67.1713   61.3384 H   0  0  0  0  0  0
    3.8866   66.5196   62.7513 H   0  0  0  0  0  0
    3.0639   67.3080   61.3338 H   0  0  0  0  0  0
  1  2  1  0  0  0
  1 28  1  0  0  0
  1 29  1  0  0  0
  1 30  1  0  0  0
  2 25  1  0  0  0
  2  3  1  0  0  0
  3  4  2  0  0  0
  3 31  1  0  0  0
  4  5  1  0  0  0
  4 32  1  0  0  0
  5 24  1  0  0  0
  5  6  2  0  0  0
  6 15  1  0  0  0
  6  7  1  0  0  0
  7 21  2  0  0  0
  7  8  1  0  0  0
  8  9  2  0  0  0
  8 17  1  0  0  0
  9 14  1  0  0  0
  9 10  1  0  0  0
 10 11  2  0  0  0
 10 33  1  0  0  0
 11 12  1  0  0  0
 11 34  1  0  0  0
 12 13  2  0  0  0
 12 16  1  0  0  0
 13 14  1  0  0  0
 13 35  1  0  0  0
 14 15  2  0  0  0
 17 18  2  0  0  0
 17 19  1  0  0  0
 19 20  1  0  0  0
 19 36  1  0  0  0
 19 37  1  0  0  0
 20 21  1  0  0  0
 20 26  1  0  0  0
 20 27  1  0  0  0
 21 22  1  0  0  0
 22 23  2  0  0  0
 22 24  1  0  0  0
 24 25  2  0  0  0
 25 38  1  0  0  0
 26 39  1  0  0  0
 26 40  1  0  0  0
 26 41  1  0  0  0
 27 42  1  0  0  0
 27 43  1  0  0  0
 27 44  1  0  0  0
M  CHG  1  20   1
M  END
> <s_m_entry_id>
9580

> <s_m_entry_name>
ligand_docking-pose.22

> <s_m_Source_Path>
/home/csk/Desktop/cluster/DUD-E-result/aces

> <s_m_Source_File>
ligand_docking-pose.sdf

> <i_m_Source_File_Index>
22

> <i_lp_mmshare_version>
53161

> <r_lp_tautomer_probability>
1

> <s_lp_Force_Field>
OPLS_2005

> <r_lp_Energy>
57.766318

> <b_lp_Chiralities_Consistent>
1

> <s_lp_Variant>
554012-1

> <s_i_glide_gridfile>
glide-grid_1e66

> <i_i_glide_lignum>
1504

> <i_i_glide_rotatable_bonds>
0

> <r_i_docking_score>
-9.04537257243722

> <r_i_glide_ligand_efficiency>
-0.335013798979156

> <r_i_glide_ligand_efficiency_sa>
-1.00504139583332

> <r_i_glide_ligand_efficiency_ln>
-2.10561361024181

> <r_i_glide_gscore>
-9.04537257243722

> <r_i_glide_lipo>
-3.95023937621807

> <r_i_glide_hbond>
0

> <r_i_glide_metal>
0

> <r_i_glide_rewards>
-3.23209770809049

> <r_i_glide_evdw>
-25.0754413604736

> <r_i_glide_ecoul>
-4.0617561340332

> <r_i_glide_erotb>
0

> <r_i_glide_esite>
0

> <r_i_glide_emodel>
-59.3056198504241

> <r_i_glide_energy>
-29.1371974945068

> <r_i_glide_einternal>
0

> <i_i_glide_confnum>
1

> <i_i_glide_posenum>
36

> <r_i_glide_eff_state_penalty>
0

> <i_f3d_flags>
0

> <s_user_duplicate_titles>
554012

> <s_m_subgroup_title>
dock_pv

> <s_m_subgroupid>
dock_pv1

> <b_m_subgroup_collapsed>
1

$$$$
689405
                    3D
 Schrodinger Suite 2021-1.
 47 50  0  0  1  0            999 V2000
    4.1534   59.2607   71.3841 C   0  0  0  0  0  0
    5.1092   60.4626   71.4356 C   0  0  0  0  0  0
    4.7431   61.4556   70.4792 O   0  0  0  0  0  0
    3.7266   62.3474   70.7553 C   0  0  0  0  0  0
    2.9515   62.3177   71.9328 C   0  0  0  0  0  0
    1.9294   63.2438   72.1416 C   0  0  0  0  0  0
    1.6864   64.1952   71.1579 C   0  0  0  0  0  0
    2.4377   64.2380   70.0132 C   0  0  0  0  0  0
    3.4687   63.3292   69.7874 C   0  0  0  0  0  0
    2.0219   65.2277   69.1680 O   0  0  0  0  0  0
    0.9133   65.7984   69.7073 C   0  0  0  0  0  0
    0.0795   66.6591   69.0767 C   0  0  0  0  0  0
    0.1550   67.2689   67.7217 C   0  0  0  0  0  0
    1.1435   66.9080   66.8085 C   0  0  0  0  0  0
    1.1190   67.3653   65.5004 C   0  0  0  0  0  0
    0.2106   68.2899   65.1177 N   0  3  0  0  0  0
   -0.7565   68.7080   65.9776 C   0  0  0  0  0  0
   -0.8019   68.2002   67.2867 C   0  0  0  0  0  0
    0.2598   68.8039   63.7166 C   0  0  0  0  0  0
    1.6630   69.0533   63.1197 C   0  0  0  0  0  0
    2.7917   69.3069   63.9200 C   0  0  0  0  0  0
    4.0656   69.3845   63.3566 C   0  0  0  0  0  0
    4.2262   69.2525   61.9798 C   0  0  0  0  0  0
    3.1073   69.0750   61.1683 C   0  0  0  0  0  0
    1.8317   69.0049   61.7310 C   0  0  0  0  0  0
    0.7537   68.9078   60.9225 F   0  0  0  0  0  0
    0.7309   65.2800   71.0633 C   0  0  0  0  0  0
   -0.0570   65.6915   71.9103 O   0  0  0  0  0  0
    4.3431   58.5736   72.2104 H   0  0  0  0  0  0
    4.2847   58.7088   70.4537 H   0  0  0  0  0  0
    3.1077   59.5609   71.4476 H   0  0  0  0  0  0
    5.1915   60.8761   72.4427 H   0  0  0  0  0  0
    6.1139   60.1272   71.1820 H   0  0  0  0  0  0
    3.1218   61.5824   72.7035 H   0  0  0  0  0  0
    1.3448   63.2076   73.0508 H   0  0  0  0  0  0
    4.0570   63.3654   68.8837 H   0  0  0  0  0  0
   -0.7991   66.9077   69.6459 H   0  0  0  0  0  0
    1.8924   66.1771   67.0655 H   0  0  0  0  0  0
    1.8221   67.0210   64.7565 H   0  0  0  0  0  0
   -1.4748   69.4217   65.5963 H   0  0  0  0  0  0
   -1.5830   68.5275   67.9589 H   0  0  0  0  0  0
   -0.2610   68.0380   63.1367 H   0  0  0  0  0  0
   -0.3477   69.7079   63.6482 H   0  0  0  0  0  0
    2.6994   69.4239   64.9901 H   0  0  0  0  0  0
    4.9273   69.5598   63.9859 H   0  0  0  0  0  0
    5.2138   69.3069   61.5418 H   0  0  0  0  0  0
    3.2323   68.9954   60.0993 H   0  0  0  0  0  0
  1  2  1  0  0  0
  1 29  1  0  0  0
  1 30  1  0  0  0
  1 31  1  0  0  0
  2  3  1  0  0  0
  2 32  1  0  0  0
  2 33  1  0  0  0
  3  4  1  0  0  0
  4  9  1  0  0  0
  4  5  2  0  0  0
  5  6  1  0  0  0
  5 34  1  0  0  0
  6  7  2  0  0  0
  6 35  1  0  0  0
  7 27  1  0  0  0
  7  8  1  0  0  0
  8  9  2  0  0  0
  8 10  1  0  0  0
  9 36  1  0  0  0
 10 11  1  0  0  0
 11 12  2  0  0  0
 11 27  1  0  0  0
 12 13  1  0  0  0
 12 37  1  0  0  0
 13 18  1  0  0  0
 13 14  2  0  0  0
 14 15  1  0  0  0
 14 38  1  0  0  0
 15 16  2  0  0  0
 15 39  1  0  0  0
 16 17  1  0  0  0
 16 19  1  0  0  0
 17 18  2  0  0  0
 17 40  1  0  0  0
 18 41  1  0  0  0
 19 20  1  0  0  0
 19 42  1  0  0  0
 19 43  1  0  0  0
 20 25  1  0  0  0
 20 21  2  0  0  0
 21 22  1  0  0  0
 21 44  1  0  0  0
 22 23  2  0  0  0
 22 45  1  0  0  0
 23 24  1  0  0  0
 23 46  1  0  0  0
 24 25  2  0  0  0
 24 47  1  0  0  0
 25 26  1  0  0  0
 27 28  2  0  0  0
M  CHG  1  16   1
M  END
> <s_m_entry_id>
9582

> <s_m_entry_name>
ligand_docking-pose.24

> <s_m_Source_Path>
/home/csk/Desktop/cluster/DUD-E-result/aces

> <s_m_Source_File>
ligand_docking-pose.sdf

> <i_m_Source_File_Index>
24

> <i_lp_mmshare_version>
53161

> <r_lp_tautomer_probability>
1

> <s_lp_Force_Field>
OPLS_2005

> <r_lp_Energy>
38.965514

> <b_lp_Chiralities_Consistent>
1

> <s_lp_Variant>
689405-1

> <s_i_glide_gridfile>
glide-grid_1e66

> <i_i_glide_lignum>
1392

> <i_i_glide_rotatable_bonds>
5

> <r_i_docking_score>
-9.03957666128894

> <r_i_glide_ligand_efficiency>
-0.322842023617462

> <r_i_glide_ligand_efficiency_sa>
-0.980338527485911

> <r_i_glide_ligand_efficiency_ln>
-2.0865997069292

> <r_i_glide_gscore>
-9.03957666128894

> <r_i_glide_lipo>
-4.35724451468959

> <r_i_glide_hbond>
0

> <r_i_glide_metal>
0

> <r_i_glide_rewards>
-2.83633804873723

> <r_i_glide_evdw>
-39.7044219970703

> <r_i_glide_ecoul>
-2.71527075767517

> <r_i_glide_erotb>
0.546517615642679

> <r_i_glide_esite>
0

> <r_i_glide_emodel>
-61.5094221995101

> <r_i_glide_energy>
-42.4196927547455

> <r_i_glide_einternal>
10.013575553894

> <i_i_glide_confnum>
1

> <i_i_glide_posenum>
280

> <r_i_glide_eff_state_penalty>
0

> <i_f3d_flags>
0

> <s_user_duplicate_titles>
689405

> <s_m_subgroup_title>
dock_pv

> <s_m_subgroupid>
dock_pv1

> <b_m_subgroup_collapsed>
1

$$$$
676788
                    3D
 Schrodinger Suite 2021-1.
 66 70  0  0  1  0            999 V2000
    6.5101   70.4755   66.7176 C   0  0  0  0  0  0
    6.0949   70.9089   67.9713 C   0  0  0  0  0  0
    4.7705   70.7535   68.3681 C   0  0  0  0  0  0
    3.8455   70.1080   67.5122 C   0  0  0  0  0  0
    4.2570   69.6672   66.2199 C   0  0  0  0  0  0
    5.6116   69.8845   65.8366 C   0  0  0  0  0  0
    3.2913   68.9915   65.4058 C   0  0  0  0  0  0
    1.9712   68.8271   65.8813 C   0  0  0  0  0  0
    1.6667   69.3079   67.1735 C   0  0  0  0  0  0
    2.5863   69.9054   67.9680 N   0  0  0  0  0  0
    0.2659   69.1788   67.7751 C   0  0  0  0  0  0
   -0.6233   68.1530   67.0598 C   0  0  0  0  0  0
   -0.5459   68.3719   65.5479 C   0  0  0  0  0  0
    0.8859   68.1092   65.0528 C   0  0  0  0  0  0
    3.6386   68.4728   64.1405 N   0  0  0  0  0  0
    4.4112   67.2295   64.1998 C   0  0  0  0  0  0
    3.5863   66.0157   64.6588 C   0  0  0  0  0  0
    4.3377   64.6661   64.7043 C   0  0  0  0  0  0
    3.6790   63.6831   65.6942 C   0  0  0  0  0  0
    3.8421   63.9815   67.2140 C   0  0  0  0  0  0
    3.2673   62.9079   68.0183 N   0  0  1  0  0  0
    3.5984   62.8651   69.4377 C   0  0  2  0  0  0
    3.8657   61.3949   69.8408 C   0  0  0  0  0  0
    4.0158   61.2382   71.3559 C   0  0  0  0  0  0
    2.6920   61.5999   72.0479 C   0  0  0  0  0  0
    2.0756   62.8828   71.4897 C   0  0  0  0  0  0
    2.4899   63.4766   70.3261 C   0  0  0  0  0  0
    1.7607   64.6989   69.9681 C   0  0  0  0  0  0
    0.7379   65.1515   70.7267 C   0  0  0  0  0  0
    0.3440   64.5080   71.9679 C   0  0  0  0  0  0
    1.0324   63.3733   72.2424 N   0  0  0  0  0  0
   -0.4570   64.9749   72.7680 O   0  0  0  0  0  0
    7.5419   70.5948   66.4190 H   0  0  0  0  0  0
    6.8034   71.3750   68.6408 H   0  0  0  0  0  0
    4.4458   71.0811   69.3453 H   0  0  0  0  0  0
    5.9624   69.5667   64.8658 H   0  0  0  0  0  0
   -0.2218   70.1529   67.7461 H   0  0  0  0  0  0
    0.3434   68.9081   68.8242 H   0  0  0  0  0  0
   -1.6539   68.2468   67.4067 H   0  0  0  0  0  0
   -0.3066   67.1378   67.3078 H   0  0  0  0  0  0
   -0.8571   69.3862   65.2958 H   0  0  0  0  0  0
   -1.2454   67.7081   65.0417 H   0  0  0  0  0  0
    0.9592   68.3772   63.9983 H   0  0  0  0  0  0
    1.0541   67.0346   65.1097 H   0  0  0  0  0  0
    4.1990   69.1607   63.6569 H   0  0  0  0  0  0
    5.2676   67.3372   64.8649 H   0  0  0  0  0  0
    4.8410   67.0308   63.2169 H   0  0  0  0  0  0
    2.7430   65.9111   63.9911 H   0  0  0  0  0  0
    3.1430   66.2351   65.6309 H   0  0  0  0  0  0
    5.4023   64.7856   64.9069 H   0  0  0  0  0  0
    4.3066   64.2292   63.7047 H   0  0  0  0  0  0
    4.0132   62.6714   65.4734 H   0  0  0  0  0  0
    2.6346   63.7080   65.4214 H   0  0  0  0  0  0
    3.3440   64.9081   67.4653 H   0  0  0  0  0  0
    4.8923   64.1080   67.4687 H   0  0  0  0  0  0
    2.2557   62.8332   67.9679 H   0  0  0  0  0  0
    4.5164   63.4295   69.6181 H   0  0  0  0  0  0
    4.7429   61.0072   69.3299 H   0  0  0  0  0  0
    3.0406   60.7618   69.5066 H   0  0  0  0  0  0
    4.8180   61.8859   71.7154 H   0  0  0  0  0  0
    4.3054   60.2179   71.6127 H   0  0  0  0  0  0
    2.8851   61.7144   73.1164 H   0  0  0  0  0  0
    1.9620   60.7899   72.0016 H   0  0  0  0  0  0
    2.0197   65.2495   69.0783 H   0  0  0  0  0  0
    0.2101   66.0495   70.4414 H   0  0  0  0  0  0
    0.7560   62.9281   73.1027 H   0  0  0  0  0  0
  1  6  1  0  0  0
  1  2  2  0  0  0
  1 33  1  0  0  0
  2  3  1  0  0  0
  2 34  1  0  0  0
  3  4  2  0  0  0
  3 35  1  0  0  0
  4 10  1  0  0  0
  4  5  1  0  0  0
  5  6  2  0  0  0
  5  7  1  0  0  0
  6 36  1  0  0  0
  7  8  2  0  0  0
  7 15  1  0  0  0
  8 14  1  0  0  0
  8  9  1  0  0  0
  9 10  2  0  0  0
  9 11  1  0  0  0
 11 12  1  0  0  0
 11 37  1  0  0  0
 11 38  1  0  0  0
 12 13  1  0  0  0
 12 39  1  0  0  0
 12 40  1  0  0  0
 13 14  1  0  0  0
 13 41  1  0  0  0
 13 42  1  0  0  0
 14 43  1  0  0  0
 14 44  1  0  0  0
 15 16  1  0  0  0
 15 45  1  0  0  0
 16 17  1  0  0  0
 16 46  1  0  0  0
 16 47  1  0  0  0
 17 18  1  0  0  0
 17 48  1  0  0  0
 17 49  1  0  0  0
 18 19  1  0  0  0
 18 50  1  0  0  0
 18 51  1  0  0  0
 19 20  1  0  0  0
 19 52  1  0  0  0
 19 53  1  0  0  0
 20 21  1  0  0  0
 20 54  1  0  0  0
 20 55  1  0  0  0
 21 22  1  0  0  0
 21 56  1  0  0  0
 22 23  1  0  0  0
 22 57  1  0  0  0
 22 27  1  0  0  0
 23 24  1  0  0  0
 23 58  1  0  0  0
 23 59  1  0  0  0
 24 25  1  0  0  0
 24 60  1  0  0  0
 24 61  1  0  0  0
 25 62  1  0  0  0
 25 63  1  0  0  0
 25 26  1  0  0  0
 26 31  1  0  0  0
 26 27  2  0  0  0
 27 28  1  0  0  0
 28 64  1  0  0  0
 28 29  2  0  0  0
 29 30  1  0  0  0
 29 65  1  0  0  0
 30 32  2  0  0  0
 30 31  1  0  0  0
 31 66  1  0  0  0
M  END
> <s_m_entry_id>
9583

> <s_m_entry_name>
ligand_docking-pose.25

> <s_m_Source_Path>
/home/csk/Desktop/cluster/DUD-E-result/aces

> <s_m_Source_File>
ligand_docking-pose.sdf

> <i_m_Source_File_Index>
25

> <i_lp_mmshare_version>
53161

> <r_lp_tautomer_probability>
0.999

> <s_lp_Force_Field>
OPLS_2005

> <r_lp_Energy>
38.650563

> <b_lp_Chiralities_Consistent>
1

> <s_lp_Variant>
676788-1

> <s_i_glide_gridfile>
glide-grid_1e66

> <i_i_glide_lignum>
191

> <i_i_glide_rotatable_bonds>
8

> <r_i_docking_score>
-9.02984090756821

> <r_i_glide_ligand_efficiency>
-0.282182528361507

> <r_i_glide_ligand_efficiency_sa>
-0.89587368370125

> <r_i_glide_ligand_efficiency_ln>
-2.02202752337125

> <r_i_glide_gscore>
-9.02984090756821

> <r_i_glide_lipo>
-4.96774644925553

> <r_i_glide_hbond>
-0.601926728417425

> <r_i_glide_metal>
0

> <r_i_glide_rewards>
-1.37328368181818

> <r_i_glide_evdw>
-37.9889755249023

> <r_i_glide_ecoul>
-5.53912210464478

> <r_i_glide_erotb>
0.643433043864753

> <r_i_glide_esite>
0

> <r_i_glide_emodel>
-56.6311171317574

> <r_i_glide_energy>
-43.5280976295471

> <r_i_glide_einternal>
6.88714504241943

> <i_i_glide_confnum>
99

> <i_i_glide_posenum>
276

> <r_i_glide_eff_state_penalty>
0

> <i_f3d_flags>
0

> <s_user_duplicate_titles>
676788

> <s_m_subgroup_title>
dock_pv

> <s_m_subgroupid>
dock_pv1

> <b_m_subgroup_collapsed>
1

$$$$
689338
                    3D
 Schrodinger Suite 2021-1.
 53 56  0  0  1  0            999 V2000
    3.4764   58.5670   69.9391 C   0  0  0  0  0  0
    3.7346   59.1551   71.3329 C   0  0  0  0  0  0
    4.8841   60.1904   71.3757 C   0  0  0  0  0  0
    4.6810   61.3031   70.4977 O   0  0  0  0  0  0
    3.7005   62.2395   70.7717 C   0  0  0  0  0  0
    2.9541   62.2583   71.9677 C   0  0  0  0  0  0
    1.9431   63.1962   72.1690 C   0  0  0  0  0  0
    1.6939   64.1283   71.1692 C   0  0  0  0  0  0
    2.4326   64.1479   70.0164 C   0  0  0  0  0  0
    3.4480   63.2165   69.7936 C   0  0  0  0  0  0
    2.0164   65.1392   69.1680 O   0  0  0  0  0  0
    0.9216   65.7358   69.7180 C   0  0  0  0  0  0
    0.0973   66.6234   69.1054 C   0  0  0  0  0  0
    0.1493   67.2390   67.7497 C   0  0  0  0  0  0
    1.1430   66.9080   66.8337 C   0  0  0  0  0  0
    1.1122   67.3735   65.5288 C   0  0  0  0  0  0
    0.1880   68.2849   65.1528 N   0  3  0  0  0  0
   -0.7925   68.6693   66.0111 C   0  0  0  0  0  0
   -0.8338   68.1434   67.3126 C   0  0  0  0  0  0
    0.2169   68.8048   63.7541 C   0  0  0  0  0  0
    1.6121   69.0466   63.1221 C   0  0  0  0  0  0
    2.7424   69.3044   63.9192 C   0  0  0  0  0  0
    4.0201   69.3535   63.3657 C   0  0  0  0  0  0
    4.1879   69.1896   61.9954 C   0  0  0  0  0  0
    3.0731   69.0217   61.1775 C   0  0  0  0  0  0
    1.7844   68.9905   61.7265 C   0  0  0  0  0  0
    0.5866   68.9539   60.7916 C   0  0  0  0  0  0
    0.7391   65.2142   71.0740 C   0  0  0  0  0  0
   -0.0570   65.6187   71.9189 O   0  0  0  0  0  0
    2.6408   57.8667   69.9680 H   0  0  0  0  0  0
    4.3429   58.0243   69.5687 H   0  0  0  0  0  0
    3.2276   59.3443   69.2153 H   0  0  0  0  0  0
    2.8068   59.5918   71.6992 H   0  0  0  0  0  0
    3.9536   58.3416   72.0264 H   0  0  0  0  0  0
    5.0705   60.5314   72.3955 H   0  0  0  0  0  0
    5.8118   59.7081   71.0721 H   0  0  0  0  0  0
    3.1363   61.5497   72.7600 H   0  0  0  0  0  0
    1.3748   63.1882   73.0890 H   0  0  0  0  0  0
    4.0224   63.2248   68.8802 H   0  0  0  0  0  0
   -0.7563   66.9080   69.6963 H   0  0  0  0  0  0
    1.9078   66.1917   67.0871 H   0  0  0  0  0  0
    1.8216   67.0460   64.7833 H   0  0  0  0  0  0
   -1.5272   69.3676   65.6323 H   0  0  0  0  0  0
   -1.6394   68.4375   67.9679 H   0  0  0  0  0  0
   -0.3217   68.0336   63.2017 H   0  0  0  0  0  0
   -0.3940   69.7077   63.7012 H   0  0  0  0  0  0
    2.6493   69.4397   64.9869 H   0  0  0  0  0  0
    4.8793   69.5267   63.9979 H   0  0  0  0  0  0
    5.1803   69.2215   61.5672 H   0  0  0  0  0  0
    3.2212   68.9309   60.1112 H   0  0  0  0  0  0
    0.8720   68.9080   59.7408 H   0  0  0  0  0  0
   -0.0566   68.1078   61.0122 H   0  0  0  0  0  0
   -0.0123   69.8542   60.9324 H   0  0  0  0  0  0
  1  2  1  0  0  0
  1 30  1  0  0  0
  1 31  1  0  0  0
  1 32  1  0  0  0
  2  3  1  0  0  0
  2 33  1  0  0  0
  2 34  1  0  0  0
  3  4  1  0  0  0
  3 35  1  0  0  0
  3 36  1  0  0  0
  4  5  1  0  0  0
  5 10  1  0  0  0
  5  6  2  0  0  0
  6  7  1  0  0  0
  6 37  1  0  0  0
  7  8  2  0  0  0
  7 38  1  0  0  0
  8 28  1  0  0  0
  8  9  1  0  0  0
  9 10  2  0  0  0
  9 11  1  0  0  0
 10 39  1  0  0  0
 11 12  1  0  0  0
 12 13  2  0  0  0
 12 28  1  0  0  0
 13 14  1  0  0  0
 13 40  1  0  0  0
 14 19  1  0  0  0
 14 15  2  0  0  0
 15 16  1  0  0  0
 15 41  1  0  0  0
 16 17  2  0  0  0
 16 42  1  0  0  0
 17 18  1  0  0  0
 17 20  1  0  0  0
 18 19  2  0  0  0
 18 43  1  0  0  0
 19 44  1  0  0  0
 20 21  1  0  0  0
 20 45  1  0  0  0
 20 46  1  0  0  0
 21 26  1  0  0  0
 21 22  2  0  0  0
 22 23  1  0  0  0
 22 47  1  0  0  0
 23 24  2  0  0  0
 23 48  1  0  0  0
 24 25  1  0  0  0
 24 49  1  0  0  0
 25 26  2  0  0  0
 25 50  1  0  0  0
 26 27  1  0  0  0
 27 51  1  0  0  0
 27 52  1  0  0  0
 27 53  1  0  0  0
 28 29  2  0  0  0
M  CHG  1  17   1
M  END
> <s_m_entry_id>
9585

> <s_m_entry_name>
ligand_docking-pose.27

> <s_m_Source_Path>
/home/csk/Desktop/cluster/DUD-E-result/aces

> <s_m_Source_File>
ligand_docking-pose.sdf

> <i_m_Source_File_Index>
27

> <i_lp_mmshare_version>
53161

> <r_lp_tautomer_probability>
1

> <s_lp_Force_Field>
OPLS_2005

> <r_lp_Energy>
41.782163

> <b_lp_Chiralities_Consistent>
1

> <s_lp_Variant>
689338-1

> <s_i_glide_gridfile>
glide-grid_1e66

> <i_i_glide_lignum>
1172

> <i_i_glide_rotatable_bonds>
6

> <r_i_docking_score>
-8.9703275109271

> <r_i_glide_ligand_efficiency>
-0.309321638307831

> <r_i_glide_ligand_efficiency_sa>
-0.950334072855176

> <r_i_glide_ligand_efficiency_ln>
-2.05397753212309

> <r_i_glide_gscore>
-8.9703275109271

> <r_i_glide_lipo>
-4.60956446852182

> <r_i_glide_hbond>
0

> <r_i_glide_metal>
0

> <r_i_glide_rewards>
-2.41424379091298

> <r_i_glide_evdw>
-43.0249900817871

> <r_i_glide_ecoul>
-2.97910523414612

> <r_i_glide_erotb>
0.651596037718972

> <r_i_glide_esite>
0

> <r_i_glide_emodel>
-65.6989916659896

> <r_i_glide_energy>
-46.0040953159332

> <r_i_glide_einternal>
11.8474130630493

> <i_i_glide_confnum>
15

> <i_i_glide_posenum>
221

> <r_i_glide_eff_state_penalty>
0

> <i_f3d_flags>
0

> <s_user_duplicate_titles>
689338

> <s_m_subgroup_title>
dock_pv

> <s_m_subgroupid>
dock_pv1

> <b_m_subgroup_collapsed>
1

$$$$
391833
                    3D
 Schrodinger Suite 2021-1.
 91 95  0  0  1  0            999 V2000
    6.0417   70.3620   65.6832 C   0  0  0  0  0  0
    4.9651   69.8067   64.7742 C   0  0  0  0  0  0
    5.0400   69.9138   63.4370 C   0  0  0  0  0  0
    3.9417   69.4596   62.4859 C   0  0  1  0  0  0
    4.2831   68.0425   62.0014 C   0  0  0  0  0  0
    3.9587   66.9834   63.0607 C   0  0  0  0  0  0
    3.1998   67.2041   64.1707 C   0  0  0  0  0  0
    2.9813   66.0411   65.0360 C   0  0  0  0  0  0
    3.5428   64.8471   64.7395 C   0  0  0  0  0  0
    4.3424   64.6510   63.5458 C   0  0  0  0  0  0
    4.7909   63.5729   63.1797 O   0  0  0  0  0  0
    4.5042   65.7647   62.7828 N   0  0  0  0  0  0
    2.6521   68.5961   64.5212 C   0  0  1  0  0  0
    3.7145   69.2867   65.4608 C   0  0  0  0  0  0
    2.5654   69.4683   63.2099 C   0  0  2  0  0  0
    1.3995   69.1345   62.2414 C   0  0  0  0  0  0
    0.0717   68.9870   62.9825 C   0  0  0  0  0  0
    0.2213   67.9993   64.1373 C   0  0  0  0  0  0
    1.2499   68.5072   65.0687 N   0  0  0  0  0  0
    0.8982   68.8244   66.3545 C   0  0  0  0  0  0
    1.7097   68.9128   67.2733 O   0  0  0  0  0  0
   -0.5708   69.1632   66.7175 C   0  0  0  0  0  0
   -1.4569   68.0030   66.8083 N   0  0  2  0  0  0
   -2.7903   68.3838   67.2526 C   0  0  0  0  0  0
   -0.9829   66.7603   67.4388 C   0  0  0  0  0  0
   -0.0657   66.9180   68.6819 C   0  0  0  0  0  0
   -0.6552   66.3605   69.9622 C   0  0  0  0  0  0
    0.2261   66.6047   71.1937 C   0  0  0  0  0  0
   -0.4579   66.2118   72.5535 C   0  0  0  0  0  0
   -0.5433   64.7256   73.0113 C   0  0  0  0  0  0
    0.7368   63.8888   73.2302 C   0  0  0  0  0  0
    0.5295   62.3592   73.2953 C   0  0  0  0  0  0
   -0.1092   61.7429   72.1230 N   0  0  2  0  0  0
   -0.0866   60.2884   72.2080 C   0  0  0  0  0  0
    0.2215   62.2789   70.7939 C   0  0  0  0  0  0
    1.6848   62.5565   70.4977 C   0  0  0  0  0  0
    1.9602   63.7576   69.8568 C   0  0  0  0  0  0
    3.2611   64.1640   69.6604 C   0  0  0  0  0  0
    4.2923   63.3585   70.1076 C   0  0  0  0  0  0
    4.0466   62.1209   70.6972 C   0  0  0  0  0  0
    2.7306   61.7072   70.8816 C   0  0  0  0  0  0
    5.5430   63.8127   69.9684 F   0  0  0  0  0  0
    3.9243   70.1462   61.6394 H   0  0  0  0  0  0
    5.0917   65.7084   61.9718 H   0  0  0  0  0  0
    2.3513   70.4769   63.5614 H   0  0  0  0  0  0
    5.6031   70.9816   66.4644 H   0  0  0  0  0  0
    6.5837   69.5422   66.1533 H   0  0  0  0  0  0
    6.7448   70.9818   65.1324 H   0  0  0  0  0  0
    5.9419   70.3387   63.0144 H   0  0  0  0  0  0
    3.7936   67.7899   61.0635 H   0  0  0  0  0  0
    5.3488   67.9976   61.7491 H   0  0  0  0  0  0
    2.3875   66.1453   65.9332 H   0  0  0  0  0  0
    3.4047   63.9956   65.3853 H   0  0  0  0  0  0
    3.9973   68.6469   66.2959 H   0  0  0  0  0  0
    3.2835   70.1719   65.9234 H   0  0  0  0  0  0
    1.3338   69.8664   61.4343 H   0  0  0  0  0  0
    1.5933   68.1842   61.7449 H   0  0  0  0  0  0
   -0.3027   69.9498   63.3263 H   0  0  0  0  0  0
   -0.6927   68.6000   62.3176 H   0  0  0  0  0  0
   -0.7267   67.7086   64.5715 H   0  0  0  0  0  0
    0.5995   67.0541   63.7532 H   0  0  0  0  0  0
   -0.5884   69.7807   67.6211 H   0  0  0  0  0  0
   -0.9485   69.8270   65.9419 H   0  0  0  0  0  0
   -3.5158   67.6293   66.9620 H   0  0  0  0  0  0
   -2.8479   68.5239   68.3325 H   0  0  0  0  0  0
   -3.1140   69.3059   66.7640 H   0  0  0  0  0  0
   -1.8305   66.1092   67.6416 H   0  0  0  0  0  0
   -0.4110   66.2412   66.6679 H   0  0  0  0  0  0
    0.9199   66.5000   68.4727 H   0  0  0  0  0  0
    0.1032   67.9722   68.8925 H   0  0  0  0  0  0
   -1.5930   66.8867   70.1383 H   0  0  0  0  0  0
   -0.8500   65.3014   69.8111 H   0  0  0  0  0  0
    1.1856   66.0994   71.1071 H   0  0  0  0  0  0
    0.4536   67.6977   71.1440 H   0  0  0  0  0  0
   -0.0558   66.7948   73.3808 H   0  0  0  0  0  0
   -1.4814   66.5788   72.5118 H   0  0  0  0  0  0
   -1.0234   64.7277   73.9902 H   0  0  0  0  0  0
   -1.2396   64.1808   72.3692 H   0  0  0  0  0  0
    1.5152   64.1081   72.5074 H   0  0  0  0  0  0
    1.1631   64.1485   74.1972 H   0  0  0  0  0  0
    1.5045   61.8959   73.4595 H   0  0  0  0  0  0
   -0.0747   62.1311   74.1723 H   0  0  0  0  0  0
   -0.4566   59.8363   71.2908 H   0  0  0  0  0  0
    0.9089   59.8919   72.3920 H   0  0  0  0  0  0
   -0.7223   59.9555   73.0275 H   0  0  0  0  0  0
   -0.1824   61.7066   69.9746 H   0  0  0  0  0  0
   -0.3152   63.2213   70.7183 H   0  0  0  0  0  0
    1.1629   64.3964   69.5230 H   0  0  0  0  0  0
    3.4700   65.1121   69.1981 H   0  0  0  0  0  0
    4.8679   61.5034   71.0228 H   0  0  0  0  0  0
    2.5356   60.7639   71.3620 H   0  0  0  0  0  0
  1  2  1  0  0  0
  1 46  1  0  0  0
  1 47  1  0  0  0
  1 48  1  0  0  0
  2 14  1  0  0  0
  2  3  2  0  0  0
  3  4  1  0  0  0
  3 49  1  0  0  0
  4 43  1  0  0  0
  4 15  1  0  0  0
  4  5  1  0  0  0
  5  6  1  0  0  0
  5 50  1  0  0  0
  5 51  1  0  0  0
  6 12  1  0  0  0
  6  7  2  0  0  0
  7  8  1  0  0  0
  7 13  1  0  0  0
  8  9  2  0  0  0
  8 52  1  0  0  0
  9 10  1  0  0  0
  9 53  1  0  0  0
 10 11  2  0  0  0
 10 12  1  0  0  0
 12 44  1  0  0  0
 13 19  1  0  0  0
 13 14  1  0  0  0
 13 15  1  0  0  0
 14 54  1  0  0  0
 14 55  1  0  0  0
 15 45  1  0  0  0
 15 16  1  0  0  0
 16 17  1  0  0  0
 16 56  1  0  0  0
 16 57  1  0  0  0
 17 18  1  0  0  0
 17 58  1  0  0  0
 17 59  1  0  0  0
 18 19  1  0  0  0
 18 60  1  0  0  0
 18 61  1  0  0  0
 19 20  1  0  0  0
 20 21  2  0  0  0
 20 22  1  0  0  0
 22 23  1  0  0  0
 22 62  1  0  0  0
 22 63  1  0  0  0
 23 24  1  0  0  0
 23 25  1  0  0  0
 24 64  1  0  0  0
 24 65  1  0  0  0
 24 66  1  0  0  0
 25 26  1  0  0  0
 25 67  1  0  0  0
 25 68  1  0  0  0
 26 27  1  0  0  0
 26 69  1  0  0  0
 26 70  1  0  0  0
 27 28  1  0  0  0
 27 71  1  0  0  0
 27 72  1  0  0  0
 28 29  1  0  0  0
 28 73  1  0  0  0
 28 74  1  0  0  0
 29 30  1  0  0  0
 29 75  1  0  0  0
 29 76  1  0  0  0
 30 31  1  0  0  0
 30 77  1  0  0  0
 30 78  1  0  0  0
 31 32  1  0  0  0
 31 79  1  0  0  0
 31 80  1  0  0  0
 32 33  1  0  0  0
 32 81  1  0  0  0
 32 82  1  0  0  0
 33 34  1  0  0  0
 33 35  1  0  0  0
 34 83  1  0  0  0
 34 84  1  0  0  0
 34 85  1  0  0  0
 35 36  1  0  0  0
 35 86  1  0  0  0
 35 87  1  0  0  0
 36 41  1  0  0  0
 36 37  2  0  0  0
 37 38  1  0  0  0
 37 88  1  0  0  0
 38 39  2  0  0  0
 38 89  1  0  0  0
 39 40  1  0  0  0
 39 42  1  0  0  0
 40 41  2  0  0  0
 40 90  1  0  0  0
 41 91  1  0  0  0
M  END
> <s_m_entry_id>
9586

> <s_m_entry_name>
ligand_docking-pose.28

> <s_m_Source_Path>
/home/csk/Desktop/cluster/DUD-E-result/aces

> <s_m_Source_File>
ligand_docking-pose.sdf

> <i_m_Source_File_Index>
28

> <i_lp_mmshare_version>
53161

> <r_lp_tautomer_probability>
0.999

> <s_lp_Force_Field>
OPLS_2005

> <r_lp_Energy>
75.052581

> <b_lp_Chiralities_Consistent>
1

> <s_lp_Variant>
391833-1

> <s_i_glide_gridfile>
glide-grid_1e66

> <i_i_glide_lignum>
816

> <i_i_glide_rotatable_bonds>
14

> <r_i_docking_score>
-8.93944166081952

> <r_i_glide_ligand_efficiency>
-0.212843849067131

> <r_i_glide_ligand_efficiency_sa>
-0.739850889635766

> <r_i_glide_ligand_efficiency_ln>
-1.8868858280706

> <r_i_glide_gscore>
-8.93944166081952

> <r_i_glide_lipo>
-5.77275002775181

> <r_i_glide_hbond>
-0.298366926785713

> <r_i_glide_metal>
0

> <r_i_glide_rewards>
-1.44423668911293

> <r_i_glide_evdw>
-42.8596343994141

> <r_i_glide_ecoul>
0.569746017456055

> <r_i_glide_erotb>
0.719520924337714

> <r_i_glide_esite>
-0.0860891241544838

> <r_i_glide_emodel>
-48.7880610751978

> <r_i_glide_energy>
-42.289888381958

> <r_i_glide_einternal>
20.8263301849365

> <i_i_glide_confnum>
54

> <i_i_glide_posenum>
30

> <r_i_glide_eff_state_penalty>
0

> <i_f3d_flags>
0

> <s_user_duplicate_titles>
391833

> <s_m_subgroup_title>
dock_pv

> <s_m_subgroupid>
dock_pv1

> <b_m_subgroup_collapsed>
1

$$$$
85927
                    3D
 Schrodinger Suite 2021-1.
 55 57  0  0  1  0            999 V2000
    3.2042   58.5504   71.2819 C   0  0  0  0  0  0
    3.6842   59.8287   70.5954 C   0  0  0  0  0  0
    4.7430   59.7864   69.9681 O   0  0  0  0  0  0
    2.8230   61.0505   70.6760 C   0  0  0  0  0  0
    1.7070   61.1108   71.5229 C   0  0  0  0  0  0
    0.9368   62.2690   71.5915 C   0  0  0  0  0  0
    1.2609   63.3820   70.8090 C   0  0  0  0  0  0
    2.3796   63.3265   69.9681 C   0  0  0  0  0  0
    3.1537   62.1723   69.9043 C   0  0  0  0  0  0
    0.4158   64.6270   70.8905 C   0  0  0  0  0  0
   -0.0570   65.0037   71.9664 O   0  0  0  0  0  0
    0.2098   65.2571   69.7201 N   0  0  0  0  0  0
   -0.5236   66.5080   69.5477 C   0  0  0  0  0  0
   -0.6425   66.9246   68.0745 C   0  0  0  0  0  0
    0.6984   67.3832   67.4853 C   0  0  0  0  0  0
    0.7973   67.1386   65.9775 C   0  0  0  0  0  0
    2.2142   67.4850   65.5032 C   0  0  0  0  0  0
    2.4797   68.9082   65.7806 N   0  0  1  0  0  0
    2.3283   69.3109   67.1847 C   0  0  0  0  0  0
    0.9474   68.8863   67.7099 C   0  0  0  0  0  0
    3.7390   69.3817   65.2166 C   0  0  0  0  0  0
    3.7502   69.3978   63.6934 C   0  0  0  0  0  0
    4.9686   69.6342   63.0624 C   0  0  0  0  0  0
    5.0125   69.7080   61.6802 C   0  0  0  0  0  0
    3.8602   69.5155   60.9290 C   0  0  0  0  0  0
    2.6336   69.3080   61.5456 C   0  0  0  0  0  0
    2.5733   69.2962   62.9305 C   0  0  0  0  0  0
    3.1632   58.6928   72.3618 H   0  0  0  0  0  0
    3.8688   57.7140   71.0636 H   0  0  0  0  0  0
    2.2023   58.2932   70.9375 H   0  0  0  0  0  0
    1.4200   60.2733   72.1428 H   0  0  0  0  0  0
    0.0814   62.2929   72.2532 H   0  0  0  0  0  0
    2.6648   64.1797   69.3683 H   0  0  0  0  0  0
    4.0149   62.1643   69.2505 H   0  0  0  0  0  0
    0.5612   64.8245   68.8755 H   0  0  0  0  0  0
   -1.5237   66.5080   69.9680 H   0  0  0  0  0  0
    0.0227   67.2782   70.0968 H   0  0  0  0  0  0
   -1.0621   66.1081   67.4928 H   0  0  0  0  0  0
   -1.3794   67.7228   67.9680 H   0  0  0  0  0  0
    1.5053   66.8177   67.9530 H   0  0  0  0  0  0
    0.5867   66.0964   65.7551 H   0  0  0  0  0  0
    0.0320   67.6802   65.4179 H   0  0  0  0  0  0
    2.9772   66.8616   65.9680 H   0  0  0  0  0  0
    2.2793   67.2649   64.4392 H   0  0  0  0  0  0
    3.1419   68.9083   67.7886 H   0  0  0  0  0  0
    2.4137   70.3962   67.2532 H   0  0  0  0  0  0
    0.1614   69.5027   67.2700 H   0  0  0  0  0  0
    0.8835   69.1173   68.7684 H   0  0  0  0  0  0
    3.8997   70.4140   65.5339 H   0  0  0  0  0  0
    4.5797   68.7995   65.5987 H   0  0  0  0  0  0
    5.8763   69.7680   63.6344 H   0  0  0  0  0  0
    5.9430   69.8855   61.1686 H   0  0  0  0  0  0
    3.9401   69.5238   59.8526 H   0  0  0  0  0  0
    1.7363   69.1854   60.9563 H   0  0  0  0  0  0
    1.6078   69.1832   63.4009 H   0  0  0  0  0  0
  1  2  1  0  0  0
  1 28  1  0  0  0
  1 29  1  0  0  0
  1 30  1  0  0  0
  2  3  2  0  0  0
  2  4  1  0  0  0
  4  9  1  0  0  0
  4  5  2  0  0  0
  5  6  1  0  0  0
  5 31  1  0  0  0
  6  7  2  0  0  0
  6 32  1  0  0  0
  7  8  1  0  0  0
  7 10  1  0  0  0
  8  9  2  0  0  0
  8 33  1  0  0  0
  9 34  1  0  0  0
 10 11  2  0  0  0
 10 12  1  0  0  0
 12 13  1  0  0  0
 12 35  1  0  0  0
 13 14  1  0  0  0
 13 36  1  0  0  0
 13 37  1  0  0  0
 14 15  1  0  0  0
 14 38  1  0  0  0
 14 39  1  0  0  0
 15 20  1  0  0  0
 15 16  1  0  0  0
 15 40  1  0  0  0
 16 17  1  0  0  0
 16 41  1  0  0  0
 16 42  1  0  0  0
 17 18  1  0  0  0
 17 43  1  0  0  0
 17 44  1  0  0  0
 18 19  1  0  0  0
 18 21  1  0  0  0
 19 20  1  0  0  0
 19 45  1  0  0  0
 19 46  1  0  0  0
 20 47  1  0  0  0
 20 48  1  0  0  0
 21 22  1  0  0  0
 21 49  1  0  0  0
 21 50  1  0  0  0
 22 27  1  0  0  0
 22 23  2  0  0  0
 23 24  1  0  0  0
 23 51  1  0  0  0
 24 25  2  0  0  0
 24 52  1  0  0  0
 25 26  1  0  0  0
 25 53  1  0  0  0
 26 27  2  0  0  0
 26 54  1  0  0  0
 27 55  1  0  0  0
M  END
> <s_m_entry_id>
9588

> <s_m_entry_name>
ligand_docking-pose.30

> <s_m_Source_Path>
/home/csk/Desktop/cluster/DUD-E-result/aces

> <s_m_Source_File>
ligand_docking-pose.sdf

> <i_m_Source_File_Index>
30

> <i_lp_mmshare_version>
53161

> <r_lp_tautomer_probability>
0.99995

> <s_lp_Force_Field>
OPLS_2005

> <r_lp_Energy>
33.887871

> <b_lp_Chiralities_Consistent>
1

> <s_lp_Variant>
85927-1

> <s_i_glide_gridfile>
glide-grid_1e66

> <i_i_glide_lignum>
1396

> <i_i_glide_rotatable_bonds>
8

> <r_i_docking_score>
-8.81727488973574

> <r_i_glide_ligand_efficiency>
-0.326565736656879

> <r_i_glide_ligand_efficiency_sa>
-0.979697208894331

> <r_i_glide_ligand_efficiency_ln>
-2.0525162301931

> <r_i_glide_gscore>
-8.81727488973574

> <r_i_glide_lipo>
-3.68164921123871

> <r_i_glide_hbond>
-0.608

> <r_i_glide_metal>
0

> <r_i_glide_rewards>
-2.47908313397965

> <r_i_glide_evdw>
-38.0797996520996

> <r_i_glide_ecoul>
-7.71721363067627

> <r_i_glide_erotb>
1.01302948268903

> <r_i_glide_esite>
0

> <r_i_glide_emodel>
-64.3036418138729

> <r_i_glide_energy>
-45.7970132827759

> <r_i_glide_einternal>
5.72108936309814

> <i_i_glide_confnum>
15

> <i_i_glide_posenum>
131

> <r_i_glide_eff_state_penalty>
0

> <i_f3d_flags>
0

> <s_user_duplicate_titles>
85927

> <s_m_subgroup_title>
dock_pv

> <s_m_subgroupid>
dock_pv1

> <b_m_subgroup_collapsed>
1

$$$$
689468
                    3D
 Schrodinger Suite 2021-1.
 50 53  0  0  1  0            999 V2000
    5.7609   70.2914   63.7484 C   0  0  0  0  0  0
    5.8955   68.9655   62.9662 C   0  0  0  0  0  0
    4.8800   68.8404   61.9692 O   0  0  0  0  0  0
    3.5571   68.7365   62.3374 C   0  0  0  0  0  0
    2.5922   68.9116   61.3341 C   0  0  0  0  0  0
    1.2249   68.9103   61.6435 C   0  0  0  0  0  0
    0.8389   68.6834   62.9647 C   0  0  0  0  0  0
    1.7890   68.4604   63.9291 C   0  0  0  0  0  0
    3.1431   68.4742   63.6522 C   0  0  0  0  0  0
    1.2589   68.2202   65.1531 O   0  0  0  0  0  0
   -0.0868   68.2982   65.0421 C   0  0  0  0  0  0
   -0.9096   68.0425   66.0802 C   0  0  0  0  0  0
   -0.4455   67.5985   67.4078 C   0  0  0  0  0  0
   -1.0940   66.5110   67.9951 C   0  0  0  0  0  0
   -0.5313   65.8900   69.1135 C   0  0  0  0  0  0
    0.5951   66.3731   69.6694 N   0  3  0  0  0  0
    1.1833   67.4986   69.1988 C   0  0  0  0  0  0
    0.6942   68.1146   68.0412 C   0  0  0  0  0  0
    1.1884   65.6205   70.7983 C   0  0  0  0  0  0
    1.7223   64.2354   70.4138 C   0  0  0  0  0  0
    2.9775   64.1833   69.7943 C   0  0  0  0  0  0
    3.5398   62.9685   69.4140 C   0  0  0  0  0  0
    2.8541   61.7814   69.6510 C   0  0  0  0  0  0
    1.6111   61.8147   70.2793 C   0  0  0  0  0  0
    1.0332   63.0275   70.6696 C   0  0  0  0  0  0
   -0.3140   62.9638   71.3802 C   0  0  0  0  0  0
   -0.4501   68.5984   63.6464 C   0  0  0  0  0  0
   -1.5864   68.7185   63.1942 O   0  0  0  0  0  0
    6.3457   70.2802   64.6632 H   0  0  0  0  0  0
    4.7375   70.4980   64.0548 H   0  0  0  0  0  0
    6.0773   71.1404   63.1457 H   0  0  0  0  0  0
    6.8581   68.9083   62.4488 H   0  0  0  0  0  0
    5.8809   68.1072   63.6389 H   0  0  0  0  0  0
    2.9021   69.0682   60.3082 H   0  0  0  0  0  0
    0.4978   69.0608   60.8588 H   0  0  0  0  0  0
    3.8460   68.3065   64.4508 H   0  0  0  0  0  0
   -1.9788   68.1242   65.9425 H   0  0  0  0  0  0
   -1.9812   66.1100   67.5274 H   0  0  0  0  0  0
   -0.9106   64.9827   69.5551 H   0  0  0  0  0  0
    2.0471   67.8581   69.7418 H   0  0  0  0  0  0
    1.2044   68.9754   67.6315 H   0  0  0  0  0  0
    2.0301   66.1977   71.1600 H   0  0  0  0  0  0
    0.4486   65.6261   71.5970 H   0  0  0  0  0  0
    3.5261   65.0939   69.6080 H   0  0  0  0  0  0
    4.5119   62.9545   68.9423 H   0  0  0  0  0  0
    3.2880   60.8371   69.3578 H   0  0  0  0  0  0
    1.0969   60.8839   70.4662 H   0  0  0  0  0  0
   -0.3736   62.0673   71.9956 H   0  0  0  0  0  0
   -0.4778   63.7846   72.0695 H   0  0  0  0  0  0
   -1.1341   62.9160   70.6660 H   0  0  0  0  0  0
  1  2  1  0  0  0
  1 29  1  0  0  0
  1 30  1  0  0  0
  1 31  1  0  0  0
  2  3  1  0  0  0
  2 32  1  0  0  0
  2 33  1  0  0  0
  3  4  1  0  0  0
  4  9  1  0  0  0
  4  5  2  0  0  0
  5  6  1  0  0  0
  5 34  1  0  0  0
  6  7  2  0  0  0
  6 35  1  0  0  0
  7 27  1  0  0  0
  7  8  1  0  0  0
  8  9  2  0  0  0
  8 10  1  0  0  0
  9 36  1  0  0  0
 10 11  1  0  0  0
 11 12  2  0  0  0
 11 27  1  0  0  0
 12 13  1  0  0  0
 12 37  1  0  0  0
 13 18  1  0  0  0
 13 14  2  0  0  0
 14 15  1  0  0  0
 14 38  1  0  0  0
 15 16  2  0  0  0
 15 39  1  0  0  0
 16 17  1  0  0  0
 16 19  1  0  0  0
 17 18  2  0  0  0
 17 40  1  0  0  0
 18 41  1  0  0  0
 19 20  1  0  0  0
 19 42  1  0  0  0
 19 43  1  0  0  0
 20 25  1  0  0  0
 20 21  2  0  0  0
 21 22  1  0  0  0
 21 44  1  0  0  0
 22 23  2  0  0  0
 22 45  1  0  0  0
 23 24  1  0  0  0
 23 46  1  0  0  0
 24 25  2  0  0  0
 24 47  1  0  0  0
 25 26  1  0  0  0
 26 48  1  0  0  0
 26 49  1  0  0  0
 26 50  1  0  0  0
 27 28  2  0  0  0
M  CHG  1  16   1
M  END
> <s_m_entry_id>
9590

> <s_m_entry_name>
ligand_docking-pose.32

> <s_m_Source_Path>
/home/csk/Desktop/cluster/DUD-E-result/aces

> <s_m_Source_File>
ligand_docking-pose.sdf

> <i_m_Source_File_Index>
32

> <i_lp_mmshare_version>
53161

> <r_lp_tautomer_probability>
1

> <s_lp_Force_Field>
OPLS_2005

> <r_lp_Energy>
41.527338

> <b_lp_Chiralities_Consistent>
1

> <s_lp_Variant>
689468-1

> <s_i_glide_gridfile>
glide-grid_1e66

> <i_i_glide_lignum>
1389

> <i_i_glide_rotatable_bonds>
5

> <r_i_docking_score>
-8.76359479706875

> <r_i_glide_ligand_efficiency>
-0.312985528466741

> <r_i_glide_ligand_efficiency_sa>
-0.95040840304313

> <r_i_glide_ligand_efficiency_ln>
-2.02289498948754

> <r_i_glide_gscore>
-8.76359479706875

> <r_i_glide_lipo>
-4.48810853254841

> <r_i_glide_hbond>
0

> <r_i_glide_metal>
0

> <r_i_glide_rewards>
-2.38259698466347

> <r_i_glide_evdw>
-44.728889465332

> <r_i_glide_ecoul>
-1.42275547981262

> <r_i_glide_erotb>
0.556968515381635

> <r_i_glide_esite>
0

> <r_i_glide_emodel>
-67.5221810612725

> <r_i_glide_energy>
-46.1516449451447

> <r_i_glide_einternal>
1.53642141819

> <i_i_glide_confnum>
11

> <i_i_glide_posenum>
1

> <r_i_glide_eff_state_penalty>
0

> <i_f3d_flags>
0

> <s_user_duplicate_titles>
689468

> <s_m_subgroup_title>
dock_pv

> <s_m_subgroupid>
dock_pv1

> <b_m_subgroup_collapsed>
1

$$$$
227352
                    3D
 Schrodinger Suite 2021-1.
 28 28  0  0  1  0            999 V2000
    2.5905   67.9796   65.9162 C   0  0  0  0  0  0
    2.2191   68.3503   64.4779 C   0  0  0  0  0  0
    3.1509   68.8313   63.5151 C   0  0  0  0  0  0
    2.7062   69.0727   62.1992 C   0  0  0  0  0  0
    1.3698   68.9078   61.8515 C   0  0  0  0  0  0
    0.4554   68.4669   62.7979 C   0  0  0  0  0  0
    0.8759   68.1737   64.0919 C   0  0  0  0  0  0
   -0.0570   67.7081   64.9809 O   0  0  0  0  0  0
    4.6299   69.1134   63.8434 N   0  3  0  0  0  0
    5.3495   70.0179   62.8041 C   0  0  0  0  0  0
    4.8493   69.8424   65.2022 C   0  0  0  0  0  0
    5.4744   67.8213   63.8410 C   0  0  0  0  0  0
    1.8851   67.2824   66.3684 H   0  0  0  0  0  0
    2.6293   68.8650   66.5511 H   0  0  0  0  0  0
    3.5347   67.4526   65.9675 H   0  0  0  0  0  0
    3.3602   69.4124   61.4121 H   0  0  0  0  0  0
    1.0430   69.1160   60.8421 H   0  0  0  0  0  0
   -0.5804   68.3344   62.5205 H   0  0  0  0  0  0
   -0.7116   67.1065   64.5866 H   0  0  0  0  0  0
    6.3430   70.2731   63.1680 H   0  0  0  0  0  0
    5.4413   69.4937   61.8508 H   0  0  0  0  0  0
    4.7427   70.9080   62.7069 H   0  0  0  0  0  0
    5.7897   70.3944   65.2119 H   0  0  0  0  0  0
    4.0110   70.5219   65.3383 H   0  0  0  0  0  0
    4.8957   69.1181   66.0109 H   0  0  0  0  0  0
    6.4888   68.1080   64.1229 H   0  0  0  0  0  0
    5.0582   67.1152   64.5529 H   0  0  0  0  0  0
    5.4424   67.4051   62.8322 H   0  0  0  0  0  0
  1  2  1  0  0  0
  1 13  1  0  0  0
  1 14  1  0  0  0
  1 15  1  0  0  0
  2  7  1  0  0  0
  2  3  2  0  0  0
  3  4  1  0  0  0
  3  9  1  0  0  0
  4  5  2  0  0  0
  4 16  1  0  0  0
  5  6  1  0  0  0
  5 17  1  0  0  0
  6  7  2  0  0  0
  6 18  1  0  0  0
  7  8  1  0  0  0
  8 19  1  0  0  0
  9 10  1  0  0  0
  9 11  1  0  0  0
  9 12  1  0  0  0
 10 20  1  0  0  0
 10 21  1  0  0  0
 10 22  1  0  0  0
 11 23  1  0  0  0
 11 24  1  0  0  0
 11 25  1  0  0  0
 12 26  1  0  0  0
 12 27  1  0  0  0
 12 28  1  0  0  0
M  CHG  1   9   1
M  END
> <s_m_entry_id>
9592

> <s_m_entry_name>
ligand_docking-pose.34

> <s_m_Source_Path>
/home/csk/Desktop/cluster/DUD-E-result/aces

> <s_m_Source_File>
ligand_docking-pose.sdf

> <i_m_Source_File_Index>
34

> <i_lp_mmshare_version>
53161

> <r_lp_tautomer_probability>
1

> <s_lp_Force_Field>
OPLS_2005

> <r_lp_Energy>
25.040395

> <b_lp_Chiralities_Consistent>
1

> <s_lp_Variant>
227352-1

> <s_i_glide_gridfile>
glide-grid_1e66

> <i_i_glide_lignum>
801

> <i_i_glide_rotatable_bonds>
2

> <r_i_docking_score>
-8.6801456303694

> <r_i_glide_ligand_efficiency>
-0.72334546919745

> <r_i_glide_ligand_efficiency_sa>
-1.65604772038178

> <r_i_glide_ligand_efficiency_ln>
-2.49078282510019

> <r_i_glide_gscore>
-8.6801456303694

> <r_i_glide_lipo>
-2.32336560962035

> <r_i_glide_hbond>
-0.32

> <r_i_glide_metal>
0

> <r_i_glide_rewards>
-3.56191668227859

> <r_i_glide_evdw>
-19.5982666015625

> <r_i_glide_ecoul>
-9.96633338928223

> <r_i_glide_erotb>
0

> <r_i_glide_esite>
0

> <r_i_glide_emodel>
-50.3555802278375

> <r_i_glide_energy>
-29.5645999908447

> <r_i_glide_einternal>
1.94212889671326

> <i_i_glide_confnum>
1

> <i_i_glide_posenum>
225

> <r_i_glide_eff_state_penalty>
0

> <i_f3d_flags>
0

> <s_user_duplicate_titles>
227352

> <s_m_subgroup_title>
dock_pv

> <s_m_subgroupid>
dock_pv1

> <b_m_subgroup_collapsed>
1

$$$$
630467
                    3D
 Schrodinger Suite 2021-1.
 56 59  0  0  1  0            999 V2000
    5.8582   61.2098   72.1957 C   0  0  0  0  0  0
    4.5093   60.7737   72.0762 O   0  0  0  0  0  0
    3.5606   61.6791   71.6381 C   0  0  0  0  0  0
    3.9001   62.9559   71.1653 C   0  0  0  0  0  0
    2.9137   63.8475   70.7749 C   0  0  0  0  0  0
    1.5718   63.4963   70.8565 C   0  0  0  0  0  0
    1.2162   62.2226   71.3010 C   0  0  0  0  0  0
    2.2062   61.3026   71.6968 C   0  0  0  0  0  0
    1.9208   60.0327   72.1665 O   0  0  0  0  0  0
    0.5646   59.6476   72.3630 C   0  0  0  0  0  0
    0.6997   64.6662   70.4468 C   0  0  1  0  0  0
    1.6885   65.6505   69.7918 C   0  0  2  0  0  0
    3.0758   65.2718   70.3305 C   0  0  0  0  0  0
    1.2799   67.1589   69.8758 C   0  0  0  0  0  0
    1.1651   68.0137   68.5720 C   0  0  0  0  0  0
    2.1574   69.2034   68.4366 C   0  0  0  0  0  0
    2.4042   69.7227   67.0048 C   0  0  0  0  0  0
    2.3792   68.6883   65.9578 N   0  0  0  0  0  0
    1.0207   68.1249   65.9660 C   0  0  0  0  0  0
    0.7656   67.3155   67.2483 C   0  0  0  0  0  0
    3.1061   68.8871   64.7821 C   0  0  0  0  0  0
    2.5237   68.7563   63.5105 C   0  0  0  0  0  0
    3.2886   68.9073   62.3561 C   0  0  0  0  0  0
    4.6457   69.1963   62.4606 C   0  0  0  0  0  0
    5.2417   69.3356   63.7094 C   0  0  0  0  0  0
    4.4756   69.1779   64.8611 C   0  0  0  0  0  0
   -0.3437   64.2893   69.5680 O   0  0  0  0  0  0
    6.4246   60.4892   72.7677 H   0  0  0  0  0  0
    6.3336   61.3133   71.2194 H   0  0  0  0  0  0
    5.9391   62.1499   72.7445 H   0  0  0  0  0  0
    4.9267   63.2808   71.1055 H   0  0  0  0  0  0
    0.1681   61.9703   71.3505 H   0  0  0  0  0  0
    0.5278   58.6148   72.7105 H   0  0  0  0  0  0
   -0.0078   59.7053   71.4377 H   0  0  0  0  0  0
    0.0820   60.2710   73.1177 H   0  0  0  0  0  0
    0.2746   65.1055   71.3508 H   0  0  0  0  0  0
    1.7472   65.3425   68.7616 H   0  0  0  0  0  0
    3.3856   65.8989   71.1628 H   0  0  0  0  0  0
    3.8473   65.3079   69.5680 H   0  0  0  0  0  0
    0.3270   67.2296   70.4010 H   0  0  0  0  0  0
    1.9743   67.6719   70.5333 H   0  0  0  0  0  0
    0.2594   68.5983   68.7476 H   0  0  0  0  0  0
    1.9398   70.0125   69.1352 H   0  0  0  0  0  0
    3.1418   68.9078   68.7643 H   0  0  0  0  0  0
    1.6943   70.5070   66.7709 H   0  0  0  0  0  0
    3.3766   70.2172   67.0078 H   0  0  0  0  0  0
    0.2724   68.9076   65.8295 H   0  0  0  0  0  0
    0.9033   67.4280   65.1355 H   0  0  0  0  0  0
    1.3868   66.4427   67.0837 H   0  0  0  0  0  0
   -0.2538   66.9290   67.2957 H   0  0  0  0  0  0
    1.4719   68.5445   63.3988 H   0  0  0  0  0  0
    2.8316   68.8032   61.3832 H   0  0  0  0  0  0
    5.2447   69.3102   61.5684 H   0  0  0  0  0  0
    6.2963   69.5580   63.7836 H   0  0  0  0  0  0
    4.9608   69.2633   65.8221 H   0  0  0  0  0  0
    0.0381   64.1208   68.6956 H   0  0  0  0  0  0
  1  2  1  0  0  0
  1 28  1  0  0  0
  1 29  1  0  0  0
  1 30  1  0  0  0
  2  3  1  0  0  0
  3  8  1  0  0  0
  3  4  2  0  0  0
  4  5  1  0  0  0
  4 31  1  0  0  0
  5 13  1  0  0  0
  5  6  2  0  0  0
  6  7  1  0  0  0
  6 11  1  0  0  0
  7  8  2  0  0  0
  7 32  1  0  0  0
  8  9  1  0  0  0
  9 10  1  0  0  0
 10 33  1  0  0  0
 10 34  1  0  0  0
 10 35  1  0  0  0
 11 12  1  0  0  0
 11 27  1  0  0  0
 11 36  1  0  0  0
 12 13  1  0  0  0
 12 14  1  0  0  0
 12 37  1  0  0  0
 13 38  1  0  0  0
 13 39  1  0  0  0
 14 15  1  0  0  0
 14 40  1  0  0  0
 14 41  1  0  0  0
 15 20  1  0  0  0
 15 16  1  0  0  0
 15 42  1  0  0  0
 16 17  1  0  0  0
 16 43  1  0  0  0
 16 44  1  0  0  0
 17 18  1  0  0  0
 17 45  1  0  0  0
 17 46  1  0  0  0
 18 19  1  0  0  0
 18 21  1  0  0  0
 19 20  1  0  0  0
 19 47  1  0  0  0
 19 48  1  0  0  0
 20 49  1  0  0  0
 20 50  1  0  0  0
 21 26  1  0  0  0
 21 22  2  0  0  0
 22 23  1  0  0  0
 22 51  1  0  0  0
 23 24  2  0  0  0
 23 52  1  0  0  0
 24 25  1  0  0  0
 24 53  1  0  0  0
 25 26  2  0  0  0
 25 54  1  0  0  0
 26 55  1  0  0  0
 27 56  1  0  0  0
M  END
> <s_m_entry_id>
9594

> <s_m_entry_name>
ligand_docking-pose.36

> <s_m_Source_Path>
/home/csk/Desktop/cluster/DUD-E-result/aces

> <s_m_Source_File>
ligand_docking-pose.sdf

> <i_m_Source_File_Index>
36

> <i_lp_mmshare_version>
53161

> <r_lp_tautomer_probability>
1

> <s_lp_Force_Field>
OPLS_2005

> <r_lp_Energy>
44.884321

> <b_lp_Chiralities_Consistent>
1

> <s_lp_Variant>
630467-3

> <s_i_glide_gridfile>
glide-grid_1e66

> <i_i_glide_lignum>
1900

> <i_i_glide_rotatable_bonds>
6

> <r_i_docking_score>
-8.57885454950461

> <r_i_glide_ligand_efficiency>
-0.317735353685356

> <r_i_glide_ligand_efficiency_sa>
-0.953206060008864

> <r_i_glide_ligand_efficiency_ln>
-1.9970159056538

> <r_i_glide_gscore>
-8.57885454950461

> <r_i_glide_lipo>
-4.1792995139517

> <r_i_glide_hbond>
-0.32

> <r_i_glide_metal>
0

> <r_i_glide_rewards>
-2.01201131226022

> <r_i_glide_evdw>
-36.9969825744629

> <r_i_glide_ecoul>
-4.30360698699951

> <r_i_glide_erotb>
0.427846453480389

> <r_i_glide_esite>
0

> <r_i_glide_emodel>
-47.4693557279938

> <r_i_glide_energy>
-41.3005895614624

> <r_i_glide_einternal>
14.3028879165649

> <i_i_glide_confnum>
15

> <i_i_glide_posenum>
285

> <r_i_glide_eff_state_penalty>
0

> <i_f3d_flags>
0

> <s_user_duplicate_titles>
630467

> <s_m_subgroup_title>
dock_pv

> <s_m_subgroupid>
dock_pv1

> <b_m_subgroup_collapsed>
1

$$$$
179805
                    3D
 Schrodinger Suite 2021-1.
 42 45  0  0  1  0            999 V2000
    6.6260   70.8068   67.9678 C   0  0  0  0  0  0
    6.6216   70.2782   66.6879 C   0  0  0  0  0  0
    5.4161   69.8275   66.1076 C   0  0  0  0  0  0
    4.1854   69.8974   66.8324 C   0  0  0  0  0  0
    4.2294   70.5080   68.1421 C   0  0  0  0  0  0
    5.4464   70.9097   68.6773 C   0  0  0  0  0  0
    2.8524   70.7240   69.1679 Cl  0  0  0  0  0  0
    3.0287   69.3080   66.2010 C   0  0  0  0  0  0
    3.1272   68.8272   64.8699 C   0  0  0  0  0  0
    4.3843   68.8840   64.2404 C   0  0  0  0  0  0
    5.4994   69.3248   64.8575 N   0  0  0  0  0  0
    4.6340   68.3971   62.8126 C   0  0  0  0  0  0
    3.8642   69.1515   61.7175 C   0  0  0  0  0  0
    2.3923   68.7651   61.5737 C   0  0  0  0  0  0
    1.5271   69.0422   62.8007 C   0  0  0  0  0  0
    1.9264   68.2863   64.0750 C   0  0  0  0  0  0
    1.8036   69.2159   66.8914 N   0  0  0  0  0  0
    1.2304   67.8957   67.1626 C   0  0  0  0  0  0
   -0.2797   67.8323   67.1410 C   0  0  0  0  0  0
   -1.0955   66.9102   67.7875 C   0  0  0  0  0  0
   -2.4569   67.1074   67.5700 C   0  0  0  0  0  0
   -2.7279   68.1580   66.7224 C   0  0  0  0  0  0
   -1.2754   68.9080   66.1894 S   0  0  0  0  0  0
    7.5430   71.1448   68.4209 H   0  0  0  0  0  0
    7.5422   70.2088   66.1267 H   0  0  0  0  0  0
    5.4824   71.3080   69.6742 H   0  0  0  0  0  0
    4.4130   67.3308   62.7615 H   0  0  0  0  0  0
    5.6991   68.4735   62.5777 H   0  0  0  0  0  0
    4.3430   68.9519   60.7629 H   0  0  0  0  0  0
    3.9647   70.2253   61.8727 H   0  0  0  0  0  0
    2.3293   67.7082   61.3283 H   0  0  0  0  0  0
    1.9656   69.2961   60.7239 H   0  0  0  0  0  0
    0.4999   68.7722   62.5474 H   0  0  0  0  0  0
    1.5009   70.1080   63.0120 H   0  0  0  0  0  0
    2.0924   67.2290   63.8919 H   0  0  0  0  0  0
    1.0282   68.3016   64.6770 H   0  0  0  0  0  0
    1.6450   69.8925   67.6272 H   0  0  0  0  0  0
    1.5431   67.5971   68.1613 H   0  0  0  0  0  0
    1.6490   67.1415   66.4957 H   0  0  0  0  0  0
   -0.7068   66.1243   68.4181 H   0  0  0  0  0  0
   -3.2308   66.5081   68.0177 H   0  0  0  0  0  0
   -3.6923   68.5163   66.3924 H   0  0  0  0  0  0
  1  6  1  0  0  0
  1  2  2  0  0  0
  1 24  1  0  0  0
  2  3  1  0  0  0
  2 25  1  0  0  0
  3 11  2  0  0  0
  3  4  1  0  0  0
  4  5  1  0  0  0
  4  8  2  0  0  0
  5  6  2  0  0  0
  5  7  1  0  0  0
  6 26  1  0  0  0
  8  9  1  0  0  0
  8 17  1  0  0  0
  9 16  1  0  0  0
  9 10  2  0  0  0
 10 11  1  0  0  0
 10 12  1  0  0  0
 12 13  1  0  0  0
 12 27  1  0  0  0
 12 28  1  0  0  0
 13 14  1  0  0  0
 13 29  1  0  0  0
 13 30  1  0  0  0
 14 15  1  0  0  0
 14 31  1  0  0  0
 14 32  1  0  0  0
 15 16  1  0  0  0
 15 33  1  0  0  0
 15 34  1  0  0  0
 16 35  1  0  0  0
 16 36  1  0  0  0
 17 18  1  0  0  0
 17 37  1  0  0  0
 18 19  1  0  0  0
 18 38  1  0  0  0
 18 39  1  0  0  0
 19 23  1  0  0  0
 19 20  2  0  0  0
 20 21  1  0  0  0
 20 40  1  0  0  0
 21 22  2  0  0  0
 21 41  1  0  0  0
 22 23  1  0  0  0
 22 42  1  0  0  0
M  END
> <s_m_entry_id>
9595

> <s_m_entry_name>
ligand_docking-pose.37

> <s_m_Source_Path>
/home/csk/Desktop/cluster/DUD-E-result/aces

> <s_m_Source_File>
ligand_docking-pose.sdf

> <i_m_Source_File_Index>
37

> <i_lp_mmshare_version>
53161

> <r_lp_tautomer_probability>
1

> <s_lp_Force_Field>
OPLS_2005

> <r_lp_Energy>
30.183584

> <b_lp_Chiralities_Consistent>
1

> <s_lp_Variant>
179805-1

> <s_i_glide_gridfile>
glide-grid_1e66

> <i_i_glide_lignum>
17

> <i_i_glide_rotatable_bonds>
3

> <r_i_docking_score>
-8.52991298649658

> <r_i_glide_ligand_efficiency>
-0.37086578202159

> <r_i_glide_ligand_efficiency_sa>
-1.0546929503457

> <r_i_glide_ligand_efficiency_ln>
-2.06261030510959

> <r_i_glide_gscore>
-8.52991298649658

> <r_i_glide_lipo>
-5.08609853740711

> <r_i_glide_hbond>
0

> <r_i_glide_metal>
0

> <r_i_glide_rewards>
-1.88434525552954

> <r_i_glide_evdw>
-41.2883453369141

> <r_i_glide_ecoul>
0.139656141400337

> <r_i_glide_erotb>
0.483999652075729

> <r_i_glide_esite>
0

> <r_i_glide_emodel>
-58.3749662581098

> <r_i_glide_energy>
-41.1486891955137

> <r_i_glide_einternal>
5.9229474067688

> <i_i_glide_confnum>
32

> <i_i_glide_posenum>
305

> <r_i_glide_eff_state_penalty>
0

> <i_f3d_flags>
0

> <s_user_duplicate_titles>
179805

> <s_m_subgroup_title>
dock_pv

> <s_m_subgroupid>
dock_pv1

> <b_m_subgroup_collapsed>
1

$$$$
689265
                    3D
 Schrodinger Suite 2021-1.
 50 53  0  0  1  0            999 V2000
    5.7297   70.3113   63.7975 C   0  0  0  0  0  0
    5.8811   68.9757   63.0396 C   0  0  0  0  0  0
    4.8911   68.8512   62.0179 O   0  0  0  0  0  0
    3.5629   68.7412   62.3685 C   0  0  0  0  0  0
    2.6111   68.9480   61.3604 C   0  0  0  0  0  0
    1.2390   68.9137   61.6425 C   0  0  0  0  0  0
    0.8359   68.6434   62.9502 C   0  0  0  0  0  0
    1.7725   68.4203   63.9265 C   0  0  0  0  0  0
    3.1300   68.4494   63.6717 C   0  0  0  0  0  0
    1.2255   68.1708   65.1404 O   0  0  0  0  0  0
   -0.1188   68.2477   65.0051 C   0  0  0  0  0  0
   -0.9691   68.0296   66.0260 C   0  0  0  0  0  0
   -0.5089   67.6374   67.3561 C   0  0  0  0  0  0
    0.6013   68.2321   67.9626 C   0  0  0  0  0  0
    1.1435   67.6536   69.1069 C   0  0  0  0  0  0
    0.6314   66.5004   69.5983 N   0  3  0  0  0  0
   -0.4939   65.9584   69.0824 C   0  0  0  0  0  0
   -1.1027   66.5339   67.9656 C   0  0  0  0  0  0
    1.2837   65.8740   70.7668 C   0  0  0  0  0  0
    1.3322   64.3484   70.7965 C   0  0  0  0  0  0
    2.2762   63.6569   70.0328 C   0  0  0  0  0  0
    2.3664   62.2691   70.1320 C   0  0  0  0  0  0
    1.5183   61.5750   70.9989 C   0  0  0  0  0  0
    0.5558   62.2638   71.7391 C   0  0  0  0  0  0
    0.4661   63.6492   71.6416 C   0  0  0  0  0  0
    1.6340   60.0679   71.1437 C   0  0  0  0  0  0
   -0.4595   68.5223   63.6137 C   0  0  0  0  0  0
   -1.5974   68.6258   63.1690 O   0  0  0  0  0  0
    6.3532   70.3454   64.6865 H   0  0  0  0  0  0
    4.7139   70.4942   64.1416 H   0  0  0  0  0  0
    5.9949   71.1498   63.1576 H   0  0  0  0  0  0
    6.8597   68.9108   62.5647 H   0  0  0  0  0  0
    5.8479   68.1250   63.7207 H   0  0  0  0  0  0
    2.9443   69.1689   60.3562 H   0  0  0  0  0  0
    0.5241   69.0879   60.8509 H   0  0  0  0  0  0
    3.8189   68.2701   64.4806 H   0  0  0  0  0  0
   -2.0373   68.1044   65.8722 H   0  0  0  0  0  0
    1.0589   69.1124   67.5340 H   0  0  0  0  0  0
    1.9934   68.0768   69.6232 H   0  0  0  0  0  0
   -0.8568   65.0572   69.5525 H   0  0  0  0  0  0
   -1.9903   66.1096   67.5229 H   0  0  0  0  0  0
    2.3107   66.2430   70.7903 H   0  0  0  0  0  0
    0.7427   66.2640   71.6270 H   0  0  0  0  0  0
    2.9508   64.1938   69.3810 H   0  0  0  0  0  0
    3.1072   61.7374   69.5542 H   0  0  0  0  0  0
   -0.1098   61.7304   72.4036 H   0  0  0  0  0  0
   -0.2653   64.1748   72.2395 H   0  0  0  0  0  0
    2.2576   59.8127   72.0021 H   0  0  0  0  0  0
    0.6487   59.6233   71.2915 H   0  0  0  0  0  0
    2.0570   59.6084   70.2507 H   0  0  0  0  0  0
  1  2  1  0  0  0
  1 29  1  0  0  0
  1 30  1  0  0  0
  1 31  1  0  0  0
  2  3  1  0  0  0
  2 32  1  0  0  0
  2 33  1  0  0  0
  3  4  1  0  0  0
  4  9  1  0  0  0
  4  5  2  0  0  0
  5  6  1  0  0  0
  5 34  1  0  0  0
  6  7  2  0  0  0
  6 35  1  0  0  0
  7 27  1  0  0  0
  7  8  1  0  0  0
  8  9  2  0  0  0
  8 10  1  0  0  0
  9 36  1  0  0  0
 10 11  1  0  0  0
 11 12  2  0  0  0
 11 27  1  0  0  0
 12 13  1  0  0  0
 12 37  1  0  0  0
 13 18  1  0  0  0
 13 14  2  0  0  0
 14 15  1  0  0  0
 14 38  1  0  0  0
 15 16  2  0  0  0
 15 39  1  0  0  0
 16 17  1  0  0  0
 16 19  1  0  0  0
 17 18  2  0  0  0
 17 40  1  0  0  0
 18 41  1  0  0  0
 19 20  1  0  0  0
 19 42  1  0  0  0
 19 43  1  0  0  0
 20 25  1  0  0  0
 20 21  2  0  0  0
 21 22  1  0  0  0
 21 44  1  0  0  0
 22 23  2  0  0  0
 22 45  1  0  0  0
 23 24  1  0  0  0
 23 26  1  0  0  0
 24 25  2  0  0  0
 24 46  1  0  0  0
 25 47  1  0  0  0
 26 48  1  0  0  0
 26 49  1  0  0  0
 26 50  1  0  0  0
 27 28  2  0  0  0
M  CHG  1  16   1
M  END
> <s_m_entry_id>
9596

> <s_m_entry_name>
ligand_docking-pose.38

> <s_m_Source_Path>
/home/csk/Desktop/cluster/DUD-E-result/aces

> <s_m_Source_File>
ligand_docking-pose.sdf

> <i_m_Source_File_Index>
38

> <i_lp_mmshare_version>
53161

> <r_lp_tautomer_probability>
1

> <s_lp_Force_Field>
OPLS_2005

> <r_lp_Energy>
40.296884

> <b_lp_Chiralities_Consistent>
1

> <s_lp_Variant>
689265-1

> <s_i_glide_gridfile>
glide-grid_1e66

> <i_i_glide_lignum>
1387

> <i_i_glide_rotatable_bonds>
5

> <r_i_docking_score>
-8.51491664906546

> <r_i_glide_ligand_efficiency>
-0.304104166038052

> <r_i_glide_ligand_efficiency_sa>
-0.923439355866898

> <r_i_glide_ligand_efficiency_ln>
-1.96549277142069

> <r_i_glide_gscore>
-8.51491664906546

> <r_i_glide_lipo>
-4.24481941114624

> <r_i_glide_hbond>
0

> <r_i_glide_metal>
0

> <r_i_glide_rewards>
-2.35176123317069

> <r_i_glide_evdw>
-44.3924903869629

> <r_i_glide_ecoul>
-1.70453333854675

> <r_i_glide_erotb>
0.556968515381635

> <r_i_glide_esite>
0

> <r_i_glide_emodel>
-59.4704602078428

> <r_i_glide_energy>
-46.0970237255096

> <r_i_glide_einternal>
5.44411945343018

> <i_i_glide_confnum>
7

> <i_i_glide_posenum>
10

> <r_i_glide_eff_state_penalty>
0

> <i_f3d_flags>
0

> <s_user_duplicate_titles>
689265

> <s_m_subgroup_title>
dock_pv

> <s_m_subgroupid>
dock_pv1

> <b_m_subgroup_collapsed>
1

$$$$
631153
                    3D
 Schrodinger Suite 2021-1.
 68 70  0  0  1  0            999 V2000
   -0.3320   68.2145   62.8411 C   0  0  0  0  0  0
    0.1674   69.5691   62.3299 C   0  0  0  0  0  0
    1.4659   69.5100   61.5101 C   0  0  0  0  0  0
    2.7338   69.1153   62.2909 C   0  0  0  0  0  0
    4.0244   69.3581   61.4754 C   0  0  0  0  0  0
    5.3555   68.9747   62.1665 C   0  0  0  0  0  0
    5.5256   69.5711   63.4903 N   0  0  0  0  0  0
    5.2439   68.8730   64.6488 C   0  0  0  0  0  0
    4.9651   67.6767   64.7257 O   0  0  0  0  0  0
    5.1800   69.7254   65.6871 O   0  0  0  0  0  0
    4.1015   69.7084   66.5579 C   0  0  0  0  0  0
    4.2785   70.3305   67.7987 C   0  0  0  0  0  0
    3.2155   70.4383   68.6985 C   0  0  0  0  0  0
    1.9643   69.9283   68.3528 C   0  0  0  0  0  0
    1.7593   69.3022   67.1213 C   0  0  0  0  0  0
    2.8240   69.2141   66.2283 C   0  0  0  0  0  0
    0.3741   68.8274   66.6745 C   0  0  0  0  0  0
   -0.3378   68.0089   67.6598 N   0  0  1  0  0  0
   -1.7565   67.9737   67.2902 C   0  0  0  0  0  0
    0.2105   66.6486   67.7012 C   0  0  0  0  0  0
   -0.2022   65.8511   68.9616 C   0  0  0  0  0  0
    0.5813   66.2312   70.2343 C   0  0  0  0  0  0
    1.9613   65.8683   70.1546 O   0  0  0  0  0  0
    2.3731   64.5666   70.3670 C   0  0  0  0  0  0
    3.7436   64.3247   70.2724 C   0  0  0  0  0  0
    4.2718   63.0474   70.4513 C   0  0  0  0  0  0
    3.4267   61.9690   70.7395 C   0  0  0  0  0  0
    3.9552   60.5773   70.9088 C   0  0  0  0  0  0
    5.1432   60.2847   70.7679 O   0  0  0  0  0  0
    2.9224   59.6078   71.2357 C   0  0  0  0  0  0
    1.6289   59.9637   71.3463 C   0  0  0  0  0  0
    1.1488   61.2179   71.1637 O   0  0  0  0  0  0
    2.0498   62.2181   70.8619 C   0  0  0  0  0  0
    1.5252   63.4948   70.6767 C   0  0  0  0  0  0
   -1.2160   68.3350   63.4689 H   0  0  0  0  0  0
    0.4234   67.6976   63.4316 H   0  0  0  0  0  0
   -0.6125   67.5750   62.0082 H   0  0  0  0  0  0
   -0.6140   70.0277   61.7244 H   0  0  0  0  0  0
    0.3028   70.2465   63.1662 H   0  0  0  0  0  0
    1.3333   68.8598   60.6447 H   0  0  0  0  0  0
    1.6212   70.5085   61.1163 H   0  0  0  0  0  0
    2.7742   69.7072   63.2045 H   0  0  0  0  0  0
    2.6774   68.0713   62.5977 H   0  0  0  0  0  0
    3.9439   68.8077   60.5365 H   0  0  0  0  0  0
    4.0808   70.4091   61.1886 H   0  0  0  0  0  0
    5.4355   67.8873   62.2195 H   0  0  0  0  0  0
    6.2003   69.3079   61.5679 H   0  0  0  0  0  0
    5.7350   70.5563   63.5625 H   0  0  0  0  0  0
    5.2426   70.7369   68.0626 H   0  0  0  0  0  0
    3.3563   70.9106   69.6600 H   0  0  0  0  0  0
    1.1427   70.0362   69.0317 H   0  0  0  0  0  0
    2.6452   68.7664   65.2633 H   0  0  0  0  0  0
   -0.2055   69.7191   66.4509 H   0  0  0  0  0  0
    0.4394   68.2931   65.7244 H   0  0  0  0  0  0
   -2.3556   67.4052   68.0004 H   0  0  0  0  0  0
   -2.1749   68.9820   67.2782 H   0  0  0  0  0  0
   -1.9074   67.5362   66.3013 H   0  0  0  0  0  0
   -0.0497   66.1078   66.7893 H   0  0  0  0  0  0
    1.2981   66.7187   67.7079 H   0  0  0  0  0  0
   -1.2579   65.9970   69.1694 H   0  0  0  0  0  0
   -0.0731   64.7895   68.7688 H   0  0  0  0  0  0
    0.5355   67.3093   70.3738 H   0  0  0  0  0  0
    0.1176   65.8114   71.1274 H   0  0  0  0  0  0
    4.4096   65.1470   70.0546 H   0  0  0  0  0  0
    5.3406   62.9082   70.3671 H   0  0  0  0  0  0
    3.1968   58.5761   71.4025 H   0  0  0  0  0  0
    0.8361   59.2699   71.5884 H   0  0  0  0  0  0
    0.4603   63.6263   70.7696 H   0  0  0  0  0  0
  1  2  1  0  0  0
  1 35  1  0  0  0
  1 36  1  0  0  0
  1 37  1  0  0  0
  2  3  1  0  0  0
  2 38  1  0  0  0
  2 39  1  0  0  0
  3  4  1  0  0  0
  3 40  1  0  0  0
  3 41  1  0  0  0
  4  5  1  0  0  0
  4 42  1  0  0  0
  4 43  1  0  0  0
  5  6  1  0  0  0
  5 44  1  0  0  0
  5 45  1  0  0  0
  6  7  1  0  0  0
  6 46  1  0  0  0
  6 47  1  0  0  0
  7  8  1  0  0  0
  7 48  1  0  0  0
  8  9  2  0  0  0
  8 10  1  0  0  0
 10 11  1  0  0  0
 11 16  1  0  0  0
 11 12  2  0  0  0
 12 13  1  0  0  0
 12 49  1  0  0  0
 13 14  2  0  0  0
 13 50  1  0  0  0
 14 15  1  0  0  0
 14 51  1  0  0  0
 15 16  2  0  0  0
 15 17  1  0  0  0
 16 52  1  0  0  0
 17 18  1  0  0  0
 17 53  1  0  0  0
 17 54  1  0  0  0
 18 19  1  0  0  0
 18 20  1  0  0  0
 19 55  1  0  0  0
 19 56  1  0  0  0
 19 57  1  0  0  0
 20 21  1  0  0  0
 20 58  1  0  0  0
 20 59  1  0  0  0
 21 22  1  0  0  0
 21 60  1  0  0  0
 21 61  1  0  0  0
 22 23  1  0  0  0
 22 62  1  0  0  0
 22 63  1  0  0  0
 23 24  1  0  0  0
 24 34  1  0  0  0
 24 25  2  0  0  0
 25 26  1  0  0  0
 25 64  1  0  0  0
 26 27  2  0  0  0
 26 65  1  0  0  0
 27 33  1  0  0  0
 27 28  1  0  0  0
 28 29  2  0  0  0
 28 30  1  0  0  0
 30 31  2  0  0  0
 30 66  1  0  0  0
 31 32  1  0  0  0
 31 67  1  0  0  0
 32 33  1  0  0  0
 33 34  2  0  0  0
 34 68  1  0  0  0
M  END
> <s_m_entry_id>
9599

> <s_m_entry_name>
ligand_docking-pose.41

> <s_m_Source_Path>
/home/csk/Desktop/cluster/DUD-E-result/aces

> <s_m_Source_File>
ligand_docking-pose.sdf

> <i_m_Source_File_Index>
41

> <i_lp_mmshare_version>
53161

> <r_lp_tautomer_probability>
1

> <s_lp_Force_Field>
OPLS_2005

> <r_lp_Energy>
22.408611

> <b_lp_Chiralities_Consistent>
1

> <s_lp_Variant>
631153-1

> <s_i_glide_gridfile>
glide-grid_1e66

> <i_i_glide_lignum>
1064

> <i_i_glide_rotatable_bonds>
15

> <r_i_docking_score>
-8.45860723028191

> <r_i_glide_ligand_efficiency>
-0.248782565596527

> <r_i_glide_ligand_efficiency_sa>
-0.805958934511231

> <r_i_glide_ligand_efficiency_ln>
-1.86874359306569

> <r_i_glide_gscore>
-8.45860723028191

> <r_i_glide_lipo>
-5.27759370073271

> <r_i_glide_hbond>
-0.300550530073117

> <r_i_glide_metal>
0

> <r_i_glide_rewards>
-0.319919131641927

> <r_i_glide_evdw>
-55.394416809082

> <r_i_glide_ecoul>
-6.63795566558838

> <r_i_glide_erotb>
1.2048703224582

> <r_i_glide_esite>
0

> <r_i_glide_emodel>
-83.8982714849565

> <r_i_glide_energy>
-62.0323724746704

> <r_i_glide_einternal>
9.3737096786499

> <i_i_glide_confnum>
133

> <i_i_glide_posenum>
14

> <r_i_glide_eff_state_penalty>
0

> <i_f3d_flags>
0

> <s_user_duplicate_titles>
631153

> <s_m_subgroup_title>
dock_pv

> <s_m_subgroupid>
dock_pv1

> <b_m_subgroup_collapsed>
1

$$$$
689403
                    3D
 Schrodinger Suite 2021-1.
 47 50  0  0  1  0            999 V2000
    5.9431   69.1285   62.6369 C   0  0  0  0  0  0
    4.5545   68.8546   63.1631 C   0  0  0  0  0  0
    4.4045   68.1720   64.3664 C   0  0  0  0  0  0
    3.1356   67.9865   64.8985 C   0  0  0  0  0  0
    2.0124   68.5094   64.2433 C   0  0  0  0  0  0
    2.1662   69.1382   63.0062 C   0  0  0  0  0  0
    3.4368   69.3079   62.4634 C   0  0  0  0  0  0
    0.6074   68.4022   64.8381 C   0  0  0  0  0  0
    0.5488   68.0521   66.2816 N   0  3  0  0  0  0
   -0.0679   66.9078   66.6258 C   0  0  0  0  0  0
   -0.1183   66.5080   67.9470 C   0  0  0  0  0  0
    0.5426   67.2123   68.9341 C   0  0  0  0  0  0
    1.1677   68.4111   68.5631 C   0  0  0  0  0  0
    1.1379   68.8358   67.2240 C   0  0  0  0  0  0
    0.4652   66.6406   70.2929 C   0  0  0  0  0  0
    0.6768   65.3419   70.6014 C   0  0  0  0  0  0
    0.3430   64.6560   71.8543 C   0  0  0  0  0  0
   -0.2198   65.1569   72.8272 O   0  0  0  0  0  0
    0.8243   63.2921   71.6409 C   0  0  0  0  0  0
    0.8420   62.1462   72.4340 C   0  0  0  0  0  0
    1.4039   60.9737   71.9122 C   0  0  0  0  0  0
    1.9432   60.9451   70.6078 C   0  0  0  0  0  0
    1.9011   62.1068   69.8297 C   0  0  0  0  0  0
    1.3364   63.2576   70.3680 C   0  0  0  0  0  0
    1.2258   64.4564   69.7333 O   0  0  0  0  0  0
    2.5223   59.8351   70.0225 O   0  0  0  0  0  0
    2.5528   58.6069   70.7428 C   0  0  0  0  0  0
    5.9420   69.3273   61.5665 H   0  0  0  0  0  0
    6.3488   69.9895   63.1686 H   0  0  0  0  0  0
    6.6041   68.2773   62.7978 H   0  0  0  0  0  0
    5.2697   67.8097   64.9032 H   0  0  0  0  0  0
    3.0470   67.4618   65.8378 H   0  0  0  0  0  0
    1.3069   69.5229   62.4760 H   0  0  0  0  0  0
    3.5561   69.8273   61.5233 H   0  0  0  0  0  0
    0.0684   67.6407   64.2713 H   0  0  0  0  0  0
    0.0122   69.3075   64.7204 H   0  0  0  0  0  0
   -0.4573   66.2949   65.8413 H   0  0  0  0  0  0
   -0.6030   65.5853   68.2078 H   0  0  0  0  0  0
    1.6783   69.0069   69.3031 H   0  0  0  0  0  0
    1.6154   69.7396   66.8714 H   0  0  0  0  0  0
    0.1182   67.3073   71.0654 H   0  0  0  0  0  0
    0.4381   62.1499   73.4366 H   0  0  0  0  0  0
    1.4152   60.0947   72.5381 H   0  0  0  0  0  0
    2.2991   62.1006   68.8273 H   0  0  0  0  0  0
    3.0251   57.8408   70.1278 H   0  0  0  0  0  0
    1.5478   58.2583   70.9844 H   0  0  0  0  0  0
    3.1323   58.6940   71.6631 H   0  0  0  0  0  0
  1  2  1  0  0  0
  1 28  1  0  0  0
  1 29  1  0  0  0
  1 30  1  0  0  0
  2  7  1  0  0  0
  2  3  2  0  0  0
  3  4  1  0  0  0
  3 31  1  0  0  0
  4  5  2  0  0  0
  4 32  1  0  0  0
  5  6  1  0  0  0
  5  8  1  0  0  0
  6  7  2  0  0  0
  6 33  1  0  0  0
  7 34  1  0  0  0
  8  9  1  0  0  0
  8 35  1  0  0  0
  8 36  1  0  0  0
  9 14  1  0  0  0
  9 10  2  0  0  0
 10 11  1  0  0  0
 10 37  1  0  0  0
 11 12  2  0  0  0
 11 38  1  0  0  0
 12 13  1  0  0  0
 12 15  1  0  0  0
 13 14  2  0  0  0
 13 39  1  0  0  0
 14 40  1  0  0  0
 15 16  2  0  0  0
 15 41  1  0  0  0
 16 25  1  0  0  0
 16 17  1  0  0  0
 17 18  2  0  0  0
 17 19  1  0  0  0
 19 24  2  0  0  0
 19 20  1  0  0  0
 20 21  2  0  0  0
 20 42  1  0  0  0
 21 22  1  0  0  0
 21 43  1  0  0  0
 22 23  2  0  0  0
 22 26  1  0  0  0
 23 24  1  0  0  0
 23 44  1  0  0  0
 24 25  1  0  0  0
 26 27  1  0  0  0
 27 45  1  0  0  0
 27 46  1  0  0  0
 27 47  1  0  0  0
M  CHG  1   9   1
M  END
> <s_m_entry_id>
9602

> <s_m_entry_name>
ligand_docking-pose.44

> <s_m_Source_Path>
/home/csk/Desktop/cluster/DUD-E-result/aces

> <s_m_Source_File>
ligand_docking-pose.sdf

> <i_m_Source_File_Index>
44

> <i_lp_mmshare_version>
53161

> <r_lp_tautomer_probability>
1

> <s_lp_Force_Field>
OPLS_2005

> <r_lp_Energy>
40.596784

> <b_lp_Chiralities_Consistent>
1

> <s_lp_Variant>
689403-1

> <s_i_glide_gridfile>
glide-grid_1e66

> <i_i_glide_lignum>
739

> <i_i_glide_rotatable_bonds>
4

> <r_i_docking_score>
-8.4448506380944

> <r_i_glide_ligand_efficiency>
-0.312772245855348

> <r_i_glide_ligand_efficiency_sa>
-0.938316736535198

> <r_i_glide_ligand_efficiency_ln>
-1.96582200430464

> <r_i_glide_gscore>
-8.4448506380944

> <r_i_glide_lipo>
-3.51398053916686

> <r_i_glide_hbond>
-0.202088614863421

> <r_i_glide_metal>
0

> <r_i_glide_rewards>
-2.63319205353486

> <r_i_glide_evdw>
-33.1512298583984

> <r_i_glide_ecoul>
-5.9025616645813

> <r_i_glide_erotb>
0.447356312077857

> <r_i_glide_esite>
0

> <r_i_glide_emodel>
-47.9400598393009

> <r_i_glide_energy>
-39.0537915229797

> <r_i_glide_einternal>
8.18610572814941

> <i_i_glide_confnum>
3

> <i_i_glide_posenum>
24

> <r_i_glide_eff_state_penalty>
0

> <i_f3d_flags>
0

> <s_user_duplicate_titles>
689403

> <s_m_subgroup_title>
dock_pv

> <s_m_subgroupid>
dock_pv1

> <b_m_subgroup_collapsed>
1

$$$$
79851
                    3D
 Schrodinger Suite 2021-1.
 30 32  0  0  1  0            999 V2000
    6.5117   70.5017   66.6642 C   0  0  0  0  0  0
    5.5927   69.9249   65.7947 C   0  0  0  0  0  0
    4.2485   69.7083   66.2097 C   0  0  0  0  0  0
    3.8793   70.1080   67.5283 C   0  0  0  0  0  0
    4.8257   70.7341   68.3699 C   0  0  0  0  0  0
    6.1355   70.9079   67.9395 C   0  0  0  0  0  0
    7.0494   71.4582   68.7675 F   0  0  0  0  0  0
    2.6359   69.8896   68.0155 N   0  0  0  0  0  0
    1.6960   69.3066   67.2356 C   0  0  0  0  0  0
    1.9470   68.9020   65.9057 C   0  0  0  0  0  0
    3.2463   69.1010   65.3973 C   0  0  0  0  0  0
    3.5447   68.6860   64.0929 N   0  0  0  0  0  0
    0.8829   68.1073   65.1223 C   0  0  2  0  0  0
   -0.5381   68.3695   65.6590 C   0  0  0  0  0  0
   -0.6012   68.1449   67.1699 C   0  0  0  0  0  0
    0.3207   69.1414   67.8861 C   0  0  0  0  0  0
    1.1371   66.7169   65.1473 O   0  0  0  0  0  0
    7.5335   70.6300   66.3415 H   0  0  0  0  0  0
    5.9138   69.6280   64.8068 H   0  0  0  0  0  0
    4.5359   71.0294   69.3671 H   0  0  0  0  0  0
    2.8326   68.2088   63.5584 H   0  0  0  0  0  0
    4.4461   68.9017   63.6937 H   0  0  0  0  0  0
    0.8987   68.3962   64.0705 H   0  0  0  0  0  0
   -0.8564   69.3808   65.4027 H   0  0  0  0  0  0
   -1.2600   67.7231   65.1605 H   0  0  0  0  0  0
   -1.6241   68.2623   67.5310 H   0  0  0  0  0  0
   -0.3082   67.1216   67.4118 H   0  0  0  0  0  0
    0.4415   68.8278   68.9210 H   0  0  0  0  0  0
   -0.1629   70.1199   67.9130 H   0  0  0  0  0  0
    0.3308   66.2784   64.8484 H   0  0  0  0  0  0
  1  6  1  0  0  0
  1  2  2  0  0  0
  1 18  1  0  0  0
  2  3  1  0  0  0
  2 19  1  0  0  0
  3 11  2  0  0  0
  3  4  1  0  0  0
  4  5  1  0  0  0
  4  8  2  0  0  0
  5  6  2  0  0  0
  5 20  1  0  0  0
  6  7  1  0  0  0
  8  9  1  0  0  0
  9 16  1  0  0  0
  9 10  2  0  0  0
 10 11  1  0  0  0
 10 13  1  0  0  0
 11 12  1  0  0  0
 12 21  1  0  0  0
 12 22  1  0  0  0
 13 14  1  0  0  0
 13 17  1  0  0  0
 13 23  1  0  0  0
 14 15  1  0  0  0
 14 24  1  0  0  0
 14 25  1  0  0  0
 15 16  1  0  0  0
 15 26  1  0  0  0
 15 27  1  0  0  0
 16 28  1  0  0  0
 16 29  1  0  0  0
 17 30  1  0  0  0
M  END
> <s_m_entry_id>
9603

> <s_m_entry_name>
ligand_docking-pose.45

> <s_m_Source_Path>
/home/csk/Desktop/cluster/DUD-E-result/aces

> <s_m_Source_File>
ligand_docking-pose.sdf

> <i_m_Source_File_Index>
45

> <i_lp_mmshare_version>
53161

> <r_lp_tautomer_probability>
1

> <s_lp_Force_Field>
OPLS_2005

> <r_lp_Energy>
19.194067

> <b_lp_Chiralities_Consistent>
1

> <s_lp_Variant>
79851-2

> <s_i_glide_gridfile>
glide-grid_1e66

> <i_i_glide_lignum>
50

> <i_i_glide_rotatable_bonds>
1

> <r_i_docking_score>
-8.44177874018993

> <r_i_glide_ligand_efficiency>
-0.496575220011172

> <r_i_glide_ligand_efficiency_sa>
-1.27683472038594

> <r_i_glide_ligand_efficiency_ln>
-2.20227208414574

> <r_i_glide_gscore>
-8.44177874018993

> <r_i_glide_lipo>
-3.0236817534647

> <r_i_glide_hbond>
-0.32

> <r_i_glide_metal>
0

> <r_i_glide_rewards>
-3.05536505789985

> <r_i_glide_evdw>
-29.5576190948486

> <r_i_glide_ecoul>
-3.76567316055298

> <r_i_glide_erotb>
0

> <r_i_glide_esite>
0

> <r_i_glide_emodel>
-49.8515181875452

> <r_i_glide_energy>
-33.3232922554016

> <r_i_glide_einternal>
0.583884418010712

> <i_i_glide_confnum>
1

> <i_i_glide_posenum>
168

> <r_i_glide_eff_state_penalty>
0

> <i_f3d_flags>
0

> <s_user_duplicate_titles>
79851

> <s_m_subgroup_title>
dock_pv

> <s_m_subgroupid>
dock_pv1

> <b_m_subgroup_collapsed>
1

$$$$
312927
                    3D
 Schrodinger Suite 2021-1.
 52 54  0  0  1  0            999 V2000
    4.2782   69.7041   66.3217 C   0  0  0  0  0  0
    2.7816   69.3309   66.3246 C   0  0  2  0  0  0
    2.1542   69.4438   67.7430 C   0  0  0  0  0  0
    0.7636   68.8013   67.8822 C   0  0  0  0  0  0
    0.7297   67.3827   67.2883 C   0  0  2  0  0  0
    0.9919   67.5178   65.7758 C   0  0  0  0  0  0
    2.4280   68.0450   65.5081 C   0  0  1  0  0  0
    2.7046   68.2334   64.0091 C   0  0  0  0  0  0
    1.7768   68.8905   63.1888 C   0  0  0  0  0  0
    2.0534   69.0985   61.8434 C   0  0  0  0  0  0
    3.2678   68.6738   61.3199 C   0  0  0  0  0  0
    4.2023   68.0214   62.1203 C   0  0  0  0  0  0
    3.9175   67.7955   63.4643 C   0  0  0  0  0  0
    3.5430   68.9080   60.0037 O   0  0  0  0  0  0
   -0.5589   66.5918   67.6242 C   0  0  2  0  0  0
   -1.8592   67.3058   67.1814 C   0  0  0  0  0  0
   -0.6841   66.1029   69.1022 C   0  0  0  0  0  0
    0.3709   65.1525   69.6732 C   0  0  0  0  0  0
    1.6566   65.6163   69.9680 C   0  0  0  0  0  0
    2.6213   64.7431   70.4628 C   0  0  0  0  0  0
    2.2875   63.4171   70.7207 C   0  0  0  0  0  0
    0.9949   62.9548   70.4834 C   0  0  0  0  0  0
    0.0369   63.8243   69.9677 C   0  0  0  0  0  0
    3.2347   62.5677   71.2255 O   0  0  0  0  0  0
    4.8886   68.9194   66.7675 H   0  0  0  0  0  0
    4.6470   69.8759   65.3102 H   0  0  0  0  0  0
    4.4590   70.6203   66.8842 H   0  0  0  0  0  0
    2.2882   70.1080   65.7572 H   0  0  0  0  0  0
    2.7908   68.9080   68.4425 H   0  0  0  0  0  0
    2.1596   70.4764   68.0959 H   0  0  0  0  0  0
   -0.0176   69.4315   67.4547 H   0  0  0  0  0  0
    0.5185   68.7432   68.9397 H   0  0  0  0  0  0
    1.5430   66.7977   67.6871 H   0  0  0  0  0  0
    0.9077   66.5210   65.3388 H   0  0  0  0  0  0
    0.2079   68.1187   65.3170 H   0  0  0  0  0  0
    3.1086   67.2558   65.8328 H   0  0  0  0  0  0
    0.8429   69.2603   63.5828 H   0  0  0  0  0  0
    1.3384   69.6065   61.2128 H   0  0  0  0  0  0
    5.1500   67.7078   61.7057 H   0  0  0  0  0  0
    4.6524   67.3087   64.0884 H   0  0  0  0  0  0
    4.4715   68.6891   59.7843 H   0  0  0  0  0  0
   -0.4920   65.7080   67.0011 H   0  0  0  0  0  0
   -2.0378   68.2183   67.7505 H   0  0  0  0  0  0
   -1.8403   67.5718   66.1249 H   0  0  0  0  0  0
   -2.7302   66.6643   67.3213 H   0  0  0  0  0  0
   -1.6570   65.6389   69.1680 H   0  0  0  0  0  0
   -0.7373   66.9080   69.8152 H   0  0  0  0  0  0
    1.9169   66.6538   69.8188 H   0  0  0  0  0  0
    3.6179   65.1039   70.6729 H   0  0  0  0  0  0
    0.7276   61.9289   70.6894 H   0  0  0  0  0  0
   -0.9585   63.4544   69.7718 H   0  0  0  0  0  0
    2.8767   61.7018   71.4308 H   0  0  0  0  0  0
  1  2  1  0  0  0
  1 25  1  0  0  0
  1 26  1  0  0  0
  1 27  1  0  0  0
  2  7  1  0  0  0
  2  3  1  0  0  0
  2 28  1  0  0  0
  3  4  1  0  0  0
  3 29  1  0  0  0
  3 30  1  0  0  0
  4  5  1  0  0  0
  4 31  1  0  0  0
  4 32  1  0  0  0
  5  6  1  0  0  0
  5 15  1  0  0  0
  5 33  1  0  0  0
  6  7  1  0  0  0
  6 34  1  0  0  0
  6 35  1  0  0  0
  7  8  1  0  0  0
  7 36  1  0  0  0
  8 13  1  0  0  0
  8  9  2  0  0  0
  9 10  1  0  0  0
  9 37  1  0  0  0
 10 11  2  0  0  0
 10 38  1  0  0  0
 11 12  1  0  0  0
 11 14  1  0  0  0
 12 13  2  0  0  0
 12 39  1  0  0  0
 13 40  1  0  0  0
 14 41  1  0  0  0
 15 16  1  0  0  0
 15 17  1  0  0  0
 15 42  1  0  0  0
 16 43  1  0  0  0
 16 44  1  0  0  0
 16 45  1  0  0  0
 17 18  1  0  0  0
 17 46  1  0  0  0
 17 47  1  0  0  0
 18 23  1  0  0  0
 18 19  2  0  0  0
 19 20  1  0  0  0
 19 48  1  0  0  0
 20 21  2  0  0  0
 20 49  1  0  0  0
 21 22  1  0  0  0
 21 24  1  0  0  0
 22 23  2  0  0  0
 22 50  1  0  0  0
 23 51  1  0  0  0
 24 52  1  0  0  0
M  END
> <s_m_entry_id>
9604

> <s_m_entry_name>
ligand_docking-pose.46

> <s_m_Source_Path>
/home/csk/Desktop/cluster/DUD-E-result/aces

> <s_m_Source_File>
ligand_docking-pose.sdf

> <i_m_Source_File_Index>
46

> <i_lp_mmshare_version>
53161

> <r_lp_tautomer_probability>
0.99999999999473

> <s_lp_Force_Field>
OPLS_2005

> <r_lp_Energy>
22.69717

> <b_lp_Chiralities_Consistent>
1

> <s_lp_Variant>
312927-3

> <s_i_glide_gridfile>
glide-grid_1e66

> <i_i_glide_lignum>
712

> <i_i_glide_rotatable_bonds>
6

> <r_i_docking_score>
-8.43825034468529

> <r_i_glide_ligand_efficiency>
-0.351593764361887

> <r_i_glide_ligand_efficiency_sa>
-1.01417191007303

> <r_i_glide_ligand_efficiency_ln>
-2.01966051356082

> <r_i_glide_gscore>
-8.43825034468529

> <r_i_glide_lipo>
-4.08737285776852

> <r_i_glide_hbond>
-0.212004854011573

> <r_i_glide_metal>
0

> <r_i_glide_rewards>
-2.05035881093466

> <r_i_glide_evdw>
-33.6057548522949

> <r_i_glide_ecoul>
-7.46551179885864

> <r_i_glide_erotb>
0.711600690473009

> <r_i_glide_esite>
0

> <r_i_glide_emodel>
-56.8324534986743

> <r_i_glide_energy>
-41.0712666511536

> <r_i_glide_einternal>
2.98186063766479

> <i_i_glide_confnum>
5

> <i_i_glide_posenum>
370

> <r_i_glide_eff_state_penalty>
0

> <i_f3d_flags>
0

> <s_user_duplicate_titles>
312927

> <s_m_subgroup_title>
dock_pv

> <s_m_subgroupid>
dock_pv1

> <b_m_subgroup_collapsed>
1

$$$$
193593
                    3D
 Schrodinger Suite 2021-1.
 32 34  0  0  1  0            999 V2000
    5.8912   70.6625   67.5883 C   0  0  0  0  0  0
    4.6935   70.6249   68.2934 C   0  0  0  0  0  0
    3.5430   70.1080   67.7037 C   0  0  0  0  0  0
    3.5781   69.6360   66.3680 C   0  0  0  0  0  0
    4.7971   69.6753   65.6320 C   0  0  0  0  0  0
    5.9567   70.1924   66.2792 C   0  0  0  0  0  0
    4.7743   69.1952   64.2860 C   0  0  0  0  0  0
    3.5652   68.7458   63.7172 C   0  0  0  0  0  0
    2.4108   68.7848   64.5230 C   0  0  0  0  0  0
    2.4288   69.1691   65.8233 N   0  0  0  0  0  0
    1.0285   68.3622   64.0175 C   0  0  0  0  0  0
    0.4554   69.1872   62.8476 C   0  0  0  0  0  0
    1.0605   68.9080   61.4721 C   0  0  0  0  0  0
    2.5764   69.1146   61.3413 C   0  0  0  0  0  0
    3.4586   68.2604   62.2634 C   0  0  0  0  0  0
    5.9430   69.1743   63.5180 N   0  0  0  0  0  0
    6.7779   71.0570   68.0627 H   0  0  0  0  0  0
    4.6567   70.9830   69.3115 H   0  0  0  0  0  0
    2.6140   70.0763   68.2559 H   0  0  0  0  0  0
    6.8953   70.2376   65.7497 H   0  0  0  0  0  0
    1.0592   67.3080   63.7495 H   0  0  0  0  0  0
    0.3119   68.4137   64.8406 H   0  0  0  0  0  0
    0.5404   70.2489   63.0697 H   0  0  0  0  0  0
   -0.6172   68.9941   62.7867 H   0  0  0  0  0  0
    0.5590   69.5391   60.7369 H   0  0  0  0  0  0
    0.8104   67.8881   61.1903 H   0  0  0  0  0  0
    2.8233   70.1652   61.4832 H   0  0  0  0  0  0
    2.8503   68.8928   60.3090 H   0  0  0  0  0  0
    4.4427   68.2203   61.7988 H   0  0  0  0  0  0
    3.1430   67.2200   62.2609 H   0  0  0  0  0  0
    5.8914   68.9080   62.5447 H   0  0  0  0  0  0
    6.8141   69.5411   63.8978 H   0  0  0  0  0  0
  1  6  1  0  0  0
  1  2  2  0  0  0
  1 17  1  0  0  0
  2  3  1  0  0  0
  2 18  1  0  0  0
  3  4  2  0  0  0
  3 19  1  0  0  0
  4 10  1  0  0  0
  4  5  1  0  0  0
  5  6  2  0  0  0
  5  7  1  0  0  0
  6 20  1  0  0  0
  7  8  2  0  0  0
  7 16  1  0  0  0
  8 15  1  0  0  0
  8  9  1  0  0  0
  9 10  2  0  0  0
  9 11  1  0  0  0
 11 12  1  0  0  0
 11 21  1  0  0  0
 11 22  1  0  0  0
 12 13  1  0  0  0
 12 23  1  0  0  0
 12 24  1  0  0  0
 13 14  1  0  0  0
 13 25  1  0  0  0
 13 26  1  0  0  0
 14 15  1  0  0  0
 14 27  1  0  0  0
 14 28  1  0  0  0
 15 29  1  0  0  0
 15 30  1  0  0  0
 16 31  1  0  0  0
 16 32  1  0  0  0
M  END
> <s_m_entry_id>
9606

> <s_m_entry_name>
ligand_docking-pose.48

> <s_m_Source_Path>
/home/csk/Desktop/cluster/DUD-E-result/aces

> <s_m_Source_File>
ligand_docking-pose.sdf

> <i_m_Source_File_Index>
48

> <i_lp_mmshare_version>
53161

> <r_lp_tautomer_probability>
1

> <s_lp_Force_Field>
OPLS_2005

> <r_lp_Energy>
18.6083

> <b_lp_Chiralities_Consistent>
1

> <s_lp_Variant>
193593-1

> <s_i_glide_gridfile>
glide-grid_1e66

> <i_i_glide_lignum>
241

> <i_i_glide_rotatable_bonds>
0

> <r_i_docking_score>
-8.41490982514029

> <r_i_glide_ligand_efficiency>
-0.525931864071268

> <r_i_glide_ligand_efficiency_sa>
-1.32526525148287

> <r_i_glide_ligand_efficiency_ln>
-2.2305399407928

> <r_i_glide_gscore>
-8.41490982514029

> <r_i_glide_lipo>
-3.71809897413768

> <r_i_glide_hbond>
-0.32

> <r_i_glide_metal>
0

> <r_i_glide_rewards>
-2.49499078787879

> <r_i_glide_evdw>
-29.2021942138672

> <r_i_glide_ecoul>
-2.79258418083191

> <r_i_glide_erotb>
0

> <r_i_glide_esite>
-0.00282272530567989

> <r_i_glide_emodel>
-48.4343607106815

> <r_i_glide_energy>
-31.9947783946991

> <r_i_glide_einternal>
0

> <i_i_glide_confnum>
1

> <i_i_glide_posenum>
226

> <r_i_glide_eff_state_penalty>
0

> <i_f3d_flags>
0

> <s_user_duplicate_titles>
193593

> <s_m_subgroup_title>
dock_pv

> <s_m_subgroupid>
dock_pv1

> <b_m_subgroup_collapsed>
1

$$$$
118642
                    3D
 Schrodinger Suite 2021-1.
 66 69  0  0  1  0            999 V2000
    5.5028   69.4591   65.1207 C   0  0  0  0  0  0
    5.9572   68.8338   63.7922 C   0  0  0  0  0  0
    4.8486   68.1441   62.9864 C   0  0  0  0  0  0
    3.8782   69.1507   62.3398 C   0  0  0  0  0  0
    2.5085   68.6474   62.3408 N   0  0  0  0  0  0
    1.7727   69.2499   61.2416 C   0  0  0  0  0  0
    0.3130   68.9930   61.5517 C   0  0  0  0  0  0
    0.3618   68.7608   63.0358 C   0  0  0  0  0  0
    1.6818   68.6289   63.4694 C   0  0  0  0  0  0
    1.9517   68.3764   64.8133 C   0  0  0  0  0  0
    0.9067   68.2872   65.7293 C   0  0  0  0  0  0
   -0.4274   68.4188   65.3106 C   0  0  0  0  0  0
   -0.6867   68.6294   63.9462 C   0  0  0  0  0  0
   -1.5729   68.3257   66.2738 C   0  0  0  0  0  0
   -2.7473   68.5113   65.9534 O   0  0  0  0  0  0
   -1.2731   67.9569   67.7325 C   0  0  0  0  0  0
   -1.0512   66.4438   67.9528 C   0  0  0  0  0  0
   -0.2458   66.0055   69.2191 C   0  0  0  0  0  0
   -0.2887   64.4846   69.5917 C   0  0  0  0  0  0
    0.6918   64.0392   70.6820 C   0  0  0  0  0  0
    2.0518   64.3956   70.2801 N   0  0  1  0  0  0
    2.1533   65.8534   70.2016 C   0  0  0  0  0  0
    1.2247   66.4475   69.1220 C   0  0  0  0  0  0
    3.0477   63.8129   71.1848 C   0  0  0  0  0  0
    3.3231   62.3169   70.9814 C   0  0  0  0  0  0
    4.0572   61.6396   71.9611 C   0  0  0  0  0  0
    4.3583   60.2883   71.8085 C   0  0  0  0  0  0
    3.9404   59.6122   70.6648 C   0  0  0  0  0  0
    3.2391   60.2813   69.6649 C   0  0  0  0  0  0
    2.9439   61.6349   69.8150 C   0  0  0  0  0  0
    6.3394   69.9557   65.6140 H   0  0  0  0  0  0
    5.1253   68.7031   65.8084 H   0  0  0  0  0  0
    4.7225   70.2065   64.9765 H   0  0  0  0  0  0
    6.4077   69.6071   63.1709 H   0  0  0  0  0  0
    6.7420   68.1124   64.0086 H   0  0  0  0  0  0
    5.3296   67.5978   62.1733 H   0  0  0  0  0  0
    4.3475   67.3661   63.5636 H   0  0  0  0  0  0
    3.9085   70.1093   62.8587 H   0  0  0  0  0  0
    4.2186   69.3396   61.3186 H   0  0  0  0  0  0
    1.9637   70.3227   61.1684 H   0  0  0  0  0  0
    2.0745   68.8056   60.2927 H   0  0  0  0  0  0
   -0.2968   69.8478   61.2573 H   0  0  0  0  0  0
   -0.0466   68.1079   61.0309 H   0  0  0  0  0  0
    2.9612   68.2393   65.1630 H   0  0  0  0  0  0
    1.1637   68.1042   66.7604 H   0  0  0  0  0  0
   -1.7061   68.7209   63.5960 H   0  0  0  0  0  0
   -0.4351   68.5563   68.0843 H   0  0  0  0  0  0
   -2.1458   68.2703   68.3069 H   0  0  0  0  0  0
   -2.0569   66.0462   67.9767 H   0  0  0  0  0  0
   -0.5680   66.0134   67.0741 H   0  0  0  0  0  0
   -0.6492   66.5122   70.0965 H   0  0  0  0  0  0
   -1.2570   64.1084   69.8295 H   0  0  0  0  0  0
   -0.0567   63.8419   68.7680 H   0  0  0  0  0  0
    0.4518   64.4723   71.6552 H   0  0  0  0  0  0
    0.6109   62.9568   70.7954 H   0  0  0  0  0  0
    1.9309   66.2906   71.1668 H   0  0  0  0  0  0
    3.1807   66.1094   69.9680 H   0  0  0  0  0  0
    1.5976   66.1084   68.1572 H   0  0  0  0  0  0
    1.3056   67.5342   69.0968 H   0  0  0  0  0  0
    4.0007   64.3220   71.0309 H   0  0  0  0  0  0
    2.7430   63.9891   72.2169 H   0  0  0  0  0  0
    4.3857   62.1531   72.8536 H   0  0  0  0  0  0
    4.9055   59.7647   72.5799 H   0  0  0  0  0  0
    4.1547   58.5591   70.5559 H   0  0  0  0  0  0
    2.9185   59.7502   68.7809 H   0  0  0  0  0  0
    2.4016   62.1462   69.0337 H   0  0  0  0  0  0
  1  2  1  0  0  0
  1 31  1  0  0  0
  1 32  1  0  0  0
  1 33  1  0  0  0
  2  3  1  0  0  0
  2 34  1  0  0  0
  2 35  1  0  0  0
  3  4  1  0  0  0
  3 36  1  0  0  0
  3 37  1  0  0  0
  4  5  1  0  0  0
  4 38  1  0  0  0
  4 39  1  0  0  0
  5  9  1  0  0  0
  5  6  1  0  0  0
  6  7  1  0  0  0
  6 40  1  0  0  0
  6 41  1  0  0  0
  7  8  1  0  0  0
  7 42  1  0  0  0
  7 43  1  0  0  0
  8 13  2  0  0  0
  8  9  1  0  0  0
  9 10  2  0  0  0
 10 11  1  0  0  0
 10 44  1  0  0  0
 11 12  2  0  0  0
 11 45  1  0  0  0
 12 13  1  0  0  0
 12 14  1  0  0  0
 13 46  1  0  0  0
 14 15  2  0  0  0
 14 16  1  0  0  0
 16 17  1  0  0  0
 16 47  1  0  0  0
 16 48  1  0  0  0
 17 18  1  0  0  0
 17 49  1  0  0  0
 17 50  1  0  0  0
 18 23  1  0  0  0
 18 19  1  0  0  0
 18 51  1  0  0  0
 19 20  1  0  0  0
 19 52  1  0  0  0
 19 53  1  0  0  0
 20 21  1  0  0  0
 20 54  1  0  0  0
 20 55  1  0  0  0
 21 22  1  0  0  0
 21 24  1  0  0  0
 22 23  1  0  0  0
 22 56  1  0  0  0
 22 57  1  0  0  0
 23 58  1  0  0  0
 23 59  1  0  0  0
 24 25  1  0  0  0
 24 60  1  0  0  0
 24 61  1  0  0  0
 25 30  1  0  0  0
 25 26  2  0  0  0
 26 27  1  0  0  0
 26 62  1  0  0  0
 27 28  2  0  0  0
 27 63  1  0  0  0
 28 29  1  0  0  0
 28 64  1  0  0  0
 29 30  2  0  0  0
 29 65  1  0  0  0
 30 66  1  0  0  0
M  END
> <s_m_entry_id>
9610

> <s_m_entry_name>
ligand_docking-pose.52

> <s_m_Source_Path>
/home/csk/Desktop/cluster/DUD-E-result/aces

> <s_m_Source_File>
ligand_docking-pose.sdf

> <i_m_Source_File_Index>
52

> <i_lp_mmshare_version>
53161

> <r_lp_tautomer_probability>
0.99990000499975

> <s_lp_Force_Field>
OPLS_2005

> <r_lp_Energy>
45.043665

> <b_lp_Chiralities_Consistent>
1

> <s_lp_Variant>
118642-1

> <s_i_glide_gridfile>
glide-grid_1e66

> <i_i_glide_lignum>
1085

> <i_i_glide_rotatable_bonds>
9

> <r_i_docking_score>
-8.39957291468848

> <r_i_glide_ligand_efficiency>
-0.279985763822949

> <r_i_glide_ligand_efficiency_sa>
-0.869980865568663

> <r_i_glide_ligand_efficiency_ln>
-1.90847448689436

> <r_i_glide_gscore>
-8.39957291468848

> <r_i_glide_lipo>
-4.78917242705177

> <r_i_glide_hbond>
0

> <r_i_glide_metal>
0

> <r_i_glide_rewards>
-2.43775928459549

> <r_i_glide_evdw>
-45.6191864013672

> <r_i_glide_ecoul>
0.988259673118591

> <r_i_glide_erotb>
0.960079166059348

> <r_i_glide_esite>
0

> <r_i_glide_emodel>
-54.672473800465

> <r_i_glide_energy>
-44.6309267282486

> <r_i_glide_einternal>
11.1065530776978

> <i_i_glide_confnum>
18

> <i_i_glide_posenum>
355

> <r_i_glide_eff_state_penalty>
0

> <i_f3d_flags>
0

> <s_user_duplicate_titles>
118642

> <s_m_subgroup_title>
dock_pv

> <s_m_subgroupid>
dock_pv1

> <b_m_subgroup_collapsed>
1

$$$$
427363
                    3D
 Schrodinger Suite 2021-1.
 46 48  0  0  1  0            999 V2000
    6.6745   70.5076   67.1504 C   0  0  0  0  0  0
    6.2528   71.0297   68.3680 C   0  0  0  0  0  0
    4.9226   70.9080   68.7580 C   0  0  0  0  0  0
    3.9954   70.2404   67.9321 C   0  0  0  0  0  0
    4.4166   69.7080   66.6804 C   0  0  0  0  0  0
    5.7777   69.8739   66.2968 C   0  0  0  0  0  0
    3.4405   69.0278   65.8966 C   0  0  0  0  0  0
    2.1358   68.8462   66.4064 C   0  0  0  0  0  0
    1.8247   69.4077   67.6597 C   0  0  0  0  0  0
    2.7257   70.1113   68.3814 N   0  0  0  0  0  0
    0.4358   69.2693   68.2828 C   0  0  0  0  0  0
   -0.6536   68.8666   67.2790 C   0  0  0  0  0  0
   -0.1625   67.6767   66.4539 C   0  0  0  0  0  0
    1.0511   68.1036   65.6154 C   0  0  0  0  0  0
    3.7545   68.5395   64.6161 N   0  0  0  0  0  0
    3.2828   69.4290   63.5630 C   0  0  0  0  0  0
    3.0471   68.7222   62.2214 C   0  0  0  0  0  0
    2.0052   69.4371   61.3344 C   0  0  0  0  0  0
    0.5800   69.6021   61.9254 C   0  0  0  0  0  0
   -0.0779   68.2816   62.3506 C   0  0  0  0  0  0
   -1.2564   68.5080   63.1680 N   0  0  0  0  0  0
    7.7069   70.5990   66.8534 H   0  0  0  0  0  0
    6.9603   71.5304   69.0131 H   0  0  0  0  0  0
    4.5787   71.3034   69.6997 H   0  0  0  0  0  0
    6.1291   69.4873   65.3515 H   0  0  0  0  0  0
    0.1486   70.2034   68.7680 H   0  0  0  0  0  0
    0.4960   68.5072   69.0614 H   0  0  0  0  0  0
   -0.8969   69.7070   66.6265 H   0  0  0  0  0  0
   -1.5754   68.6134   67.8030 H   0  0  0  0  0  0
   -0.9602   67.3134   65.8059 H   0  0  0  0  0  0
    0.1037   66.8427   67.1064 H   0  0  0  0  0  0
    0.7035   68.8053   64.8653 H   0  0  0  0  0  0
    1.4609   67.2406   65.0895 H   0  0  0  0  0  0
    4.7300   68.3139   64.4895 H   0  0  0  0  0  0
    3.9413   70.2937   63.4601 H   0  0  0  0  0  0
    2.3432   69.8655   63.8905 H   0  0  0  0  0  0
    2.7213   67.6980   62.3910 H   0  0  0  0  0  0
    3.9969   68.6321   61.6908 H   0  0  0  0  0  0
    1.9369   68.9082   60.3810 H   0  0  0  0  0  0
    2.3948   70.4313   61.1221 H   0  0  0  0  0  0
   -0.0559   70.0912   61.1862 H   0  0  0  0  0  0
    0.6036   70.2915   62.7677 H   0  0  0  0  0  0
    0.6115   67.6707   62.9269 H   0  0  0  0  0  0
   -0.3573   67.7079   61.4700 H   0  0  0  0  0  0
   -1.5285   67.6149   63.5734 H   0  0  0  0  0  0
   -1.0601   69.1285   63.9421 H   0  0  0  0  0  0
  1  6  1  0  0  0
  1  2  2  0  0  0
  1 22  1  0  0  0
  2  3  1  0  0  0
  2 23  1  0  0  0
  3  4  2  0  0  0
  3 24  1  0  0  0
  4 10  1  0  0  0
  4  5  1  0  0  0
  5  6  2  0  0  0
  5  7  1  0  0  0
  6 25  1  0  0  0
  7  8  2  0  0  0
  7 15  1  0  0  0
  8 14  1  0  0  0
  8  9  1  0  0  0
  9 10  2  0  0  0
  9 11  1  0  0  0
 11 12  1  0  0  0
 11 26  1  0  0  0
 11 27  1  0  0  0
 12 13  1  0  0  0
 12 28  1  0  0  0
 12 29  1  0  0  0
 13 14  1  0  0  0
 13 30  1  0  0  0
 13 31  1  0  0  0
 14 32  1  0  0  0
 14 33  1  0  0  0
 15 16  1  0  0  0
 15 34  1  0  0  0
 16 17  1  0  0  0
 16 35  1  0  0  0
 16 36  1  0  0  0
 17 18  1  0  0  0
 17 37  1  0  0  0
 17 38  1  0  0  0
 18 19  1  0  0  0
 18 39  1  0  0  0
 18 40  1  0  0  0
 19 20  1  0  0  0
 19 41  1  0  0  0
 19 42  1  0  0  0
 20 21  1  0  0  0
 20 43  1  0  0  0
 20 44  1  0  0  0
 21 45  1  0  0  0
 21 46  1  0  0  0
M  END
> <s_m_entry_id>
9611

> <s_m_entry_name>
ligand_docking-pose.53

> <s_m_Source_Path>
/home/csk/Desktop/cluster/DUD-E-result/aces

> <s_m_Source_File>
ligand_docking-pose.sdf

> <i_m_Source_File_Index>
53

> <i_lp_mmshare_version>
53161

> <r_lp_tautomer_probability>
1

> <s_lp_Force_Field>
OPLS_2005

> <r_lp_Energy>
23.969895

> <b_lp_Chiralities_Consistent>
1

> <s_lp_Variant>
427363-1

> <s_i_glide_gridfile>
glide-grid_1e66

> <i_i_glide_lignum>
189

> <i_i_glide_rotatable_bonds>
6

> <r_i_docking_score>
-8.3888566634728

> <r_i_glide_ligand_efficiency>
-0.399469364927276

> <r_i_glide_ligand_efficiency_sa>
-1.10210568750301

> <r_i_glide_ligand_efficiency_ln>
-2.07412785876266

> <r_i_glide_gscore>
-8.3888566634728

> <r_i_glide_lipo>
-4.52489653979164

> <r_i_glide_hbond>
-0.323784387597433

> <r_i_glide_metal>
0

> <r_i_glide_rewards>
-2.24340848484848

> <r_i_glide_evdw>
-34.0221252441406

> <r_i_glide_ecoul>
-3.31687784194946

> <r_i_glide_erotb>
0.901870687264208

> <r_i_glide_esite>
0

> <r_i_glide_emodel>
-52.6451451505593

> <r_i_glide_energy>
-37.3390030860901

> <r_i_glide_einternal>
7.94655227661133

> <i_i_glide_confnum>
123

> <i_i_glide_posenum>
327

> <r_i_glide_eff_state_penalty>
0

> <i_f3d_flags>
0

> <s_user_duplicate_titles>
427363

> <s_m_subgroup_title>
dock_pv

> <s_m_subgroupid>
dock_pv1

> <b_m_subgroup_collapsed>
1

$$$$
689404
                    3D
 Schrodinger Suite 2021-1.
 47 50  0  0  1  0            999 V2000
    4.9111   69.3786   62.1657 C   0  0  0  0  0  0
    4.0571   68.6839   63.2300 C   0  0  0  0  0  0
    2.6832   68.8032   62.8690 O   0  0  0  0  0  0
    1.7111   68.5067   63.8050 C   0  0  0  0  0  0
    0.3883   68.8133   63.4547 C   0  0  0  0  0  0
   -0.6624   68.6360   64.3630 C   0  0  0  0  0  0
   -0.3798   68.1075   65.6201 C   0  0  0  0  0  0
    0.9026   67.7313   65.9352 C   0  0  0  0  0  0
    1.9691   67.9314   65.0642 C   0  0  0  0  0  0
    0.9762   67.1157   67.1473 O   0  0  0  0  0  0
   -0.2796   67.0644   67.6652 C   0  0  0  0  0  0
   -0.5990   66.3668   68.7769 C   0  0  0  0  0  0
    0.3352   65.5399   69.5671 C   0  0  0  0  0  0
   -0.0418   64.2537   69.9691 C   0  0  0  0  0  0
    0.8730   63.4190   70.6121 C   0  0  0  0  0  0
    2.1539   63.8254   70.7875 N   0  3  0  0  0  0
    2.5591   65.0579   70.3841 C   0  0  0  0  0  0
    1.6447   65.9469   69.8119 C   0  0  0  0  0  0
    3.0883   62.9562   71.5551 C   0  0  0  0  0  0
    3.1614   61.4755   71.1689 C   0  0  0  0  0  0
    2.9313   61.0356   69.8595 C   0  0  0  0  0  0
    2.9714   59.6735   69.5672 C   0  0  0  0  0  0
    3.2583   58.7538   70.5706 C   0  0  0  0  0  0
    3.5263   59.1845   71.8678 C   0  0  0  0  0  0
    3.4813   60.5445   72.1648 C   0  0  0  0  0  0
   -1.2105   67.7672   66.7770 C   0  0  0  0  0  0
   -2.4153   67.9326   66.9683 O   0  0  0  0  0  0
    5.9734   69.2595   62.3778 H   0  0  0  0  0  0
    4.7018   70.4478   62.1288 H   0  0  0  0  0  0
    4.7246   68.9659   61.1745 H   0  0  0  0  0  0
    4.3311   67.6295   63.3061 H   0  0  0  0  0  0
    4.2558   69.1566   64.1948 H   0  0  0  0  0  0
    0.1815   69.2346   62.4821 H   0  0  0  0  0  0
   -1.6711   68.9026   64.0802 H   0  0  0  0  0  0
    2.9640   67.6384   65.3598 H   0  0  0  0  0  0
   -1.6245   66.3821   69.1187 H   0  0  0  0  0  0
   -1.0349   63.8837   69.7643 H   0  0  0  0  0  0
    0.6202   62.4299   70.9702 H   0  0  0  0  0  0
    3.5844   65.3332   70.5917 H   0  0  0  0  0  0
    1.9487   66.9453   69.5342 H   0  0  0  0  0  0
    4.0899   63.3875   71.4964 H   0  0  0  0  0  0
    2.7409   63.0437   72.5861 H   0  0  0  0  0  0
    2.7028   61.7397   69.0716 H   0  0  0  0  0  0
    2.7641   59.3216   68.5670 H   0  0  0  0  0  0
    3.2662   57.6968   70.3440 H   0  0  0  0  0  0
    3.7545   58.4644   72.6392 H   0  0  0  0  0  0
    3.6788   60.8680   73.1774 H   0  0  0  0  0  0
  1  2  1  0  0  0
  1 28  1  0  0  0
  1 29  1  0  0  0
  1 30  1  0  0  0
  2  3  1  0  0  0
  2 31  1  0  0  0
  2 32  1  0  0  0
  3  4  1  0  0  0
  4  9  1  0  0  0
  4  5  2  0  0  0
  5  6  1  0  0  0
  5 33  1  0  0  0
  6  7  2  0  0  0
  6 34  1  0  0  0
  7 26  1  0  0  0
  7  8  1  0  0  0
  8  9  2  0  0  0
  8 10  1  0  0  0
  9 35  1  0  0  0
 10 11  1  0  0  0
 11 12  2  0  0  0
 11 26  1  0  0  0
 12 13  1  0  0  0
 12 36  1  0  0  0
 13 18  1  0  0  0
 13 14  2  0  0  0
 14 15  1  0  0  0
 14 37  1  0  0  0
 15 16  2  0  0  0
 15 38  1  0  0  0
 16 17  1  0  0  0
 16 19  1  0  0  0
 17 18  2  0  0  0
 17 39  1  0  0  0
 18 40  1  0  0  0
 19 20  1  0  0  0
 19 41  1  0  0  0
 19 42  1  0  0  0
 20 25  1  0  0  0
 20 21  2  0  0  0
 21 22  1  0  0  0
 21 43  1  0  0  0
 22 23  2  0  0  0
 22 44  1  0  0  0
 23 24  1  0  0  0
 23 45  1  0  0  0
 24 25  2  0  0  0
 24 46  1  0  0  0
 25 47  1  0  0  0
 26 27  2  0  0  0
M  CHG  1  16   1
M  END
> <s_m_entry_id>
9612

> <s_m_entry_name>
ligand_docking-pose.54

> <s_m_Source_Path>
/home/csk/Desktop/cluster/DUD-E-result/aces

> <s_m_Source_File>
ligand_docking-pose.sdf

> <i_m_Source_File_Index>
54

> <i_lp_mmshare_version>
53161

> <r_lp_tautomer_probability>
1

> <s_lp_Force_Field>
OPLS_2005

> <r_lp_Energy>
40.50941

> <b_lp_Chiralities_Consistent>
1

> <s_lp_Variant>
689404-1

> <s_i_glide_gridfile>
glide-grid_1e66

> <i_i_glide_lignum>
1386

> <i_i_glide_rotatable_bonds>
5

> <r_i_docking_score>
-8.36300526095239

> <r_i_glide_ligand_efficiency>
-0.309740935590829

> <r_i_glide_ligand_efficiency_sa>
-0.929222805751632

> <r_i_glide_ligand_efficiency_ln>
-1.94676974983248

> <r_i_glide_gscore>
-8.36300526095239

> <r_i_glide_lipo>
-3.81715698428601

> <r_i_glide_hbond>
0

> <r_i_glide_metal>
0

> <r_i_glide_rewards>
-2.57231150526511

> <r_i_glide_evdw>
-43.8657531738281

> <r_i_glide_ecoul>
-2.51149463653564

> <r_i_glide_erotb>
0.596475082770476

> <r_i_glide_esite>
0

> <r_i_glide_emodel>
-66.0084449552355

> <r_i_glide_energy>
-46.3772478103638

> <r_i_glide_einternal>
5.55416822433472

> <i_i_glide_confnum>
21

> <i_i_glide_posenum>
318

> <r_i_glide_eff_state_penalty>
0

> <i_f3d_flags>
0

> <s_user_duplicate_titles>
689404

> <s_m_subgroup_title>
dock_pv

> <s_m_subgroupid>
dock_pv1

> <b_m_subgroup_collapsed>
1

$$$$
171197
                    3D
 Schrodinger Suite 2021-1.
 55 56  0  0  1  0            999 V2000
    5.4106   70.7399   68.9596 C   0  0  0  0  0  0
    4.2159   70.5080   68.2877 C   0  0  0  0  0  0
    4.2625   70.1622   66.9378 C   0  0  0  0  0  0
    5.4453   70.0921   66.2747 N   0  3  0  0  0  0
    6.6196   70.2968   66.9248 C   0  0  0  0  0  0
    6.6212   70.6383   68.2790 C   0  0  0  0  0  0
    5.4306   69.8572   64.8027 C   0  0  0  0  0  0
    5.1819   68.3840   64.3890 C   0  0  0  0  0  0
    3.7926   67.9272   64.8349 C   0  0  0  0  0  0
    3.2454   66.5769   64.3679 C   0  0  0  0  0  0
    1.7494   66.4202   64.7680 C   0  0  0  0  0  0
    1.4152   66.8717   66.2002 C   0  0  0  0  0  0
   -0.0769   66.9078   66.5423 C   0  0  0  0  0  0
   -0.3393   67.6249   67.8807 C   0  0  0  0  0  0
    0.3970   67.0164   69.0977 C   0  0  0  0  0  0
   -0.1817   65.6608   69.5302 C   0  0  0  0  0  0
    0.3723   65.1173   70.8650 C   0  0  0  0  0  0
    1.5818   64.2781   70.6716 N   0  3  0  0  0  0
    2.7744   64.8760   70.4258 C   0  0  0  0  0  0
    3.9367   64.1080   70.3087 C   0  0  0  0  0  0
    3.8529   62.7197   70.4312 C   0  0  0  0  0  0
    2.6092   62.1229   70.6481 C   0  0  0  0  0  0
    1.4727   62.9279   70.7653 C   0  0  0  0  0  0
    5.3993   70.9080   70.0221 H   0  0  0  0  0  0
    3.2715   70.5720   68.8115 H   0  0  0  0  0  0
    3.3632   70.0273   66.3568 H   0  0  0  0  0  0
    7.5347   70.1900   66.3672 H   0  0  0  0  0  0
    7.5430   70.7909   68.8162 H   0  0  0  0  0  0
    6.3432   70.2622   64.3805 H   0  0  0  0  0  0
    4.6484   70.5079   64.4067 H   0  0  0  0  0  0
    5.9430   67.7312   64.8135 H   0  0  0  0  0  0
    5.2659   68.2997   63.3040 H   0  0  0  0  0  0
    3.0688   68.6953   64.5538 H   0  0  0  0  0  0
    3.8305   67.8750   65.9192 H   0  0  0  0  0  0
    3.8416   65.7589   64.7686 H   0  0  0  0  0  0
    3.3637   66.5101   63.2874 H   0  0  0  0  0  0
    1.4339   65.3827   64.6442 H   0  0  0  0  0  0
    1.1397   67.0053   64.0767 H   0  0  0  0  0  0
    1.7736   67.8829   66.3819 H   0  0  0  0  0  0
    1.9429   66.2122   66.8863 H   0  0  0  0  0  0
   -0.4791   65.8974   66.5591 H   0  0  0  0  0  0
   -0.6219   67.4314   65.7551 H   0  0  0  0  0  0
   -1.4164   67.6423   68.0515 H   0  0  0  0  0  0
   -0.0486   68.6728   67.7859 H   0  0  0  0  0  0
    0.3430   67.7080   69.9368 H   0  0  0  0  0  0
    1.4615   66.9383   68.8957 H   0  0  0  0  0  0
   -0.0532   64.9041   68.7679 H   0  0  0  0  0  0
   -1.2570   65.7939   69.5680 H   0  0  0  0  0  0
   -0.3664   64.5080   71.3897 H   0  0  0  0  0  0
    0.6473   65.9128   71.5616 H   0  0  0  0  0  0
    2.7720   65.9545   70.3684 H   0  0  0  0  0  0
    4.8934   64.5852   70.1418 H   0  0  0  0  0  0
    4.7429   62.1114   70.3675 H   0  0  0  0  0  0
    2.5270   61.0487   70.7399 H   0  0  0  0  0  0
    0.4851   62.5242   70.9442 H   0  0  0  0  0  0
  1  6  1  0  0  0
  1  2  2  0  0  0
  1 24  1  0  0  0
  2  3  1  0  0  0
  2 25  1  0  0  0
  3  4  2  0  0  0
  3 26  1  0  0  0
  4  5  1  0  0  0
  4  7  1  0  0  0
  5  6  2  0  0  0
  5 27  1  0  0  0
  6 28  1  0  0  0
  7  8  1  0  0  0
  7 29  1  0  0  0
  7 30  1  0  0  0
  8  9  1  0  0  0
  8 31  1  0  0  0
  8 32  1  0  0  0
  9 10  1  0  0  0
  9 33  1  0  0  0
  9 34  1  0  0  0
 10 11  1  0  0  0
 10 35  1  0  0  0
 10 36  1  0  0  0
 11 12  1  0  0  0
 11 37  1  0  0  0
 11 38  1  0  0  0
 12 13  1  0  0  0
 12 39  1  0  0  0
 12 40  1  0  0  0
 13 14  1  0  0  0
 13 41  1  0  0  0
 13 42  1  0  0  0
 14 15  1  0  0  0
 14 43  1  0  0  0
 14 44  1  0  0  0
 15 16  1  0  0  0
 15 45  1  0  0  0
 15 46  1  0  0  0
 16 17  1  0  0  0
 16 47  1  0  0  0
 16 48  1  0  0  0
 17 18  1  0  0  0
 17 49  1  0  0  0
 17 50  1  0  0  0
 18 23  1  0  0  0
 18 19  2  0  0  0
 19 20  1  0  0  0
 19 51  1  0  0  0
 20 21  2  0  0  0
 20 52  1  0  0  0
 21 22  1  0  0  0
 21 53  1  0  0  0
 22 23  2  0  0  0
 22 54  1  0  0  0
 23 55  1  0  0  0
M  CHG  2   4   1  18   1
M  END
> <s_m_entry_id>
9613

> <s_m_entry_name>
ligand_docking-pose.55

> <s_m_Source_Path>
/home/csk/Desktop/cluster/DUD-E-result/aces

> <s_m_Source_File>
ligand_docking-pose.sdf

> <i_m_Source_File_Index>
55

> <i_lp_mmshare_version>
53161

> <r_lp_tautomer_probability>
1

> <s_lp_Force_Field>
OPLS_2005

> <r_lp_Energy>
23.548539

> <b_lp_Chiralities_Consistent>
1

> <s_lp_Variant>
171197-1

> <s_i_glide_gridfile>
glide-grid_1e66

> <i_i_glide_lignum>
494

> <i_i_glide_rotatable_bonds>
12

> <r_i_docking_score>
-8.35157017728787

> <r_i_glide_ligand_efficiency>
-0.363111746838603

> <r_i_glide_ligand_efficiency_sa>
-1.03264150575124

> <r_i_glide_ligand_efficiency_ln>
-2.01948539671974

> <r_i_glide_gscore>
-8.35157017728787

> <r_i_glide_lipo>
-3.91305781338947

> <r_i_glide_hbond>
0

> <r_i_glide_metal>
0

> <r_i_glide_rewards>
-4.27011007900269

> <r_i_glide_evdw>
-29.6991004943848

> <r_i_glide_ecoul>
-3.89424610137939

> <r_i_glide_erotb>
1.90068965503044

> <r_i_glide_esite>
0

> <r_i_glide_emodel>
-60.7499959674499

> <r_i_glide_energy>
-33.5933465957642

> <r_i_glide_einternal>
3.68509125709534

> <i_i_glide_confnum>
78

> <i_i_glide_posenum>
77

> <r_i_glide_eff_state_penalty>
0

> <i_f3d_flags>
0

> <s_user_duplicate_titles>
171197

> <s_m_subgroup_title>
dock_pv

> <s_m_subgroupid>
dock_pv1

> <b_m_subgroup_collapsed>
1

$$$$
55182
                    3D
 Schrodinger Suite 2021-1.
 37 40  0  0  1  0            999 V2000
    4.3034   64.5089   64.1658 C   0  0  0  0  0  0
    3.9432   65.9667   63.9332 C   0  0  0  0  0  0
    4.5349   66.6959   62.9591 C   0  0  0  0  0  0
    4.1845   68.1435   62.6054 C   0  0  2  0  0  0
    5.1276   69.1205   63.3581 C   0  0  0  0  0  0
    4.7338   69.3567   64.8237 C   0  0  0  0  0  0
    3.5373   68.9371   65.3428 C   0  0  0  0  0  0
    3.2618   69.3830   66.7097 C   0  0  0  0  0  0
    4.1721   70.1080   67.4001 C   0  0  0  0  0  0
    5.4885   70.4187   66.8703 C   0  0  0  0  0  0
    5.6498   70.0746   65.5645 N   0  0  0  0  0  0
    6.3879   70.9078   67.5469 O   0  0  0  0  0  0
    2.5318   68.0737   64.5487 C   0  0  2  0  0  0
    2.8078   66.5508   64.7917 C   0  0  0  0  0  0
    2.7540   68.3711   63.0792 C   0  0  0  0  0  0
    1.6102   68.7387   62.4799 C   0  0  0  0  0  0
    0.5208   68.6761   63.5244 C   0  0  0  0  0  0
    1.1415   68.4082   64.8099 N   0  0  1  0  0  0
    1.3034   69.0957   61.0465 C   0  0  0  0  0  0
    4.6980   64.3614   65.1681 H   0  0  0  0  0  0
    3.4222   63.8781   64.0465 H   0  0  0  0  0  0
    5.0599   64.1573   63.4644 H   0  0  0  0  0  0
    5.3245   66.2338   62.3867 H   0  0  0  0  0  0
    4.2773   68.2778   61.5264 H   0  0  0  0  0  0
    6.1535   68.7501   63.3101 H   0  0  0  0  0  0
    5.1789   70.0885   62.8575 H   0  0  0  0  0  0
    2.3020   69.1715   67.1598 H   0  0  0  0  0  0
    3.9434   70.4510   68.3973 H   0  0  0  0  0  0
    6.5455   70.3283   65.1737 H   0  0  0  0  0  0
    1.9134   65.9609   64.5874 H   0  0  0  0  0  0
    2.9982   66.3540   65.8469 H   0  0  0  0  0  0
   -0.0489   69.6050   63.5680 H   0  0  0  0  0  0
   -0.1902   67.8816   63.2902 H   0  0  0  0  0  0
    0.6707   67.6464   65.2774 H   0  0  0  0  0  0
    0.4602   68.5082   60.6867 H   0  0  0  0  0  0
    1.0352   70.1496   60.9772 H   0  0  0  0  0  0
    2.1597   68.9072   60.3991 H   0  0  0  0  0  0
  1  2  1  0  0  0
  1 20  1  0  0  0
  1 21  1  0  0  0
  1 22  1  0  0  0
  2 14  1  0  0  0
  2  3  2  0  0  0
  3  4  1  0  0  0
  3 23  1  0  0  0
  4 15  1  0  0  0
  4  5  1  0  0  0
  4 24  1  0  0  0
  5 25  1  0  0  0
  5 26  1  0  0  0
  5  6  1  0  0  0
  6 11  1  0  0  0
  6  7  2  0  0  0
  7 13  1  0  0  0
  7  8  1  0  0  0
  8 27  1  0  0  0
  8  9  2  0  0  0
  9 10  1  0  0  0
  9 28  1  0  0  0
 10 12  2  0  0  0
 10 11  1  0  0  0
 11 29  1  0  0  0
 13 18  1  0  0  0
 13 14  1  0  0  0
 13 15  1  0  0  0
 14 30  1  0  0  0
 14 31  1  0  0  0
 15 16  2  0  0  0
 16 17  1  0  0  0
 16 19  1  0  0  0
 17 18  1  0  0  0
 17 32  1  0  0  0
 17 33  1  0  0  0
 18 34  1  0  0  0
 19 35  1  0  0  0
 19 36  1  0  0  0
 19 37  1  0  0  0
M  END
> <s_m_entry_id>
9614

> <s_m_entry_name>
ligand_docking-pose.56

> <s_m_Source_Path>
/home/csk/Desktop/cluster/DUD-E-result/aces

> <s_m_Source_File>
ligand_docking-pose.sdf

> <i_m_Source_File_Index>
56

> <i_lp_mmshare_version>
53161

> <r_lp_tautomer_probability>
0.999

> <s_lp_Force_Field>
OPLS_2005

> <r_lp_Energy>
36.755173

> <b_lp_Chiralities_Consistent>
1

> <s_lp_Variant>
55182-1

> <s_i_glide_gridfile>
glide-grid_1e66

> <i_i_glide_lignum>
632

> <i_i_glide_rotatable_bonds>
0

> <r_i_docking_score>
-8.33470584808894

> <r_i_glide_ligand_efficiency>
-0.438668728846787

> <r_i_glide_ligand_efficiency_sa>
-1.17054435814866

> <r_i_glide_ligand_efficiency_ln>
-2.11302694555824

> <r_i_glide_gscore>
-8.33470584808894

> <r_i_glide_lipo>
-3.44241317599681

> <r_i_glide_hbond>
-0.109792119747442

> <r_i_glide_metal>
0

> <r_i_glide_rewards>
-2.69070742051638

> <r_i_glide_evdw>
-33.9252014160156

> <r_i_glide_ecoul>
-2.63688707351685

> <r_i_glide_erotb>
0

> <r_i_glide_esite>
0

> <r_i_glide_emodel>
-53.0182896196062

> <r_i_glide_energy>
-36.5620884895325

> <r_i_glide_einternal>
0

> <i_i_glide_confnum>
1

> <i_i_glide_posenum>
65

> <r_i_glide_eff_state_penalty>
0

> <i_f3d_flags>
0

> <s_user_duplicate_titles>
55182

> <s_m_subgroup_title>
dock_pv

> <s_m_subgroupid>
dock_pv1

> <b_m_subgroup_collapsed>
1

$$$$
498345
                    3D
 Schrodinger Suite 2021-1.
 79 83  0  0  1  0            999 V2000
    3.7390   58.5065   74.5313 C   0  0  0  0  0  0
    3.1701   58.1080   73.1580 C   0  0  0  0  0  0
    2.6232   59.2365   72.4013 N   0  0  0  0  0  0
    2.2571   58.8316   71.0326 C   0  0  0  0  0  0
    3.4843   58.5414   70.1510 C   0  0  0  0  0  0
    1.4806   59.8438   73.0996 C   0  0  0  0  0  0
    1.0709   61.1646   72.4682 C   0  0  0  0  0  0
   -0.2402   61.3373   72.0293 C   0  0  0  0  0  0
   -0.5921   62.5079   71.3713 C   0  0  0  0  0  0
    0.3506   63.5087   71.1599 C   0  0  0  0  0  0
    1.6620   63.3421   71.6173 C   0  0  0  0  0  0
    2.0175   62.1759   72.2847 C   0  0  0  0  0  0
   -0.0567   64.5979   70.4340 O   0  0  0  0  0  0
    0.3658   65.8929   70.8481 C   0  0  0  0  0  0
    0.7553   66.6906   69.6041 C   0  0  0  0  0  0
   -0.3506   66.7148   68.5282 C   0  0  0  0  0  0
   -0.1521   67.8242   67.4886 C   0  0  0  0  0  0
    1.0896   67.6638   66.7197 N   0  0  2  0  0  0
    1.6181   68.9705   66.3442 C   0  0  0  0  0  0
    3.0323   69.0909   65.7262 C   0  0  0  0  0  0
    3.2498   68.4077   64.3588 C   0  0  1  0  0  0
    2.1687   68.8776   63.3676 C   0  0  0  0  0  0
    2.3896   69.3080   62.1186 C   0  0  0  0  0  0
    3.7609   69.3934   61.5069 C   0  0  1  0  0  0
    4.8307   69.5757   62.6056 C   0  0  0  0  0  0
    4.6935   68.5856   63.7817 C   0  0  2  0  0  0
    5.1462   67.2985   63.3518 O   0  0  0  0  0  0
    4.3190   66.3583   63.8907 C   0  0  0  0  0  0
    3.2065   66.9224   64.4971 C   0  0  0  0  0  0
    2.2017   66.1081   65.0045 C   0  0  0  0  0  0
    2.3430   64.7429   64.7680 C   0  0  0  0  0  0
    3.4775   64.1541   64.2699 C   0  0  0  0  0  0
    4.4867   64.9680   63.7955 C   0  0  0  0  0  0
    5.5786   64.4425   63.1682 O   0  0  0  0  0  0
    5.7923   63.0186   63.1679 C   0  0  0  0  0  0
    0.9404   66.6901   65.6274 C   0  0  0  0  0  0
    3.9430   68.2204   60.7681 O   0  0  0  0  0  0
    3.8093   70.2335   60.8141 H   0  0  0  0  0  0
    5.3524   68.9097   64.5905 H   0  0  0  0  0  0
    4.3725   57.7127   74.9278 H   0  0  0  0  0  0
    2.9527   58.6826   75.2644 H   0  0  0  0  0  0
    4.3431   59.4093   74.4615 H   0  0  0  0  0  0
    3.9930   57.7081   72.5767 H   0  0  0  0  0  0
    2.4385   57.3054   73.2641 H   0  0  0  0  0  0
    1.5795   57.9753   71.0435 H   0  0  0  0  0  0
    1.7096   59.6398   70.5461 H   0  0  0  0  0  0
    3.1935   58.5080   69.1009 H   0  0  0  0  0  0
    4.2360   59.3251   70.2526 H   0  0  0  0  0  0
    3.9476   57.5854   70.3942 H   0  0  0  0  0  0
    0.6412   59.1465   73.1335 H   0  0  0  0  0  0
    1.7327   60.0782   74.1328 H   0  0  0  0  0  0
   -0.9761   60.5569   72.1600 H   0  0  0  0  0  0
   -1.5996   62.6253   71.0019 H   0  0  0  0  0  0
    2.4152   64.0928   71.4323 H   0  0  0  0  0  0
    3.0353   62.0342   72.6197 H   0  0  0  0  0  0
   -0.4570   66.3897   71.3604 H   0  0  0  0  0  0
    1.1815   65.8929   71.5645 H   0  0  0  0  0  0
    1.0063   67.7075   69.9101 H   0  0  0  0  0  0
    1.6649   66.2699   69.1754 H   0  0  0  0  0  0
   -0.4543   65.7407   68.0513 H   0  0  0  0  0  0
   -1.3160   66.8856   69.0026 H   0  0  0  0  0  0
   -1.0154   67.9034   66.8245 H   0  0  0  0  0  0
   -0.1270   68.7632   68.0465 H   0  0  0  0  0  0
    0.8666   69.3080   65.6435 H   0  0  0  0  0  0
    1.6071   69.6382   67.2082 H   0  0  0  0  0  0
    3.2620   70.1489   65.6182 H   0  0  0  0  0  0
    3.7618   68.7266   66.4479 H   0  0  0  0  0  0
    1.1306   68.8190   63.6518 H   0  0  0  0  0  0
    1.5361   69.5612   61.5073 H   0  0  0  0  0  0
    4.7086   70.5805   63.0099 H   0  0  0  0  0  0
    5.8377   69.5395   62.1867 H   0  0  0  0  0  0
    1.4803   64.1081   64.7682 H   0  0  0  0  0  0
    3.4790   63.0849   64.1261 H   0  0  0  0  0  0
    6.7852   62.8043   62.7708 H   0  0  0  0  0  0
    5.7332   62.5640   64.1567 H   0  0  0  0  0  0
    5.0731   62.5028   62.5275 H   0  0  0  0  0  0
    0.3315   65.8564   65.9678 H   0  0  0  0  0  0
    0.3554   67.1297   64.8191 H   0  0  0  0  0  0
    4.8072   68.2894   60.3125 H   0  0  0  0  0  0
  1  2  1  0  0  0
  1 40  1  0  0  0
  1 41  1  0  0  0
  1 42  1  0  0  0
  2  3  1  0  0  0
  2 43  1  0  0  0
  2 44  1  0  0  0
  3  4  1  0  0  0
  3  6  1  0  0  0
  4  5  1  0  0  0
  4 45  1  0  0  0
  4 46  1  0  0  0
  5 47  1  0  0  0
  5 48  1  0  0  0
  5 49  1  0  0  0
  6  7  1  0  0  0
  6 50  1  0  0  0
  6 51  1  0  0  0
  7 12  1  0  0  0
  7  8  2  0  0  0
  8  9  1  0  0  0
  8 52  1  0  0  0
  9 10  2  0  0  0
  9 53  1  0  0  0
 10 11  1  0  0  0
 10 13  1  0  0  0
 11 12  2  0  0  0
 11 54  1  0  0  0
 12 55  1  0  0  0
 13 14  1  0  0  0
 14 15  1  0  0  0
 14 56  1  0  0  0
 14 57  1  0  0  0
 15 16  1  0  0  0
 15 58  1  0  0  0
 15 59  1  0  0  0
 16 17  1  0  0  0
 16 60  1  0  0  0
 16 61  1  0  0  0
 17 18  1  0  0  0
 17 62  1  0  0  0
 17 63  1  0  0  0
 18 36  1  0  0  0
 18 19  1  0  0  0
 19 20  1  0  0  0
 19 64  1  0  0  0
 19 65  1  0  0  0
 20 21  1  0  0  0
 20 66  1  0  0  0
 20 67  1  0  0  0
 21 26  1  0  0  0
 21 29  1  0  0  0
 21 22  1  0  0  0
 22 23  2  0  0  0
 22 68  1  0  0  0
 23 24  1  0  0  0
 23 69  1  0  0  0
 24 38  1  0  0  0
 24 25  1  0  0  0
 24 37  1  0  0  0
 25 26  1  0  0  0
 25 70  1  0  0  0
 25 71  1  0  0  0
 26 39  1  0  0  0
 26 27  1  0  0  0
 27 28  1  0  0  0
 28 33  1  0  0  0
 28 29  2  0  0  0
 29 30  1  0  0  0
 30 31  2  0  0  0
 30 36  1  0  0  0
 31 32  1  0  0  0
 31 72  1  0  0  0
 32 33  2  0  0  0
 32 73  1  0  0  0
 33 34  1  0  0  0
 34 35  1  0  0  0
 35 74  1  0  0  0
 35 75  1  0  0  0
 35 76  1  0  0  0
 36 77  1  0  0  0
 36 78  1  0  0  0
 37 79  1  0  0  0
M  END
> <s_m_entry_id>
9617

> <s_m_entry_name>
ligand_docking-pose.59

> <s_m_Source_Path>
/home/csk/Desktop/cluster/DUD-E-result/aces

> <s_m_Source_File>
ligand_docking-pose.sdf

> <i_m_Source_File_Index>
59

> <i_lp_mmshare_version>
53161

> <r_lp_tautomer_probability>
1

> <s_lp_Force_Field>
OPLS_2005

> <r_lp_Energy>
65.633551

> <b_lp_Chiralities_Consistent>
1

> <s_lp_Variant>
498345-1

> <s_i_glide_gridfile>
glide-grid_1e66

> <i_i_glide_lignum>
1285

> <i_i_glide_rotatable_bonds>
12

> <r_i_docking_score>
-8.31257747962947

> <r_i_glide_ligand_efficiency>
-0.224664256206202

> <r_i_glide_ligand_efficiency_sa>
-0.748631142913009

> <r_i_glide_ligand_efficiency_ln>
-1.80280318086653

> <r_i_glide_gscore>
-8.31257747962947

> <r_i_glide_lipo>
-4.75413689395925

> <r_i_glide_hbond>
-0.252679678237299

> <r_i_glide_metal>
0

> <r_i_glide_rewards>
-0.191168505999129

> <r_i_glide_evdw>
-34.7279052734375

> <r_i_glide_ecoul>
-13.4388465881348

> <r_i_glide_erotb>
0.637629850458291

> <r_i_glide_esite>
0

> <r_i_glide_emodel>
-45.944384700703

> <r_i_glide_energy>
-48.1667518615723

> <r_i_glide_einternal>
4.83841419219971

> <i_i_glide_confnum>
43

> <i_i_glide_posenum>
352

> <r_i_glide_eff_state_penalty>
0

> <i_f3d_flags>
0

> <s_user_duplicate_titles>
498345

> <s_m_subgroup_title>
dock_pv

> <s_m_subgroupid>
dock_pv1

> <b_m_subgroup_collapsed>
1

$$$$
591780
                    3D
 Schrodinger Suite 2021-1.
 49 51  0  0  1  0            999 V2000
    5.4223   64.5000   70.0384 C   0  0  0  0  0  0
    4.7430   63.2673   69.8479 O   0  0  0  0  0  0
    3.3985   63.1629   70.1400 C   0  0  0  0  0  0
    2.5851   64.2607   70.4683 C   0  0  0  0  0  0
    1.2313   64.0887   70.7680 C   0  0  0  0  0  0
    0.6992   62.7902   70.7970 C   0  0  0  0  0  0
    1.4949   61.7042   70.4394 C   0  0  0  0  0  0
    2.8414   61.8773   70.0875 C   0  0  0  0  0  0
    3.6698   60.8374   69.6959 O   0  0  0  0  0  0
    3.1295   59.5287   69.5377 C   0  0  0  0  0  0
   -0.5981   62.5388   71.1664 O   0  0  0  0  0  0
    0.3908   65.2832   71.0790 C   0  0  0  0  0  0
   -0.0570   65.4477   72.2143 O   0  0  0  0  0  0
   -0.0581   66.1732   70.0036 C   0  0  0  0  0  0
    0.4846   66.2713   68.7692 C   0  0  0  0  0  0
   -0.0490   67.0671   67.6384 C   0  0  0  0  0  0
   -1.3926   67.4571   67.5680 C   0  0  0  0  0  0
   -1.8672   68.1854   66.4804 C   0  0  0  0  0  0
   -1.0080   68.5080   65.4317 C   0  0  0  0  0  0
    0.3349   68.1082   65.4540 C   0  0  0  0  0  0
    0.7991   67.4041   66.5756 C   0  0  0  0  0  0
    1.1904   68.4016   64.3765 N   0  0  0  0  0  0
    0.7927   68.9624   63.0805 C   0  0  0  0  0  0
    1.9988   68.8889   62.1462 C   0  0  0  0  0  0
    3.1701   68.9240   63.1054 C   0  0  0  0  0  0
    2.6338   68.1639   64.3157 C   0  0  0  0  0  0
    6.4046   64.4685   69.5681 H   0  0  0  0  0  0
    4.8918   65.3080   69.5681 H   0  0  0  0  0  0
    5.5447   64.7320   71.0961 H   0  0  0  0  0  0
    2.9933   65.2608   70.5016 H   0  0  0  0  0  0
    1.0512   60.7212   70.4425 H   0  0  0  0  0  0
    3.9173   58.8537   69.2054 H   0  0  0  0  0  0
    2.7362   59.1372   70.4770 H   0  0  0  0  0  0
    2.3435   59.5113   68.7796 H   0  0  0  0  0  0
   -0.8272   61.6084   71.1249 H   0  0  0  0  0  0
   -0.9055   66.7835   70.2640 H   0  0  0  0  0  0
    1.3719   65.7080   68.5339 H   0  0  0  0  0  0
   -2.0875   67.1953   68.3526 H   0  0  0  0  0  0
   -2.9046   68.4853   66.4429 H   0  0  0  0  0  0
   -1.4037   69.0592   64.5921 H   0  0  0  0  0  0
    1.8295   67.0866   66.6094 H   0  0  0  0  0  0
    0.4284   69.9862   63.1680 H   0  0  0  0  0  0
   -0.0064   68.3446   62.6658 H   0  0  0  0  0  0
    2.0227   69.7160   61.4358 H   0  0  0  0  0  0
    1.9817   67.9649   61.5680 H   0  0  0  0  0  0
    4.0624   68.4580   62.6866 H   0  0  0  0  0  0
    3.4401   69.9446   63.3829 H   0  0  0  0  0  0
    2.8590   67.0981   64.2581 H   0  0  0  0  0  0
    3.0950   68.5681   65.2184 H   0  0  0  0  0  0
  1  2  1  0  0  0
  1 27  1  0  0  0
  1 28  1  0  0  0
  1 29  1  0  0  0
  2  3  1  0  0  0
  3  8  1  0  0  0
  3  4  2  0  0  0
  4  5  1  0  0  0
  4 30  1  0  0  0
  5  6  2  0  0  0
  5 12  1  0  0  0
  6  7  1  0  0  0
  6 11  1  0  0  0
  7  8  2  0  0  0
  7 31  1  0  0  0
  8  9  1  0  0  0
  9 10  1  0  0  0
 10 32  1  0  0  0
 10 33  1  0  0  0
 10 34  1  0  0  0
 11 35  1  0  0  0
 12 13  2  0  0  0
 12 14  1  0  0  0
 14 15  2  0  0  0
 14 36  1  0  0  0
 15 16  1  0  0  0
 15 37  1  0  0  0
 16 21  1  0  0  0
 16 17  2  0  0  0
 17 18  1  0  0  0
 17 38  1  0  0  0
 18 19  2  0  0  0
 18 39  1  0  0  0
 19 20  1  0  0  0
 19 40  1  0  0  0
 20 21  2  0  0  0
 20 22  1  0  0  0
 21 41  1  0  0  0
 22 26  1  0  0  0
 22 23  1  0  0  0
 23 24  1  0  0  0
 23 42  1  0  0  0
 23 43  1  0  0  0
 24 25  1  0  0  0
 24 44  1  0  0  0
 24 45  1  0  0  0
 25 26  1  0  0  0
 25 46  1  0  0  0
 25 47  1  0  0  0
 26 48  1  0  0  0
 26 49  1  0  0  0
M  END
> <s_m_entry_id>
9619

> <s_m_entry_name>
ligand_docking-pose.61

> <s_m_Source_Path>
/home/csk/Desktop/cluster/DUD-E-result/aces

> <s_m_Source_File>
ligand_docking-pose.sdf

> <i_m_Source_File_Index>
61

> <i_lp_mmshare_version>
53161

> <r_lp_tautomer_probability>
1

> <s_lp_Force_Field>
OPLS_2005

> <r_lp_Energy>
51.872576

> <b_lp_Chiralities_Consistent>
1

> <s_lp_Variant>
591780-1

> <s_i_glide_gridfile>
glide-grid_1e66

> <i_i_glide_lignum>
2147

> <i_i_glide_rotatable_bonds>
7

> <r_i_docking_score>
-8.28766168907303

> <r_i_glide_ligand_efficiency>
-0.318756218810501

> <r_i_glide_ligand_efficiency_sa>
-0.944314043980954

> <r_i_glide_ligand_efficiency_ln>
-1.94633015364275

> <r_i_glide_gscore>
-8.28766168907303

> <r_i_glide_lipo>
-4.51246682484234

> <r_i_glide_hbond>
0

> <r_i_glide_metal>
0

> <r_i_glide_rewards>
-1.70495251526532

> <r_i_glide_evdw>
-42.4608840942383

> <r_i_glide_ecoul>
-3.72518134117126

> <r_i_glide_erotb>
0.611579056922231

> <r_i_glide_esite>
0

> <r_i_glide_emodel>
-62.5391625185576

> <r_i_glide_energy>
-46.1860654354095

> <r_i_glide_einternal>
10.6192493438721

> <i_i_glide_confnum>
40

> <i_i_glide_posenum>
326

> <r_i_glide_eff_state_penalty>
0

> <i_f3d_flags>
0

> <s_user_duplicate_titles>
591780

> <s_m_subgroup_title>
dock_pv

> <s_m_subgroupid>
dock_pv1

> <b_m_subgroup_collapsed>
1

$$$$
95912
                    3D
 Schrodinger Suite 2021-1.
 29 31  0  0  1  0            999 V2000
    5.8189   70.1888   66.3934 C   0  0  0  0  0  0
    4.7087   69.7182   65.6349 C   0  0  0  0  0  0
    3.4470   69.6052   66.2834 C   0  0  0  0  0  0
    3.3024   70.0075   67.6226 C   0  0  0  0  0  0
    4.3911   70.5080   68.3200 C   0  0  0  0  0  0
    5.6510   70.5877   67.7194 C   0  0  0  0  0  0
    7.0236   71.1650   68.5996 Cl  0  0  0  0  0  0
    4.1352   70.9080   69.9680 Cl  0  0  0  0  0  0
    2.3438   69.1543   65.6474 N   0  0  0  0  0  0
    2.3939   68.9080   64.3201 C   0  0  0  0  0  0
    3.5705   69.0930   63.5611 C   0  0  0  0  0  0
    4.7544   69.4142   64.2448 C   0  0  0  0  0  0
    5.9430   69.4973   63.5159 N   0  0  0  0  0  0
    3.5261   69.0822   62.0260 C   0  0  0  0  0  0
    2.2150   68.5394   61.4646 C   0  0  0  0  0  0
    0.9786   69.0200   62.2281 C   0  0  0  0  0  0
    1.0714   68.5080   63.6692 C   0  0  0  0  0  0
    6.7895   70.2767   65.9280 H   0  0  0  0  0  0
    2.3367   69.9254   68.1030 H   0  0  0  0  0  0
    5.9207   69.3083   62.5237 H   0  0  0  0  0  0
    6.8319   69.7080   63.9680 H   0  0  0  0  0  0
    3.6558   70.1080   61.6801 H   0  0  0  0  0  0
    4.3586   68.5126   61.6087 H   0  0  0  0  0  0
    2.1294   68.7614   60.4001 H   0  0  0  0  0  0
    2.2776   67.4639   61.5680 H   0  0  0  0  0  0
    0.9114   70.1080   62.2068 H   0  0  0  0  0  0
    0.0716   68.6403   61.7553 H   0  0  0  0  0  0
    0.9927   67.4205   63.6807 H   0  0  0  0  0  0
    0.2208   68.8698   64.2504 H   0  0  0  0  0  0
  1  6  2  0  0  0
  1  2  1  0  0  0
  1 18  1  0  0  0
  2 12  2  0  0  0
  2  3  1  0  0  0
  3  4  1  0  0  0
  3  9  2  0  0  0
  4  5  2  0  0  0
  4 19  1  0  0  0
  5  6  1  0  0  0
  5  8  1  0  0  0
  6  7  1  0  0  0
  9 10  1  0  0  0
 10 17  1  0  0  0
 10 11  2  0  0  0
 11 12  1  0  0  0
 11 14  1  0  0  0
 12 13  1  0  0  0
 13 20  1  0  0  0
 13 21  1  0  0  0
 14 15  1  0  0  0
 14 22  1  0  0  0
 14 23  1  0  0  0
 15 16  1  0  0  0
 15 24  1  0  0  0
 15 25  1  0  0  0
 16 17  1  0  0  0
 16 26  1  0  0  0
 16 27  1  0  0  0
 17 28  1  0  0  0
 17 29  1  0  0  0
M  END
> <s_m_entry_id>
9620

> <s_m_entry_name>
ligand_docking-pose.62

> <s_m_Source_Path>
/home/csk/Desktop/cluster/DUD-E-result/aces

> <s_m_Source_File>
ligand_docking-pose.sdf

> <i_m_Source_File_Index>
62

> <i_lp_mmshare_version>
53161

> <r_lp_tautomer_probability>
1

> <s_lp_Force_Field>
OPLS_2005

> <r_lp_Energy>
15.245551

> <b_lp_Chiralities_Consistent>
1

> <s_lp_Variant>
95912-1

> <s_i_glide_gridfile>
glide-grid_1e66

> <i_i_glide_lignum>
1

> <i_i_glide_rotatable_bonds>
0

> <r_i_docking_score>
-8.27866373101714

> <r_i_glide_ligand_efficiency>
-0.486980219471597

> <r_i_glide_ligand_efficiency_sa>
-1.25216327215948

> <r_i_glide_ligand_efficiency_ln>
-2.15971901064522

> <r_i_glide_gscore>
-8.27866373101714

> <r_i_glide_lipo>
-3.72258250387724

> <r_i_glide_hbond>
-0.32

> <r_i_glide_metal>
0

> <r_i_glide_rewards>
-2.28759195454545

> <r_i_glide_evdw>
-27.6389007568359

> <r_i_glide_ecoul>
-3.7769615650177

> <r_i_glide_erotb>
0

> <r_i_glide_esite>
0

> <r_i_glide_emodel>
-44.2937705577216

> <r_i_glide_energy>
-31.4158623218536

> <r_i_glide_einternal>
0

> <i_i_glide_confnum>
2

> <i_i_glide_posenum>
80

> <r_i_glide_eff_state_penalty>
0

> <i_f3d_flags>
0

> <s_user_duplicate_titles>
95912

> <s_m_subgroup_title>
dock_pv

> <s_m_subgroupid>
dock_pv1

> <b_m_subgroup_collapsed>
1

$$$$
79849
                    3D
 Schrodinger Suite 2021-1.
 30 32  0  0  1  0            999 V2000
    6.4756   70.5069   66.7048 C   0  0  0  0  0  0
    5.5786   69.9362   65.8078 C   0  0  0  0  0  0
    4.2265   69.7094   66.1878 C   0  0  0  0  0  0
    3.8164   70.1065   67.4942 C   0  0  0  0  0  0
    4.7416   70.7213   68.3689 C   0  0  0  0  0  0
    6.0636   70.8908   67.9754 C   0  0  0  0  0  0
    7.2144   71.5028   69.0991 Cl  0  0  0  0  0  0
    2.5634   69.8786   67.9487 N   0  0  0  0  0  0
    1.6474   69.2956   67.1379 C   0  0  0  0  0  0
    1.9427   68.8871   65.8163 C   0  0  0  0  0  0
    3.2541   69.0910   65.3470 C   0  0  0  0  0  0
    3.5940   68.6729   64.0531 N   0  0  0  0  0  0
    0.8978   68.0982   65.0022 C   0  0  2  0  0  0
   -0.5378   68.3559   65.5000 C   0  0  0  0  0  0
   -0.6392   68.1269   67.0101 C   0  0  0  0  0  0
    0.2506   69.1406   67.7363 C   0  0  0  0  0  0
    1.1431   66.7071   65.0335 O   0  0  0  0  0  0
    7.5074   70.6238   66.4090 H   0  0  0  0  0  0
    5.9276   69.6440   64.8289 H   0  0  0  0  0  0
    4.4253   70.9974   69.3640 H   0  0  0  0  0  0
    2.8945   68.2169   63.4895 H   0  0  0  0  0  0
    4.5034   68.9044   63.6795 H   0  0  0  0  0  0
    0.9463   68.3946   63.9546 H   0  0  0  0  0  0
   -0.8569   69.3647   65.2353 H   0  0  0  0  0  0
   -1.2395   67.7085   64.9759 H   0  0  0  0  0  0
   -1.6726   68.2258   67.3448 H   0  0  0  0  0  0
   -0.3305   67.1089   67.2590 H   0  0  0  0  0  0
    0.3408   68.8571   68.7774 H   0  0  0  0  0  0
   -0.2450   70.1095   67.7277 H   0  0  0  0  0  0
    0.3262   66.2693   64.7621 H   0  0  0  0  0  0
  1  6  1  0  0  0
  1  2  2  0  0  0
  1 18  1  0  0  0
  2  3  1  0  0  0
  2 19  1  0  0  0
  3 11  2  0  0  0
  3  4  1  0  0  0
  4  5  1  0  0  0
  4  8  2  0  0  0
  5  6  2  0  0  0
  5 20  1  0  0  0
  6  7  1  0  0  0
  8  9  1  0  0  0
  9 16  1  0  0  0
  9 10  2  0  0  0
 10 11  1  0  0  0
 10 13  1  0  0  0
 11 12  1  0  0  0
 12 21  1  0  0  0
 12 22  1  0  0  0
 13 14  1  0  0  0
 13 17  1  0  0  0
 13 23  1  0  0  0
 14 15  1  0  0  0
 14 24  1  0  0  0
 14 25  1  0  0  0
 15 16  1  0  0  0
 15 26  1  0  0  0
 15 27  1  0  0  0
 16 28  1  0  0  0
 16 29  1  0  0  0
 17 30  1  0  0  0
M  END
> <s_m_entry_id>
9621

> <s_m_entry_name>
ligand_docking-pose.63

> <s_m_Source_Path>
/home/csk/Desktop/cluster/DUD-E-result/aces

> <s_m_Source_File>
ligand_docking-pose.sdf

> <i_m_Source_File_Index>
63

> <i_lp_mmshare_version>
53161

> <r_lp_tautomer_probability>
1

> <s_lp_Force_Field>
OPLS_2005

> <r_lp_Energy>
19.050732

> <b_lp_Chiralities_Consistent>
1

> <s_lp_Variant>
79849-2

> <s_i_glide_gridfile>
glide-grid_1e66

> <i_i_glide_lignum>
26

> <i_i_glide_rotatable_bonds>
1

> <r_i_docking_score>
-8.27827340825651

> <r_i_glide_ligand_efficiency>
-0.486957259309207

> <r_i_glide_ligand_efficiency_sa>
-1.25210423511666

> <r_i_glide_ligand_efficiency_ln>
-2.15961718412903

> <r_i_glide_gscore>
-8.27827340825651

> <r_i_glide_lipo>
-3.39023839078509

> <r_i_glide_hbond>
-0.32

> <r_i_glide_metal>
0

> <r_i_glide_rewards>
-2.47045854232799

> <r_i_glide_evdw>
-30.3031120300293

> <r_i_glide_ecoul>
-3.88280582427979

> <r_i_glide_erotb>
0

> <r_i_glide_esite>
0

> <r_i_glide_emodel>
-50.6272661834011

> <r_i_glide_energy>
-34.1859178543091

> <r_i_glide_einternal>
0.550463855266571

> <i_i_glide_confnum>
1

> <i_i_glide_posenum>
268

> <r_i_glide_eff_state_penalty>
0

> <i_f3d_flags>
0

> <s_user_duplicate_titles>
79849

> <s_m_subgroup_title>
dock_pv

> <s_m_subgroupid>
dock_pv1

> <b_m_subgroup_collapsed>
1

$$$$
689407
                    3D
 Schrodinger Suite 2021-1.
 47 50  0  0  1  0            999 V2000
    5.2303   69.6922   61.9580 C   0  0  0  0  0  0
    4.3171   68.8228   62.8201 C   0  0  0  0  0  0
    2.9652   69.0658   62.4405 O   0  0  0  0  0  0
    1.9432   68.7669   63.3182 C   0  0  0  0  0  0
    0.6445   69.0890   62.8956 C   0  0  0  0  0  0
   -0.4570   68.9079   63.7413 C   0  0  0  0  0  0
   -0.2410   68.3926   65.0190 C   0  0  0  0  0  0
    1.0199   68.0129   65.4086 C   0  0  0  0  0  0
    2.1275   68.1848   64.5878 C   0  0  0  0  0  0
    1.0357   67.4510   66.6498 O   0  0  0  0  0  0
   -0.2407   67.4422   67.1119 C   0  0  0  0  0  0
   -0.6163   66.8205   68.2478 C   0  0  0  0  0  0
    0.2664   66.0803   69.1650 C   0  0  0  0  0  0
   -0.1348   64.8115   69.5876 C   0  0  0  0  0  0
    0.6980   64.0323   70.3896 C   0  0  0  0  0  0
    1.9358   64.4791   70.7008 N   0  3  0  0  0  0
    2.3472   65.7151   70.3292 C   0  0  0  0  0  0
    1.5217   66.5447   69.5683 C   0  0  0  0  0  0
    2.8299   63.6486   71.5438 C   0  0  0  0  0  0
    3.2054   62.2408   71.0745 C   0  0  0  0  0  0
    2.7090   61.6513   69.9027 C   0  0  0  0  0  0
    3.0520   60.3399   69.5880 C   0  0  0  0  0  0
    3.9222   59.6328   70.4092 C   0  0  0  0  0  0
    4.4553   60.2237   71.5507 C   0  0  0  0  0  0
    4.0885   61.5221   71.8860 C   0  0  0  0  0  0
    4.2364   58.3587   70.0905 F   0  0  0  0  0  0
   -1.1244   68.1091   66.1486 C   0  0  0  0  0  0
   -2.3326   68.3039   66.2819 O   0  0  0  0  0  0
    6.2505   69.3073   61.9842 H   0  0  0  0  0  0
    5.2435   70.7224   62.3123 H   0  0  0  0  0  0
    4.9068   69.7082   60.9177 H   0  0  0  0  0  0
    4.5453   67.7654   62.6736 H   0  0  0  0  0  0
    4.5202   69.0714   63.8636 H   0  0  0  0  0  0
    0.4952   69.5171   61.9153 H   0  0  0  0  0  0
   -1.4450   69.1932   63.4085 H   0  0  0  0  0  0
    3.0985   67.8811   64.9438 H   0  0  0  0  0  0
   -1.6621   66.8439   68.5240 H   0  0  0  0  0  0
   -1.0905   64.4140   69.2824 H   0  0  0  0  0  0
    0.4245   63.0519   70.7559 H   0  0  0  0  0  0
    3.3285   66.0314   70.6573 H   0  0  0  0  0  0
    1.8511   67.5337   69.2784 H   0  0  0  0  0  0
    3.7674   64.1953   71.6462 H   0  0  0  0  0  0
    2.3421   63.6048   72.5199 H   0  0  0  0  0  0
    2.0441   62.1754   69.2344 H   0  0  0  0  0  0
    2.6347   59.8569   68.7192 H   0  0  0  0  0  0
    5.1328   59.6825   72.1921 H   0  0  0  0  0  0
    4.4880   61.9639   72.7882 H   0  0  0  0  0  0
  1  2  1  0  0  0
  1 29  1  0  0  0
  1 30  1  0  0  0
  1 31  1  0  0  0
  2  3  1  0  0  0
  2 32  1  0  0  0
  2 33  1  0  0  0
  3  4  1  0  0  0
  4  9  1  0  0  0
  4  5  2  0  0  0
  5  6  1  0  0  0
  5 34  1  0  0  0
  6  7  2  0  0  0
  6 35  1  0  0  0
  7 27  1  0  0  0
  7  8  1  0  0  0
  8  9  2  0  0  0
  8 10  1  0  0  0
  9 36  1  0  0  0
 10 11  1  0  0  0
 11 12  2  0  0  0
 11 27  1  0  0  0
 12 13  1  0  0  0
 12 37  1  0  0  0
 13 18  1  0  0  0
 13 14  2  0  0  0
 14 15  1  0  0  0
 14 38  1  0  0  0
 15 16  2  0  0  0
 15 39  1  0  0  0
 16 17  1  0  0  0
 16 19  1  0  0  0
 17 18  2  0  0  0
 17 40  1  0  0  0
 18 41  1  0  0  0
 19 20  1  0  0  0
 19 42  1  0  0  0
 19 43  1  0  0  0
 20 25  1  0  0  0
 20 21  2  0  0  0
 21 22  1  0  0  0
 21 44  1  0  0  0
 22 23  2  0  0  0
 22 45  1  0  0  0
 23 24  1  0  0  0
 23 26  1  0  0  0
 24 25  2  0  0  0
 24 46  1  0  0  0
 25 47  1  0  0  0
 27 28  2  0  0  0
M  CHG  1  16   1
M  END
> <s_m_entry_id>
9624

> <s_m_entry_name>
ligand_docking-pose.66

> <s_m_Source_Path>
/home/csk/Desktop/cluster/DUD-E-result/aces

> <s_m_Source_File>
ligand_docking-pose.sdf

> <i_m_Source_File_Index>
66

> <i_lp_mmshare_version>
53161

> <r_lp_tautomer_probability>
1

> <s_lp_Force_Field>
OPLS_2005

> <r_lp_Energy>
40.673249

> <b_lp_Chiralities_Consistent>
1

> <s_lp_Variant>
689407-1

> <s_i_glide_gridfile>
glide-grid_1e66

> <i_i_glide_lignum>
1390

> <i_i_glide_rotatable_bonds>
5

> <r_i_docking_score>
-8.27400100341488

> <r_i_glide_ligand_efficiency>
-0.295500035836246

> <r_i_glide_ligand_efficiency_sa>
-0.897312149012531

> <r_i_glide_ligand_efficiency_ln>
-1.90988236681381

> <r_i_glide_gscore>
-8.27400100341488

> <r_i_glide_lipo>
-3.83519970738494

> <r_i_glide_hbond>
0

> <r_i_glide_metal>
0

> <r_i_glide_rewards>
-2.50334536502834

> <r_i_glide_evdw>
-41.1180305480957

> <r_i_glide_ecoul>
-2.35403084754944

> <r_i_glide_erotb>
0.546517615642679

> <r_i_glide_esite>
-0.0729673921070789

> <r_i_glide_emodel>
-62.7088780931249

> <r_i_glide_energy>
-43.4720613956451

> <r_i_glide_einternal>
6.96779537200928

> <i_i_glide_confnum>
13

> <i_i_glide_posenum>
188

> <r_i_glide_eff_state_penalty>
0

> <i_f3d_flags>
0

> <s_user_duplicate_titles>
689407

> <s_m_subgroup_title>
dock_pv

> <s_m_subgroupid>
dock_pv1

> <b_m_subgroup_collapsed>
1

$$$$
689470
                    3D
 Schrodinger Suite 2021-1.
 44 47  0  0  1  0            999 V2000
    6.2563   68.6427   62.8965 C   0  0  0  0  0  0
    5.3260   69.1671   61.9696 O   0  0  0  0  0  0
    3.9888   69.0708   62.2589 C   0  0  0  0  0  0
    3.0970   69.2556   61.1957 C   0  0  0  0  0  0
    1.7116   69.2008   61.3960 C   0  0  0  0  0  0
    1.2375   68.9404   62.6785 C   0  0  0  0  0  0
    2.1211   68.7264   63.7068 C   0  0  0  0  0  0
    3.4920   68.7942   63.5407 C   0  0  0  0  0  0
    1.5039   68.4456   64.8773 O   0  0  0  0  0  0
    0.1700   68.5081   64.6573 C   0  0  0  0  0  0
   -0.7380   68.2775   65.6180 C   0  0  0  0  0  0
   -0.3860   67.8868   66.9787 C   0  0  0  0  0  0
   -1.1635   66.9075   67.5848 C   0  0  0  0  0  0
   -0.7437   66.3632   68.7938 C   0  0  0  0  0  0
    0.3947   66.7804   69.3946 N   0  3  0  0  0  0
    1.1410   67.7667   68.8479 C   0  0  0  0  0  0
    0.7650   68.3429   67.6342 C   0  0  0  0  0  0
    0.7650   66.2663   70.7376 C   0  0  0  0  0  0
    0.5587   64.7775   71.0112 C   0  0  0  0  0  0
   -0.0283   64.3728   72.2157 C   0  0  0  0  0  0
   -0.2018   63.0187   72.4871 C   0  0  0  0  0  0
    0.2207   62.0708   71.5583 C   0  0  0  0  0  0
    0.8264   62.4664   70.3680 C   0  0  0  0  0  0
    1.0012   63.8198   70.0971 C   0  0  0  0  0  0
   -0.0948   68.8200   63.2626 C   0  0  0  0  0  0
   -1.2084   68.9330   62.7674 O   0  0  0  0  0  0
    7.2287   68.5459   62.4151 H   0  0  0  0  0  0
    5.9506   67.6484   63.2162 H   0  0  0  0  0  0
    6.3417   69.2930   63.7663 H   0  0  0  0  0  0
    3.5024   69.4273   60.2104 H   0  0  0  0  0  0
    1.0379   69.3463   60.5627 H   0  0  0  0  0  0
    4.1444   68.6479   64.3874 H   0  0  0  0  0  0
   -1.7926   68.3554   65.3887 H   0  0  0  0  0  0
   -2.0436   66.5183   67.0898 H   0  0  0  0  0  0
   -1.2597   65.5445   69.2575 H   0  0  0  0  0  0
    1.9955   68.1086   69.4147 H   0  0  0  0  0  0
    1.3734   69.1271   67.2066 H   0  0  0  0  0  0
    1.8290   66.4676   70.8590 H   0  0  0  0  0  0
    0.1943   66.8851   71.4337 H   0  0  0  0  0  0
   -0.3471   65.1062   72.9432 H   0  0  0  0  0  0
   -0.6655   62.7036   73.4109 H   0  0  0  0  0  0
    0.0789   61.0192   71.7629 H   0  0  0  0  0  0
    1.1555   61.7243   69.6556 H   0  0  0  0  0  0
    1.4798   64.1238   69.1777 H   0  0  0  0  0  0
  1  2  1  0  0  0
  1 27  1  0  0  0
  1 28  1  0  0  0
  1 29  1  0  0  0
  2  3  1  0  0  0
  3  8  1  0  0  0
  3  4  2  0  0  0
  4  5  1  0  0  0
  4 30  1  0  0  0
  5  6  2  0  0  0
  5 31  1  0  0  0
  6 25  1  0  0  0
  6  7  1  0  0  0
  7  8  2  0  0  0
  7  9  1  0  0  0
  8 32  1  0  0  0
  9 10  1  0  0  0
 10 11  2  0  0  0
 10 25  1  0  0  0
 11 12  1  0  0  0
 11 33  1  0  0  0
 12 17  1  0  0  0
 12 13  2  0  0  0
 13 14  1  0  0  0
 13 34  1  0  0  0
 14 15  2  0  0  0
 14 35  1  0  0  0
 15 16  1  0  0  0
 15 18  1  0  0  0
 16 17  2  0  0  0
 16 36  1  0  0  0
 17 37  1  0  0  0
 18 19  1  0  0  0
 18 38  1  0  0  0
 18 39  1  0  0  0
 19 24  1  0  0  0
 19 20  2  0  0  0
 20 21  1  0  0  0
 20 40  1  0  0  0
 21 22  2  0  0  0
 21 41  1  0  0  0
 22 23  1  0  0  0
 22 42  1  0  0  0
 23 24  2  0  0  0
 23 43  1  0  0  0
 24 44  1  0  0  0
 25 26  2  0  0  0
M  CHG  1  15   1
M  END
> <s_m_entry_id>
9626

> <s_m_entry_name>
ligand_docking-pose.68

> <s_m_Source_Path>
/home/csk/Desktop/cluster/DUD-E-result/aces

> <s_m_Source_File>
ligand_docking-pose.sdf

> <i_m_Source_File_Index>
68

> <i_lp_mmshare_version>
53161

> <r_lp_tautomer_probability>
1

> <s_lp_Force_Field>
OPLS_2005

> <r_lp_Energy>
40.786937

> <b_lp_Chiralities_Consistent>
1

> <s_lp_Variant>
689470-1

> <s_i_glide_gridfile>
glide-grid_1e66

> <i_i_glide_lignum>
2064

> <i_i_glide_rotatable_bonds>
4

> <r_i_docking_score>
-8.24137239559475

> <r_i_glide_ligand_efficiency>
-0.316975861369029

> <r_i_glide_ligand_efficiency_sa>
-0.93903974206596

> <r_i_glide_ligand_efficiency_ln>
-1.93545926495694

> <r_i_glide_gscore>
-8.24137239559475

> <r_i_glide_lipo>
-4.18491270845543

> <r_i_glide_hbond>
0

> <r_i_glide_metal>
0

> <r_i_glide_rewards>
-2.26713231577059

> <r_i_glide_evdw>
-39.5021858215332

> <r_i_glide_ecoul>
-1.96327042579651

> <r_i_glide_erotb>
0.480272483577411

> <r_i_glide_esite>
0

> <r_i_glide_emodel>
-60.5431124180892

> <r_i_glide_energy>
-41.4654562473297

> <r_i_glide_einternal>
5.89349985122681

> <i_i_glide_confnum>
5

> <i_i_glide_posenum>
67

> <r_i_glide_eff_state_penalty>
0

> <i_f3d_flags>
0

> <s_user_duplicate_titles>
689470

> <s_m_subgroup_title>
dock_pv

> <s_m_subgroupid>
dock_pv1

> <b_m_subgroup_collapsed>
1

$$$$
199498
                    3D
 Schrodinger Suite 2021-1.
 53 55  0  0  1  0            999 V2000
   -1.4837   67.0198   66.9063 C   0  0  0  0  0  0
   -0.3427   68.0190   66.8404 C   0  0  0  0  0  0
    0.8199   67.8095   66.1873 C   0  0  0  0  0  0
    1.1819   66.5846   65.3573 C   0  0  0  0  0  0
    2.4696   66.5968   64.6206 N   0  0  0  0  0  0
    3.2614   65.4613   64.7680 C   0  0  0  0  0  0
    3.1430   64.5350   65.5679 O   0  0  0  0  0  0
    4.4218   65.3658   63.9036 C   0  0  0  0  0  0
    4.7432   66.3218   63.0246 C   0  0  0  0  0  0
    3.9056   67.4903   62.8771 C   0  0  0  0  0  0
    2.7825   67.5634   63.6497 C   0  0  0  0  0  0
    1.8032   68.7253   63.4055 C   0  0  0  0  0  0
    1.7876   69.0868   61.9121 C   0  0  0  0  0  0
    3.1883   69.5039   61.4505 C   0  0  0  0  0  0
    4.3371   68.5767   61.9073 C   0  0  1  0  0  0
    5.5429   69.2611   62.3818 N   0  0  2  0  0  0
    5.4395   70.0077   63.6409 C   0  0  0  0  0  0
    5.7427   69.1318   64.8753 C   0  0  0  0  0  0
    5.4881   69.8188   66.2000 C   0  0  0  0  0  0
    6.5344   70.3616   66.9483 C   0  0  0  0  0  0
    6.2744   70.9082   68.2065 C   0  0  0  0  0  0
    4.9816   70.9080   68.7163 C   0  0  0  0  0  0
    3.9368   70.3916   67.9681 C   0  0  0  0  0  0
    4.1895   69.8488   66.7089 C   0  0  0  0  0  0
    2.3454   70.4176   68.6209 Cl  0  0  0  0  0  0
    7.5430   71.5438   69.1680 Cl  0  0  0  0  0  0
   -0.6250   69.3309   67.5436 C   0  0  0  0  0  0
   -1.6942   66.7508   67.9419 H   0  0  0  0  0  0
   -1.2502   66.1078   66.3680 H   0  0  0  0  0  0
   -2.3883   67.4386   66.4645 H   0  0  0  0  0  0
    1.5575   68.5881   66.2263 H   0  0  0  0  0  0
    1.0390   65.7080   65.9679 H   0  0  0  0  0  0
    0.3952   66.5049   64.6105 H   0  0  0  0  0  0
    5.0526   64.4955   64.0096 H   0  0  0  0  0  0
    5.6275   66.2367   62.4104 H   0  0  0  0  0  0
    0.7735   68.4292   63.6004 H   0  0  0  0  0  0
    2.0188   69.5846   64.0406 H   0  0  0  0  0  0
    1.4474   68.2293   61.3284 H   0  0  0  0  0  0
    1.0721   69.8874   61.7190 H   0  0  0  0  0  0
    3.2104   69.5785   60.3679 H   0  0  0  0  0  0
    3.3813   70.5080   61.8033 H   0  0  0  0  0  0
    4.6384   68.0176   61.0254 H   0  0  0  0  0  0
    5.9433   69.8135   61.6353 H   0  0  0  0  0  0
    6.1667   70.8210   63.6253 H   0  0  0  0  0  0
    4.4748   70.5061   63.7426 H   0  0  0  0  0  0
    5.1414   68.2314   64.9053 H   0  0  0  0  0  0
    6.7538   68.7471   64.8356 H   0  0  0  0  0  0
    7.5428   70.3399   66.5626 H   0  0  0  0  0  0
    4.7783   71.3074   69.6931 H   0  0  0  0  0  0
    3.3879   69.4466   66.1179 H   0  0  0  0  0  0
   -0.4249   69.2571   68.6075 H   0  0  0  0  0  0
    0.0280   70.1079   67.1680 H   0  0  0  0  0  0
   -1.6544   69.6596   67.3959 H   0  0  0  0  0  0
  1  2  1  0  0  0
  1 28  1  0  0  0
  1 29  1  0  0  0
  1 30  1  0  0  0
  2  3  2  3  0  0
  2 27  1  0  0  0
  3  4  1  0  0  0
  3 31  1  0  0  0
  4  5  1  0  0  0
  4 32  1  0  0  0
  4 33  1  0  0  0
  5 11  1  0  0  0
  5  6  1  0  0  0
  6  7  2  0  0  0
  6  8  1  0  0  0
  8  9  2  0  0  0
  8 34  1  0  0  0
  9 10  1  0  0  0
  9 35  1  0  0  0
 10 15  1  0  0  0
 10 11  2  0  0  0
 11 12  1  0  0  0
 12 13  1  0  0  0
 12 36  1  0  0  0
 12 37  1  0  0  0
 13 14  1  0  0  0
 13 38  1  0  0  0
 13 39  1  0  0  0
 14 15  1  0  0  0
 14 40  1  0  0  0
 14 41  1  0  0  0
 15 16  1  0  0  0
 15 42  1  0  0  0
 16 17  1  0  0  0
 16 43  1  0  0  0
 17 18  1  0  0  0
 17 44  1  0  0  0
 17 45  1  0  0  0
 18 19  1  0  0  0
 18 46  1  0  0  0
 18 47  1  0  0  0
 19 24  1  0  0  0
 19 20  2  0  0  0
 20 21  1  0  0  0
 20 48  1  0  0  0
 21 22  2  0  0  0
 21 26  1  0  0  0
 22 23  1  0  0  0
 22 49  1  0  0  0
 23 24  2  0  0  0
 23 25  1  0  0  0
 24 50  1  0  0  0
 27 51  1  0  0  0
 27 52  1  0  0  0
 27 53  1  0  0  0
M  END
> <s_m_entry_id>
9627

> <s_m_entry_name>
ligand_docking-pose.69

> <s_m_Source_Path>
/home/csk/Desktop/cluster/DUD-E-result/aces

> <s_m_Source_File>
ligand_docking-pose.sdf

> <i_m_Source_File_Index>
69

> <i_lp_mmshare_version>
53161

> <r_lp_tautomer_probability>
1

> <s_lp_Force_Field>
OPLS_2005

> <r_lp_Energy>
33.513911

> <b_lp_Chiralities_Consistent>
1

> <s_lp_Variant>
199498-1

> <s_i_glide_gridfile>
glide-grid_1e66

> <i_i_glide_lignum>
1093

> <i_i_glide_rotatable_bonds>
6

> <r_i_docking_score>
-8.23540900645396

> <r_i_glide_ligand_efficiency>
-0.305015148387184

> <r_i_glide_ligand_efficiency_sa>
-0.915045444156271

> <r_i_glide_ligand_efficiency_ln>
-1.91706744537391

> <r_i_glide_gscore>
-8.23540900645396

> <r_i_glide_lipo>
-4.5769501315741

> <r_i_glide_hbond>
-0.218018747851411

> <r_i_glide_metal>
0

> <r_i_glide_rewards>
-1.54296709756824

> <r_i_glide_evdw>
-32.7585372924805

> <r_i_glide_ecoul>
-5.71691083908081

> <r_i_glide_erotb>
0.597990461025929

> <r_i_glide_esite>
0

> <r_i_glide_emodel>
-49.0670511440951

> <r_i_glide_energy>
-38.4754481315613

> <r_i_glide_einternal>
12.6686754226685

> <i_i_glide_confnum>
42

> <i_i_glide_posenum>
8

> <r_i_glide_eff_state_penalty>
0

> <i_f3d_flags>
0

> <s_user_duplicate_titles>
199498

> <s_m_subgroup_title>
dock_pv

> <s_m_subgroupid>
dock_pv1

> <b_m_subgroup_collapsed>
1

$$$$
676785
                    3D
 Schrodinger Suite 2021-1.
 69 73  0  0  1  0            999 V2000
    6.0219   70.5080   66.1171 C   0  0  0  0  0  0
    5.8259   70.7971   67.4640 C   0  0  0  0  0  0
    4.6083   70.5097   68.0712 C   0  0  0  0  0  0
    3.5693   69.9151   67.3165 C   0  0  0  0  0  0
    3.7686   69.6077   65.9380 C   0  0  0  0  0  0
    5.0221   69.9244   65.3525 C   0  0  0  0  0  0
    2.6940   69.0021   65.2236 C   0  0  0  0  0  0
    1.5078   68.6621   65.9081 C   0  0  0  0  0  0
    1.4052   69.0191   67.2710 C   0  0  0  0  0  0
    2.4083   69.6251   67.9479 N   0  0  0  0  0  0
    0.1345   68.7697   68.0807 C   0  0  0  0  0  0
   -0.7750   67.7043   67.4605 C   0  0  0  0  0  0
   -0.9832   68.0209   65.9785 C   0  0  0  0  0  0
    0.3538   67.9113   65.2183 C   0  0  0  0  0  0
    2.7776   68.7988   63.8301 N   0  0  0  0  0  0
    3.5044   67.6744   63.2439 C   0  0  0  0  0  0
    3.8962   66.5471   64.2234 C   0  0  0  0  0  0
    4.3134   65.2033   63.6020 C   0  0  0  0  0  0
    4.6866   64.1306   64.6530 C   0  0  0  0  0  0
    3.6239   63.7067   65.7047 C   0  0  0  0  0  0
    3.9341   63.9834   67.2193 C   0  0  0  0  0  0
    3.3936   62.9079   68.0559 N   0  0  2  0  0  0
    3.6821   62.8949   69.4870 C   0  0  2  0  0  0
    3.9263   61.4223   69.9107 C   0  0  0  0  0  0
    4.1563   61.3039   71.4225 C   0  0  0  0  0  0
    2.8724   61.7006   72.1723 C   0  0  0  0  0  0
    2.1796   62.9231   71.5598 C   0  0  0  0  0  0
    2.5556   63.4910   70.3697 C   0  0  0  0  0  0
    1.7595   64.6542   69.9702 C   0  0  0  0  0  0
    0.7002   65.0693   70.7023 C   0  0  0  0  0  0
    0.3523   64.4576   71.9709 C   0  0  0  0  0  0
    1.1131   63.3849   72.2968 N   0  0  0  0  0  0
   -0.4559   64.9198   72.7678 O   0  0  0  0  0  0
    6.9682   70.7411   65.6527 H   0  0  0  0  0  0
    6.6214   71.2468   68.0411 H   0  0  0  0  0  0
    4.4503   70.7404   69.1157 H   0  0  0  0  0  0
    5.2012   69.7174   64.3087 H   0  0  0  0  0  0
    0.3933   68.4896   69.1029 H   0  0  0  0  0  0
   -0.4133   69.7113   68.1525 H   0  0  0  0  0  0
   -1.7384   67.6850   67.9679 H   0  0  0  0  0  0
   -0.3378   66.7100   67.5805 H   0  0  0  0  0  0
   -1.4033   69.0228   65.8586 H   0  0  0  0  0  0
   -1.7177   67.3337   65.5683 H   0  0  0  0  0  0
    0.2156   68.2567   64.1924 H   0  0  0  0  0  0
    0.6311   66.8577   65.1499 H   0  0  0  0  0  0
    2.6390   69.6061   63.2340 H   0  0  0  0  0  0
    2.8576   67.3074   62.4533 H   0  0  0  0  0  0
    4.3877   68.0348   62.7108 H   0  0  0  0  0  0
    4.7486   66.9337   64.7740 H   0  0  0  0  0  0
    3.0945   66.3793   64.9464 H   0  0  0  0  0  0
    3.5488   64.8088   62.9427 H   0  0  0  0  0  0
    5.1712   65.3780   62.9526 H   0  0  0  0  0  0
    5.0403   63.2413   64.1276 H   0  0  0  0  0  0
    5.5426   64.5069   65.1680 H   0  0  0  0  0  0
    2.6721   64.1485   65.4210 H   0  0  0  0  0  0
    3.5383   62.6320   65.5594 H   0  0  0  0  0  0
    4.9984   64.1079   67.4139 H   0  0  0  0  0  0
    3.4496   64.9083   67.5090 H   0  0  0  0  0  0
    3.6755   62.0101   67.6835 H   0  0  0  0  0  0
    4.5993   63.4619   69.6715 H   0  0  0  0  0  0
    3.0551   60.8149   69.6487 H   0  0  0  0  0  0
    4.7430   60.9734   69.3561 H   0  0  0  0  0  0
    4.4461   60.2857   71.6953 H   0  0  0  0  0  0
    4.9817   61.9501   71.7260 H   0  0  0  0  0  0
    2.1611   60.8742   72.2162 H   0  0  0  0  0  0
    3.1089   61.8867   73.2220 H   0  0  0  0  0  0
    1.9932   65.1803   69.0575 H   0  0  0  0  0  0
    0.1209   65.9195   70.3803 H   0  0  0  0  0  0
    0.8686   62.9747   73.1841 H   0  0  0  0  0  0
  1  6  1  0  0  0
  1  2  2  0  0  0
  1 34  1  0  0  0
  2  3  1  0  0  0
  2 35  1  0  0  0
  3  4  2  0  0  0
  3 36  1  0  0  0
  4 10  1  0  0  0
  4  5  1  0  0  0
  5  6  2  0  0  0
  5  7  1  0  0  0
  6 37  1  0  0  0
  7  8  2  0  0  0
  7 15  1  0  0  0
  8 14  1  0  0  0
  8  9  1  0  0  0
  9 10  2  0  0  0
  9 11  1  0  0  0
 11 12  1  0  0  0
 11 38  1  0  0  0
 11 39  1  0  0  0
 12 13  1  0  0  0
 12 40  1  0  0  0
 12 41  1  0  0  0
 13 14  1  0  0  0
 13 42  1  0  0  0
 13 43  1  0  0  0
 14 44  1  0  0  0
 14 45  1  0  0  0
 15 16  1  0  0  0
 15 46  1  0  0  0
 16 17  1  0  0  0
 16 47  1  0  0  0
 16 48  1  0  0  0
 17 18  1  0  0  0
 17 49  1  0  0  0
 17 50  1  0  0  0
 18 19  1  0  0  0
 18 51  1  0  0  0
 18 52  1  0  0  0
 19 20  1  0  0  0
 19 53  1  0  0  0
 19 54  1  0  0  0
 20 21  1  0  0  0
 20 55  1  0  0  0
 20 56  1  0  0  0
 21 22  1  0  0  0
 21 57  1  0  0  0
 21 58  1  0  0  0
 22 23  1  0  0  0
 22 59  1  0  0  0
 23 24  1  0  0  0
 23 60  1  0  0  0
 23 28  1  0  0  0
 24 25  1  0  0  0
 24 61  1  0  0  0
 24 62  1  0  0  0
 25 26  1  0  0  0
 25 63  1  0  0  0
 25 64  1  0  0  0
 26 65  1  0  0  0
 26 66  1  0  0  0
 26 27  1  0  0  0
 27 32  1  0  0  0
 27 28  2  0  0  0
 28 29  1  0  0  0
 29 67  1  0  0  0
 29 30  2  0  0  0
 30 31  1  0  0  0
 30 68  1  0  0  0
 31 33  2  0  0  0
 31 32  1  0  0  0
 32 69  1  0  0  0
M  END
> <s_m_entry_id>
9629

> <s_m_entry_name>
ligand_docking-pose.71

> <s_m_Source_Path>
/home/csk/Desktop/cluster/DUD-E-result/aces

> <s_m_Source_File>
ligand_docking-pose.sdf

> <i_m_Source_File_Index>
71

> <i_lp_mmshare_version>
53161

> <r_lp_tautomer_probability>
0.999

> <s_lp_Force_Field>
OPLS_2005

> <r_lp_Energy>
40.733515

> <b_lp_Chiralities_Consistent>
1

> <s_lp_Variant>
676785-1

> <s_i_glide_gridfile>
glide-grid_1e66

> <i_i_glide_lignum>
181

> <i_i_glide_rotatable_bonds>
9

> <r_i_docking_score>
-8.21551509155112

> <r_i_glide_ligand_efficiency>
-0.248955002774276

> <r_i_glide_ligand_efficiency_sa>
-0.798531717092007

> <r_i_glide_ligand_efficiency_ln>
-1.82708801870039

> <r_i_glide_gscore>
-8.21551509155112

> <r_i_glide_lipo>
-4.57700478579798

> <r_i_glide_hbond>
-0.436912927846749

> <r_i_glide_metal>
0

> <r_i_glide_rewards>
-1.27764790909091

> <r_i_glide_evdw>
-41.882495880127

> <r_i_glide_ecoul>
-3.58727097511292

> <r_i_glide_erotb>
0.7082659714578

> <r_i_glide_esite>
0

> <r_i_glide_emodel>
-53.2716349233328

> <r_i_glide_energy>
-45.4697668552399

> <r_i_glide_einternal>
16.6609706878662

> <i_i_glide_confnum>
2

> <i_i_glide_posenum>
79

> <r_i_glide_eff_state_penalty>
0

> <i_f3d_flags>
0

> <s_user_duplicate_titles>
676785

> <s_m_subgroup_title>
dock_pv

> <s_m_subgroupid>
dock_pv1

> <b_m_subgroup_collapsed>
1

$$$$
267490
                    3D
 Schrodinger Suite 2021-1.
 57 59  0  0  1  0            999 V2000
    5.5322   68.1389   62.3679 C   0  0  0  0  0  0
    4.7068   66.9711   62.8983 C   0  0  0  0  0  0
    5.1417   65.8247   62.7707 O   0  0  0  0  0  0
    3.4934   67.3078   63.6926 C   0  0  0  0  0  0
    3.1076   66.4964   64.7656 C   0  0  0  0  0  0
    1.9388   66.7649   65.4708 C   0  0  0  0  0  0
    1.0963   67.8096   65.0777 C   0  0  0  0  0  0
    1.4546   68.5764   63.9660 C   0  0  0  0  0  0
    2.6546   68.3547   63.2981 C   0  0  0  0  0  0
   -0.1282   68.1086   65.7028 N   0  0  0  0  0  0
   -0.7229   67.6195   66.8577 C   0  0  0  0  0  0
   -0.1973   66.9079   67.7856 N   0  0  0  0  0  0
   -0.9565   66.4077   68.9296 C   0  0  0  0  0  0
   -0.1336   66.4595   70.2400 C   0  0  0  0  0  0
    0.8341   65.2700   70.4872 C   0  0  0  0  0  0
    0.2164   63.8510   70.3384 C   0  0  0  0  0  0
    1.2398   62.7111   70.4537 C   0  0  0  0  0  0
    2.3844   62.9320   69.5612 N   0  0  1  0  0  0
    3.0911   64.1820   69.8571 C   0  0  0  0  0  0
    2.1485   65.3873   69.6920 C   0  0  0  0  0  0
    3.2432   61.7586   69.3586 C   0  0  0  0  0  0
    3.6678   61.0855   70.6529 C   0  0  0  0  0  0
    4.6048   61.7008   71.4789 C   0  0  0  0  0  0
    4.8417   61.1915   72.7477 C   0  0  0  0  0  0
    4.1685   60.0470   73.1688 C   0  0  0  0  0  0
    3.2620   59.4025   72.3336 C   0  0  0  0  0  0
    3.0004   59.9291   71.0752 C   0  0  0  0  0  0
   -2.4550   68.1129   66.8404 S   0  0  0  0  0  0
    5.7282   68.8584   63.1628 H   0  0  0  0  0  0
    4.9965   68.6524   61.5708 H   0  0  0  0  0  0
    6.4900   67.7965   61.9700 H   0  0  0  0  0  0
    3.6966   65.6400   65.0551 H   0  0  0  0  0  0
    1.6717   66.1233   66.2942 H   0  0  0  0  0  0
    0.8000   69.3507   63.5971 H   0  0  0  0  0  0
    2.8911   68.9702   62.4418 H   0  0  0  0  0  0
   -0.6827   68.7541   65.1665 H   0  0  0  0  0  0
   -1.9087   66.9073   69.0905 H   0  0  0  0  0  0
   -1.2511   65.3824   68.7614 H   0  0  0  0  0  0
    0.4229   67.3977   70.2930 H   0  0  0  0  0  0
   -0.8336   66.5121   71.0754 H   0  0  0  0  0  0
    1.1435   65.3131   71.5333 H   0  0  0  0  0  0
   -0.5853   63.7082   71.0630 H   0  0  0  0  0  0
   -0.2714   63.7141   69.3753 H   0  0  0  0  0  0
    1.5738   62.5569   71.4822 H   0  0  0  0  0  0
    0.7419   61.7880   70.1502 H   0  0  0  0  0  0
    3.5444   64.1505   70.8485 H   0  0  0  0  0  0
    3.9067   64.3000   69.1418 H   0  0  0  0  0  0
    1.9430   65.5157   68.6336 H   0  0  0  0  0  0
    2.6608   66.3071   69.9763 H   0  0  0  0  0  0
    2.6708   61.0435   68.7682 H   0  0  0  0  0  0
    4.1183   62.0227   68.7654 H   0  0  0  0  0  0
    5.1142   62.5998   71.1618 H   0  0  0  0  0  0
    5.5399   61.7079   73.3848 H   0  0  0  0  0  0
    4.3430   59.6508   74.1585 H   0  0  0  0  0  0
    2.7454   58.5187   72.6746 H   0  0  0  0  0  0
    2.2602   59.4581   70.4456 H   0  0  0  0  0  0
   -2.4157   68.7662   65.6779 H   0  0  0  0  0  0
  1  2  1  0  0  0
  1 29  1  0  0  0
  1 30  1  0  0  0
  1 31  1  0  0  0
  2  3  2  0  0  0
  2  4  1  0  0  0
  4  9  1  0  0  0
  4  5  2  0  0  0
  5  6  1  0  0  0
  5 32  1  0  0  0
  6  7  2  0  0  0
  6 33  1  0  0  0
  7  8  1  0  0  0
  7 10  1  0  0  0
  8  9  2  0  0  0
  8 34  1  0  0  0
  9 35  1  0  0  0
 10 11  1  0  0  0
 10 36  1  0  0  0
 11 12  2  0  0  0
 11 28  1  0  0  0
 12 13  1  0  0  0
 13 14  1  0  0  0
 13 37  1  0  0  0
 13 38  1  0  0  0
 14 15  1  0  0  0
 14 39  1  0  0  0
 14 40  1  0  0  0
 15 20  1  0  0  0
 15 16  1  0  0  0
 15 41  1  0  0  0
 16 17  1  0  0  0
 16 42  1  0  0  0
 16 43  1  0  0  0
 17 18  1  0  0  0
 17 44  1  0  0  0
 17 45  1  0  0  0
 18 19  1  0  0  0
 18 21  1  0  0  0
 19 20  1  0  0  0
 19 46  1  0  0  0
 19 47  1  0  0  0
 20 48  1  0  0  0
 20 49  1  0  0  0
 21 22  1  0  0  0
 21 50  1  0  0  0
 21 51  1  0  0  0
 22 27  1  0  0  0
 22 23  2  0  0  0
 23 24  1  0  0  0
 23 52  1  0  0  0
 24 25  2  0  0  0
 24 53  1  0  0  0
 25 26  1  0  0  0
 25 54  1  0  0  0
 26 27  2  0  0  0
 26 55  1  0  0  0
 27 56  1  0  0  0
 28 57  1  0  0  0
M  END
> <s_m_entry_id>
9630

> <s_m_entry_name>
ligand_docking-pose.72

> <s_m_Source_Path>
/home/csk/Desktop/cluster/DUD-E-result/aces

> <s_m_Source_File>
ligand_docking-pose.sdf

> <i_m_Source_File_Index>
72

> <i_lp_mmshare_version>
53161

> <r_lp_tautomer_probability>
0.99995

> <s_lp_Force_Field>
OPLS_2005

> <r_lp_Energy>
31.609663

> <b_lp_Chiralities_Consistent>
1

> <s_lp_Variant>
267490-1

> <s_i_glide_gridfile>
glide-grid_1e66

> <i_i_glide_lignum>
1398

> <i_i_glide_rotatable_bonds>
9

> <r_i_docking_score>
-8.20413331462482

> <r_i_glide_ligand_efficiency>
-0.293004761236601

> <r_i_glide_ligand_efficiency_sa>
-0.889735025689863

> <r_i_glide_ligand_efficiency_ln>
-1.89375485283658

> <r_i_glide_gscore>
-8.20413331462482

> <r_i_glide_lipo>
-3.64110796006727

> <r_i_glide_hbond>
-0.298265187725409

> <r_i_glide_metal>
0

> <r_i_glide_rewards>
-2.21932905626903

> <r_i_glide_evdw>
-48.8295822143555

> <r_i_glide_ecoul>
-3.80363035202026

> <r_i_glide_erotb>
0.99987057243397

> <r_i_glide_esite>
-0.0332780194762686

> <r_i_glide_emodel>
-69.667862404154

> <r_i_glide_energy>
-52.6332125663757

> <r_i_glide_einternal>
14.4981365203857

> <i_i_glide_confnum>
2

> <i_i_glide_posenum>
375

> <r_i_glide_eff_state_penalty>
0

> <i_f3d_flags>
0

> <s_user_duplicate_titles>
267490

> <s_m_subgroup_title>
dock_pv

> <s_m_subgroupid>
dock_pv1

> <b_m_subgroup_collapsed>
1

$$$$
199495
                    3D
 Schrodinger Suite 2021-1.
 56 58  0  0  1  0            999 V2000
    5.6423   67.9327   62.4737 C   0  0  0  0  0  0
    5.6680   69.4318   62.7286 C   0  0  0  0  0  0
    5.7936   70.0235   63.9372 C   0  0  0  0  0  0
    5.9195   69.3473   65.2926 C   0  0  0  0  0  0
    4.8371   69.7080   66.2428 N   0  0  0  0  0  0
    5.2297   70.4953   67.3146 C   0  0  0  0  0  0
    6.3682   70.9080   67.5402 O   0  0  0  0  0  0
    4.1878   70.7887   68.2795 C   0  0  0  0  0  0
    2.9666   70.2297   68.2243 C   0  0  0  0  0  0
    2.6010   69.3305   67.1353 C   0  0  0  0  0  0
    3.5435   69.1629   66.1584 C   0  0  0  0  0  0
    3.2432   68.2498   64.9574 C   0  0  0  0  0  0
    1.7487   68.0407   64.7144 C   0  0  0  0  0  0
    1.1069   67.5601   66.0004 C   0  0  0  0  0  0
    1.2603   68.5747   67.1653 C   0  0  1  0  0  0
    1.1276   67.9563   68.4768 N   0  0  2  0  0  0
   -0.0569   67.1323   68.6260 C   0  0  0  0  0  0
   -0.0568   66.5672   70.0526 C   0  0  0  0  0  0
    0.6665   65.2246   70.1492 C   0  0  0  0  0  0
   -0.0416   64.0285   70.0252 C   0  0  0  0  0  0
    0.6266   62.8099   70.0541 C   0  0  0  0  0  0
    2.0145   62.7625   70.1484 C   0  0  0  0  0  0
    2.7490   63.9565   70.2677 C   0  0  0  0  0  0
    2.0570   65.1789   70.2923 C   0  0  0  0  0  0
    4.2764   63.9435   70.3474 C   0  0  0  0  0  0
    4.7302   62.9963   71.1680 F   0  0  0  0  0  0
    4.7430   63.7080   69.1260 F   0  0  0  0  0  0
    4.7755   65.1018   70.7680 F   0  0  0  0  0  0
    2.7717   61.2072   70.0552 Cl  0  0  0  0  0  0
    5.5014   70.2600   61.4757 C   0  0  0  0  0  0
    4.8039   67.6765   61.8256 H   0  0  0  0  0  0
    5.5430   67.3382   63.3777 H   0  0  0  0  0  0
    6.5602   67.6351   61.9680 H   0  0  0  0  0  0
    5.8045   71.1020   63.9863 H   0  0  0  0  0  0
    5.9540   68.2647   65.1976 H   0  0  0  0  0  0
    6.9035   69.6203   65.6751 H   0  0  0  0  0  0
    4.4280   71.4639   69.0840 H   0  0  0  0  0  0
    2.2345   70.4834   68.9800 H   0  0  0  0  0  0
    3.5750   68.7309   64.0463 H   0  0  0  0  0  0
    3.8102   67.3206   65.0136 H   0  0  0  0  0  0
    1.2764   68.9654   64.3833 H   0  0  0  0  0  0
    1.5921   67.3131   63.9187 H   0  0  0  0  0  0
    0.0512   67.3471   65.8250 H   0  0  0  0  0  0
    1.5653   66.6070   66.2731 H   0  0  0  0  0  0
    0.4737   69.3244   67.0577 H   0  0  0  0  0  0
    1.1086   68.6719   69.1988 H   0  0  0  0  0  0
   -0.9675   67.6763   68.3680 H   0  0  0  0  0  0
   -0.0205   66.2909   67.9324 H   0  0  0  0  0  0
    0.3779   67.2676   70.7680 H   0  0  0  0  0  0
   -1.0910   66.5080   70.3680 H   0  0  0  0  0  0
   -1.1077   64.0270   69.8745 H   0  0  0  0  0  0
    0.0636   61.8943   69.9680 H   0  0  0  0  0  0
    2.6016   66.1102   70.3682 H   0  0  0  0  0  0
    4.5502   70.0521   60.9864 H   0  0  0  0  0  0
    5.5430   71.3080   61.7091 H   0  0  0  0  0  0
    6.3071   70.1080   60.7680 H   0  0  0  0  0  0
  1  2  1  0  0  0
  1 31  1  0  0  0
  1 32  1  0  0  0
  1 33  1  0  0  0
  2  3  2  3  0  0
  2 30  1  0  0  0
  3  4  1  0  0  0
  3 34  1  0  0  0
  4  5  1  0  0  0
  4 35  1  0  0  0
  4 36  1  0  0  0
  5 11  1  0  0  0
  5  6  1  0  0  0
  6  7  2  0  0  0
  6  8  1  0  0  0
  8  9  2  0  0  0
  8 37  1  0  0  0
  9 10  1  0  0  0
  9 38  1  0  0  0
 10 15  1  0  0  0
 10 11  2  0  0  0
 11 12  1  0  0  0
 12 13  1  0  0  0
 12 39  1  0  0  0
 12 40  1  0  0  0
 13 14  1  0  0  0
 13 41  1  0  0  0
 13 42  1  0  0  0
 14 15  1  0  0  0
 14 43  1  0  0  0
 14 44  1  0  0  0
 15 16  1  0  0  0
 15 45  1  0  0  0
 16 17  1  0  0  0
 16 46  1  0  0  0
 17 18  1  0  0  0
 17 47  1  0  0  0
 17 48  1  0  0  0
 18 19  1  0  0  0
 18 49  1  0  0  0
 18 50  1  0  0  0
 19 24  1  0  0  0
 19 20  2  0  0  0
 20 21  1  0  0  0
 20 51  1  0  0  0
 21 22  2  0  0  0
 21 52  1  0  0  0
 22 23  1  0  0  0
 22 29  1  0  0  0
 23 24  2  0  0  0
 23 25  1  0  0  0
 24 53  1  0  0  0
 25 26  1  0  0  0
 25 27  1  0  0  0
 25 28  1  0  0  0
 30 54  1  0  0  0
 30 55  1  0  0  0
 30 56  1  0  0  0
M  END
> <s_m_entry_id>
9631

> <s_m_entry_name>
ligand_docking-pose.73

> <s_m_Source_Path>
/home/csk/Desktop/cluster/DUD-E-result/aces

> <s_m_Source_File>
ligand_docking-pose.sdf

> <i_m_Source_File_Index>
73

> <i_lp_mmshare_version>
53161

> <r_lp_tautomer_probability>
1

> <s_lp_Force_Field>
OPLS_2005

> <r_lp_Energy>
37.420535

> <b_lp_Chiralities_Consistent>
1

> <s_lp_Variant>
199495-1

> <s_i_glide_gridfile>
glide-grid_1e66

> <i_i_glide_lignum>
1087

> <i_i_glide_rotatable_bonds>
7

> <r_i_docking_score>
-8.1932013488006

> <r_i_glide_ligand_efficiency>
-0.273106711626687

> <r_i_glide_ligand_efficiency_sa>
-0.848606050998515

> <r_i_glide_ligand_efficiency_ln>
-1.86158461852632

> <r_i_glide_gscore>
-8.1932013488006

> <r_i_glide_lipo>
-4.38248482171558

> <r_i_glide_hbond>
-0.059762863840334

> <r_i_glide_metal>
0

> <r_i_glide_rewards>
-2.13515728033285

> <r_i_glide_evdw>
-39.6927146911621

> <r_i_glide_ecoul>
-1.6842006444931

> <r_i_glide_erotb>
0.621469448320232

> <r_i_glide_esite>
0

> <r_i_glide_emodel>
-55.9812618980875

> <r_i_glide_energy>
-41.3769153356552

> <r_i_glide_einternal>
7.88387441635132

> <i_i_glide_confnum>
24

> <i_i_glide_posenum>
50

> <r_i_glide_eff_state_penalty>
0

> <i_f3d_flags>
0

> <s_user_duplicate_titles>
199495

> <s_m_subgroup_title>
dock_pv

> <s_m_subgroupid>
dock_pv1

> <b_m_subgroup_collapsed>
1

$$$$
628805
                    3D
 Schrodinger Suite 2021-1.
 50 53  0  0  1  0            999 V2000
    3.3308   62.3265   70.0196 C   0  0  0  0  0  0
    3.7776   63.6484   70.0902 C   0  0  0  0  0  0
    2.8608   64.6657   70.3680 C   0  0  0  0  0  0
    1.5509   64.3689   70.5672 N   0  3  0  0  0  0
    1.0934   63.0933   70.4983 C   0  0  0  0  0  0
    1.9774   62.0462   70.2229 C   0  0  0  0  0  0
    0.5850   65.4572   70.8577 C   0  0  0  0  0  0
   -0.2671   65.8263   69.6301 C   0  0  0  0  0  0
    0.5364   66.5079   68.5126 C   0  0  0  0  0  0
   -0.2026   66.5080   67.1629 C   0  0  0  0  0  0
   -1.4691   67.3970   67.0471 C   0  0  0  0  0  0
   -1.2255   68.8396   66.5458 C   0  0  0  0  0  0
    0.1649   69.2623   66.8038 N   0  3  0  0  0  0
    0.4575   69.8810   67.9680 C   0  0  0  0  0  0
    1.7753   70.1962   68.3030 C   0  0  0  0  0  0
    2.7824   69.8761   67.3860 C   0  0  0  0  0  0
    4.1620   70.1080   67.3558 C   0  0  0  0  0  0
    5.0522   70.7247   68.2474 C   0  0  0  0  0  0
    6.4107   70.7028   67.9437 C   0  0  0  0  0  0
    6.8659   70.1080   66.7680 C   0  0  0  0  0  0
    5.9978   69.5634   65.8238 C   0  0  0  0  0  0
    4.6485   69.5601   66.1420 C   0  0  0  0  0  0
    3.5787   69.0547   65.4417 N   0  0  0  0  0  0
    2.4311   69.2304   66.1760 C   0  0  0  0  0  0
    1.1087   68.9080   65.8962 C   0  0  0  0  0  0
    3.6344   68.6270   64.5289 H   0  0  0  0  0  0
    4.0251   61.5256   69.8102 H   0  0  0  0  0  0
    4.8212   63.8854   69.9334 H   0  0  0  0  0  0
    3.1423   65.7080   70.4295 H   0  0  0  0  0  0
    0.0339   62.9459   70.6624 H   0  0  0  0  0  0
    1.6162   61.0282   70.1719 H   0  0  0  0  0  0
   -0.0212   65.1233   71.7023 H   0  0  0  0  0  0
    1.1445   66.3261   71.2018 H   0  0  0  0  0  0
   -0.7708   64.9362   69.2485 H   0  0  0  0  0  0
   -1.0577   66.5080   69.9454 H   0  0  0  0  0  0
    0.8156   67.5072   68.8329 H   0  0  0  0  0  0
    1.4823   65.9885   68.3680 H   0  0  0  0  0  0
    0.4927   66.6418   66.3439 H   0  0  0  0  0  0
   -0.4570   65.5091   66.9374 H   0  0  0  0  0  0
   -2.1784   66.9197   66.3680 H   0  0  0  0  0  0
   -1.9902   67.4270   68.0033 H   0  0  0  0  0  0
   -1.3982   68.9315   65.4705 H   0  0  0  0  0  0
   -1.8938   69.5601   67.0244 H   0  0  0  0  0  0
   -0.3849   70.1426   68.5883 H   0  0  0  0  0  0
    2.0047   70.7308   69.2083 H   0  0  0  0  0  0
    4.6965   71.1584   69.1680 H   0  0  0  0  0  0
    7.1201   71.1321   68.6365 H   0  0  0  0  0  0
    7.9210   70.0627   66.5717 H   0  0  0  0  0  0
    6.3430   69.1262   64.9010 H   0  0  0  0  0  0
    0.7769   68.4177   64.9910 H   0  0  0  0  0  0
  1  6  1  0  0  0
  1  2  2  0  0  0
  1 27  1  0  0  0
  2  3  1  0  0  0
  2 28  1  0  0  0
  3  4  2  0  0  0
  3 29  1  0  0  0
  4  5  1  0  0  0
  4  7  1  0  0  0
  5  6  2  0  0  0
  5 30  1  0  0  0
  6 31  1  0  0  0
  7  8  1  0  0  0
  7 32  1  0  0  0
  7 33  1  0  0  0
  8  9  1  0  0  0
  8 34  1  0  0  0
  8 35  1  0  0  0
  9 10  1  0  0  0
  9 36  1  0  0  0
  9 37  1  0  0  0
 10 11  1  0  0  0
 10 38  1  0  0  0
 10 39  1  0  0  0
 11 12  1  0  0  0
 11 40  1  0  0  0
 11 41  1  0  0  0
 12 13  1  0  0  0
 12 42  1  0  0  0
 12 43  1  0  0  0
 13 25  1  0  0  0
 13 14  2  0  0  0
 14 15  1  0  0  0
 14 44  1  0  0  0
 15 16  2  0  0  0
 15 45  1  0  0  0
 16 24  1  0  0  0
 16 17  1  0  0  0
 17 22  2  0  0  0
 17 18  1  0  0  0
 18 19  2  0  0  0
 18 46  1  0  0  0
 19 20  1  0  0  0
 19 47  1  0  0  0
 20 21  2  0  0  0
 20 48  1  0  0  0
 21 22  1  0  0  0
 21 49  1  0  0  0
 22 23  1  0  0  0
 23 26  1  0  0  0
 23 24  1  0  0  0
 24 25  2  0  0  0
 25 50  1  0  0  0
M  CHG  2   4   1  13   1
M  END
> <s_m_entry_id>
9633

> <s_m_entry_name>
ligand_docking-pose.75

> <s_m_Source_Path>
/home/csk/Desktop/cluster/DUD-E-result/aces

> <s_m_Source_File>
ligand_docking-pose.sdf

> <i_m_Source_File_Index>
75

> <i_lp_mmshare_version>
53161

> <r_lp_tautomer_probability>
1

> <s_lp_Force_Field>
OPLS_2005

> <r_lp_Energy>
32.734292

> <b_lp_Chiralities_Consistent>
1

> <s_lp_Variant>
628805-1

> <s_i_glide_gridfile>
glide-grid_1e66

> <i_i_glide_lignum>
496

> <i_i_glide_rotatable_bonds>
7

> <r_i_docking_score>
-8.18031257827956

> <r_i_glide_ligand_efficiency>
-0.327212503131183

> <r_i_glide_ligand_efficiency_sa>
-0.956775162294031

> <r_i_glide_ligand_efficiency_ln>
-1.93897922523831

> <r_i_glide_gscore>
-8.18031257827956

> <r_i_glide_lipo>
-4.1986904182646

> <r_i_glide_hbond>
0

> <r_i_glide_metal>
0

> <r_i_glide_rewards>
-2.78614780045101

> <r_i_glide_evdw>
-25.7726669311523

> <r_i_glide_ecoul>
-5.08961009979248

> <r_i_glide_erotb>
0.85660050196254

> <r_i_glide_esite>
0

> <r_i_glide_emodel>
-44.3399929541724

> <r_i_glide_energy>
-30.8622770309448

> <r_i_glide_einternal>
8.90513324737549

> <i_i_glide_confnum>
4

> <i_i_glide_posenum>
351

> <r_i_glide_eff_state_penalty>
0

> <i_f3d_flags>
0

> <s_user_duplicate_titles>
628805

> <s_m_subgroup_title>
dock_pv

> <s_m_subgroupid>
dock_pv1

> <b_m_subgroup_collapsed>
1

$$$$
85956
                    3D
 Schrodinger Suite 2021-1.
 50 52  0  0  1  0            999 V2000
    3.9182   61.1938   69.8084 C   0  0  0  0  0  0
    4.2821   62.3369   70.5177 C   0  0  0  0  0  0
    3.2936   63.1686   71.0325 C   0  0  0  0  0  0
    1.9431   62.8533   70.8516 C   0  0  0  0  0  0
    1.5885   61.7229   70.1149 C   0  0  0  0  0  0
    2.5753   60.8866   69.5988 C   0  0  0  0  0  0
    0.8574   63.7676   71.4200 C   0  0  0  0  0  0
    0.5302   64.9458   70.6068 N   0  0  1  0  0  0
    1.6787   65.8009   70.2750 C   0  0  0  0  0  0
    1.2042   67.1540   69.7300 C   0  0  0  0  0  0
    0.3590   66.9748   68.4632 C   0  0  0  0  0  0
   -0.8351   66.0696   68.8512 C   0  0  0  0  0  0
   -0.3878   64.7132   69.4804 C   0  0  0  0  0  0
   -0.0223   68.3457   67.8289 C   0  0  0  0  0  0
   -0.4058   68.3242   66.3332 C   0  0  0  0  0  0
    0.6067   67.7064   65.4832 N   0  0  0  0  0  0
    1.8745   68.1375   65.3315 C   0  0  0  0  0  0
    2.2875   69.2284   65.7225 O   0  0  0  0  0  0
    2.8159   67.1560   64.6942 C   0  0  0  0  0  0
    3.8629   67.5973   63.8722 C   0  0  0  0  0  0
    4.7424   66.6602   63.3274 C   0  0  0  0  0  0
    4.5835   65.3517   63.6197 N   0  3  0  0  0  0
    5.4053   64.5185   63.1685 O   0  5  0  0  0  0
    3.5865   64.8844   64.3872 C   0  0  0  0  0  0
    2.6848   65.7832   64.9452 C   0  0  0  0  0  0
    4.6806   60.5428   69.4102 H   0  0  0  0  0  0
    5.3224   62.5841   70.6697 H   0  0  0  0  0  0
    3.5794   64.0597   71.5707 H   0  0  0  0  0  0
    0.5460   61.4844   69.9670 H   0  0  0  0  0  0
    2.2982   60.0003   69.0454 H   0  0  0  0  0  0
    1.1786   64.1094   72.4031 H   0  0  0  0  0  0
   -0.0553   63.1901   71.5804 H   0  0  0  0  0  0
    2.3346   65.2892   69.5693 H   0  0  0  0  0  0
    2.2694   65.9804   71.1674 H   0  0  0  0  0  0
    2.0671   67.7823   69.5149 H   0  0  0  0  0  0
    0.6702   67.7078   70.4946 H   0  0  0  0  0  0
    0.9786   66.4234   67.7565 H   0  0  0  0  0  0
   -1.5194   66.5478   69.5468 H   0  0  0  0  0  0
   -1.4541   65.9300   67.9710 H   0  0  0  0  0  0
    0.0654   64.0361   68.7694 H   0  0  0  0  0  0
   -1.2567   64.1486   69.8195 H   0  0  0  0  0  0
    0.8105   69.0408   67.9464 H   0  0  0  0  0  0
   -0.8312   68.8237   68.3680 H   0  0  0  0  0  0
   -0.6442   69.3261   65.9727 H   0  0  0  0  0  0
   -1.3059   67.7210   66.2065 H   0  0  0  0  0  0
    0.3055   66.8830   64.9804 H   0  0  0  0  0  0
    3.9966   68.6509   63.6627 H   0  0  0  0  0  0
    5.5710   66.9177   62.6820 H   0  0  0  0  0  0
    3.5598   63.8152   64.5396 H   0  0  0  0  0  0
    1.8864   65.4170   65.5670 H   0  0  0  0  0  0
  1  6  1  0  0  0
  1  2  2  0  0  0
  1 26  1  0  0  0
  2  3  1  0  0  0
  2 27  1  0  0  0
  3  4  2  0  0  0
  3 28  1  0  0  0
  4  5  1  0  0  0
  4  7  1  0  0  0
  5  6  2  0  0  0
  5 29  1  0  0  0
  6 30  1  0  0  0
  7  8  1  0  0  0
  7 31  1  0  0  0
  7 32  1  0  0  0
  8 13  1  0  0  0
  8  9  1  0  0  0
  9 10  1  0  0  0
  9 33  1  0  0  0
  9 34  1  0  0  0
 10 11  1  0  0  0
 10 35  1  0  0  0
 10 36  1  0  0  0
 11 12  1  0  0  0
 11 14  1  0  0  0
 11 37  1  0  0  0
 12 13  1  0  0  0
 12 38  1  0  0  0
 12 39  1  0  0  0
 13 40  1  0  0  0
 13 41  1  0  0  0
 14 15  1  0  0  0
 14 42  1  0  0  0
 14 43  1  0  0  0
 15 16  1  0  0  0
 15 44  1  0  0  0
 15 45  1  0  0  0
 16 17  1  0  0  0
 16 46  1  0  0  0
 17 18  2  0  0  0
 17 19  1  0  0  0
 19 25  1  0  0  0
 19 20  2  0  0  0
 20 21  1  0  0  0
 20 47  1  0  0  0
 21 22  2  0  0  0
 21 48  1  0  0  0
 22 23  1  0  0  0
 22 24  1  0  0  0
 24 25  2  0  0  0
 24 49  1  0  0  0
 25 50  1  0  0  0
M  CHG  2  22   1  23  -1
M  END
> <s_m_entry_id>
9634

> <s_m_entry_name>
ligand_docking-pose.76

> <s_m_Source_Path>
/home/csk/Desktop/cluster/DUD-E-result/aces

> <s_m_Source_File>
ligand_docking-pose.sdf

> <i_m_Source_File_Index>
76

> <i_lp_mmshare_version>
53161

> <r_lp_tautomer_probability>
1

> <s_lp_Force_Field>
OPLS_2005

> <r_lp_Energy>
27.978322

> <b_lp_Chiralities_Consistent>
1

> <s_lp_Variant>
85956-1

> <s_i_glide_gridfile>
glide-grid_1e66

> <i_i_glide_lignum>
435

> <i_i_glide_rotatable_bonds>
7

> <r_i_docking_score>
-8.17714166914604

> <r_i_glide_ligand_efficiency>
-0.327085666765842

> <r_i_glide_ligand_efficiency_sa>
-0.956404290512322

> <r_i_glide_ligand_efficiency_ln>
-1.93822762474918

> <r_i_glide_gscore>
-8.17714166914604

> <r_i_glide_lipo>
-2.93998762270129

> <r_i_glide_hbond>
-0.297840588087974

> <r_i_glide_metal>
0

> <r_i_glide_rewards>
-2.16399625690954

> <r_i_glide_evdw>
-29.088529586792

> <r_i_glide_ecoul>
-15.1120548248291

> <r_i_glide_erotb>
0.985539947996771

> <r_i_glide_esite>
-0.039622446380042

> <r_i_glide_emodel>
-53.1264729414121

> <r_i_glide_energy>
-44.2005844116211

> <r_i_glide_einternal>
9.37752151489258

> <i_i_glide_confnum>
39

> <i_i_glide_posenum>
233

> <r_i_glide_eff_state_penalty>
0

> <i_f3d_flags>
0

> <s_user_duplicate_titles>
85956

> <s_m_subgroup_title>
dock_pv

> <s_m_subgroupid>
dock_pv1

> <b_m_subgroup_collapsed>
1

$$$$
267698
                    3D
 Schrodinger Suite 2021-1.
 56 58  0  0  1  0            999 V2000
    2.6194   61.4718   69.8514 C   0  0  0  0  0  0
    3.4760   62.4534   69.3562 C   0  0  0  0  0  0
    3.2096   63.7945   69.6162 C   0  0  0  0  0  0
    2.0934   64.1521   70.3793 C   0  0  0  0  0  0
    1.2278   63.1630   70.8568 C   0  0  0  0  0  0
    1.4969   61.8210   70.5994 C   0  0  0  0  0  0
    1.7698   65.6261   70.5935 C   0  0  0  0  0  0
    1.0832   66.1923   69.4299 N   0  0  1  0  0  0
   -0.3603   65.9501   69.4721 C   0  0  0  0  0  0
   -0.9979   66.3370   68.1313 C   0  0  0  0  0  0
   -0.6549   67.6826   67.5226 C   0  0  0  0  0  0
    0.7331   68.1876   67.9744 C   0  0  0  0  0  0
    1.2809   67.6341   69.3106 C   0  0  0  0  0  0
   -0.8807   67.6501   65.9922 C   0  0  0  0  0  0
   -0.5817   68.9548   65.2914 C   0  0  0  0  0  0
   -0.3743   68.8481   63.8385 N   0  0  0  0  0  0
    0.8457   68.9721   63.2360 C   0  0  0  0  0  0
    0.8125   69.3079   61.6022 S   0  0  0  0  0  0
    1.9487   68.8550   64.0549 N   0  0  0  0  0  0
    3.2843   68.9498   63.8272 C   0  0  0  0  0  0
    3.8153   68.7287   62.7363 O   0  0  0  0  0  0
    4.1417   69.3108   65.0336 C   0  0  0  0  0  0
    5.5429   69.2993   64.9305 C   0  0  0  0  0  0
    6.3428   69.6847   66.0080 C   0  0  0  0  0  0
    5.7676   70.1083   67.1928 C   0  0  0  0  0  0
    4.3807   70.1080   67.3498 C   0  0  0  0  0  0
    3.5808   69.7079   66.2655 C   0  0  0  0  0  0
    3.7867   70.5294   68.6415 N   0  3  0  0  0  0
    2.5727   70.5114   68.7678 O   0  5  0  0  0  0
    4.5324   70.8997   69.5408 O   0  0  0  0  0  0
    2.8200   60.4302   69.6475 H   0  0  0  0  0  0
    4.3381   62.1779   68.7673 H   0  0  0  0  0  0
    3.8656   64.5564   69.2207 H   0  0  0  0  0  0
    0.3475   63.4325   71.4224 H   0  0  0  0  0  0
    0.8300   61.0546   70.9688 H   0  0  0  0  0  0
    2.7131   66.1472   70.7645 H   0  0  0  0  0  0
    1.1566   65.7550   71.4883 H   0  0  0  0  0  0
   -0.7978   66.5080   70.3037 H   0  0  0  0  0  0
   -0.5541   64.8901   69.6404 H   0  0  0  0  0  0
   -2.0569   66.1080   68.0373 H   0  0  0  0  0  0
   -0.4609   65.7078   67.4402 H   0  0  0  0  0  0
   -1.3650   68.3813   67.9678 H   0  0  0  0  0  0
    1.4734   67.8195   67.2625 H   0  0  0  0  0  0
    0.7571   69.2721   67.9249 H   0  0  0  0  0  0
    0.8429   68.1076   70.1725 H   0  0  0  0  0  0
    2.3428   67.8650   69.3638 H   0  0  0  0  0  0
   -1.9036   67.3436   65.7706 H   0  0  0  0  0  0
   -0.2246   66.8902   65.5680 H   0  0  0  0  0  0
    0.3208   69.3080   65.7667 H   0  0  0  0  0  0
   -1.3348   69.7061   65.5335 H   0  0  0  0  0  0
   -1.1980   68.8519   63.2540 H   0  0  0  0  0  0
    1.7145   68.8766   65.0337 H   0  0  0  0  0  0
    6.0303   69.0030   64.0110 H   0  0  0  0  0  0
    7.4205   69.6585   65.9680 H   0  0  0  0  0  0
    6.4153   70.4024   68.0064 H   0  0  0  0  0  0
    2.5108   69.7591   66.3886 H   0  0  0  0  0  0
  1  6  1  0  0  0
  1  2  2  0  0  0
  1 31  1  0  0  0
  2  3  1  0  0  0
  2 32  1  0  0  0
  3  4  2  0  0  0
  3 33  1  0  0  0
  4  5  1  0  0  0
  4  7  1  0  0  0
  5  6  2  0  0  0
  5 34  1  0  0  0
  6 35  1  0  0  0
  7  8  1  0  0  0
  7 36  1  0  0  0
  7 37  1  0  0  0
  8 13  1  0  0  0
  8  9  1  0  0  0
  9 10  1  0  0  0
  9 38  1  0  0  0
  9 39  1  0  0  0
 10 11  1  0  0  0
 10 40  1  0  0  0
 10 41  1  0  0  0
 11 12  1  0  0  0
 11 14  1  0  0  0
 11 42  1  0  0  0
 12 13  1  0  0  0
 12 43  1  0  0  0
 12 44  1  0  0  0
 13 45  1  0  0  0
 13 46  1  0  0  0
 14 15  1  0  0  0
 14 47  1  0  0  0
 14 48  1  0  0  0
 15 16  1  0  0  0
 15 49  1  0  0  0
 15 50  1  0  0  0
 16 17  1  0  0  0
 16 51  1  0  0  0
 17 18  2  0  0  0
 17 19  1  0  0  0
 19 20  1  0  0  0
 19 52  1  0  0  0
 20 21  2  0  0  0
 20 22  1  0  0  0
 22 27  1  0  0  0
 22 23  2  0  0  0
 23 24  1  0  0  0
 23 53  1  0  0  0
 24 25  2  0  0  0
 24 54  1  0  0  0
 25 26  1  0  0  0
 25 55  1  0  0  0
 26 27  2  0  0  0
 26 28  1  0  0  0
 27 56  1  0  0  0
 28 29  1  0  0  0
 28 30  2  0  0  0
M  CHG  2  28   1  29  -1
M  END
> <s_m_entry_id>
9636

> <s_m_entry_name>
ligand_docking-pose.78

> <s_m_Source_Path>
/home/csk/Desktop/cluster/DUD-E-result/aces

> <s_m_Source_File>
ligand_docking-pose.sdf

> <i_m_Source_File_Index>
78

> <i_lp_mmshare_version>
53161

> <r_lp_tautomer_probability>
1

> <s_lp_Force_Field>
OPLS_2005

> <r_lp_Energy>
37.64372

> <b_lp_Chiralities_Consistent>
1

> <s_lp_Variant>
267698-1

> <s_i_glide_gridfile>
glide-grid_1e66

> <i_i_glide_lignum>
454

> <i_i_glide_rotatable_bonds>
10

> <r_i_docking_score>
-8.16399110982099

> <r_i_glide_ligand_efficiency>
-0.272133036994033

> <r_i_glide_ligand_efficiency_sa>
-0.845580617533141

> <r_i_glide_ligand_efficiency_ln>
-1.85494773395911

> <r_i_glide_gscore>
-8.16399110982099

> <r_i_glide_lipo>
-3.75234172323751

> <r_i_glide_hbond>
0

> <r_i_glide_metal>
0

> <r_i_glide_rewards>
-2.74862399856439

> <r_i_glide_evdw>
-47.8979530334473

> <r_i_glide_ecoul>
-1.6455305814743

> <r_i_glide_erotb>
0.981817245109304

> <r_i_glide_esite>
-0.00311539423488527

> <r_i_glide_emodel>
-63.0154831405269

> <r_i_glide_energy>
-49.5434836149216

> <r_i_glide_einternal>
13.6949653625488

> <i_i_glide_confnum>
79

> <i_i_glide_posenum>
82

> <r_i_glide_eff_state_penalty>
0

> <i_f3d_flags>
0

> <s_user_duplicate_titles>
267698

> <s_m_subgroup_title>
dock_pv

> <s_m_subgroupid>
dock_pv1

> <b_m_subgroup_collapsed>
1

$$$$
689337
                    3D
 Schrodinger Suite 2021-1.
 50 53  0  0  1  0            999 V2000
    5.9424   69.1291   63.9481 C   0  0  0  0  0  0
    4.5722   69.5025   63.3774 C   0  0  0  0  0  0
    3.9665   68.3802   62.5116 C   0  0  0  0  0  0
    2.5972   68.6367   62.2100 O   0  0  0  0  0  0
    1.6354   68.5177   63.1959 C   0  0  0  0  0  0
    0.3519   68.9651   62.8583 C   0  0  0  0  0  0
   -0.6979   68.9073   63.7794 C   0  0  0  0  0  0
   -0.4572   68.3691   65.0429 C   0  0  0  0  0  0
    0.7918   67.9017   65.3698 C   0  0  0  0  0  0
    1.8588   67.9750   64.4786 C   0  0  0  0  0  0
    0.8250   67.3357   66.6116 O   0  0  0  0  0  0
   -0.4364   67.3828   67.1206 C   0  0  0  0  0  0
   -0.8059   66.7671   68.2647 C   0  0  0  0  0  0
    0.0822   66.0085   69.1604 C   0  0  0  0  0  0
   -0.2812   64.7216   69.5681 C   0  0  0  0  0  0
    0.5827   63.9623   70.3622 C   0  0  0  0  0  0
    1.8045   64.4499   70.6876 N   0  3  0  0  0  0
    2.1739   65.7062   70.3302 C   0  0  0  0  0  0
    1.3193   66.5081   69.5680 C   0  0  0  0  0  0
    2.7249   63.6391   71.5308 C   0  0  0  0  0  0
    3.0103   62.1846   71.1319 C   0  0  0  0  0  0
    3.6084   61.3593   72.0905 C   0  0  0  0  0  0
    3.9111   60.0340   71.7913 C   0  0  0  0  0  0
    3.6060   59.5250   70.5330 C   0  0  0  0  0  0
    3.0018   60.3305   69.5732 C   0  0  0  0  0  0
    2.7219   61.6661   69.8608 C   0  0  0  0  0  0
    3.9107   58.2418   70.2348 F   0  0  0  0  0  0
   -1.3153   68.1086   66.1971 C   0  0  0  0  0  0
   -2.5081   68.3594   66.3701 O   0  0  0  0  0  0
    6.3427   69.9519   64.5412 H   0  0  0  0  0  0
    6.6576   68.9087   63.1536 H   0  0  0  0  0  0
    5.8800   68.2569   64.5993 H   0  0  0  0  0  0
    3.9115   69.7605   64.2050 H   0  0  0  0  0  0
    4.6608   70.4110   62.7793 H   0  0  0  0  0  0
    4.5106   68.3241   61.5681 H   0  0  0  0  0  0
    4.0821   67.3977   62.9727 H   0  0  0  0  0  0
    0.1742   69.3736   61.8742 H   0  0  0  0  0  0
   -1.6800   69.2621   63.4991 H   0  0  0  0  0  0
    2.8240   67.5998   64.7760 H   0  0  0  0  0  0
   -1.8422   66.8263   68.5706 H   0  0  0  0  0  0
   -1.2288   64.3016   69.2608 H   0  0  0  0  0  0
    0.3452   62.9672   70.7141 H   0  0  0  0  0  0
    3.1431   66.0523   70.6642 H   0  0  0  0  0  0
    1.6156   67.5095   69.2858 H   0  0  0  0  0  0
    3.6844   64.1585   71.5679 H   0  0  0  0  0  0
    2.2865   63.6747   72.5300 H   0  0  0  0  0  0
    3.8444   61.7430   73.0733 H   0  0  0  0  0  0
    4.3732   59.3991   72.5340 H   0  0  0  0  0  0
    2.7445   59.9014   68.6186 H   0  0  0  0  0  0
    2.2721   62.2809   69.0953 H   0  0  0  0  0  0
  1  2  1  0  0  0
  1 30  1  0  0  0
  1 31  1  0  0  0
  1 32  1  0  0  0
  2  3  1  0  0  0
  2 33  1  0  0  0
  2 34  1  0  0  0
  3  4  1  0  0  0
  3 35  1  0  0  0
  3 36  1  0  0  0
  4  5  1  0  0  0
  5 10  1  0  0  0
  5  6  2  0  0  0
  6  7  1  0  0  0
  6 37  1  0  0  0
  7  8  2  0  0  0
  7 38  1  0  0  0
  8 28  1  0  0  0
  8  9  1  0  0  0
  9 10  2  0  0  0
  9 11  1  0  0  0
 10 39  1  0  0  0
 11 12  1  0  0  0
 12 13  2  0  0  0
 12 28  1  0  0  0
 13 14  1  0  0  0
 13 40  1  0  0  0
 14 19  1  0  0  0
 14 15  2  0  0  0
 15 16  1  0  0  0
 15 41  1  0  0  0
 16 17  2  0  0  0
 16 42  1  0  0  0
 17 18  1  0  0  0
 17 20  1  0  0  0
 18 19  2  0  0  0
 18 43  1  0  0  0
 19 44  1  0  0  0
 20 21  1  0  0  0
 20 45  1  0  0  0
 20 46  1  0  0  0
 21 26  1  0  0  0
 21 22  2  0  0  0
 22 23  1  0  0  0
 22 47  1  0  0  0
 23 24  2  0  0  0
 23 48  1  0  0  0
 24 25  1  0  0  0
 24 27  1  0  0  0
 25 26  2  0  0  0
 25 49  1  0  0  0
 26 50  1  0  0  0
 28 29  2  0  0  0
M  CHG  1  17   1
M  END
> <s_m_entry_id>
9637

> <s_m_entry_name>
ligand_docking-pose.79

> <s_m_Source_Path>
/home/csk/Desktop/cluster/DUD-E-result/aces

> <s_m_Source_File>
ligand_docking-pose.sdf

> <i_m_Source_File_Index>
79

> <i_lp_mmshare_version>
53161

> <r_lp_tautomer_probability>
1

> <s_lp_Force_Field>
OPLS_2005

> <r_lp_Energy>
40.58878

> <b_lp_Chiralities_Consistent>
1

> <s_lp_Variant>
689337-1

> <s_i_glide_gridfile>
glide-grid_1e66

> <i_i_glide_lignum>
1173

> <i_i_glide_rotatable_bonds>
6

> <r_i_docking_score>
-8.15778492728477

> <r_i_glide_ligand_efficiency>
-0.281302928527061

> <r_i_glide_ligand_efficiency_sa>
-0.864251719458329

> <r_i_glide_ligand_efficiency_ln>
-1.86792588477113

> <r_i_glide_gscore>
-8.15778492728477

> <r_i_glide_lipo>
-3.94124257719779

> <r_i_glide_hbond>
0

> <r_i_glide_metal>
0

> <r_i_glide_rewards>
-2.37172162914922

> <r_i_glide_evdw>
-43.3949584960938

> <r_i_glide_ecoul>
-1.94819498062134

> <r_i_glide_erotb>
0.639767518498798

> <r_i_glide_esite>
-0.0226110675386672

> <r_i_glide_emodel>
-64.1932142831489

> <r_i_glide_energy>
-45.3431534767151

> <r_i_glide_einternal>
8.68247985839844

> <i_i_glide_confnum>
7

> <i_i_glide_posenum>
264

> <r_i_glide_eff_state_penalty>
0

> <i_f3d_flags>
0

> <s_user_duplicate_titles>
689337

> <s_m_subgroup_title>
dock_pv

> <s_m_subgroupid>
dock_pv1

> <b_m_subgroup_collapsed>
1

$$$$
591747
                    3D
 Schrodinger Suite 2021-1.
 48 49  0  0  1  0            999 V2000
    1.9432   59.6770   71.1885 C   0  0  0  0  0  0
    2.2149   60.7067   72.2941 C   0  0  0  0  0  0
    2.9756   61.8675   71.8224 N   0  0  0  0  0  0
    4.4352   61.7448   71.8078 C   0  0  0  0  0  0
    2.3384   62.9840   71.2090 C   0  0  0  0  0  0
    3.0830   64.1080   70.8208 C   0  0  0  0  0  0
    2.4695   65.2043   70.2236 C   0  0  0  0  0  0
    1.0991   65.2010   69.9680 C   0  0  0  0  0  0
    0.3430   64.0984   70.3621 C   0  0  0  0  0  0
    0.9530   63.0056   70.9751 C   0  0  0  0  0  0
    0.4649   66.3127   69.2292 C   0  0  0  0  0  0
    0.9060   66.7407   68.0250 C   0  0  0  0  0  0
    0.3196   67.8410   67.2564 C   0  0  0  0  0  0
   -0.7737   68.3135   67.5680 O   0  0  0  0  0  0
    1.0014   68.2057   65.9686 C   0  0  0  0  0  0
    2.3709   68.5162   65.9633 C   0  0  0  0  0  0
    3.0401   68.8594   64.7741 C   0  0  0  0  0  0
    2.3373   68.8472   63.5642 C   0  0  0  0  0  0
    0.9625   68.5765   63.5701 C   0  0  0  0  0  0
    0.2951   68.2997   64.7581 C   0  0  0  0  0  0
   -1.0553   68.1080   64.6761 O   0  0  0  0  0  0
    3.0564   69.1258   62.4171 O   0  0  0  0  0  0
    2.3868   69.1398   61.1680 C   0  0  0  0  0  0
    4.3715   69.2296   64.7036 O   0  0  0  0  0  0
    5.1128   69.4549   65.8924 C   0  0  0  0  0  0
    1.3648   58.8375   71.5745 H   0  0  0  0  0  0
    1.3767   60.1159   70.3680 H   0  0  0  0  0  0
    2.8721   59.2779   70.7809 H   0  0  0  0  0  0
    2.7561   60.2330   73.1150 H   0  0  0  0  0  0
    1.2741   61.0257   72.7435 H   0  0  0  0  0  0
    4.8942   62.5080   72.4354 H   0  0  0  0  0  0
    4.7691   60.7711   72.1694 H   0  0  0  0  0  0
    4.8204   61.8680   70.7948 H   0  0  0  0  0  0
    4.1463   64.1632   70.9942 H   0  0  0  0  0  0
    3.0703   66.0625   69.9680 H   0  0  0  0  0  0
   -0.7155   64.0614   70.1522 H   0  0  0  0  0  0
    0.3242   62.1695   71.2360 H   0  0  0  0  0  0
   -0.3778   66.7919   69.7095 H   0  0  0  0  0  0
    1.7292   66.2275   67.5553 H   0  0  0  0  0  0
    2.9145   68.5084   66.8946 H   0  0  0  0  0  0
    0.3846   68.6028   62.6591 H   0  0  0  0  0  0
   -1.2570   67.1780   64.4579 H   0  0  0  0  0  0
    3.1132   69.3080   60.3730 H   0  0  0  0  0  0
    1.8960   68.1879   60.9675 H   0  0  0  0  0  0
    1.6460   69.9402   61.1375 H   0  0  0  0  0  0
    6.0573   69.9364   65.6384 H   0  0  0  0  0  0
    5.3494   68.5080   66.3680 H   0  0  0  0  0  0
    4.5901   70.1057   66.5954 H   0  0  0  0  0  0
  1  2  1  0  0  0
  1 26  1  0  0  0
  1 27  1  0  0  0
  1 28  1  0  0  0
  2  3  1  0  0  0
  2 29  1  0  0  0
  2 30  1  0  0  0
  3  4  1  0  0  0
  3  5  1  0  0  0
  4 31  1  0  0  0
  4 32  1  0  0  0
  4 33  1  0  0  0
  5 10  1  0  0  0
  5  6  2  0  0  0
  6  7  1  0  0  0
  6 34  1  0  0  0
  7  8  2  0  0  0
  7 35  1  0  0  0
  8  9  1  0  0  0
  8 11  1  0  0  0
  9 10  2  0  0  0
  9 36  1  0  0  0
 10 37  1  0  0  0
 11 12  2  0  0  0
 11 38  1  0  0  0
 12 13  1  0  0  0
 12 39  1  0  0  0
 13 14  2  0  0  0
 13 15  1  0  0  0
 15 20  1  0  0  0
 15 16  2  0  0  0
 16 17  1  0  0  0
 16 40  1  0  0  0
 17 18  2  0  0  0
 17 24  1  0  0  0
 18 19  1  0  0  0
 18 22  1  0  0  0
 19 20  2  0  0  0
 19 41  1  0  0  0
 20 21  1  0  0  0
 21 42  1  0  0  0
 22 23  1  0  0  0
 23 43  1  0  0  0
 23 44  1  0  0  0
 23 45  1  0  0  0
 24 25  1  0  0  0
 25 46  1  0  0  0
 25 47  1  0  0  0
 25 48  1  0  0  0
M  END
> <s_m_entry_id>
9638

> <s_m_entry_name>
ligand_docking-pose.80

> <s_m_Source_Path>
/home/csk/Desktop/cluster/DUD-E-result/aces

> <s_m_Source_File>
ligand_docking-pose.sdf

> <i_m_Source_File_Index>
80

> <i_lp_mmshare_version>
53161

> <r_lp_tautomer_probability>
1

> <s_lp_Force_Field>
OPLS_2005

> <r_lp_Energy>
30.654392

> <b_lp_Chiralities_Consistent>
1

> <s_lp_Variant>
591747-1

> <s_i_glide_gridfile>
glide-grid_1e66

> <i_i_glide_lignum>
1244

> <i_i_glide_rotatable_bonds>
8

> <r_i_docking_score>
-8.13924875312165

> <r_i_glide_ligand_efficiency>
-0.325569950124866

> <r_i_glide_ligand_efficiency_sa>
-0.95197230817276

> <r_i_glide_ligand_efficiency_ln>
-1.92924586809234

> <r_i_glide_gscore>
-8.13924875312165

> <r_i_glide_lipo>
-3.97753104964467

> <r_i_glide_hbond>
0

> <r_i_glide_metal>
0

> <r_i_glide_rewards>
-2.24263306736419

> <r_i_glide_evdw>
-34.7580604553223

> <r_i_glide_ecoul>
-5.54335451126099

> <r_i_glide_erotb>
0.650321563342468

> <r_i_glide_esite>
0

> <r_i_glide_emodel>
-53.7324449094395

> <r_i_glide_energy>
-40.3014149665833

> <r_i_glide_einternal>
11.0309858322144

> <i_i_glide_confnum>
25

> <i_i_glide_posenum>
18

> <r_i_glide_eff_state_penalty>
0

> <i_f3d_flags>
0

> <s_user_duplicate_titles>
591747

> <s_m_subgroup_title>
dock_pv

> <s_m_subgroupid>
dock_pv1

> <b_m_subgroup_collapsed>
1

$$$$
593411
                    3D
 Schrodinger Suite 2021-1.
 52 55  0  0  1  0            999 V2000
    4.1465   64.3408   64.3722 C   0  0  0  0  0  0
    3.4115   65.6181   64.7456 C   0  0  0  0  0  0
    3.7686   66.9062   64.4987 C   0  0  0  0  0  0
    5.0195   67.3250   63.7121 C   0  0  2  0  0  0
    5.9430   68.2567   64.5468 C   0  0  0  0  0  0
    5.2228   69.1291   65.5564 C   0  0  0  0  0  0
    3.8745   69.0751   65.7503 C   0  0  0  0  0  0
    3.4072   69.8618   66.9046 C   0  0  0  0  0  0
    4.2721   70.5082   67.7172 C   0  0  0  0  0  0
    5.7021   70.5195   67.4795 C   0  0  0  0  0  0
    6.5198   71.0596   68.2184 O   0  0  0  0  0  0
    6.0729   69.8649   66.3533 N   0  0  0  0  0  0
    2.9397   68.1515   64.9132 C   0  0  1  0  0  0
    2.4818   68.8769   63.5695 C   0  0  0  0  0  0
    3.4353   68.7707   62.3818 C   0  0  0  0  0  0
    4.5681   68.0573   62.4643 C   0  0  0  0  0  0
    3.0127   69.4304   61.0855 C   0  0  0  0  0  0
    1.8270   67.7549   65.7984 N   0  0  0  0  0  0
    0.6501   68.2199   65.6792 C   0  0  0  0  0  0
   -0.4747   67.9139   66.5496 C   0  0  0  0  0  0
   -1.7047   68.4943   66.1972 C   0  0  0  0  0  0
   -2.8570   68.2055   66.9137 C   0  0  0  0  0  0
   -2.7889   67.3080   67.9680 C   0  0  0  0  0  0
   -1.5915   66.7139   68.3148 C   0  0  0  0  0  0
   -0.4085   67.0676   67.6795 C   0  0  0  0  0  0
    0.7671   66.5080   68.1242 O   0  0  0  0  0  0
    1.2343   66.5715   69.7401 S   0  0  0  0  0  0
    0.0752   66.5080   70.6356 O   0  0  0  0  0  0
    2.3430   65.6317   69.9293 O   0  0  0  0  0  0
    1.8547   68.1080   69.7727 O   0  0  0  0  0  0
    5.5430   66.4534   63.3437 H   0  0  0  0  0  0
    7.0643   69.8802   66.1717 H   0  0  0  0  0  0
    4.2553   63.7133   65.2570 H   0  0  0  0  0  0
    5.1432   64.4989   63.9688 H   0  0  0  0  0  0
    3.5669   63.7845   63.6353 H   0  0  0  0  0  0
    2.4912   65.4305   65.2799 H   0  0  0  0  0  0
    6.6487   67.7080   65.1680 H   0  0  0  0  0  0
    6.5761   68.8661   63.9002 H   0  0  0  0  0  0
    2.3537   69.9221   67.1340 H   0  0  0  0  0  0
    3.9039   71.0657   68.5644 H   0  0  0  0  0  0
    2.2238   69.9218   63.7421 H   0  0  0  0  0  0
    1.5703   68.4219   63.1803 H   0  0  0  0  0  0
    5.2061   68.0167   61.5911 H   0  0  0  0  0  0
    2.9375   70.5080   61.2056 H   0  0  0  0  0  0
    3.7254   69.2371   60.2823 H   0  0  0  0  0  0
    2.0421   69.0479   60.7680 H   0  0  0  0  0  0
    0.3888   68.9080   64.8858 H   0  0  0  0  0  0
   -1.7913   69.1677   65.3541 H   0  0  0  0  0  0
   -3.8006   68.6576   66.6441 H   0  0  0  0  0  0
   -3.6570   67.0484   68.5405 H   0  0  0  0  0  0
   -1.5950   65.9979   69.1168 H   0  0  0  0  0  0
    1.2414   68.7294   70.2423 H   0  0  0  0  0  0
  1  2  1  0  0  0
  1 33  1  0  0  0
  1 34  1  0  0  0
  1 35  1  0  0  0
  2  3  2  0  0  0
  2 36  1  0  0  0
  3 13  1  0  0  0
  3  4  1  0  0  0
  4 31  1  0  0  0
  4 16  1  0  0  0
  4  5  1  0  0  0
  5  6  1  0  0  0
  5 37  1  0  0  0
  5 38  1  0  0  0
  6 12  1  0  0  0
  6  7  2  0  0  0
  7  8  1  0  0  0
  7 13  1  0  0  0
  8  9  2  0  0  0
  8 39  1  0  0  0
  9 10  1  0  0  0
  9 40  1  0  0  0
 10 11  2  0  0  0
 10 12  1  0  0  0
 12 32  1  0  0  0
 13 14  1  0  0  0
 13 18  1  0  0  0
 14 15  1  0  0  0
 14 41  1  0  0  0
 14 42  1  0  0  0
 15 16  2  0  0  0
 15 17  1  0  0  0
 16 43  1  0  0  0
 17 44  1  0  0  0
 17 45  1  0  0  0
 17 46  1  0  0  0
 18 19  2  0  0  0
 19 20  1  0  0  0
 19 47  1  0  0  0
 20 25  1  0  0  0
 20 21  2  0  0  0
 21 22  1  0  0  0
 21 48  1  0  0  0
 22 23  2  0  0  0
 22 49  1  0  0  0
 23 24  1  0  0  0
 23 50  1  0  0  0
 24 25  2  0  0  0
 24 51  1  0  0  0
 25 26  1  0  0  0
 26 27  1  0  0  0
 27 28  2  0  0  0
 27 29  2  0  0  0
 27 30  1  0  0  0
 30 52  1  0  0  0
M  END
> <s_m_entry_id>
9639

> <s_m_entry_name>
ligand_docking-pose.81

> <s_m_Source_Path>
/home/csk/Desktop/cluster/DUD-E-result/aces

> <s_m_Source_File>
ligand_docking-pose.sdf

> <i_m_Source_File_Index>
81

> <i_lp_mmshare_version>
53161

> <r_lp_tautomer_probability>
0.999

> <s_lp_Force_Field>
OPLS_2005

> <r_lp_Energy>
27.451311

> <b_lp_Chiralities_Consistent>
1

> <s_lp_Variant>
593411-1

> <s_i_glide_gridfile>
glide-grid_1e66

> <i_i_glide_lignum>
943

> <i_i_glide_rotatable_bonds>
5

> <r_i_docking_score>
-8.13627345766083

> <r_i_glide_ligand_efficiency>
-0.271209115255361

> <r_i_glide_ligand_efficiency_sa>
-0.842709777877037

> <r_i_glide_ligand_efficiency_ln>
-1.84864998138031

> <r_i_glide_gscore>
-8.13627345766083

> <r_i_glide_lipo>
-4.14986537130547

> <r_i_glide_hbond>
0

> <r_i_glide_metal>
0

> <r_i_glide_rewards>
-1.40526125733413

> <r_i_glide_evdw>
-42.1237258911133

> <r_i_glide_ecoul>
-6.07606410980225

> <r_i_glide_erotb>
0.436449082004768

> <r_i_glide_esite>
0

> <r_i_glide_emodel>
-64.7305728651149

> <r_i_glide_energy>
-48.1997900009155

> <r_i_glide_einternal>
4.34140205383301

> <i_i_glide_confnum>
4

> <i_i_glide_posenum>
319

> <r_i_glide_eff_state_penalty>
0

> <i_f3d_flags>
0

> <s_user_duplicate_titles>
593411

> <s_m_subgroup_title>
dock_pv

> <s_m_subgroupid>
dock_pv1

> <b_m_subgroup_collapsed>
1

$$$$
630970
                    3D
 Schrodinger Suite 2021-1.
 60 63  0  0  1  0            999 V2000
    5.0280   63.1895   63.6856 C   0  0  0  0  0  0
    5.2118   64.5358   63.2542 O   0  0  0  0  0  0
    4.3426   65.5131   63.6986 C   0  0  0  0  0  0
    3.4538   65.3178   64.7648 C   0  0  0  0  0  0
    2.6007   66.3386   65.1678 C   0  0  0  0  0  0
    2.5034   67.5169   64.4220 C   0  0  0  0  0  0
    3.3571   67.7000   63.3337 C   0  0  0  0  0  0
    4.3575   66.7567   63.0499 C   0  0  0  0  0  0
    5.3581   67.0347   62.1442 O   0  0  0  0  0  0
    6.0854   68.2573   62.3679 C   0  0  0  0  0  0
    2.9660   68.9154   62.5874 C   0  0  0  0  0  0
    3.3630   69.2988   61.4888 O   0  0  0  0  0  0
    1.9449   69.6335   63.4426 C   0  0  0  0  0  0
    1.5457   68.6832   64.5715 C   0  0  1  0  0  0
    0.0414   68.3116   64.5262 C   0  0  0  0  0  0
   -0.7409   68.4233   65.8575 C   0  0  0  0  0  0
   -0.2709   67.4796   66.9892 C   0  0  0  0  0  0
    0.7633   68.1155   67.9533 C   0  0  0  0  0  0
    1.2670   67.1241   69.0212 C   0  0  0  0  0  0
    0.1557   66.5437   69.7635 N   0  0  1  0  0  0
   -0.8564   65.9443   68.9051 C   0  0  0  0  0  0
   -1.4109   66.9237   67.8492 C   0  0  0  0  0  0
    0.5396   65.7477   70.9296 C   0  0  0  0  0  0
    1.3083   64.4647   70.6276 C   0  0  0  0  0  0
    2.6832   64.5096   70.3682 C   0  0  0  0  0  0
    3.3787   63.3375   70.0819 C   0  0  0  0  0  0
    2.6961   62.1230   70.0563 C   0  0  0  0  0  0
    1.3248   62.0738   70.3033 C   0  0  0  0  0  0
    0.6260   63.2476   70.5725 C   0  0  0  0  0  0
    5.7744   62.5499   63.2131 H   0  0  0  0  0  0
    5.1430   63.0874   64.7653 H   0  0  0  0  0  0
    4.0430   62.8159   63.4049 H   0  0  0  0  0  0
    3.4434   64.3978   65.3271 H   0  0  0  0  0  0
    2.0008   66.1495   66.0354 H   0  0  0  0  0  0
    5.8792   68.9689   61.5685 H   0  0  0  0  0  0
    7.1612   68.1038   62.3679 H   0  0  0  0  0  0
    5.8596   68.7461   63.3182 H   0  0  0  0  0  0
    1.1102   69.9723   62.8299 H   0  0  0  0  0  0
    2.4305   70.5067   63.8638 H   0  0  0  0  0  0
    1.7563   69.2285   65.4878 H   0  0  0  0  0  0
   -0.4829   68.9453   63.8097 H   0  0  0  0  0  0
   -0.0567   67.3083   64.1199 H   0  0  0  0  0  0
   -0.7392   69.4565   66.2051 H   0  0  0  0  0  0
   -1.7869   68.2143   65.6278 H   0  0  0  0  0  0
    0.1428   66.5876   66.5363 H   0  0  0  0  0  0
    1.6344   68.4773   67.4168 H   0  0  0  0  0  0
    0.3612   69.0150   68.4241 H   0  0  0  0  0  0
    1.8139   66.2907   68.5789 H   0  0  0  0  0  0
    1.9376   67.6419   69.7108 H   0  0  0  0  0  0
   -0.4569   65.0268   68.4772 H   0  0  0  0  0  0
   -1.6568   65.6978   69.5677 H   0  0  0  0  0  0
   -2.0119   67.7049   68.3104 H   0  0  0  0  0  0
   -2.1238   66.4031   67.2069 H   0  0  0  0  0  0
    1.1424   66.3783   71.5680 H   0  0  0  0  0  0
   -0.3542   65.5137   71.5044 H   0  0  0  0  0  0
    3.2134   65.4506   70.4012 H   0  0  0  0  0  0
    4.4421   63.3734   69.8927 H   0  0  0  0  0  0
    3.2342   61.2090   69.8482 H   0  0  0  0  0  0
    0.8009   61.1293   70.2917 H   0  0  0  0  0  0
   -0.4385   63.2061   70.7558 H   0  0  0  0  0  0
  1  2  1  0  0  0
  1 30  1  0  0  0
  1 31  1  0  0  0
  1 32  1  0  0  0
  2  3  1  0  0  0
  3  8  1  0  0  0
  3  4  2  0  0  0
  4  5  1  0  0  0
  4 33  1  0  0  0
  5  6  2  0  0  0
  5 34  1  0  0  0
  6 14  1  0  0  0
  6  7  1  0  0  0
  7  8  2  0  0  0
  7 11  1  0  0  0
  8  9  1  0  0  0
  9 10  1  0  0  0
 10 35  1  0  0  0
 10 36  1  0  0  0
 10 37  1  0  0  0
 11 12  2  0  0  0
 11 13  1  0  0  0
 13 14  1  0  0  0
 13 38  1  0  0  0
 13 39  1  0  0  0
 14 15  1  0  0  0
 14 40  1  0  0  0
 15 16  1  0  0  0
 15 41  1  0  0  0
 15 42  1  0  0  0
 16 17  1  0  0  0
 16 43  1  0  0  0
 16 44  1  0  0  0
 17 22  1  0  0  0
 17 18  1  0  0  0
 17 45  1  0  0  0
 18 19  1  0  0  0
 18 46  1  0  0  0
 18 47  1  0  0  0
 19 20  1  0  0  0
 19 48  1  0  0  0
 19 49  1  0  0  0
 20 21  1  0  0  0
 20 23  1  0  0  0
 21 22  1  0  0  0
 21 50  1  0  0  0
 21 51  1  0  0  0
 22 52  1  0  0  0
 22 53  1  0  0  0
 23 24  1  0  0  0
 23 54  1  0  0  0
 23 55  1  0  0  0
 24 29  1  0  0  0
 24 25  2  0  0  0
 25 26  1  0  0  0
 25 56  1  0  0  0
 26 27  2  0  0  0
 26 57  1  0  0  0
 27 28  1  0  0  0
 27 58  1  0  0  0
 28 29  2  0  0  0
 28 59  1  0  0  0
 29 60  1  0  0  0
M  END
> <s_m_entry_id>
9640

> <s_m_entry_name>
ligand_docking-pose.82

> <s_m_Source_Path>
/home/csk/Desktop/cluster/DUD-E-result/aces

> <s_m_Source_File>
ligand_docking-pose.sdf

> <i_m_Source_File_Index>
82

> <i_lp_mmshare_version>
53161

> <r_lp_tautomer_probability>
0.99995

> <s_lp_Force_Field>
OPLS_2005

> <r_lp_Energy>
53.396612

> <b_lp_Chiralities_Consistent>
1

> <s_lp_Variant>
630970-1

> <s_i_glide_gridfile>
glide-grid_1e66

> <i_i_glide_lignum>
2072

> <i_i_glide_rotatable_bonds>
7

> <r_i_docking_score>
-8.1347292286015

> <r_i_glide_ligand_efficiency>
-0.280507904434534

> <r_i_glide_ligand_efficiency_sa>
-0.861809153564776

> <r_i_glide_ligand_efficiency_ln>
-1.86264671441474

> <r_i_glide_gscore>
-8.1347292286015

> <r_i_glide_lipo>
-3.79190105881797

> <r_i_glide_hbond>
-0.281079209805239

> <r_i_glide_metal>
0

> <r_i_glide_rewards>
-1.87766586353642

> <r_i_glide_evdw>
-38.8327751159668

> <r_i_glide_ecoul>
-5.8213939666748

> <r_i_glide_erotb>
0.630764754357684

> <r_i_glide_esite>
0

> <r_i_glide_emodel>
-51.5759248151682

> <r_i_glide_energy>
-44.6541690826416

> <r_i_glide_einternal>
16.8279323577881

> <i_i_glide_confnum>
47

> <i_i_glide_posenum>
35

> <r_i_glide_eff_state_penalty>
0

> <i_f3d_flags>
0

> <s_user_duplicate_titles>
630970

> <s_m_subgroup_title>
dock_pv

> <s_m_subgroupid>
dock_pv1

> <b_m_subgroup_collapsed>
1

$$$$
489997
                    3D
 Schrodinger Suite 2021-1.
 60 61  0  0  1  0            999 V2000
    5.5015   68.5897   64.6315 C   0  0  0  0  0  0
    4.7157   68.7411   63.2991 N   0  3  0  0  0  0
    5.1688   70.1006   62.7219 C   0  0  0  0  0  0
    5.2343   67.6197   62.3682 C   0  0  0  0  0  0
    3.2083   68.6715   63.4275 C   0  0  0  0  0  0
    2.4113   68.9002   62.2950 C   0  0  0  0  0  0
    1.0234   68.8136   62.3962 C   0  0  0  0  0  0
    0.4302   68.5036   63.6190 C   0  0  0  0  0  0
    1.2126   68.2920   64.7542 C   0  0  0  0  0  0
    2.6050   68.3631   64.6529 C   0  0  0  0  0  0
    0.5767   67.9907   65.9358 O   0  0  0  0  0  0
    1.0400   68.6354   67.1242 C   0  0  0  0  0  0
    0.3327   67.9953   68.3207 C   0  0  0  0  0  0
    0.8686   66.6084   68.6995 C   0  0  0  0  0  0
   -0.0567   65.7188   69.5519 C   0  0  0  0  0  0
   -0.0439   66.1326   70.9234 O   0  0  0  0  0  0
   -0.0479   65.2186   71.9681 C   0  0  0  0  0  0
   -0.4570   65.7087   73.2120 C   0  0  0  0  0  0
   -0.4553   64.9037   74.3500 C   0  0  0  0  0  0
   -0.0590   63.5725   74.2552 C   0  0  0  0  0  0
    0.3306   63.0451   73.0148 C   0  0  0  0  0  0
    0.3436   63.8706   71.8746 C   0  0  0  0  0  0
    0.7162   61.5769   72.9417 N   0  3  0  0  0  0
    1.1658   61.0864   71.5376 C   0  0  0  0  0  0
    1.8957   61.2569   73.8937 C   0  0  0  0  0  0
   -0.4789   60.6702   73.3324 C   0  0  0  0  0  0
    6.5707   68.6533   64.4303 H   0  0  0  0  0  0
    5.2684   67.6142   65.0546 H   0  0  0  0  0  0
    5.1920   69.3966   65.2998 H   0  0  0  0  0  0
    6.2552   70.1321   62.7713 H   0  0  0  0  0  0
    4.8285   70.1871   61.6905 H   0  0  0  0  0  0
    4.7425   70.8832   63.3485 H   0  0  0  0  0  0
    6.3138   67.7292   62.2456 H   0  0  0  0  0  0
    4.9751   66.6670   62.8292 H   0  0  0  0  0  0
    4.7425   67.7239   61.3999 H   0  0  0  0  0  0
    2.8448   69.1343   61.3335 H   0  0  0  0  0  0
    0.4049   68.9805   61.5255 H   0  0  0  0  0  0
   -0.6466   68.4357   63.6952 H   0  0  0  0  0  0
    3.1953   68.1592   65.5283 H   0  0  0  0  0  0
    2.1157   68.5530   67.2808 H   0  0  0  0  0  0
    0.7970   69.6993   67.0730 H   0  0  0  0  0  0
    0.4332   68.6575   69.1680 H   0  0  0  0  0  0
   -0.7336   67.9389   68.0948 H   0  0  0  0  0  0
    1.0686   66.1080   67.7575 H   0  0  0  0  0  0
    1.8360   66.7003   69.1930 H   0  0  0  0  0  0
   -1.0773   65.7746   69.1718 H   0  0  0  0  0  0
    0.2516   64.6904   69.3904 H   0  0  0  0  0  0
   -0.7665   66.7374   73.3016 H   0  0  0  0  0  0
   -0.7516   65.3116   75.3066 H   0  0  0  0  0  0
   -0.0738   62.9717   75.1522 H   0  0  0  0  0  0
    0.6779   63.4749   70.9323 H   0  0  0  0  0  0
    1.4160   60.0259   71.5957 H   0  0  0  0  0  0
    0.3362   61.2356   70.8450 H   0  0  0  0  0  0
    2.0405   61.6669   71.2419 H   0  0  0  0  0  0
    2.1523   60.1997   73.8002 H   0  0  0  0  0  0
    2.7361   61.8922   73.6016 H   0  0  0  0  0  0
    1.5933   61.4785   74.9182 H   0  0  0  0  0  0
   -0.1712   59.6257   73.2611 H   0  0  0  0  0  0
   -0.7741   60.9084   74.3551 H   0  0  0  0  0  0
   -1.2954   60.8846   72.6382 H   0  0  0  0  0  0
  1  2  1  0  0  0
  1 27  1  0  0  0
  1 28  1  0  0  0
  1 29  1  0  0  0
  2  3  1  0  0  0
  2  4  1  0  0  0
  2  5  1  0  0  0
  3 30  1  0  0  0
  3 31  1  0  0  0
  3 32  1  0  0  0
  4 33  1  0  0  0
  4 34  1  0  0  0
  4 35  1  0  0  0
  5 10  1  0  0  0
  5  6  2  0  0  0
  6  7  1  0  0  0
  6 36  1  0  0  0
  7  8  2  0  0  0
  7 37  1  0  0  0
  8  9  1  0  0  0
  8 38  1  0  0  0
  9 10  2  0  0  0
  9 11  1  0  0  0
 10 39  1  0  0  0
 11 12  1  0  0  0
 12 13  1  0  0  0
 12 40  1  0  0  0
 12 41  1  0  0  0
 13 14  1  0  0  0
 13 42  1  0  0  0
 13 43  1  0  0  0
 14 15  1  0  0  0
 14 44  1  0  0  0
 14 45  1  0  0  0
 15 16  1  0  0  0
 15 46  1  0  0  0
 15 47  1  0  0  0
 16 17  1  0  0  0
 17 22  1  0  0  0
 17 18  2  0  0  0
 18 19  1  0  0  0
 18 48  1  0  0  0
 19 20  2  0  0  0
 19 49  1  0  0  0
 20 21  1  0  0  0
 20 50  1  0  0  0
 21 22  2  0  0  0
 21 23  1  0  0  0
 22 51  1  0  0  0
 23 24  1  0  0  0
 23 25  1  0  0  0
 23 26  1  0  0  0
 24 52  1  0  0  0
 24 53  1  0  0  0
 24 54  1  0  0  0
 25 55  1  0  0  0
 25 56  1  0  0  0
 25 57  1  0  0  0
 26 58  1  0  0  0
 26 59  1  0  0  0
 26 60  1  0  0  0
M  CHG  2   2   1  23   1
M  END
> <s_m_entry_id>
9642

> <s_m_entry_name>
ligand_docking-pose.84

> <s_m_Source_Path>
/home/csk/Desktop/cluster/DUD-E-result/aces

> <s_m_Source_File>
ligand_docking-pose.sdf

> <i_m_Source_File_Index>
84

> <i_lp_mmshare_version>
53161

> <r_lp_tautomer_probability>
1

> <s_lp_Force_Field>
OPLS_2005

> <r_lp_Energy>
37.601903

> <b_lp_Chiralities_Consistent>
1

> <s_lp_Variant>
489997-1

> <s_i_glide_gridfile>
glide-grid_1e66

> <i_i_glide_lignum>
1730

> <i_i_glide_rotatable_bonds>
9

> <r_i_docking_score>
-8.12596095302122

> <r_i_glide_ligand_efficiency>
-0.312536959731586

> <r_i_glide_ligand_efficiency_sa>
-0.925889513431269

> <r_i_glide_ligand_efficiency_ln>
-1.90835526636438

> <r_i_glide_gscore>
-8.12596095302122

> <r_i_glide_lipo>
-3.03218176351269

> <r_i_glide_hbond>
0

> <r_i_glide_metal>
0

> <r_i_glide_rewards>
-3.09396251329582

> <r_i_glide_evdw>
-37.8759155273438

> <r_i_glide_ecoul>
-7.6619553565979

> <r_i_glide_erotb>
1.04327240364416

> <r_i_glide_esite>
0

> <r_i_glide_emodel>
-70.3586028374065

> <r_i_glide_energy>
-45.5378708839417

> <r_i_glide_einternal>
10.4156484603882

> <i_i_glide_confnum>
28

> <i_i_glide_posenum>
118

> <r_i_glide_eff_state_penalty>
0

> <i_f3d_flags>
0

> <s_user_duplicate_titles>
489997

> <s_m_subgroup_title>
dock_pv

> <s_m_subgroupid>
dock_pv1

> <b_m_subgroup_collapsed>
1

$$$$
689266
                    3D
 Schrodinger Suite 2021-1.
 50 53  0  0  1  0            999 V2000
    5.9651   69.9278   65.3179 C   0  0  0  0  0  0
    6.2603   68.5512   64.6830 C   0  0  0  0  0  0
    6.2042   68.5105   63.1268 C   0  0  0  0  0  0
    5.2203   69.2524   62.4040 O   0  0  0  0  0  0
    3.8734   69.0211   62.5601 C   0  0  0  0  0  0
    3.0433   69.3057   61.4651 C   0  0  0  0  0  0
    1.6461   69.2255   61.5686 C   0  0  0  0  0  0
    1.0951   68.8687   62.7986 C   0  0  0  0  0  0
    1.9169   68.5475   63.8426 C   0  0  0  0  0  0
    3.2859   68.5964   63.7555 C   0  0  0  0  0  0
    1.2559   68.2475   64.9788 O   0  0  0  0  0  0
   -0.0605   68.4050   64.7362 C   0  0  0  0  0  0
   -0.9753   68.2075   65.7031 C   0  0  0  0  0  0
   -0.6001   67.7780   67.0579 C   0  0  0  0  0  0
   -1.3059   66.7228   67.6271 C   0  0  0  0  0  0
   -0.8115   66.1083   68.7778 C   0  0  0  0  0  0
    0.3065   66.5717   69.3853 N   0  3  0  0  0  0
    0.9714   67.6492   68.8998 C   0  0  0  0  0  0
    0.5319   68.2685   67.7266 C   0  0  0  0  0  0
    0.7853   65.8911   70.6140 C   0  0  0  0  0  0
    1.3955   64.5185   70.3698 C   0  0  0  0  0  0
    0.6317   63.3650   70.5694 C   0  0  0  0  0  0
    1.2045   62.1122   70.3681 C   0  0  0  0  0  0
    2.5341   62.0162   69.9611 C   0  0  0  0  0  0
    3.3003   63.1628   69.7592 C   0  0  0  0  0  0
    2.7303   64.4161   69.9677 C   0  0  0  0  0  0
   -0.2610   68.7536   63.3266 C   0  0  0  0  0  0
   -1.3378   68.9117   62.7698 O   0  0  0  0  0  0
    5.9276   69.8493   66.4051 H   0  0  0  0  0  0
    5.0168   70.3509   64.9878 H   0  0  0  0  0  0
    6.7409   70.6562   65.0768 H   0  0  0  0  0  0
    7.2440   68.2282   65.0182 H   0  0  0  0  0  0
    5.6358   67.7754   65.1173 H   0  0  0  0  0  0
    7.1436   68.8941   62.7444 H   0  0  0  0  0  0
    6.1505   67.4827   62.7676 H   0  0  0  0  0  0
    3.4995   69.6159   60.5374 H   0  0  0  0  0  0
    1.0221   69.4741   60.7219 H   0  0  0  0  0  0
    3.8170   68.3901   64.6561 H   0  0  0  0  0  0
   -2.0282   68.3406   65.4934 H   0  0  0  0  0  0
   -2.1751   66.3182   67.1259 H   0  0  0  0  0  0
   -1.2551   65.2227   69.2011 H   0  0  0  0  0  0
    1.8355   67.9871   69.4551 H   0  0  0  0  0  0
    1.0887   69.1014   67.3222 H   0  0  0  0  0  0
    1.5309   66.5197   71.0898 H   0  0  0  0  0  0
   -0.0594   65.8501   71.3018 H   0  0  0  0  0  0
   -0.3987   63.4310   70.8892 H   0  0  0  0  0  0
    0.6183   61.2183   70.5298 H   0  0  0  0  0  0
    2.9743   61.0423   69.8068 H   0  0  0  0  0  0
    4.3332   63.0829   69.4526 H   0  0  0  0  0  0
    3.3286   65.3047   69.8255 H   0  0  0  0  0  0
  1  2  1  0  0  0
  1 29  1  0  0  0
  1 30  1  0  0  0
  1 31  1  0  0  0
  2  3  1  0  0  0
  2 32  1  0  0  0
  2 33  1  0  0  0
  3  4  1  0  0  0
  3 34  1  0  0  0
  3 35  1  0  0  0
  4  5  1  0  0  0
  5 10  1  0  0  0
  5  6  2  0  0  0
  6  7  1  0  0  0
  6 36  1  0  0  0
  7  8  2  0  0  0
  7 37  1  0  0  0
  8 27  1  0  0  0
  8  9  1  0  0  0
  9 10  2  0  0  0
  9 11  1  0  0  0
 10 38  1  0  0  0
 11 12  1  0  0  0
 12 13  2  0  0  0
 12 27  1  0  0  0
 13 14  1  0  0  0
 13 39  1  0  0  0
 14 19  1  0  0  0
 14 15  2  0  0  0
 15 16  1  0  0  0
 15 40  1  0  0  0
 16 17  2  0  0  0
 16 41  1  0  0  0
 17 18  1  0  0  0
 17 20  1  0  0  0
 18 19  2  0  0  0
 18 42  1  0  0  0
 19 43  1  0  0  0
 20 21  1  0  0  0
 20 44  1  0  0  0
 20 45  1  0  0  0
 21 26  1  0  0  0
 21 22  2  0  0  0
 22 23  1  0  0  0
 22 46  1  0  0  0
 23 24  2  0  0  0
 23 47  1  0  0  0
 24 25  1  0  0  0
 24 48  1  0  0  0
 25 26  2  0  0  0
 25 49  1  0  0  0
 26 50  1  0  0  0
 27 28  2  0  0  0
M  CHG  1  17   1
M  END
> <s_m_entry_id>
9643

> <s_m_entry_name>
ligand_docking-pose.85

> <s_m_Source_Path>
/home/csk/Desktop/cluster/DUD-E-result/aces

> <s_m_Source_File>
ligand_docking-pose.sdf

> <i_m_Source_File_Index>
85

> <i_lp_mmshare_version>
53161

> <r_lp_tautomer_probability>
1

> <s_lp_Force_Field>
OPLS_2005

> <r_lp_Energy>
40.427687

> <b_lp_Chiralities_Consistent>
1

> <s_lp_Variant>
689266-1

> <s_i_glide_gridfile>
glide-grid_1e66

> <i_i_glide_lignum>
1169

> <i_i_glide_rotatable_bonds>
6

> <r_i_docking_score>
-8.11970999459948

> <r_i_glide_ligand_efficiency>
-0.289989642664267

> <r_i_glide_ligand_efficiency_sa>
-0.880579349894388

> <r_i_glide_ligand_efficiency_ln>
-1.87426747179835

> <r_i_glide_gscore>
-8.11970999459948

> <r_i_glide_lipo>
-4.34352645293162

> <r_i_glide_hbond>
0

> <r_i_glide_metal>
0

> <r_i_glide_rewards>
-2.14846561514753

> <r_i_glide_evdw>
-43.9975509643555

> <r_i_glide_ecoul>
-0.827006816864014

> <r_i_glide_erotb>
0.696210644227044

> <r_i_glide_esite>
0

> <r_i_glide_emodel>
-61.7515166520574

> <r_i_glide_energy>
-44.8245577812195

> <r_i_glide_einternal>
6.05653476715088

> <i_i_glide_confnum>
4

> <i_i_glide_posenum>
235

> <r_i_glide_eff_state_penalty>
0

> <i_f3d_flags>
0

> <s_user_duplicate_titles>
689266

> <s_m_subgroup_title>
dock_pv

> <s_m_subgroupid>
dock_pv1

> <b_m_subgroup_collapsed>
1

$$$$
267455
                    3D
 Schrodinger Suite 2021-1.
 55 57  0  0  1  0            999 V2000
    3.4684   69.3591   65.9292 C   0  0  0  0  0  0
    3.8011   68.9254   64.5075 C   0  0  0  0  0  0
    5.1424   68.9393   64.1035 C   0  0  0  0  0  0
    5.4958   68.5011   62.8306 C   0  0  0  0  0  0
    4.5059   68.0443   61.9680 C   0  0  0  0  0  0
    3.1753   68.0710   62.3480 C   0  0  0  0  0  0
    2.7861   68.5223   63.6117 C   0  0  0  0  0  0
    1.4531   68.4409   64.0338 N   0  0  0  0  0  0
    0.4262   68.8998   63.4222 C   0  0  0  0  0  0
   -0.8649   68.9080   63.9058 N   0  0  0  0  0  0
   -1.2415   68.3081   65.1762 C   0  0  0  0  0  0
   -0.6255   68.9178   66.4458 C   0  0  0  0  0  0
   -0.1027   67.8094   67.3837 C   0  0  0  0  0  0
    0.6579   68.3821   68.5767 C   0  0  0  0  0  0
    1.1327   67.3081   69.5813 C   0  0  0  0  0  0
    0.0606   66.3901   69.9893 N   0  0  1  0  0  0
   -0.6901   65.8267   68.8665 C   0  0  0  0  0  0
   -1.2245   66.8903   67.8965 C   0  0  0  0  0  0
    0.4771   65.3867   70.9822 C   0  0  0  0  0  0
    1.4856   64.3398   70.4920 C   0  0  0  0  0  0
    2.8508   64.6408   70.4346 C   0  0  0  0  0  0
    3.7594   63.7007   69.9562 C   0  0  0  0  0  0
    3.3009   62.4560   69.5310 C   0  0  0  0  0  0
    1.9428   62.1478   69.5739 C   0  0  0  0  0  0
    1.0340   63.0932   70.0457 C   0  0  0  0  0  0
    0.4567   69.7080   61.8199 S   0  0  0  0  0  0
    2.6785   70.1078   65.9212 H   0  0  0  0  0  0
    3.0986   68.5076   66.4984 H   0  0  0  0  0  0
    4.3245   69.7914   66.4487 H   0  0  0  0  0  0
    5.9167   69.2777   64.7777 H   0  0  0  0  0  0
    6.5301   68.5074   62.5144 H   0  0  0  0  0  0
    4.7430   67.6725   60.9873 H   0  0  0  0  0  0
    2.4345   67.7080   61.6525 H   0  0  0  0  0  0
   -1.5164   69.6046   63.5681 H   0  0  0  0  0  0
   -2.3276   68.2525   65.2576 H   0  0  0  0  0  0
   -0.8569   67.3080   65.1290 H   0  0  0  0  0  0
    0.2136   69.5659   66.2141 H   0  0  0  0  0  0
   -1.3570   69.5524   66.9497 H   0  0  0  0  0  0
    0.6113   67.1775   66.8496 H   0  0  0  0  0  0
    1.4988   68.9905   68.2451 H   0  0  0  0  0  0
    0.0045   69.0923   69.0634 H   0  0  0  0  0  0
    1.9430   66.7265   69.1538 H   0  0  0  0  0  0
    1.5433   67.7920   70.4649 H   0  0  0  0  0  0
   -0.0570   65.1170   68.3680 H   0  0  0  0  0  0
   -1.5178   65.2374   69.2165 H   0  0  0  0  0  0
   -2.0266   67.4552   68.3680 H   0  0  0  0  0  0
   -1.7277   66.4063   67.0596 H   0  0  0  0  0  0
    0.8764   65.9084   71.8485 H   0  0  0  0  0  0
   -0.4104   64.8624   71.3387 H   0  0  0  0  0  0
    3.2111   65.6041   70.7675 H   0  0  0  0  0  0
    4.8127   63.9383   69.9163 H   0  0  0  0  0  0
    4.0038   61.7237   69.1631 H   0  0  0  0  0  0
    1.5924   61.1828   69.2388 H   0  0  0  0  0  0
   -0.0198   62.8549   70.0649 H   0  0  0  0  0  0
   -0.8472   69.9867   61.7877 H   0  0  0  0  0  0
  1  2  1  0  0  0
  1 27  1  0  0  0
  1 28  1  0  0  0
  1 29  1  0  0  0
  2  7  1  0  0  0
  2  3  2  0  0  0
  3  4  1  0  0  0
  3 30  1  0  0  0
  4  5  2  0  0  0
  4 31  1  0  0  0
  5  6  1  0  0  0
  5 32  1  0  0  0
  6  7  2  0  0  0
  6 33  1  0  0  0
  7  8  1  0  0  0
  8  9  2  0  0  0
  9 10  1  0  0  0
  9 26  1  0  0  0
 10 11  1  0  0  0
 10 34  1  0  0  0
 11 12  1  0  0  0
 11 35  1  0  0  0
 11 36  1  0  0  0
 12 13  1  0  0  0
 12 37  1  0  0  0
 12 38  1  0  0  0
 13 18  1  0  0  0
 13 14  1  0  0  0
 13 39  1  0  0  0
 14 15  1  0  0  0
 14 40  1  0  0  0
 14 41  1  0  0  0
 15 16  1  0  0  0
 15 42  1  0  0  0
 15 43  1  0  0  0
 16 17  1  0  0  0
 16 19  1  0  0  0
 17 18  1  0  0  0
 17 44  1  0  0  0
 17 45  1  0  0  0
 18 46  1  0  0  0
 18 47  1  0  0  0
 19 20  1  0  0  0
 19 48  1  0  0  0
 19 49  1  0  0  0
 20 25  1  0  0  0
 20 21  2  0  0  0
 21 22  1  0  0  0
 21 50  1  0  0  0
 22 23  2  0  0  0
 22 51  1  0  0  0
 23 24  1  0  0  0
 23 52  1  0  0  0
 24 25  2  0  0  0
 24 53  1  0  0  0
 25 54  1  0  0  0
 26 55  1  0  0  0
M  END
> <s_m_entry_id>
9645

> <s_m_entry_name>
ligand_docking-pose.87

> <s_m_Source_Path>
/home/csk/Desktop/cluster/DUD-E-result/aces

> <s_m_Source_File>
ligand_docking-pose.sdf

> <i_m_Source_File_Index>
87

> <i_lp_mmshare_version>
53161

> <r_lp_tautomer_probability>
1

> <s_lp_Force_Field>
OPLS_2005

> <r_lp_Energy>
31.208359

> <b_lp_Chiralities_Consistent>
1

> <s_lp_Variant>
267455-1

> <s_i_glide_gridfile>
glide-grid_1e66

> <i_i_glide_lignum>
763

> <i_i_glide_rotatable_bonds>
8

> <r_i_docking_score>
-8.10919030929585

> <r_i_glide_ligand_efficiency>
-0.311891934972917

> <r_i_glide_ligand_efficiency_sa>
-0.923978630121765

> <r_i_glide_ligand_efficiency_ln>
-1.90441673571445

> <r_i_glide_gscore>
-8.10919030929585

> <r_i_glide_lipo>
-3.82212350368971

> <r_i_glide_hbond>
-0.237892260015866

> <r_i_glide_metal>
0

> <r_i_glide_rewards>
-2.55996733951462

> <r_i_glide_evdw>
-37.6482925415039

> <r_i_glide_ecoul>
-4.84461832046509

> <r_i_glide_erotb>
1.1405330339431

> <r_i_glide_esite>
-0.0206328648737954

> <r_i_glide_emodel>
-53.8214518370022

> <r_i_glide_energy>
-42.492910861969

> <r_i_glide_einternal>
16.795503616333

> <i_i_glide_confnum>
110

> <i_i_glide_posenum>
217

> <r_i_glide_eff_state_penalty>
0

> <i_f3d_flags>
0

> <s_user_duplicate_titles>
267455

> <s_m_subgroup_title>
dock_pv

> <s_m_subgroupid>
dock_pv1

> <b_m_subgroup_collapsed>
1

$$$$
240073
                    3D
 Schrodinger Suite 2021-1.
 69 72  0  0  1  0            999 V2000
    5.0155   68.9582   64.3385 C   0  0  0  0  0  0
    3.8657   68.7673   63.5196 O   0  0  0  0  0  0
    2.6159   68.6570   64.1070 C   0  0  0  0  0  0
    2.4185   68.5709   65.4969 C   0  0  0  0  0  0
    1.1330   68.4910   66.0271 C   0  0  0  0  0  0
    0.0327   68.5055   65.1815 C   0  0  0  0  0  0
    0.2077   68.5616   63.7994 C   0  0  0  0  0  0
    1.5021   68.6485   63.2506 C   0  0  0  0  0  0
    1.7547   68.7489   61.8942 O   0  0  0  0  0  0
    0.6658   68.9138   60.9978 C   0  0  0  0  0  0
   -1.2221   68.4785   65.9630 C   0  0  0  0  0  0
   -2.3691   68.5385   65.5226 O   0  0  0  0  0  0
   -0.8356   68.3106   67.4386 C   0  0  2  0  0  0
    0.7069   68.4177   67.4651 C   0  0  0  0  0  0
   -1.5197   67.0144   67.9930 C   0  0  0  0  0  0
   -0.6650   66.0532   68.8444 C   0  0  0  0  0  0
   -0.1228   66.5731   70.1882 C   0  0  0  0  0  0
    0.6453   65.4877   70.9533 C   0  0  0  0  0  0
    2.0491   65.1757   70.3865 C   0  0  0  0  0  0
    2.5259   63.7477   70.7270 C   0  0  0  0  0  0
    1.8700   62.6974   69.8102 C   0  0  0  0  0  0
    2.2844   61.2674   70.1878 C   0  0  0  0  0  0
    3.7504   61.1096   70.2365 N   0  0  1  0  0  0
    4.4694   62.1451   71.0018 C   0  0  0  0  0  0
    4.0448   63.5654   70.5651 C   0  0  0  0  0  0
    4.1805   59.7373   70.5371 C   0  0  0  0  0  0
    3.5141   59.1054   71.7583 C   0  0  0  0  0  0
    3.9430   59.4355   73.0461 C   0  0  0  0  0  0
    3.2927   58.9054   74.1562 C   0  0  0  0  0  0
    2.1960   58.0647   73.9752 C   0  0  0  0  0  0
    1.7449   57.7512   72.6956 C   0  0  0  0  0  0
    2.4050   58.2698   71.5848 C   0  0  0  0  0  0
    5.8929   69.0799   63.7032 H   0  0  0  0  0  0
    4.9238   69.8594   64.9469 H   0  0  0  0  0  0
    5.1950   68.1021   64.9908 H   0  0  0  0  0  0
    3.2580   68.5771   66.1739 H   0  0  0  0  0  0
   -0.6681   68.5704   63.1684 H   0  0  0  0  0  0
    1.0306   68.9080   59.9706 H   0  0  0  0  0  0
    0.1613   69.8674   61.1646 H   0  0  0  0  0  0
   -0.0570   68.1070   61.1023 H   0  0  0  0  0  0
   -1.2472   69.1710   67.9681 H   0  0  0  0  0  0
    1.1971   67.5775   67.9452 H   0  0  0  0  0  0
    0.9946   69.3194   68.0093 H   0  0  0  0  0  0
   -2.4063   67.3016   68.5630 H   0  0  0  0  0  0
   -1.9299   66.4025   67.1851 H   0  0  0  0  0  0
   -1.2569   65.1645   69.0580 H   0  0  0  0  0  0
    0.1581   65.7080   68.2298 H   0  0  0  0  0  0
    0.5152   67.4460   70.0563 H   0  0  0  0  0  0
   -0.9540   66.9080   70.8065 H   0  0  0  0  0  0
    0.7428   65.7978   71.9901 H   0  0  0  0  0  0
    0.0311   64.5874   70.9920 H   0  0  0  0  0  0
    2.0722   65.3061   69.3056 H   0  0  0  0  0  0
    2.7533   65.9157   70.7678 H   0  0  0  0  0  0
    2.2710   63.5223   71.7654 H   0  0  0  0  0  0
    0.7836   62.7782   69.8543 H   0  0  0  0  0  0
    2.0976   62.8910   68.7679 H   0  0  0  0  0  0
    1.8486   61.0093   71.1544 H   0  0  0  0  0  0
    1.8764   60.5600   69.4645 H   0  0  0  0  0  0
    4.2890   62.0092   72.0687 H   0  0  0  0  0  0
    5.5433   62.0240   70.8524 H   0  0  0  0  0  0
    4.3785   63.7810   69.5483 H   0  0  0  0  0  0
    4.5668   64.3088   71.1678 H   0  0  0  0  0  0
    3.9467   59.1301   69.6615 H   0  0  0  0  0  0
    5.2623   59.7089   70.6662 H   0  0  0  0  0  0
    4.7828   60.0983   73.1850 H   0  0  0  0  0  0
    3.6322   59.1465   75.1529 H   0  0  0  0  0  0
    1.6890   57.6564   74.8376 H   0  0  0  0  0  0
    0.8837   57.1146   72.5644 H   0  0  0  0  0  0
    2.0463   58.0310   70.5946 H   0  0  0  0  0  0
  1  2  1  0  0  0
  1 33  1  0  0  0
  1 34  1  0  0  0
  1 35  1  0  0  0
  2  3  1  0  0  0
  3  8  1  0  0  0
  3  4  2  0  0  0
  4  5  1  0  0  0
  4 36  1  0  0  0
  5 14  1  0  0  0
  5  6  2  0  0  0
  6  7  1  0  0  0
  6 11  1  0  0  0
  7  8  2  0  0  0
  7 37  1  0  0  0
  8  9  1  0  0  0
  9 10  1  0  0  0
 10 38  1  0  0  0
 10 39  1  0  0  0
 10 40  1  0  0  0
 11 12  2  0  0  0
 11 13  1  0  0  0
 13 14  1  0  0  0
 13 15  1  0  0  0
 13 41  1  0  0  0
 14 42  1  0  0  0
 14 43  1  0  0  0
 15 16  1  0  0  0
 15 44  1  0  0  0
 15 45  1  0  0  0
 16 17  1  0  0  0
 16 46  1  0  0  0
 16 47  1  0  0  0
 17 18  1  0  0  0
 17 48  1  0  0  0
 17 49  1  0  0  0
 18 19  1  0  0  0
 18 50  1  0  0  0
 18 51  1  0  0  0
 19 20  1  0  0  0
 19 52  1  0  0  0
 19 53  1  0  0  0
 20 25  1  0  0  0
 20 21  1  0  0  0
 20 54  1  0  0  0
 21 22  1  0  0  0
 21 55  1  0  0  0
 21 56  1  0  0  0
 22 23  1  0  0  0
 22 57  1  0  0  0
 22 58  1  0  0  0
 23 24  1  0  0  0
 23 26  1  0  0  0
 24 25  1  0  0  0
 24 59  1  0  0  0
 24 60  1  0  0  0
 25 61  1  0  0  0
 25 62  1  0  0  0
 26 27  1  0  0  0
 26 63  1  0  0  0
 26 64  1  0  0  0
 27 32  1  0  0  0
 27 28  2  0  0  0
 28 29  1  0  0  0
 28 65  1  0  0  0
 29 30  2  0  0  0
 29 66  1  0  0  0
 30 31  1  0  0  0
 30 67  1  0  0  0
 31 32  2  0  0  0
 31 68  1  0  0  0
 32 69  1  0  0  0
M  END
> <s_m_entry_id>
9646

> <s_m_entry_name>
ligand_docking-pose.88

> <s_m_Source_Path>
/home/csk/Desktop/cluster/DUD-E-result/aces

> <s_m_Source_File>
ligand_docking-pose.sdf

> <i_m_Source_File_Index>
88

> <i_lp_mmshare_version>
53161

> <r_lp_tautomer_probability>
0.99995

> <s_lp_Force_Field>
OPLS_2005

> <r_lp_Energy>
51.856913

> <b_lp_Chiralities_Consistent>
1

> <s_lp_Variant>
240073-2

> <s_i_glide_gridfile>
glide-grid_1e66

> <i_i_glide_lignum>
1951

> <i_i_glide_rotatable_bonds>
10

> <r_i_docking_score>
-8.1038365673465

> <r_i_glide_ligand_efficiency>
-0.253244892729578

> <r_i_glide_ligand_efficiency_sa>
-0.804002417320193

> <r_i_glide_ligand_efficiency_ln>
-1.81466990967064

> <r_i_glide_gscore>
-8.1038365673465

> <r_i_glide_lipo>
-4.91459424691746

> <r_i_glide_hbond>
0

> <r_i_glide_metal>
0

> <r_i_glide_rewards>
-1.60965959747331

> <r_i_glide_evdw>
-52.5871887207031

> <r_i_glide_ecoul>
1.39784789085388

> <r_i_glide_erotb>
0.840099529451342

> <r_i_glide_esite>
0

> <r_i_glide_emodel>
-61.897950447627

> <r_i_glide_energy>
-51.1893408298492

> <r_i_glide_einternal>
27.2801933288574

> <i_i_glide_confnum>
15

> <i_i_glide_posenum>
160

> <r_i_glide_eff_state_penalty>
0

> <i_f3d_flags>
0

> <s_user_duplicate_titles>
240073

> <s_m_subgroup_title>
dock_pv

> <s_m_subgroupid>
dock_pv1

> <b_m_subgroup_collapsed>
1

$$$$
179327
                    3D
 Schrodinger Suite 2021-1.
 44 46  0  0  1  0            999 V2000
    3.3717   69.7835   67.8504 C   0  0  0  0  0  0
    2.6355   69.2534   66.6284 C   0  0  0  0  0  0
    1.3085   68.7955   66.6705 C   0  0  0  0  0  0
    0.6796   68.4837   65.4518 C   0  0  0  0  0  0
    1.4113   68.6066   64.2242 C   0  0  0  0  0  0
    2.7834   68.9937   64.3118 C   0  0  0  0  0  0
    3.3712   69.3051   65.4935 N   0  0  0  0  0  0
    3.5651   69.1030   63.1359 C   0  0  0  0  0  0
    2.9846   68.9032   61.8878 C   0  0  0  0  0  0
    1.6300   68.6100   61.7888 C   0  0  0  0  0  0
    0.8464   68.4375   62.9247 C   0  0  0  0  0  0
   -0.4558   68.1136   62.7617 F   0  0  0  0  0  0
   -0.6671   68.1086   65.4651 N   0  0  0  0  0  0
    0.5415   68.6643   67.9932 C   0  0  0  0  0  0
    0.3232   66.9126   68.4653 S   0  0  0  0  0  0
    1.3056   66.7642   69.9836 C   0  0  0  0  0  0
    1.1850   65.3676   70.5758 C   0  0  0  0  0  0
    0.3402   65.1622   71.6636 C   0  0  0  0  0  0
    0.1442   63.8864   72.1835 C   0  0  0  0  0  0
    0.8247   62.8065   71.6310 C   0  0  0  0  0  0
    1.7268   62.9938   70.5728 C   0  0  0  0  0  0
    1.8934   64.2857   70.0426 C   0  0  0  0  0  0
    2.4179   61.7954   70.0026 C   0  0  0  0  0  0
    1.9425   60.6621   70.0836 O   0  0  0  0  0  0
    3.8546   61.9484   69.4727 C   0  0  0  0  0  0
    4.3433   60.7438   69.1633 F   0  0  0  0  0  0
    4.6176   62.5091   70.4113 F   0  0  0  0  0  0
    3.8718   62.7120   68.3789 F   0  0  0  0  0  0
    3.1405   69.2093   68.7428 H   0  0  0  0  0  0
    4.4551   69.7480   67.7173 H   0  0  0  0  0  0
    3.0886   70.8181   68.0401 H   0  0  0  0  0  0
    4.6080   69.3818   63.2111 H   0  0  0  0  0  0
    3.5819   69.0099   60.9922 H   0  0  0  0  0  0
    1.1691   68.5054   60.8157 H   0  0  0  0  0  0
   -1.0053   67.5843   64.6643 H   0  0  0  0  0  0
   -1.0761   67.9180   66.3697 H   0  0  0  0  0  0
   -0.4444   69.1221   67.8957 H   0  0  0  0  0  0
    1.0118   69.2271   68.7886 H   0  0  0  0  0  0
    0.9554   67.5000   70.7084 H   0  0  0  0  0  0
    2.3432   67.0052   69.7838 H   0  0  0  0  0  0
   -0.1923   65.9969   72.0962 H   0  0  0  0  0  0
   -0.5321   63.7290   73.0111 H   0  0  0  0  0  0
    0.6531   61.8215   72.0431 H   0  0  0  0  0  0
    2.5355   64.4716   69.1956 H   0  0  0  0  0  0
  1  2  1  0  0  0
  1 29  1  0  0  0
  1 30  1  0  0  0
  1 31  1  0  0  0
  2  7  1  0  0  0
  2  3  2  0  0  0
  3  4  1  0  0  0
  3 14  1  0  0  0
  4  5  2  0  0  0
  4 13  1  0  0  0
  5 11  1  0  0  0
  5  6  1  0  0  0
  6  7  2  0  0  0
  6  8  1  0  0  0
  8  9  2  0  0  0
  8 32  1  0  0  0
  9 10  1  0  0  0
  9 33  1  0  0  0
 10 11  2  0  0  0
 10 34  1  0  0  0
 11 12  1  0  0  0
 13 35  1  0  0  0
 13 36  1  0  0  0
 14 15  1  0  0  0
 14 37  1  0  0  0
 14 38  1  0  0  0
 15 16  1  0  0  0
 16 17  1  0  0  0
 16 39  1  0  0  0
 16 40  1  0  0  0
 17 22  1  0  0  0
 17 18  2  0  0  0
 18 19  1  0  0  0
 18 41  1  0  0  0
 19 20  2  0  0  0
 19 42  1  0  0  0
 20 21  1  0  0  0
 20 43  1  0  0  0
 21 22  2  0  0  0
 21 23  1  0  0  0
 22 44  1  0  0  0
 23 24  2  0  0  0
 23 25  1  0  0  0
 25 26  1  0  0  0
 25 27  1  0  0  0
 25 28  1  0  0  0
M  END
> <s_m_entry_id>
9649

> <s_m_entry_name>
ligand_docking-pose.91

> <s_m_Source_Path>
/home/csk/Desktop/cluster/DUD-E-result/aces

> <s_m_Source_File>
ligand_docking-pose.sdf

> <i_m_Source_File_Index>
91

> <i_lp_mmshare_version>
53161

> <r_lp_tautomer_probability>
1

> <s_lp_Force_Field>
OPLS_2005

> <r_lp_Energy>
35.317667

> <b_lp_Chiralities_Consistent>
1

> <s_lp_Variant>
179327-1

> <s_i_glide_gridfile>
glide-grid_1e66

> <i_i_glide_lignum>
697

> <i_i_glide_rotatable_bonds>
6

> <r_i_docking_score>
-8.09040409420255

> <r_i_glide_ligand_efficiency>
-0.288943003364377

> <r_i_glide_ligand_efficiency_sa>
-0.877401136542339

> <r_i_glide_ligand_efficiency_ln>
-1.86750280952811

> <r_i_glide_gscore>
-8.09040409420255

> <r_i_glide_lipo>
-3.80264250448175

> <r_i_glide_hbond>
-0.267299061997919

> <r_i_glide_metal>
0

> <r_i_glide_rewards>
-2.3682186332136

> <r_i_glide_evdw>
-40.8910903930664

> <r_i_glide_ecoul>
-1.18205487728119

> <r_i_glide_erotb>
0.589955178552683

> <r_i_glide_esite>
-0.0203363218164673

> <r_i_glide_emodel>
-57.1303975860372

> <r_i_glide_energy>
-42.0731452703476

> <r_i_glide_einternal>
3.26099729537964

> <i_i_glide_confnum>
30

> <i_i_glide_posenum>
290

> <r_i_glide_eff_state_penalty>
0

> <i_f3d_flags>
0

> <s_user_duplicate_titles>
179327

> <s_m_subgroup_title>
dock_pv

> <s_m_subgroupid>
dock_pv1

> <b_m_subgroup_collapsed>
1

$$$$
165292
                    3D
 Schrodinger Suite 2021-1.
 61 64  0  0  1  0            999 V2000
    5.9428   69.9899   63.0853 C   0  0  0  0  0  0
    4.8209   69.2466   63.6483 N   0  0  2  0  0  0
    5.2492   68.5185   64.8480 C   0  0  0  0  0  0
    5.2461   69.4014   66.1074 C   0  0  0  0  0  0
    3.9021   69.5259   66.5429 O   0  0  0  0  0  0
    3.7340   70.2879   67.7264 C   0  0  0  0  0  0
    2.2468   70.2262   68.1037 C   0  0  0  0  0  0
    1.9431   68.9581   68.7678 N   0  0  0  0  0  0
    0.9928   68.0369   68.4541 C   0  0  0  0  0  0
   -0.1357   68.2186   67.2204 S   0  0  0  0  0  0
    1.1377   66.9624   69.2918 N   0  0  0  0  0  0
    0.4175   65.8315   69.4738 C   0  0  0  0  0  0
   -0.7681   65.7078   69.1680 O   0  0  0  0  0  0
    1.1626   64.7019   70.1592 C   0  0  0  0  0  0
    2.5698   64.6370   70.1493 C   0  0  0  0  0  0
    3.2518   63.5890   70.7667 C   0  0  0  0  0  0
    2.5261   62.5829   71.4012 C   0  0  0  0  0  0
    1.1367   62.6209   71.4172 C   0  0  0  0  0  0
    0.4533   63.6700   70.7978 C   0  0  0  0  0  0
    0.6610   61.4409   72.1463 C   0  0  0  0  0  0
   -0.6267   60.9962   72.4531 C   0  0  0  0  0  0
   -0.7927   59.8093   73.1705 C   0  0  0  0  0  0
    0.3231   59.0707   73.5763 C   0  0  0  0  0  0
    1.6109   59.5184   73.2727 C   0  0  0  0  0  0
    1.7722   60.7061   72.5552 C   0  0  0  0  0  0
    3.0133   61.3819   72.1160 C   0  0  0  0  0  0
    4.1791   61.0295   72.2973 O   0  0  0  0  0  0
    4.2046   68.3712   62.6446 C   0  0  0  0  0  0
    2.6953   68.5817   62.6135 C   0  0  0  0  0  0
    2.1204   69.3079   61.5679 C   0  0  0  0  0  0
    0.7479   69.5456   61.5505 C   0  0  0  0  0  0
   -0.0539   69.0360   62.5657 C   0  0  0  0  0  0
    0.5102   68.3058   63.6044 C   0  0  0  0  0  0
    1.8881   68.1082   63.6509 C   0  0  0  0  0  0
    5.6129   70.5631   62.2174 H   0  0  0  0  0  0
    6.3437   70.7048   63.8043 H   0  0  0  0  0  0
    6.7374   69.3082   62.7695 H   0  0  0  0  0  0
    6.2468   68.1031   64.7020 H   0  0  0  0  0  0
    4.5875   67.6716   65.0339 H   0  0  0  0  0  0
    5.6865   70.3827   65.9213 H   0  0  0  0  0  0
    5.8410   68.9139   66.8810 H   0  0  0  0  0  0
    4.0654   71.3080   67.5678 H   0  0  0  0  0  0
    4.3531   69.9041   68.5357 H   0  0  0  0  0  0
    1.6644   70.3528   67.1938 H   0  0  0  0  0  0
    1.9726   71.0464   68.7668 H   0  0  0  0  0  0
    2.3790   68.8556   69.6715 H   0  0  0  0  0  0
    2.0307   66.9323   69.7562 H   0  0  0  0  0  0
    3.1615   65.3890   69.6526 H   0  0  0  0  0  0
    4.3320   63.5695   70.7441 H   0  0  0  0  0  0
   -0.6271   63.6801   70.8108 H   0  0  0  0  0  0
   -1.4990   61.5521   72.1405 H   0  0  0  0  0  0
   -1.7876   59.4572   73.4039 H   0  0  0  0  0  0
    0.1885   58.1520   74.1285 H   0  0  0  0  0  0
    2.4652   58.9405   73.5978 H   0  0  0  0  0  0
    4.5804   68.6119   61.6470 H   0  0  0  0  0  0
    4.4463   67.3184   62.8021 H   0  0  0  0  0  0
    2.7336   69.6989   60.7685 H   0  0  0  0  0  0
    0.3099   70.1143   60.7434 H   0  0  0  0  0  0
   -1.1191   69.2112   62.5547 H   0  0  0  0  0  0
   -0.1292   67.8957   64.3693 H   0  0  0  0  0  0
    2.3159   67.5641   64.4802 H   0  0  0  0  0  0
  1  2  1  0  0  0
  1 35  1  0  0  0
  1 36  1  0  0  0
  1 37  1  0  0  0
  2  3  1  0  0  0
  2 28  1  0  0  0
  3  4  1  0  0  0
  3 38  1  0  0  0
  3 39  1  0  0  0
  4  5  1  0  0  0
  4 40  1  0  0  0
  4 41  1  0  0  0
  5  6  1  0  0  0
  6  7  1  0  0  0
  6 42  1  0  0  0
  6 43  1  0  0  0
  7  8  1  0  0  0
  7 44  1  0  0  0
  7 45  1  0  0  0
  8  9  1  0  0  0
  8 46  1  0  0  0
  9 10  2  0  0  0
  9 11  1  0  0  0
 11 12  1  0  0  0
 11 47  1  0  0  0
 12 13  2  0  0  0
 12 14  1  0  0  0
 14 19  1  0  0  0
 14 15  2  0  0  0
 15 16  1  0  0  0
 15 48  1  0  0  0
 16 17  2  0  0  0
 16 49  1  0  0  0
 17 26  1  0  0  0
 17 18  1  0  0  0
 18 19  2  0  0  0
 18 20  1  0  0  0
 19 50  1  0  0  0
 20 25  2  0  0  0
 20 21  1  0  0  0
 21 22  2  0  0  0
 21 51  1  0  0  0
 22 23  1  0  0  0
 22 52  1  0  0  0
 23 24  2  0  0  0
 23 53  1  0  0  0
 24 25  1  0  0  0
 24 54  1  0  0  0
 25 26  1  0  0  0
 26 27  2  0  0  0
 28 29  1  0  0  0
 28 55  1  0  0  0
 28 56  1  0  0  0
 29 34  1  0  0  0
 29 30  2  0  0  0
 30 31  1  0  0  0
 30 57  1  0  0  0
 31 32  2  0  0  0
 31 58  1  0  0  0
 32 33  1  0  0  0
 32 59  1  0  0  0
 33 34  2  0  0  0
 33 60  1  0  0  0
 34 61  1  0  0  0
M  END
> <s_m_entry_id>
9650

> <s_m_entry_name>
ligand_docking-pose.92

> <s_m_Source_Path>
/home/csk/Desktop/cluster/DUD-E-result/aces

> <s_m_Source_File>
ligand_docking-pose.sdf

> <i_m_Source_File_Index>
92

> <i_lp_mmshare_version>
53161

> <r_lp_tautomer_probability>
1

> <s_lp_Force_Field>
OPLS_2005

> <r_lp_Energy>
56.137

> <b_lp_Chiralities_Consistent>
1

> <s_lp_Variant>
165292-1

> <s_i_glide_gridfile>
glide-grid_1e66

> <i_i_glide_lignum>
1817

> <i_i_glide_rotatable_bonds>
12

> <r_i_docking_score>
-8.08661009383828

> <r_i_glide_ligand_efficiency>
-0.237841473348185

> <r_i_glide_ligand_efficiency_sa>
-0.7705140429863

> <r_i_glide_ligand_efficiency_ln>
-1.78655899145904

> <r_i_glide_gscore>
-8.08661009383828

> <r_i_glide_lipo>
-4.67824373866251

> <r_i_glide_hbond>
0

> <r_i_glide_metal>
0

> <r_i_glide_rewards>
-1.45310835959702

> <r_i_glide_evdw>
-55.8422966003418

> <r_i_glide_ecoul>
-0.0492239221930504

> <r_i_glide_erotb>
0.901915895624545

> <r_i_glide_esite>
-0.0576754728572509

> <r_i_glide_emodel>
-77.1244250674928

> <r_i_glide_energy>
-55.8915205225348

> <r_i_glide_einternal>
11.195255279541

> <i_i_glide_confnum>
4

> <i_i_glide_posenum>
343

> <r_i_glide_eff_state_penalty>
0

> <i_f3d_flags>
0

> <s_user_duplicate_titles>
165292

> <s_m_subgroup_title>
dock_pv

> <s_m_subgroupid>
dock_pv1

> <b_m_subgroup_collapsed>
1

$$$$
268060
                    3D
 Schrodinger Suite 2021-1.
 56 58  0  0  1  0            999 V2000
    5.1724   70.0573   61.6210 C   0  0  0  0  0  0
    3.8465   69.7049   61.2454 O   0  0  0  0  0  0
    3.0047   69.1986   62.2118 C   0  0  0  0  0  0
    1.6795   68.9929   61.8344 C   0  0  0  0  0  0
    0.7549   68.5079   62.7530 C   0  0  0  0  0  0
    1.1507   68.2125   64.0580 C   0  0  0  0  0  0
    2.4821   68.4064   64.4392 C   0  0  0  0  0  0
    3.4035   68.8995   63.5235 C   0  0  0  0  0  0
    0.1735   67.7092   64.9275 N   0  0  0  0  0  0
    0.0391   67.8346   66.2946 C   0  0  0  0  0  0
    0.8883   68.3232   67.1144 N   0  0  0  0  0  0
    0.5791   68.4752   68.5201 C   0  0  0  0  0  0
    1.5436   67.6828   69.4147 C   0  0  0  0  0  0
    1.4420   66.1264   69.3631 C   0  0  0  0  0  0
    2.5626   65.4062   70.1326 C   0  0  0  0  0  0
    2.4789   63.8771   70.0174 C   0  0  0  0  0  0
    1.2085   63.3786   70.5612 N   0  0  1  0  0  0
    0.0375   64.0382   69.9556 C   0  0  0  0  0  0
    0.1267   65.5870   69.9693 C   0  0  0  0  0  0
    1.1032   61.9197   70.4180 C   0  0  0  0  0  0
    2.0967   61.0964   71.2439 C   0  0  0  0  0  0
    2.4184   59.8054   70.8122 C   0  0  0  0  0  0
    3.2400   58.9873   71.5849 C   0  0  0  0  0  0
    3.7215   59.4529   72.8059 C   0  0  0  0  0  0
    3.3841   60.7256   73.2616 C   0  0  0  0  0  0
    2.5588   61.5400   72.4895 C   0  0  0  0  0  0
   -1.6014   67.2416   66.7681 S   0  0  0  0  0  0
    5.6679   70.5149   60.7728 H   0  0  0  0  0  0
    5.7553   69.1819   61.9110 H   0  0  0  0  0  0
    5.1902   70.7809   62.4374 H   0  0  0  0  0  0
    1.3673   69.2204   60.8253 H   0  0  0  0  0  0
   -0.2701   68.3592   62.4446 H   0  0  0  0  0  0
    2.8167   68.1751   65.4389 H   0  0  0  0  0  0
    4.4208   69.0452   63.8527 H   0  0  0  0  0  0
   -0.5711   67.2053   64.4539 H   0  0  0  0  0  0
    0.6580   69.5349   68.7653 H   0  0  0  0  0  0
   -0.4292   68.1997   68.7638 H   0  0  0  0  0  0
    2.5154   68.0947   69.1681 H   0  0  0  0  0  0
    1.4079   67.9758   70.4487 H   0  0  0  0  0  0
    1.5109   65.8016   68.3305 H   0  0  0  0  0  0
    3.5430   65.7079   69.8037 H   0  0  0  0  0  0
    2.5495   65.7083   71.1681 H   0  0  0  0  0  0
    2.5639   63.5699   68.9736 H   0  0  0  0  0  0
    3.3223   63.4224   70.5377 H   0  0  0  0  0  0
   -0.0727   63.6872   68.9314 H   0  0  0  0  0  0
   -0.8572   63.7059   70.4808 H   0  0  0  0  0  0
    0.0016   65.9436   70.9930 H   0  0  0  0  0  0
   -0.7278   66.0083   69.4410 H   0  0  0  0  0  0
    0.1141   61.6110   70.7587 H   0  0  0  0  0  0
    1.1616   61.6326   69.3663 H   0  0  0  0  0  0
    2.0263   59.4284   69.8789 H   0  0  0  0  0  0
    3.4863   57.9895   71.2524 H   0  0  0  0  0  0
    4.3434   58.8121   73.4139 H   0  0  0  0  0  0
    3.7431   61.0720   74.2196 H   0  0  0  0  0  0
    2.2776   62.5144   72.8608 H   0  0  0  0  0  0
   -1.8400   66.5975   65.6193 H   0  0  0  0  0  0
  1  2  1  0  0  0
  1 28  1  0  0  0
  1 29  1  0  0  0
  1 30  1  0  0  0
  2  3  1  0  0  0
  3  8  1  0  0  0
  3  4  2  0  0  0
  4  5  1  0  0  0
  4 31  1  0  0  0
  5  6  2  0  0  0
  5 32  1  0  0  0
  6  7  1  0  0  0
  6  9  1  0  0  0
  7  8  2  0  0  0
  7 33  1  0  0  0
  8 34  1  0  0  0
  9 10  1  0  0  0
  9 35  1  0  0  0
 10 11  2  0  0  0
 10 27  1  0  0  0
 11 12  1  0  0  0
 12 13  1  0  0  0
 12 36  1  0  0  0
 12 37  1  0  0  0
 13 14  1  0  0  0
 13 38  1  0  0  0
 13 39  1  0  0  0
 14 19  1  0  0  0
 14 15  1  0  0  0
 14 40  1  0  0  0
 15 16  1  0  0  0
 15 41  1  0  0  0
 15 42  1  0  0  0
 16 17  1  0  0  0
 16 43  1  0  0  0
 16 44  1  0  0  0
 17 18  1  0  0  0
 17 20  1  0  0  0
 18 19  1  0  0  0
 18 45  1  0  0  0
 18 46  1  0  0  0
 19 47  1  0  0  0
 19 48  1  0  0  0
 20 21  1  0  0  0
 20 49  1  0  0  0
 20 50  1  0  0  0
 21 26  1  0  0  0
 21 22  2  0  0  0
 22 23  1  0  0  0
 22 51  1  0  0  0
 23 24  2  0  0  0
 23 52  1  0  0  0
 24 25  1  0  0  0
 24 53  1  0  0  0
 25 26  2  0  0  0
 25 54  1  0  0  0
 26 55  1  0  0  0
 27 56  1  0  0  0
M  END
> <s_m_entry_id>
9651

> <s_m_entry_name>
ligand_docking-pose.93

> <s_m_Source_Path>
/home/csk/Desktop/cluster/DUD-E-result/aces

> <s_m_Source_File>
ligand_docking-pose.sdf

> <i_m_Source_File_Index>
93

> <i_lp_mmshare_version>
53161

> <r_lp_tautomer_probability>
1

> <s_lp_Force_Field>
OPLS_2005

> <r_lp_Energy>
28.032204

> <b_lp_Chiralities_Consistent>
1

> <s_lp_Variant>
268060-1

> <s_i_glide_gridfile>
glide-grid_1e66

> <i_i_glide_lignum>
2119

> <i_i_glide_rotatable_bonds>
9

> <r_i_docking_score>
-8.07714713938672

> <r_i_glide_ligand_efficiency>
-0.299153597755064

> <r_i_glide_ligand_efficiency_sa>
-0.897460792279229

> <r_i_glide_ligand_efficiency_ln>
-1.88022669187144

> <r_i_glide_gscore>
-8.07714713938672

> <r_i_glide_lipo>
-3.41460223818446

> <r_i_glide_hbond>
-0.608

> <r_i_glide_metal>
0

> <r_i_glide_rewards>
-2.13090463065771

> <r_i_glide_evdw>
-37.4803161621094

> <r_i_glide_ecoul>
-7.33116149902344

> <r_i_glide_erotb>
1.05679400597813

> <r_i_glide_esite>
-0.00674424356368748

> <r_i_glide_emodel>
-57.7353753905761

> <r_i_glide_energy>
-44.8114776611328

> <r_i_glide_einternal>
10.4100685119629

> <i_i_glide_confnum>
49

> <i_i_glide_posenum>
108

> <r_i_glide_eff_state_penalty>
0

> <i_f3d_flags>
0

> <s_user_duplicate_titles>
268060

> <s_m_subgroup_title>
dock_pv

> <s_m_subgroupid>
dock_pv1

> <b_m_subgroup_collapsed>
1

$$$$
689336
                    3D
 Schrodinger Suite 2021-1.
 50 53  0  0  1  0            999 V2000
    5.8272   69.0116   63.2438 C   0  0  0  0  0  0
    4.3183   69.2757   63.2361 C   0  0  0  0  0  0
    3.5131   68.1697   62.5346 C   0  0  0  0  0  0
    2.1317   68.5084   62.4950 O   0  0  0  0  0  0
    1.3362   68.3650   63.6162 C   0  0  0  0  0  0
    0.0490   68.9080   63.5157 C   0  0  0  0  0  0
   -0.8572   68.8179   64.5713 C   0  0  0  0  0  0
   -0.4847   68.1283   65.7197 C   0  0  0  0  0  0
    0.7750   67.5911   65.8323 C   0  0  0  0  0  0
    1.7148   67.7091   64.8072 C   0  0  0  0  0  0
    0.9386   66.9185   67.0137 O   0  0  0  0  0  0
   -0.2515   66.9535   67.6772 C   0  0  0  0  0  0
   -0.5212   66.2628   68.8040 C   0  0  0  0  0  0
    0.3874   65.3916   69.5677 C   0  0  0  0  0  0
    1.6983   65.7641   69.8735 C   0  0  0  0  0  0
    2.5227   64.8874   70.5836 C   0  0  0  0  0  0
    2.0455   63.6841   70.9977 N   0  3  0  0  0  0
    0.7801   63.2925   70.7059 C   0  0  0  0  0  0
   -0.0568   64.1290   69.9696 C   0  0  0  0  0  0
    2.8808   62.8186   71.8665 C   0  0  0  0  0  0
    2.9446   61.3568   71.4395 C   0  0  0  0  0  0
    2.3408   60.3691   72.2263 C   0  0  0  0  0  0
    2.4048   59.0282   71.8456 C   0  0  0  0  0  0
    3.0729   58.6682   70.6756 C   0  0  0  0  0  0
    3.6761   59.6512   69.8889 C   0  0  0  0  0  0
    3.6097   60.9910   70.2655 C   0  0  0  0  0  0
    4.3412   59.3078   68.7677 F   0  0  0  0  0  0
   -1.2109   67.7699   66.9310 C   0  0  0  0  0  0
   -2.3701   68.0235   67.2617 O   0  0  0  0  0  0
    6.3429   69.8440   63.7188 H   0  0  0  0  0  0
    6.2274   68.9079   62.2335 H   0  0  0  0  0  0
    6.0712   68.1083   63.8017 H   0  0  0  0  0  0
    3.9714   69.4065   64.2619 H   0  0  0  0  0  0
    4.1309   70.2248   62.7320 H   0  0  0  0  0  0
    3.8514   68.0866   61.5006 H   0  0  0  0  0  0
    3.6831   67.1898   62.9856 H   0  0  0  0  0  0
   -0.2425   69.4221   62.6129 H   0  0  0  0  0  0
   -1.8349   69.2722   64.4788 H   0  0  0  0  0  0
    2.6932   67.2733   64.9251 H   0  0  0  0  0  0
   -1.5201   66.3444   69.2095 H   0  0  0  0  0  0
    2.0606   66.7365   69.5705 H   0  0  0  0  0  0
    3.5379   65.1398   70.8614 H   0  0  0  0  0  0
    0.4702   62.3220   71.0692 H   0  0  0  0  0  0
   -1.0519   63.7941   69.7166 H   0  0  0  0  0  0
    3.8919   63.2270   71.8947 H   0  0  0  0  0  0
    2.4559   62.9097   72.8672 H   0  0  0  0  0  0
    1.8271   60.6343   73.1393 H   0  0  0  0  0  0
    1.9380   58.2709   72.4583 H   0  0  0  0  0  0
    3.1219   57.6302   70.3778 H   0  0  0  0  0  0
    4.0808   61.7432   69.6480 H   0  0  0  0  0  0
  1  2  1  0  0  0
  1 30  1  0  0  0
  1 31  1  0  0  0
  1 32  1  0  0  0
  2  3  1  0  0  0
  2 33  1  0  0  0
  2 34  1  0  0  0
  3  4  1  0  0  0
  3 35  1  0  0  0
  3 36  1  0  0  0
  4  5  1  0  0  0
  5 10  1  0  0  0
  5  6  2  0  0  0
  6  7  1  0  0  0
  6 37  1  0  0  0
  7  8  2  0  0  0
  7 38  1  0  0  0
  8 28  1  0  0  0
  8  9  1  0  0  0
  9 10  2  0  0  0
  9 11  1  0  0  0
 10 39  1  0  0  0
 11 12  1  0  0  0
 12 13  2  0  0  0
 12 28  1  0  0  0
 13 14  1  0  0  0
 13 40  1  0  0  0
 14 19  1  0  0  0
 14 15  2  0  0  0
 15 16  1  0  0  0
 15 41  1  0  0  0
 16 17  2  0  0  0
 16 42  1  0  0  0
 17 18  1  0  0  0
 17 20  1  0  0  0
 18 19  2  0  0  0
 18 43  1  0  0  0
 19 44  1  0  0  0
 20 21  1  0  0  0
 20 45  1  0  0  0
 20 46  1  0  0  0
 21 26  1  0  0  0
 21 22  2  0  0  0
 22 23  1  0  0  0
 22 47  1  0  0  0
 23 24  2  0  0  0
 23 48  1  0  0  0
 24 25  1  0  0  0
 24 49  1  0  0  0
 25 26  2  0  0  0
 25 27  1  0  0  0
 26 50  1  0  0  0
 28 29  2  0  0  0
M  CHG  1  17   1
M  END
> <s_m_entry_id>
9653

> <s_m_entry_name>
ligand_docking-pose.95

> <s_m_Source_Path>
/home/csk/Desktop/cluster/DUD-E-result/aces

> <s_m_Source_File>
ligand_docking-pose.sdf

> <i_m_Source_File_Index>
95

> <i_lp_mmshare_version>
53161

> <r_lp_tautomer_probability>
1

> <s_lp_Force_Field>
OPLS_2005

> <r_lp_Energy>
40.857243

> <b_lp_Chiralities_Consistent>
1

> <s_lp_Variant>
689336-1

> <s_i_glide_gridfile>
glide-grid_1e66

> <i_i_glide_lignum>
1174

> <i_i_glide_rotatable_bonds>
6

> <r_i_docking_score>
-8.05844236156672

> <r_i_glide_ligand_efficiency>
-0.277877322812646

> <r_i_glide_ligand_efficiency_sa>
-0.853727173395578

> <r_i_glide_ligand_efficiency_ln>
-1.84517895633181

> <r_i_glide_gscore>
-8.05844236156672

> <r_i_glide_lipo>
-3.48651867618184

> <r_i_glide_hbond>
0

> <r_i_glide_metal>
0

> <r_i_glide_rewards>
-2.51787588863053

> <r_i_glide_evdw>
-43.416389465332

> <r_i_glide_ecoul>
-3.14206194877625

> <r_i_glide_erotb>
0.639767518498798

> <r_i_glide_esite>
-0.0516865496701067

> <r_i_glide_emodel>
-65.8970728975837

> <r_i_glide_energy>
-46.5584514141083

> <r_i_glide_einternal>
7.70845127105713

> <i_i_glide_confnum>
15

> <i_i_glide_posenum>
188

> <r_i_glide_eff_state_penalty>
0

> <i_f3d_flags>
0

> <s_user_duplicate_titles>
689336

> <s_m_subgroup_title>
dock_pv

> <s_m_subgroupid>
dock_pv1

> <b_m_subgroup_collapsed>
1

$$$$
77696
                    3D
 Schrodinger Suite 2021-1.
 73 78  0  0  1  0            999 V2000
   -0.7952   68.5073   64.5892 C   0  0  0  0  0  0
   -1.2122   68.5758   65.9113 C   0  0  0  0  0  0
   -0.2775   68.7501   66.9248 C   0  0  0  0  0  0
    1.0885   68.9057   66.6071 C   0  0  0  0  0  0
    1.5552   68.7478   65.2655 C   0  0  0  0  0  0
    0.5578   68.5085   64.2660 C   0  0  0  0  0  0
    2.9581   68.9860   65.0183 C   0  0  0  0  0  0
    3.7516   69.5105   66.0653 C   0  0  0  0  0  0
    3.1542   69.7085   67.3245 C   0  0  0  0  0  0
    1.8906   69.3278   67.6049 N   0  0  0  0  0  0
    3.8673   70.4322   68.4698 C   0  0  0  0  0  0
    5.3255   70.8504   68.1929 C   0  0  0  0  0  0
    6.0105   69.9312   67.1746 C   0  0  0  0  0  0
    5.2245   69.9207   65.8619 C   0  0  0  0  0  0
    3.6239   68.8586   63.7772 N   0  0  0  0  0  0
    3.4099   67.7847   62.8219 C   0  0  0  0  0  0
    4.0052   66.4369   63.2616 C   0  0  0  0  0  0
    3.2318   65.7625   64.4232 C   0  0  0  0  0  0
    3.3417   64.2221   64.4244 C   0  0  0  0  0  0
    4.1868   63.6006   65.5599 C   0  0  0  0  0  0
    3.5428   63.6194   66.9848 C   0  0  0  0  0  0
    4.2003   63.3079   68.6897 S   0  0  0  0  0  0
    2.8596   62.8436   69.7867 C   0  0  0  0  0  0
    1.9738   63.8339   70.2468 C   0  0  0  0  0  0
    0.9783   63.4322   71.1436 C   0  0  0  0  0  0
    0.9178   62.2088   71.6953 N   0  0  0  0  0  0
    1.7549   61.2452   71.2666 C   0  0  0  0  0  0
    2.7617   61.4655   70.2677 C   0  0  0  0  0  0
    3.5208   60.2912   69.8953 C   0  0  0  0  0  0
    3.2767   59.0546   70.4901 C   0  0  0  0  0  0
    2.3112   58.8938   71.4657 C   0  0  0  0  0  0
    1.5533   59.9780   71.8632 C   0  0  0  0  0  0
    2.0421   57.3408   72.1615 Cl  0  0  0  0  0  0
    4.7424   60.2367   68.6885 Cl  0  0  0  0  0  0
   -0.1830   64.3390   71.4616 C   0  0  0  0  0  0
    0.1326   65.8401   71.3975 C   0  0  0  0  0  0
    0.8203   66.1578   70.0689 C   0  0  0  0  0  0
    2.0965   65.3220   69.8627 C   0  0  0  0  0  0
   -1.5330   68.4101   63.8059 H   0  0  0  0  0  0
   -2.2655   68.5378   66.1479 H   0  0  0  0  0  0
   -0.5999   68.8641   67.9490 H   0  0  0  0  0  0
    0.7933   68.5017   63.2209 H   0  0  0  0  0  0
    3.2912   71.3058   68.7663 H   0  0  0  0  0  0
    3.8408   69.7769   69.3322 H   0  0  0  0  0  0
    5.8824   70.8645   69.1288 H   0  0  0  0  0  0
    5.3492   71.8782   67.8279 H   0  0  0  0  0  0
    6.0610   68.9165   67.5602 H   0  0  0  0  0  0
    7.0393   70.2511   66.9979 H   0  0  0  0  0  0
    5.7374   69.2472   65.1756 H   0  0  0  0  0  0
    5.2623   70.9076   65.4039 H   0  0  0  0  0  0
    4.5840   69.1749   63.7982 H   0  0  0  0  0  0
    2.3637   67.6402   62.6116 H   0  0  0  0  0  0
    3.8315   68.0991   61.8651 H   0  0  0  0  0  0
    3.9993   65.7878   62.3861 H   0  0  0  0  0  0
    5.0567   66.5496   63.5328 H   0  0  0  0  0  0
    3.5424   66.1988   65.3689 H   0  0  0  0  0  0
    2.1731   66.0137   64.3687 H   0  0  0  0  0  0
    2.3466   63.7814   64.3911 H   0  0  0  0  0  0
    3.7828   63.8974   63.4835 H   0  0  0  0  0  0
    4.3617   62.5889   65.1833 H   0  0  0  0  0  0
    5.1456   64.1076   65.5688 H   0  0  0  0  0  0
    3.1430   64.6231   67.0670 H   0  0  0  0  0  0
    2.7439   62.8969   66.9196 H   0  0  0  0  0  0
    3.8365   58.1826   70.1826 H   0  0  0  0  0  0
    0.7819   59.8587   72.6080 H   0  0  0  0  0  0
   -0.6754   64.0695   72.3986 H   0  0  0  0  0  0
   -0.8560   64.0819   70.6481 H   0  0  0  0  0  0
    0.7425   66.1073   72.2468 H   0  0  0  0  0  0
   -0.7571   66.4664   71.5095 H   0  0  0  0  0  0
    1.0590   67.2203   70.0061 H   0  0  0  0  0  0
    0.1279   65.9617   69.2480 H   0  0  0  0  0  0
    2.9225   65.7573   70.4253 H   0  0  0  0  0  0
    2.3431   65.4062   68.8149 H   0  0  0  0  0  0
  1  6  1  0  0  0
  1  2  2  0  0  0
  1 39  1  0  0  0
  2  3  1  0  0  0
  2 40  1  0  0  0
  3  4  2  0  0  0
  3 41  1  0  0  0
  4 10  1  0  0  0
  4  5  1  0  0  0
  5  6  2  0  0  0
  5  7  1  0  0  0
  6 42  1  0  0  0
  7  8  2  0  0  0
  7 15  1  0  0  0
  8 14  1  0  0  0
  8  9  1  0  0  0
  9 10  2  0  0  0
  9 11  1  0  0  0
 11 12  1  0  0  0
 11 43  1  0  0  0
 11 44  1  0  0  0
 12 13  1  0  0  0
 12 45  1  0  0  0
 12 46  1  0  0  0
 13 14  1  0  0  0
 13 47  1  0  0  0
 13 48  1  0  0  0
 14 49  1  0  0  0
 14 50  1  0  0  0
 15 16  1  0  0  0
 15 51  1  0  0  0
 16 17  1  0  0  0
 16 52  1  0  0  0
 16 53  1  0  0  0
 17 18  1  0  0  0
 17 54  1  0  0  0
 17 55  1  0  0  0
 18 19  1  0  0  0
 18 56  1  0  0  0
 18 57  1  0  0  0
 19 20  1  0  0  0
 19 58  1  0  0  0
 19 59  1  0  0  0
 20 21  1  0  0  0
 20 60  1  0  0  0
 20 61  1  0  0  0
 21 22  1  0  0  0
 21 62  1  0  0  0
 21 63  1  0  0  0
 22 23  1  0  0  0
 23 28  1  0  0  0
 23 24  2  0  0  0
 24 38  1  0  0  0
 24 25  1  0  0  0
 25 26  2  0  0  0
 25 35  1  0  0  0
 26 27  1  0  0  0
 27 32  2  0  0  0
 27 28  1  0  0  0
 28 29  2  0  0  0
 29 30  1  0  0  0
 29 34  1  0  0  0
 30 31  2  0  0  0
 30 64  1  0  0  0
 31 32  1  0  0  0
 31 33  1  0  0  0
 32 65  1  0  0  0
 35 36  1  0  0  0
 35 66  1  0  0  0
 35 67  1  0  0  0
 36 37  1  0  0  0
 36 68  1  0  0  0
 36 69  1  0  0  0
 37 38  1  0  0  0
 37 70  1  0  0  0
 37 71  1  0  0  0
 38 72  1  0  0  0
 38 73  1  0  0  0
M  END
> <s_m_entry_id>
9655

> <s_m_entry_name>
ligand_docking-pose.97

> <s_m_Source_Path>
/home/csk/Desktop/cluster/DUD-E-result/aces

> <s_m_Source_File>
ligand_docking-pose.sdf

> <i_m_Source_File_Index>
97

> <i_lp_mmshare_version>
53161

> <r_lp_tautomer_probability>
1

> <s_lp_Force_Field>
OPLS_2005

> <r_lp_Energy>
40.753214

> <b_lp_Chiralities_Consistent>
1

> <s_lp_Variant>
77696-1

> <s_i_glide_gridfile>
glide-grid_1e66

> <i_i_glide_lignum>
188

> <i_i_glide_rotatable_bonds>
9

> <r_i_docking_score>
-8.03642093704646

> <r_i_glide_ligand_efficiency>
-0.211484761501223

> <r_i_glide_ligand_efficiency_sa>
-0.711006566217739

> <r_i_glide_ligand_efficiency_ln>
-1.7328887615795

> <r_i_glide_gscore>
-8.03642093704646

> <r_i_glide_lipo>
-6.00162013570869

> <r_i_glide_hbond>
0

> <r_i_glide_metal>
0

> <r_i_glide_rewards>
-0.9

> <r_i_glide_evdw>
-40.1574859619141

> <r_i_glide_ecoul>
3.33608245849609

> <r_i_glide_erotb>
0.372661127983519

> <r_i_glide_esite>
0

> <r_i_glide_emodel>
-67.1720670647789

> <r_i_glide_energy>
-36.821403503418

> <r_i_glide_einternal>
11.4543752670288

> <i_i_glide_confnum>
29

> <i_i_glide_posenum>
3

> <r_i_glide_eff_state_penalty>
0

> <i_f3d_flags>
0

> <s_user_duplicate_titles>
77696

> <s_m_subgroup_title>
dock_pv

> <s_m_subgroupid>
dock_pv1

> <b_m_subgroup_collapsed>
1

$$$$
630920
                    3D
 Schrodinger Suite 2021-1.
 47 50  0  0  1  0            999 V2000
    3.3423   62.4251   69.4950 C   0  0  0  0  0  0
    3.8735   63.6504   69.8907 C   0  0  0  0  0  0
    3.0254   64.6453   70.3691 C   0  0  0  0  0  0
    1.6474   64.4183   70.4551 C   0  0  0  0  0  0
    1.1231   63.1898   70.0396 C   0  0  0  0  0  0
    1.9713   62.1895   69.5696 C   0  0  0  0  0  0
    0.6991   65.5164   70.9538 C   0  0  0  0  0  0
    0.3123   66.5399   69.9694 N   0  0  1  0  0  0
    1.3687   67.5407   69.7242 C   0  0  0  0  0  0
    1.0851   68.4920   68.5354 C   0  0  0  0  0  0
    0.6314   67.7450   67.2840 C   0  0  0  0  0  0
   -0.6635   67.0206   67.6776 C   0  0  0  0  0  0
   -0.3745   66.0001   68.7903 C   0  0  0  0  0  0
    0.4230   68.7369   66.1350 C   0  0  0  0  0  0
    0.3427   68.1082   64.8307 N   0  0  0  0  0  0
    1.1727   68.3968   63.7857 C   0  0  0  0  0  0
    2.5849   68.6047   63.8758 C   0  0  0  0  0  0
    3.4932   68.5556   64.9542 C   0  0  0  0  0  0
    4.8420   68.8299   64.7308 C   0  0  0  0  0  0
    5.3095   69.1360   63.4575 C   0  0  0  0  0  0
    4.4497   69.1769   62.3661 C   0  0  0  0  0  0
    3.0923   68.9114   62.5898 C   0  0  0  0  0  0
    1.7853   68.9105   61.4306 S   0  0  0  0  0  0
    0.6142   68.5077   62.6145 N   0  0  0  0  0  0
    3.9989   61.6502   69.1285 H   0  0  0  0  0  0
    4.9372   63.8299   69.8316 H   0  0  0  0  0  0
    3.4474   65.5858   70.6921 H   0  0  0  0  0  0
    0.0589   63.0077   70.0830 H   0  0  0  0  0  0
    1.5639   61.2390   69.2596 H   0  0  0  0  0  0
    1.1415   66.0107   71.8123 H   0  0  0  0  0  0
   -0.2088   65.0405   71.3208 H   0  0  0  0  0  0
    2.3055   67.0263   69.5444 H   0  0  0  0  0  0
    1.5438   68.1067   70.6355 H   0  0  0  0  0  0
    1.9835   69.0738   68.3252 H   0  0  0  0  0  0
    0.3474   69.2580   68.7682 H   0  0  0  0  0  0
    1.3937   67.0097   67.0167 H   0  0  0  0  0  0
   -1.4470   67.7211   67.9684 H   0  0  0  0  0  0
   -1.0894   66.5126   66.8111 H   0  0  0  0  0  0
    0.3279   65.3079   68.3691 H   0  0  0  0  0  0
   -1.2568   65.4351   69.0807 H   0  0  0  0  0  0
    1.2349   69.4638   66.1440 H   0  0  0  0  0  0
   -0.4758   69.3325   66.3021 H   0  0  0  0  0  0
   -0.5002   67.5671   64.6821 H   0  0  0  0  0  0
    3.1630   68.3151   65.9528 H   0  0  0  0  0  0
    5.5355   68.8054   65.5584 H   0  0  0  0  0  0
    6.3576   69.3451   63.3109 H   0  0  0  0  0  0
    4.8245   69.4080   61.3786 H   0  0  0  0  0  0
  1  6  1  0  0  0
  1  2  2  0  0  0
  1 25  1  0  0  0
  2  3  1  0  0  0
  2 26  1  0  0  0
  3  4  2  0  0  0
  3 27  1  0  0  0
  4  5  1  0  0  0
  4  7  1  0  0  0
  5  6  2  0  0  0
  5 28  1  0  0  0
  6 29  1  0  0  0
  7  8  1  0  0  0
  7 30  1  0  0  0
  7 31  1  0  0  0
  8 13  1  0  0  0
  8  9  1  0  0  0
  9 10  1  0  0  0
  9 32  1  0  0  0
  9 33  1  0  0  0
 10 11  1  0  0  0
 10 34  1  0  0  0
 10 35  1  0  0  0
 11 12  1  0  0  0
 11 14  1  0  0  0
 11 36  1  0  0  0
 12 13  1  0  0  0
 12 37  1  0  0  0
 12 38  1  0  0  0
 13 39  1  0  0  0
 13 40  1  0  0  0
 14 15  1  0  0  0
 14 41  1  0  0  0
 14 42  1  0  0  0
 15 16  1  0  0  0
 15 43  1  0  0  0
 16 24  2  0  0  0
 16 17  1  0  0  0
 17 22  2  0  0  0
 17 18  1  0  0  0
 18 19  2  0  0  0
 18 44  1  0  0  0
 19 20  1  0  0  0
 19 45  1  0  0  0
 20 21  2  0  0  0
 20 46  1  0  0  0
 21 22  1  0  0  0
 21 47  1  0  0  0
 22 23  1  0  0  0
 23 24  1  0  0  0
M  END
> <s_m_entry_id>
9657

> <s_m_entry_name>
ligand_docking-pose.99

> <s_m_Source_Path>
/home/csk/Desktop/cluster/DUD-E-result/aces

> <s_m_Source_File>
ligand_docking-pose.sdf

> <i_m_Source_File_Index>
99

> <i_lp_mmshare_version>
53161

> <r_lp_tautomer_probability>
1

> <s_lp_Force_Field>
OPLS_2005

> <r_lp_Energy>
23.091309

> <b_lp_Chiralities_Consistent>
1

> <s_lp_Variant>
630920-1

> <s_i_glide_gridfile>
glide-grid_1e66

> <i_i_glide_lignum>
462

> <i_i_glide_rotatable_bonds>
5

> <r_i_docking_score>
-8.03371620269621

> <r_i_glide_ligand_efficiency>
-0.334738175112342

> <r_i_glide_ligand_efficiency_sa>
-0.965551977419664

> <r_i_glide_ligand_efficiency_ln>
-1.92283693052063

> <r_i_glide_gscore>
-8.03371620269621

> <r_i_glide_lipo>
-4.2862423976525

> <r_i_glide_hbond>
-0.195110739873516

> <r_i_glide_metal>
0

> <r_i_glide_rewards>
-1.89612269638014

> <r_i_glide_evdw>
-39.9316558837891

> <r_i_glide_ecoul>
-3.26241636276245

> <r_i_glide_erotb>
0.829704879813769

> <r_i_glide_esite>
0

> <r_i_glide_emodel>
-57.4995853815048

> <r_i_glide_energy>
-43.1940722465515

> <r_i_glide_einternal>
8.64044761657715

> <i_i_glide_confnum>
96

> <i_i_glide_posenum>
248

> <r_i_glide_eff_state_penalty>
0

> <i_f3d_flags>
0

> <s_user_duplicate_titles>
630920

> <s_m_subgroup_title>
dock_pv

> <s_m_subgroupid>
dock_pv1

> <b_m_subgroup_collapsed>
1

$$$$
179923
                    3D
 Schrodinger Suite 2021-1.
 32 34  0  0  1  0            999 V2000
    3.3794   70.5078   68.8382 C   0  0  0  0  0  0
    2.4115   69.8994   68.0529 C   0  0  0  0  0  0
    2.7382   69.4312   66.7588 C   0  0  0  0  0  0
    4.0669   69.5502   66.2479 C   0  0  0  0  0  0
    5.0575   70.1081   67.1328 C   0  0  0  0  0  0
    4.6849   70.6080   68.3801 C   0  0  0  0  0  0
    6.7444   70.1693   66.7689 Cl  0  0  0  0  0  0
    4.2825   69.1003   64.8943 C   0  0  0  0  0  0
    3.2013   68.6128   64.1260 C   0  0  0  0  0  0
    1.9400   68.5508   64.7471 C   0  0  0  0  0  0
    1.7297   68.9022   66.0349 N   0  0  0  0  0  0
    0.6614   68.1080   64.0362 C   0  0  0  0  0  0
    0.2244   68.9970   62.8615 C   0  0  0  0  0  0
    1.0185   68.8100   61.5682 C   0  0  0  0  0  0
    2.5326   69.0576   61.6397 C   0  0  0  0  0  0
    3.3372   68.2119   62.6442 C   0  0  0  0  0  0
    5.5430   69.1682   64.2901 N   0  0  0  0  0  0
    3.1194   70.8730   69.8220 H   0  0  0  0  0  0
    1.3982   69.8062   68.4207 H   0  0  0  0  0  0
    5.4345   71.0414   69.0254 H   0  0  0  0  0  0
    0.7521   67.0718   63.7189 H   0  0  0  0  0  0
   -0.1636   68.0859   64.7527 H   0  0  0  0  0  0
    0.2436   70.0434   63.1667 H   0  0  0  0  0  0
   -0.8243   68.7826   62.6465 H   0  0  0  0  0  0
    0.5955   69.4608   60.8007 H   0  0  0  0  0  0
    0.8411   67.7985   61.2107 H   0  0  0  0  0  0
    2.7212   70.1078   61.8430 H   0  0  0  0  0  0
    2.9410   68.8825   60.6433 H   0  0  0  0  0  0
    4.3748   68.2846   62.3232 H   0  0  0  0  0  0
    3.1429   67.1485   62.5352 H   0  0  0  0  0  0
    5.6264   68.9751   63.3036 H   0  0  0  0  0  0
    6.2809   69.6718   64.7699 H   0  0  0  0  0  0
  1  6  1  0  0  0
  1  2  2  0  0  0
  1 18  1  0  0  0
  2  3  1  0  0  0
  2 19  1  0  0  0
  3 11  2  0  0  0
  3  4  1  0  0  0
  4  5  1  0  0  0
  4  8  2  0  0  0
  5  6  2  0  0  0
  5  7  1  0  0  0
  6 20  1  0  0  0
  8  9  1  0  0  0
  8 17  1  0  0  0
  9 16  1  0  0  0
  9 10  2  0  0  0
 10 11  1  0  0  0
 10 12  1  0  0  0
 12 13  1  0  0  0
 12 21  1  0  0  0
 12 22  1  0  0  0
 13 14  1  0  0  0
 13 23  1  0  0  0
 13 24  1  0  0  0
 14 15  1  0  0  0
 14 25  1  0  0  0
 14 26  1  0  0  0
 15 16  1  0  0  0
 15 27  1  0  0  0
 15 28  1  0  0  0
 16 29  1  0  0  0
 16 30  1  0  0  0
 17 31  1  0  0  0
 17 32  1  0  0  0
M  END
> <s_m_entry_id>
9658

> <s_m_entry_name>
ligand_docking-pose.100

> <s_m_Source_Path>
/home/csk/Desktop/cluster/DUD-E-result/aces

> <s_m_Source_File>
ligand_docking-pose.sdf

> <i_m_Source_File_Index>
100

> <i_lp_mmshare_version>
53161

> <r_lp_tautomer_probability>
1

> <s_lp_Force_Field>
OPLS_2005

> <r_lp_Energy>
27.621406

> <b_lp_Chiralities_Consistent>
1

> <s_lp_Variant>
179923-1

> <s_i_glide_gridfile>
glide-grid_1e66

> <i_i_glide_lignum>
16

> <i_i_glide_rotatable_bonds>
0

> <r_i_docking_score>
-8.00819360631512

> <r_i_glide_ligand_efficiency>
-0.471070212136184

> <r_i_glide_ligand_efficiency_sa>
-1.21125416322932

> <r_i_glide_ligand_efficiency_ln>
-2.08915937818401

> <r_i_glide_gscore>
-8.00819360631512

> <r_i_glide_lipo>
-3.84070025749725

> <r_i_glide_hbond>
-0.0302495129568417

> <r_i_glide_metal>
0

> <r_i_glide_rewards>
-2.32680681818182

> <r_i_glide_evdw>
-32.8095092773438

> <r_i_glide_ecoul>
-1.13307702541351

> <r_i_glide_erotb>
0

> <r_i_glide_esite>
0

> <r_i_glide_emodel>
-49.0626407805585

> <r_i_glide_energy>
-33.9425863027573

> <r_i_glide_einternal>
0

> <i_i_glide_confnum>
1

> <i_i_glide_posenum>
376

> <r_i_glide_eff_state_penalty>
0

> <i_f3d_flags>
0

> <s_user_duplicate_titles>
179923

> <s_m_subgroup_title>
dock_pv

> <s_m_subgroupid>
dock_pv1

> <b_m_subgroup_collapsed>
1

$$$$
395594
                    3D
 Schrodinger Suite 2021-1.
 48 50  0  0  1  0            999 V2000
    3.4272   64.5060   64.7505 C   0  0  0  0  0  0
    2.7431   65.6814   65.1688 O   0  0  0  0  0  0
    2.9939   66.8716   64.5722 C   0  0  0  0  0  0
    3.7905   67.0046   63.6371 O   0  0  0  0  0  0
    2.1172   68.0229   65.0768 C   0  0  2  0  0  0
    2.7698   69.4054   64.8879 C   0  0  0  0  0  0
    4.1362   69.6597   65.4446 C   0  0  0  0  0  0
    5.2778   69.4772   64.7533 C   0  0  0  0  0  0
    6.3424   69.7563   65.5679 N   0  0  0  0  0  0
    5.9563   70.1474   66.8243 C   0  0  0  0  0  0
    4.5333   70.1078   66.7830 C   0  0  0  0  0  0
    3.8520   70.4914   67.9664 C   0  0  0  0  0  0
    4.5537   70.9081   69.1138 C   0  0  0  0  0  0
    5.9643   70.9091   69.1163 C   0  0  0  0  0  0
    6.6712   70.5245   67.9671 C   0  0  0  0  0  0
    1.8242   67.9113   66.5108 N   0  0  0  0  0  0
    0.7171   67.4235   67.0922 C   0  0  0  0  0  0
   -0.1959   66.9088   66.4540 O   0  0  0  0  0  0
    0.6141   67.5957   68.6168 C   0  0  0  0  0  0
    0.0166   66.4385   69.2222 O   0  0  0  0  0  0
    0.8005   65.4278   69.7544 C   0  0  0  0  0  0
    2.1575   65.5533   70.0812 C   0  0  0  0  0  0
    2.8725   64.4702   70.5847 C   0  0  0  0  0  0
    2.2399   63.2391   70.7674 C   0  0  0  0  0  0
    0.8821   63.1066   70.4596 C   0  0  0  0  0  0
    0.1737   64.1998   69.9700 C   0  0  0  0  0  0
    3.0275   62.0853   71.2712 C   0  0  0  0  0  0
    2.5849   60.9459   71.4138 O   0  0  0  0  0  0
    7.2997   69.7090   65.2177 H   0  0  0  0  0  0
    3.1774   63.6764   65.4101 H   0  0  0  0  0  0
    3.1455   64.2273   63.7340 H   0  0  0  0  0  0
    4.5094   64.6436   64.7730 H   0  0  0  0  0  0
    1.1820   68.0151   64.5116 H   0  0  0  0  0  0
    2.7443   69.7080   63.8401 H   0  0  0  0  0  0
    2.1543   70.1016   65.4290 H   0  0  0  0  0  0
    5.3322   69.1594   63.7220 H   0  0  0  0  0  0
    2.7723   70.4873   67.9836 H   0  0  0  0  0  0
    4.0017   71.1889   69.9989 H   0  0  0  0  0  0
    6.5119   71.1944   70.0003 H   0  0  0  0  0  0
    7.7482   70.5084   67.9635 H   0  0  0  0  0  0
    2.5041   68.3686   67.1011 H   0  0  0  0  0  0
   -0.0542   68.4378   68.7678 H   0  0  0  0  0  0
    1.5462   67.9286   69.0680 H   0  0  0  0  0  0
    2.6893   66.4821   69.9695 H   0  0  0  0  0  0
    3.9183   64.6074   70.8254 H   0  0  0  0  0  0
    0.3698   62.1626   70.5893 H   0  0  0  0  0  0
   -0.8663   64.0846   69.7094 H   0  0  0  0  0  0
    4.0661   62.3126   71.5153 H   0  0  0  0  0  0
  1  2  1  0  0  0
  1 30  1  0  0  0
  1 31  1  0  0  0
  1 32  1  0  0  0
  2  3  1  0  0  0
  3  4  2  0  0  0
  3  5  1  0  0  0
  5  6  1  0  0  0
  5 16  1  0  0  0
  5 33  1  0  0  0
  6  7  1  0  0  0
  6 34  1  0  0  0
  6 35  1  0  0  0
  7 11  1  0  0  0
  7  8  2  0  0  0
  8  9  1  0  0  0
  8 36  1  0  0  0
  9 29  1  0  0  0
  9 10  1  0  0  0
 10 15  1  0  0  0
 10 11  2  0  0  0
 11 12  1  0  0  0
 12 13  2  0  0  0
 12 37  1  0  0  0
 13 14  1  0  0  0
 13 38  1  0  0  0
 14 15  2  0  0  0
 14 39  1  0  0  0
 15 40  1  0  0  0
 16 17  1  0  0  0
 16 41  1  0  0  0
 17 18  2  0  0  0
 17 19  1  0  0  0
 19 20  1  0  0  0
 19 42  1  0  0  0
 19 43  1  0  0  0
 20 21  1  0  0  0
 21 26  1  0  0  0
 21 22  2  0  0  0
 22 23  1  0  0  0
 22 44  1  0  0  0
 23 24  2  0  0  0
 23 45  1  0  0  0
 24 25  1  0  0  0
 24 27  1  0  0  0
 25 26  2  0  0  0
 25 46  1  0  0  0
 26 47  1  0  0  0
 27 28  2  0  0  0
 27 48  1  0  0  0
M  END
> <s_m_entry_id>
9661

> <s_m_entry_name>
ligand_docking-pose.103

> <s_m_Source_Path>
/home/csk/Desktop/cluster/DUD-E-result/aces

> <s_m_Source_File>
ligand_docking-pose.sdf

> <i_m_Source_File_Index>
103

> <i_lp_mmshare_version>
53161

> <r_lp_tautomer_probability>
1

> <s_lp_Force_Field>
OPLS_2005

> <r_lp_Energy>
10.313325

> <b_lp_Chiralities_Consistent>
1

> <s_lp_Variant>
395594-1

> <s_i_glide_gridfile>
glide-grid_1e66

> <i_i_glide_lignum>
2153

> <i_i_glide_rotatable_bonds>
10

> <r_i_docking_score>
-7.98837106680936

> <r_i_glide_ligand_efficiency>
-0.285298966671763

> <r_i_glide_ligand_efficiency_sa>
-0.866335694920728

> <r_i_glide_ligand_efficiency_ln>
-1.8439505909859

> <r_i_glide_gscore>
-7.98837106680936

> <r_i_glide_lipo>
-3.56393733018206

> <r_i_glide_hbond>
-0.32

> <r_i_glide_metal>
0

> <r_i_glide_rewards>
-3.02916395108576

> <r_i_glide_evdw>
-36.6643486022949

> <r_i_glide_ecoul>
-1.09676134586334

> <r_i_glide_erotb>
0.938497448578172

> <r_i_glide_esite>
-0.0160356021254572

> <r_i_glide_emodel>
-49.4546459156584

> <r_i_glide_energy>
-37.7611099481583

> <r_i_glide_einternal>
6.34904336929321

> <i_i_glide_confnum>
46

> <i_i_glide_posenum>
44

> <r_i_glide_eff_state_penalty>
0

> <i_f3d_flags>
0

> <s_user_duplicate_titles>
395594

> <s_m_subgroup_title>
dock_pv

> <s_m_subgroupid>
dock_pv1

> <b_m_subgroup_collapsed>
1

$$$$
55379
                    3D
 Schrodinger Suite 2021-1.
 39 42  0  0  1  0            999 V2000
    4.5744   64.8878   63.5872 C   0  0  0  0  0  0
    4.3394   66.3857   63.5447 C   0  0  0  0  0  0
    5.0412   67.1836   62.7138 C   0  0  0  0  0  0
    4.8363   68.6874   62.5887 C   0  0  2  0  0  0
    5.7859   69.4265   63.5603 C   0  0  0  0  0  0
    5.2066   69.6138   64.9696 C   0  0  0  0  0  0
    3.9400   69.2283   65.3128 C   0  0  0  0  0  0
    3.5427   69.5558   66.6865 C   0  0  0  0  0  0
    4.4032   70.1626   67.5350 C   0  0  0  0  0  0
    5.7692   70.4862   67.1635 C   0  0  0  0  0  0
    6.0590   70.2255   65.8626 N   0  0  0  0  0  0
    6.6132   70.9100   67.9474 O   0  0  0  0  0  0
    3.0138   68.4882   64.3175 C   0  0  2  0  0  0
    3.2684   66.9480   64.4863 C   0  0  0  0  0  0
    3.3617   69.0256   62.8916 C   0  0  2  0  0  0
    2.3712   68.5770   61.7992 C   0  0  0  0  0  0
    0.9277   68.8743   62.2240 C   0  0  0  0  0  0
    0.6154   68.3318   63.6319 C   0  0  0  0  0  0
    1.6077   68.7867   64.6124 N   0  0  2  0  0  0
    3.6334   64.3495   63.4811 H   0  0  0  0  0  0
    5.2350   64.5715   62.7781 H   0  0  0  0  0  0
    5.0351   64.6015   64.5315 H   0  0  0  0  0  0
    5.7947   66.7411   62.0787 H   0  0  0  0  0  0
    5.0788   68.9802   61.5680 H   0  0  0  0  0  0
    6.7429   68.9076   63.6149 H   0  0  0  0  0  0
    6.0391   70.4139   63.1713 H   0  0  0  0  0  0
    2.5437   69.3240   67.0276 H   0  0  0  0  0  0
    4.0906   70.4023   68.5397 H   0  0  0  0  0  0
    6.9998   70.4635   65.5858 H   0  0  0  0  0  0
    2.3627   66.3581   64.3676 H   0  0  0  0  0  0
    3.5426   66.7168   65.5147 H   0  0  0  0  0  0
    3.2677   70.1081   62.9279 H   0  0  0  0  0  0
    2.6117   69.0371   60.8396 H   0  0  0  0  0  0
    2.4912   67.5125   61.6382 H   0  0  0  0  0  0
    0.7092   69.9425   62.1779 H   0  0  0  0  0  0
    0.2450   68.4147   61.5085 H   0  0  0  0  0  0
   -0.3625   68.6933   63.9538 H   0  0  0  0  0  0
    0.5447   67.2450   63.6266 H   0  0  0  0  0  0
    1.5587   69.7938   64.6311 H   0  0  0  0  0  0
  1  2  1  0  0  0
  1 20  1  0  0  0
  1 21  1  0  0  0
  1 22  1  0  0  0
  2 14  1  0  0  0
  2  3  2  0  0  0
  3  4  1  0  0  0
  3 23  1  0  0  0
  4 15  1  0  0  0
  4  5  1  0  0  0
  4 24  1  0  0  0
  5 25  1  0  0  0
  5 26  1  0  0  0
  5  6  1  0  0  0
  6 11  1  0  0  0
  6  7  2  0  0  0
  7 13  1  0  0  0
  7  8  1  0  0  0
  8 27  1  0  0  0
  8  9  2  0  0  0
  9 10  1  0  0  0
  9 28  1  0  0  0
 10 12  2  0  0  0
 10 11  1  0  0  0
 11 29  1  0  0  0
 13 19  1  0  0  0
 13 14  1  0  0  0
 13 15  1  0  0  0
 14 30  1  0  0  0
 14 31  1  0  0  0
 15 16  1  0  0  0
 15 32  1  0  0  0
 16 17  1  0  0  0
 16 33  1  0  0  0
 16 34  1  0  0  0
 17 18  1  0  0  0
 17 35  1  0  0  0
 17 36  1  0  0  0
 18 19  1  0  0  0
 18 37  1  0  0  0
 18 38  1  0  0  0
 19 39  1  0  0  0
M  END
> <s_m_entry_id>
9667

> <s_m_entry_name>
ligand_docking-pose.109

> <s_m_Source_Path>
/home/csk/Desktop/cluster/DUD-E-result/aces

> <s_m_Source_File>
ligand_docking-pose.sdf

> <i_m_Source_File_Index>
109

> <i_lp_mmshare_version>
53161

> <r_lp_tautomer_probability>
0.999

> <s_lp_Force_Field>
OPLS_2005

> <r_lp_Energy>
41.709536

> <b_lp_Chiralities_Consistent>
1

> <s_lp_Variant>
55379-3

> <s_i_glide_gridfile>
glide-grid_1e66

> <i_i_glide_lignum>
630

> <i_i_glide_rotatable_bonds>
0

> <r_i_docking_score>
-7.92435137640646

> <r_i_glide_ligand_efficiency>
-0.417071125074024

> <r_i_glide_ligand_efficiency_sa>
-1.11291327668954

> <r_i_glide_ligand_efficiency_ln>
-2.00899327338081

> <r_i_glide_gscore>
-7.92435137640646

> <r_i_glide_lipo>
-3.20457826893158

> <r_i_glide_hbond>
-0.171090618188691

> <r_i_glide_metal>
0

> <r_i_glide_rewards>
-2.76016192067695

> <r_i_glide_evdw>
-31.342830657959

> <r_i_glide_ecoul>
-1.47586023807526

> <r_i_glide_erotb>
0

> <r_i_glide_esite>
0

> <r_i_glide_emodel>
-44.7409622435

> <r_i_glide_energy>
-32.8186908960342

> <r_i_glide_einternal>
0

> <i_i_glide_confnum>
1

> <i_i_glide_posenum>
243

> <r_i_glide_eff_state_penalty>
0

> <i_f3d_flags>
0

> <s_user_duplicate_titles>
55379

> <s_m_subgroup_title>
dock_pv

> <s_m_subgroupid>
dock_pv1

> <b_m_subgroup_collapsed>
1

$$$$
175496
                    3D
 Schrodinger Suite 2021-1.
 57 59  0  0  1  0            999 V2000
   -0.5760   65.8881   72.7871 C   0  0  0  0  0  0
   -0.0541   64.7011   71.9626 C   0  0  0  0  0  0
    0.7889   65.1513   70.8441 N   0  0  2  0  0  0
    0.1397   65.2316   69.5289 C   0  0  0  0  0  0
   -0.6796   66.5080   69.3189 C   0  0  0  0  0  0
   -1.1422   66.7312   67.8605 C   0  0  0  0  0  0
   -1.5291   68.1932   67.5415 C   0  0  0  0  0  0
   -1.5240   68.5381   66.0313 C   0  0  0  0  0  0
   -0.2289   68.5001   65.3058 N   0  0  0  0  0  0
   -0.1996   68.5080   63.9412 C   0  0  0  0  0  0
   -1.1584   68.5080   63.1688 O   0  0  0  0  0  0
    1.2390   68.5101   63.5746 C   0  0  0  0  0  0
    1.8767   68.5288   62.3341 C   0  0  0  0  0  0
    3.2773   68.5359   62.3011 C   0  0  0  0  0  0
    4.0261   68.5279   63.4966 C   0  0  0  0  0  0
    3.3475   68.5188   64.7253 C   0  0  0  0  0  0
    1.9591   68.5067   64.7321 C   0  0  0  0  0  0
    1.0161   68.5079   65.8689 C   0  0  0  0  0  0
    1.3290   68.5250   67.0587 O   0  0  0  0  0  0
    5.5039   68.5253   63.4768 N   0  3  0  0  0  0
    6.0732   68.5083   62.3937 O   0  5  0  0  0  0
    6.0942   68.5081   64.5526 O   0  0  0  0  0  0
    2.0468   64.4024   70.7756 C   0  0  0  0  0  0
    1.9020   62.9169   70.3456 C   0  0  0  0  0  0
    3.0792   62.0180   70.7217 C   0  0  0  0  0  0
    2.9126   60.6294   70.6653 C   0  0  0  0  0  0
    3.9417   59.7830   71.0742 C   0  0  0  0  0  0
    5.1323   60.3318   71.5454 C   0  0  0  0  0  0
    5.3110   61.7049   71.5876 C   0  0  0  0  0  0
    4.2999   62.5505   71.1552 C   0  0  0  0  0  0
   -1.0848   65.5534   73.6889 H   0  0  0  0  0  0
    0.2444   66.5076   73.1350 H   0  0  0  0  0  0
   -1.2560   66.5300   72.2316 H   0  0  0  0  0  0
   -0.8568   64.0502   71.6172 H   0  0  0  0  0  0
    0.5264   64.0789   72.6466 H   0  0  0  0  0  0
   -0.4495   64.3391   69.3116 H   0  0  0  0  0  0
    0.9173   65.2702   68.7681 H   0  0  0  0  0  0
   -0.0566   67.3419   69.6421 H   0  0  0  0  0  0
   -1.5628   66.5081   69.9468 H   0  0  0  0  0  0
   -2.0040   66.1080   67.6337 H   0  0  0  0  0  0
   -0.3537   66.4008   67.1840 H   0  0  0  0  0  0
   -0.8773   68.9049   68.0465 H   0  0  0  0  0  0
   -2.5229   68.3822   67.9523 H   0  0  0  0  0  0
   -1.9603   69.5297   65.8969 H   0  0  0  0  0  0
   -2.1989   67.8375   65.5380 H   0  0  0  0  0  0
    1.3109   68.5364   61.4126 H   0  0  0  0  0  0
    3.7808   68.5485   61.3434 H   0  0  0  0  0  0
    3.8910   68.5235   65.6614 H   0  0  0  0  0  0
    2.7050   64.9210   70.0764 H   0  0  0  0  0  0
    2.5355   64.4899   71.7455 H   0  0  0  0  0  0
    1.0151   62.4877   70.8131 H   0  0  0  0  0  0
    1.7474   62.8540   69.2680 H   0  0  0  0  0  0
    1.9765   60.2060   70.3293 H   0  0  0  0  0  0
    3.8053   58.7113   71.0517 H   0  0  0  0  0  0
    5.9378   59.7080   71.8973 H   0  0  0  0  0  0
    6.2353   62.1070   71.9683 H   0  0  0  0  0  0
    4.4756   63.6151   71.1861 H   0  0  0  0  0  0
  1  2  1  0  0  0
  1 31  1  0  0  0
  1 32  1  0  0  0
  1 33  1  0  0  0
  2  3  1  0  0  0
  2 34  1  0  0  0
  2 35  1  0  0  0
  3  4  1  0  0  0
  3 23  1  0  0  0
  4  5  1  0  0  0
  4 36  1  0  0  0
  4 37  1  0  0  0
  5  6  1  0  0  0
  5 38  1  0  0  0
  5 39  1  0  0  0
  6  7  1  0  0  0
  6 40  1  0  0  0
  6 41  1  0  0  0
  7  8  1  0  0  0
  7 42  1  0  0  0
  7 43  1  0  0  0
  8  9  1  0  0  0
  8 44  1  0  0  0
  8 45  1  0  0  0
  9 18  1  0  0  0
  9 10  1  0  0  0
 10 11  2  0  0  0
 10 12  1  0  0  0
 12 17  2  0  0  0
 12 13  1  0  0  0
 13 14  2  0  0  0
 13 46  1  0  0  0
 14 15  1  0  0  0
 14 47  1  0  0  0
 15 16  2  0  0  0
 15 20  1  0  0  0
 16 17  1  0  0  0
 16 48  1  0  0  0
 17 18  1  0  0  0
 18 19  2  0  0  0
 20 21  1  0  0  0
 20 22  2  0  0  0
 23 24  1  0  0  0
 23 49  1  0  0  0
 23 50  1  0  0  0
 24 25  1  0  0  0
 24 51  1  0  0  0
 24 52  1  0  0  0
 25 30  1  0  0  0
 25 26  2  0  0  0
 26 27  1  0  0  0
 26 53  1  0  0  0
 27 28  2  0  0  0
 27 54  1  0  0  0
 28 29  1  0  0  0
 28 55  1  0  0  0
 29 30  2  0  0  0
 29 56  1  0  0  0
 30 57  1  0  0  0
M  CHG  2  20   1  21  -1
M  END
> <s_m_entry_id>
9669

> <s_m_entry_name>
ligand_docking-pose.111

> <s_m_Source_Path>
/home/csk/Desktop/cluster/DUD-E-result/aces

> <s_m_Source_File>
ligand_docking-pose.sdf

> <i_m_Source_File_Index>
111

> <i_lp_mmshare_version>
53161

> <r_lp_tautomer_probability>
1

> <s_lp_Force_Field>
OPLS_2005

> <r_lp_Energy>
45.792831

> <b_lp_Chiralities_Consistent>
1

> <s_lp_Variant>
175496-1

> <s_i_glide_gridfile>
glide-grid_1e66

> <i_i_glide_lignum>
1331

> <i_i_glide_rotatable_bonds>
11

> <r_i_docking_score>
-7.91867545435911

> <r_i_glide_ligand_efficiency>
-0.263955848478637

> <r_i_glide_ligand_efficiency_sa>
-0.820172191599597

> <r_i_glide_ligand_efficiency_ln>
-1.79920934411002

> <r_i_glide_gscore>
-7.91867545435911

> <r_i_glide_lipo>
-4.18909169351789

> <r_i_glide_hbond>
0

> <r_i_glide_metal>
0

> <r_i_glide_rewards>
-2.22643351672005

> <r_i_glide_evdw>
-49.3335189819336

> <r_i_glide_ecoul>
0.954688370227814

> <r_i_glide_erotb>
0.939506346828426

> <r_i_glide_esite>
-0.119183897387094

> <r_i_glide_emodel>
-56.9287339200959

> <r_i_glide_energy>
-48.3788306117058

> <r_i_glide_einternal>
23.7168426513672

> <i_i_glide_confnum>
46

> <i_i_glide_posenum>
70

> <r_i_glide_eff_state_penalty>
0

> <i_f3d_flags>
0

> <s_user_duplicate_titles>
175496

> <s_m_subgroup_title>
dock_pv

> <s_m_subgroupid>
dock_pv1

> <b_m_subgroup_collapsed>
1

$$$$
498425
                    3D
 Schrodinger Suite 2021-1.
 81 86  0  0  1  0            999 V2000
    0.7293   59.8186   71.8203 C   0  0  0  0  0  0
    1.5569   60.6965   72.7921 C   0  0  1  0  0  0
    2.5080   61.5890   71.9860 C   0  0  0  0  0  0
    3.8763   61.3037   71.9355 C   0  0  0  0  0  0
    4.7418   62.1303   71.2246 C   0  0  0  0  0  0
    4.2456   63.2545   70.5601 C   0  0  0  0  0  0
    2.8830   63.5629   70.5930 C   0  0  0  0  0  0
    2.0181   62.6966   71.2820 C   0  0  0  0  0  0
    2.4749   64.7230   69.9594 O   0  0  0  0  0  0
    1.1985   65.2826   70.2924 C   0  0  0  0  0  0
    1.2888   66.8208   70.3113 C   0  0  0  0  0  0
    1.1946   67.6277   68.9948 C   0  0  0  0  0  0
    1.1075   66.8054   67.7050 C   0  0  0  0  0  0
    0.9108   67.5902   66.4883 N   0  0  1  0  0  0
    1.5605   68.8932   66.3076 C   0  0  0  0  0  0
    2.9828   69.0431   65.6809 C   0  0  0  0  0  0
    3.2233   68.4437   64.2668 C   0  0  1  0  0  0
    2.1770   68.9679   63.2665 C   0  0  0  0  0  0
    2.4247   69.3073   61.9939 C   0  0  0  0  0  0
    3.7993   69.2526   61.3825 C   0  0  1  0  0  0
    4.8581   69.5032   62.4753 C   0  0  0  0  0  0
    4.6911   68.6131   63.7281 C   0  0  2  0  0  0
    5.1883   67.3154   63.3800 O   0  0  0  0  0  0
    4.3128   66.3845   63.8490 C   0  0  0  0  0  0
    3.1579   66.9579   64.3548 C   0  0  0  0  0  0
    2.1296   66.1418   64.7936 C   0  0  0  0  0  0
    2.3434   64.7730   64.7678 C   0  0  0  0  0  0
    3.4980   64.1837   64.3242 C   0  0  0  0  0  0
    4.4847   64.9941   63.7959 C   0  0  0  0  0  0
    5.5677   64.4638   63.1678 O   0  0  0  0  0  0
    5.7757   63.0377   63.1677 C   0  0  0  0  0  0
    0.8310   66.7176   65.3218 C   0  0  0  0  0  0
    3.9432   67.9970   60.7696 O   0  0  0  0  0  0
    0.7260   61.5128   73.7063 N   0  0  0  0  0  0
    1.5482   62.1243   74.7692 C   0  0  0  0  0  0
    0.7116   63.0007   75.7263 C   0  0  0  0  0  0
   -0.3524   62.2349   76.2798 O   0  0  0  0  0  0
   -1.2168   61.7114   75.2747 C   0  0  0  0  0  0
   -0.4275   60.8097   74.3005 C   0  0  0  0  0  0
    3.8929   70.0154   60.6116 H   0  0  0  0  0  0
    5.3170   69.0162   64.5301 H   0  0  0  0  0  0
    1.3776   59.3045   71.1116 H   0  0  0  0  0  0
    0.1801   59.0337   72.3425 H   0  0  0  0  0  0
    0.0128   60.4097   71.2460 H   0  0  0  0  0  0
    2.1501   60.0117   73.4059 H   0  0  0  0  0  0
    4.2733   60.4486   72.4653 H   0  0  0  0  0  0
    5.7977   61.9044   71.1953 H   0  0  0  0  0  0
    4.9257   63.9024   70.0237 H   0  0  0  0  0  0
    0.9553   62.8825   71.3087 H   0  0  0  0  0  0
    0.4218   64.9137   69.6217 H   0  0  0  0  0  0
    0.8895   65.0093   71.3021 H   0  0  0  0  0  0
    0.5110   67.1863   70.9833 H   0  0  0  0  0  0
    2.2431   67.0704   70.7673 H   0  0  0  0  0  0
    0.3226   68.2793   69.0444 H   0  0  0  0  0  0
    2.0460   68.3096   68.9548 H   0  0  0  0  0  0
    1.9400   66.1087   67.6097 H   0  0  0  0  0  0
    0.2352   66.1550   67.8000 H   0  0  0  0  0  0
    0.8771   69.3080   65.5790 H   0  0  0  0  0  0
    1.4551   69.5208   67.1906 H   0  0  0  0  0  0
    3.2303   70.1046   65.6607 H   0  0  0  0  0  0
    3.7058   68.6085   66.3698 H   0  0  0  0  0  0
    1.1379   69.0083   63.5539 H   0  0  0  0  0  0
    1.5886   69.5946   61.3739 H   0  0  0  0  0  0
    4.7598   70.5407   62.7958 H   0  0  0  0  0  0
    5.8656   69.4045   62.0685 H   0  0  0  0  0  0
    1.5424   64.1073   64.9009 H   0  0  0  0  0  0
    3.5355   63.1062   64.2956 H   0  0  0  0  0  0
    6.7668   62.8061   62.7772 H   0  0  0  0  0  0
    5.7173   62.5897   64.1601 H   0  0  0  0  0  0
    5.0570   62.5259   62.5240 H   0  0  0  0  0  0
    0.1551   65.9002   65.5684 H   0  0  0  0  0  0
    0.3508   67.2418   64.4992 H   0  0  0  0  0  0
    4.8151   67.9943   60.3253 H   0  0  0  0  0  0
    2.3343   62.7365   74.3284 H   0  0  0  0  0  0
    2.0657   61.3491   75.3382 H   0  0  0  0  0  0
    1.3448   63.3613   76.5386 H   0  0  0  0  0  0
    0.3231   63.8834   75.2146 H   0  0  0  0  0  0
   -2.0027   61.1314   75.7578 H   0  0  0  0  0  0
   -1.7146   62.5273   74.7450 H   0  0  0  0  0  0
   -0.0821   59.9110   74.8149 H   0  0  0  0  0  0
   -1.1077   60.4729   73.5160 H   0  0  0  0  0  0
  1  2  1  0  0  0
  1 42  1  0  0  0
  1 43  1  0  0  0
  1 44  1  0  0  0
  2  3  1  0  0  0
  2 34  1  0  0  0
  2 45  1  0  0  0
  3  8  1  0  0  0
  3  4  2  0  0  0
  4  5  1  0  0  0
  4 46  1  0  0  0
  5  6  2  0  0  0
  5 47  1  0  0  0
  6  7  1  0  0  0
  6 48  1  0  0  0
  7  8  2  0  0  0
  7  9  1  0  0  0
  8 49  1  0  0  0
  9 10  1  0  0  0
 10 11  1  0  0  0
 10 50  1  0  0  0
 10 51  1  0  0  0
 11 12  1  0  0  0
 11 52  1  0  0  0
 11 53  1  0  0  0
 12 13  1  0  0  0
 12 54  1  0  0  0
 12 55  1  0  0  0
 13 14  1  0  0  0
 13 56  1  0  0  0
 13 57  1  0  0  0
 14 32  1  0  0  0
 14 15  1  0  0  0
 15 16  1  0  0  0
 15 58  1  0  0  0
 15 59  1  0  0  0
 16 17  1  0  0  0
 16 60  1  0  0  0
 16 61  1  0  0  0
 17 22  1  0  0  0
 17 25  1  0  0  0
 17 18  1  0  0  0
 18 19  2  0  0  0
 18 62  1  0  0  0
 19 20  1  0  0  0
 19 63  1  0  0  0
 20 40  1  0  0  0
 20 21  1  0  0  0
 20 33  1  0  0  0
 21 22  1  0  0  0
 21 64  1  0  0  0
 21 65  1  0  0  0
 22 41  1  0  0  0
 22 23  1  0  0  0
 23 24  1  0  0  0
 24 29  1  0  0  0
 24 25  2  0  0  0
 25 26  1  0  0  0
 26 27  2  0  0  0
 26 32  1  0  0  0
 27 28  1  0  0  0
 27 66  1  0  0  0
 28 29  2  0  0  0
 28 67  1  0  0  0
 29 30  1  0  0  0
 30 31  1  0  0  0
 31 68  1  0  0  0
 31 69  1  0  0  0
 31 70  1  0  0  0
 32 71  1  0  0  0
 32 72  1  0  0  0
 33 73  1  0  0  0
 34 39  1  0  0  0
 34 35  1  0  0  0
 35 36  1  0  0  0
 35 74  1  0  0  0
 35 75  1  0  0  0
 36 37  1  0  0  0
 36 76  1  0  0  0
 36 77  1  0  0  0
 37 38  1  0  0  0
 38 39  1  0  0  0
 38 78  1  0  0  0
 38 79  1  0  0  0
 39 80  1  0  0  0
 39 81  1  0  0  0
M  END
> <s_m_entry_id>
9671

> <s_m_entry_name>
ligand_docking-pose.113

> <s_m_Source_Path>
/home/csk/Desktop/cluster/DUD-E-result/aces

> <s_m_Source_File>
ligand_docking-pose.sdf

> <i_m_Source_File_Index>
113

> <i_lp_mmshare_version>
53161

> <r_lp_tautomer_probability>
1

> <s_lp_Force_Field>
OPLS_2005

> <r_lp_Energy>
80.589191

> <b_lp_Chiralities_Consistent>
1

> <s_lp_Variant>
498425-2

> <s_i_glide_gridfile>
glide-grid_1e66

> <i_i_glide_lignum>
920

> <i_i_glide_rotatable_bonds>
10

> <r_i_docking_score>
-7.90433351625416

> <r_i_glide_ligand_efficiency>
-0.202675218365491

> <r_i_glide_ligand_efficiency_sa>
-0.68731451889711

> <r_i_glide_ligand_efficiency_ln>
-1.69491348373492

> <r_i_glide_gscore>
-7.90433351625416

> <r_i_glide_lipo>
-4.12240081891908

> <r_i_glide_hbond>
-0.256008842093118

> <r_i_glide_metal>
0

> <r_i_glide_rewards>
-0.653840466305604

> <r_i_glide_evdw>
-30.6004333496094

> <r_i_glide_ecoul>
-12.7974853515625

> <r_i_glide_erotb>
0.577561081278477

> <r_i_glide_esite>
0

> <r_i_glide_emodel>
-67.5930829369477

> <r_i_glide_energy>
-43.3979187011719

> <r_i_glide_einternal>
9.78235626220703

> <i_i_glide_confnum>
19

> <i_i_glide_posenum>
158

> <r_i_glide_eff_state_penalty>
0

> <i_f3d_flags>
0

> <s_user_duplicate_titles>
498425

> <s_m_subgroup_title>
dock_pv

> <s_m_subgroupid>
dock_pv1

> <b_m_subgroup_collapsed>
1

$$$$
490439
                    3D
 Schrodinger Suite 2021-1.
 76 81  0  0  1  0            999 V2000
   -0.0575   64.7856   72.8821 C   0  0  0  0  0  0
   -0.0830   64.4278   74.2295 C   0  0  0  0  0  0
    0.6799   63.3709   74.7253 C   0  0  0  0  0  0
    1.5241   62.7225   73.8203 C   0  0  0  0  0  0
    1.5887   63.0899   72.4494 C   0  0  0  0  0  0
    0.7493   64.1079   71.9691 C   0  0  0  0  0  0
    2.6073   62.3196   71.8512 C   0  0  0  0  0  0
    3.1341   61.4590   72.8515 C   0  0  0  0  0  0
    2.4289   61.7000   74.0128 N   0  0  0  0  0  0
    4.1928   60.5812   72.5959 C   0  0  0  0  0  0
    4.7384   60.6024   71.3147 C   0  0  0  0  0  0
    4.2431   61.4390   70.3183 C   0  0  0  0  0  0
    3.1711   62.3057   70.5636 C   0  0  0  0  0  0
    2.5934   63.1654   69.6498 O   0  0  0  0  0  0
    3.3854   63.7564   68.6250 C   0  0  0  0  0  0
    3.3269   62.9443   67.3139 C   0  0  0  0  0  0
    3.7891   63.7628   66.0703 C   0  0  0  0  0  0
    3.9531   63.1185   64.6605 C   0  0  0  0  0  0
    4.0119   64.1387   63.5038 C   0  0  0  0  0  0
    5.1428   65.0467   63.5682 N   0  0  2  0  0  0
    5.1318   66.1108   62.5495 C   0  0  0  0  0  0
    4.0546   67.1822   62.6902 C   0  0  0  0  0  0
    3.7330   67.5278   64.1295 C   0  0  0  0  0  0
    2.9127   68.7145   64.2149 N   0  0  0  0  0  0
    2.7452   69.1028   65.5434 C   0  0  0  0  0  0
    3.8108   69.7079   66.2722 C   0  0  0  0  0  0
    5.1176   69.9337   65.7452 C   0  0  0  0  0  0
    6.1278   70.4356   66.5539 C   0  0  0  0  0  0
    5.8584   70.7844   67.8706 C   0  0  0  0  0  0
    4.5716   70.6681   68.3872 C   0  0  0  0  0  0
    3.5372   70.1067   67.6083 C   0  0  0  0  0  0
    2.3095   69.9504   68.1632 N   0  0  0  0  0  0
    1.3176   69.3457   67.4584 C   0  0  0  0  0  0
    1.4913   68.8916   66.1385 C   0  0  0  0  0  0
    0.3234   68.2531   65.3514 C   0  0  0  0  0  0
   -0.9548   68.0168   66.1742 C   0  0  0  0  0  0
   -1.2108   69.1777   67.1339 C   0  0  0  0  0  0
   -0.0482   69.2635   68.1299 C   0  0  0  0  0  0
    7.1427   71.3079   68.8814 Cl  0  0  0  0  0  0
    2.5985   61.2521   74.9003 H   0  0  0  0  0  0
   -0.6556   65.6184   72.5428 H   0  0  0  0  0  0
   -0.7148   64.9778   74.9103 H   0  0  0  0  0  0
    0.6429   63.1020   75.7721 H   0  0  0  0  0  0
    0.7776   64.4137   70.9327 H   0  0  0  0  0  0
    4.5893   59.9276   73.3564 H   0  0  0  0  0  0
    5.5648   59.9472   71.0938 H   0  0  0  0  0  0
    4.6999   61.3914   69.3473 H   0  0  0  0  0  0
    2.9682   64.7501   68.4623 H   0  0  0  0  0  0
    4.4168   63.9171   68.9478 H   0  0  0  0  0  0
    3.9494   62.1081   67.5340 H   0  0  0  0  0  0
    2.3434   62.5078   67.1708 H   0  0  0  0  0  0
    3.1586   64.6483   65.9796 H   0  0  0  0  0  0
    4.7825   64.1081   66.3179 H   0  0  0  0  0  0
    4.8537   62.5080   64.6255 H   0  0  0  0  0  0
    3.1431   62.4472   64.3925 H   0  0  0  0  0  0
    3.9942   63.6216   62.5433 H   0  0  0  0  0  0
    3.1336   64.7586   63.5689 H   0  0  0  0  0  0
    6.0225   64.5669   63.6826 H   0  0  0  0  0  0
    6.0828   66.6294   62.5091 H   0  0  0  0  0  0
    4.9834   65.7081   61.5682 H   0  0  0  0  0  0
    4.4024   68.0741   62.1640 H   0  0  0  0  0  0
    3.1435   66.9076   62.1657 H   0  0  0  0  0  0
    3.2535   66.6963   64.6486 H   0  0  0  0  0  0
    4.6639   67.6460   64.6824 H   0  0  0  0  0  0
    2.0375   68.5852   63.7297 H   0  0  0  0  0  0
    5.3407   69.6847   64.7184 H   0  0  0  0  0  0
    7.1286   70.5330   66.1560 H   0  0  0  0  0  0
    4.3659   70.9455   69.4101 H   0  0  0  0  0  0
    0.0722   68.9078   64.5169 H   0  0  0  0  0  0
    0.6368   67.3061   64.9065 H   0  0  0  0  0  0
   -1.8072   67.8800   65.5091 H   0  0  0  0  0  0
   -0.8626   67.0871   66.7375 H   0  0  0  0  0  0
   -1.3141   70.1106   66.5793 H   0  0  0  0  0  0
   -2.1514   69.0302   67.6643 H   0  0  0  0  0  0
   -0.1932   70.1335   68.7681 H   0  0  0  0  0  0
   -0.0511   68.3804   68.7683 H   0  0  0  0  0  0
  1  6  1  0  0  0
  1  2  2  0  0  0
  1 41  1  0  0  0
  2  3  1  0  0  0
  2 42  1  0  0  0
  3  4  2  0  0  0
  3 43  1  0  0  0
  4  9  1  0  0  0
  4  5  1  0  0  0
  5  6  2  0  0  0
  5  7  1  0  0  0
  6 44  1  0  0  0
  7 13  2  0  0  0
  7  8  1  0  0  0
  8  9  1  0  0  0
  8 10  2  0  0  0
  9 40  1  0  0  0
 10 11  1  0  0  0
 10 45  1  0  0  0
 11 12  2  0  0  0
 11 46  1  0  0  0
 12 13  1  0  0  0
 12 47  1  0  0  0
 13 14  1  0  0  0
 14 15  1  0  0  0
 15 16  1  0  0  0
 15 48  1  0  0  0
 15 49  1  0  0  0
 16 17  1  0  0  0
 16 50  1  0  0  0
 16 51  1  0  0  0
 17 18  1  0  0  0
 17 52  1  0  0  0
 17 53  1  0  0  0
 18 19  1  0  0  0
 18 54  1  0  0  0
 18 55  1  0  0  0
 19 20  1  0  0  0
 19 56  1  0  0  0
 19 57  1  0  0  0
 20 21  1  0  0  0
 20 58  1  0  0  0
 21 22  1  0  0  0
 21 59  1  0  0  0
 21 60  1  0  0  0
 22 23  1  0  0  0
 22 61  1  0  0  0
 22 62  1  0  0  0
 23 24  1  0  0  0
 23 63  1  0  0  0
 23 64  1  0  0  0
 24 25  1  0  0  0
 24 65  1  0  0  0
 25 34  1  0  0  0
 25 26  2  0  0  0
 26 31  1  0  0  0
 26 27  1  0  0  0
 27 28  2  0  0  0
 27 66  1  0  0  0
 28 29  1  0  0  0
 28 67  1  0  0  0
 29 30  2  0  0  0
 29 39  1  0  0  0
 30 31  1  0  0  0
 30 68  1  0  0  0
 31 32  2  0  0  0
 32 33  1  0  0  0
 33 38  1  0  0  0
 33 34  2  0  0  0
 34 35  1  0  0  0
 35 36  1  0  0  0
 35 69  1  0  0  0
 35 70  1  0  0  0
 36 37  1  0  0  0
 36 71  1  0  0  0
 36 72  1  0  0  0
 37 38  1  0  0  0
 37 73  1  0  0  0
 37 74  1  0  0  0
 38 75  1  0  0  0
 38 76  1  0  0  0
M  END
> <s_m_entry_id>
9672

> <s_m_entry_name>
ligand_docking-pose.114

> <s_m_Source_Path>
/home/csk/Desktop/cluster/DUD-E-result/aces

> <s_m_Source_File>
ligand_docking-pose.sdf

> <i_m_Source_File_Index>
114

> <i_lp_mmshare_version>
53161

> <r_lp_tautomer_probability>
1

> <s_lp_Force_Field>
OPLS_2005

> <r_lp_Energy>
38.196049

> <b_lp_Chiralities_Consistent>
1

> <s_lp_Variant>
490439-1

> <s_i_glide_gridfile>
glide-grid_1e66

> <i_i_glide_lignum>
80

> <i_i_glide_rotatable_bonds>
12

> <r_i_docking_score>
-7.89640342518813

> <r_i_glide_ligand_efficiency>
-0.202471882697132

> <r_i_glide_ligand_efficiency_sa>
-0.686624964652637

> <r_i_glide_ligand_efficiency_ln>
-1.69321304710134

> <r_i_glide_gscore>
-7.89640342518813

> <r_i_glide_lipo>
-5.3342384435634

> <r_i_glide_hbond>
-0.142708910014417

> <r_i_glide_metal>
0

> <r_i_glide_rewards>
-0.9

> <r_i_glide_evdw>
-44.6738128662109

> <r_i_glide_ecoul>
0.0535973533987999

> <r_i_glide_erotb>
0.706194968690409

> <r_i_glide_esite>
0

> <r_i_glide_emodel>
-48.6734751683013

> <r_i_glide_energy>
-44.6202155128121

> <r_i_glide_einternal>
9.16381359100342

> <i_i_glide_confnum>
17

> <i_i_glide_posenum>
260

> <r_i_glide_eff_state_penalty>
0

> <i_f3d_flags>
0

> <s_user_duplicate_titles>
490439

> <s_m_subgroup_title>
dock_pv

> <s_m_subgroupid>
dock_pv1

> <b_m_subgroup_collapsed>
1

$$$$
199501
                    3D
 Schrodinger Suite 2021-1.
 53 55  0  0  1  0            999 V2000
    3.7449   68.2475   61.9500 C   0  0  0  0  0  0
    4.5635   67.6150   63.0673 C   0  0  0  0  0  0
    4.9097   68.2380   64.2108 C   0  0  0  0  0  0
    4.5131   69.6427   64.6461 C   0  0  0  0  0  0
    3.9023   69.6781   65.9964 N   0  0  0  0  0  0
    4.7443   70.1266   66.9967 C   0  0  0  0  0  0
    5.9502   70.3617   66.8867 O   0  0  0  0  0  0
    4.1050   70.3215   68.2843 C   0  0  0  0  0  0
    2.8926   69.8158   68.5763 C   0  0  0  0  0  0
    2.1154   69.1085   67.5621 C   0  0  0  0  0  0
    2.6303   69.1520   66.2906 C   0  0  0  0  0  0
    1.8687   68.4975   65.1250 C   0  0  0  0  0  0
    0.3916   68.2412   65.4456 C   0  0  0  0  0  0
    0.3002   67.4763   66.7619 C   0  0  0  0  0  0
    0.8564   68.3005   67.9555 C   0  0  1  0  0  0
    1.1401   67.5250   69.1677 N   0  0  2  0  0  0
    0.1592   66.4997   69.5196 C   0  0  0  0  0  0
    0.5675   65.7746   70.8167 C   0  0  0  0  0  0
    1.6210   64.6778   70.6230 C   0  0  0  0  0  0
    2.9426   65.0581   70.3679 C   0  0  0  0  0  0
    3.9424   64.1054   70.1790 C   0  0  0  0  0  0
    3.6266   62.7487   70.2400 C   0  0  0  0  0  0
    2.3150   62.3546   70.5057 C   0  0  0  0  0  0
    1.3135   63.3078   70.7082 C   0  0  0  0  0  0
   -0.2763   62.7500   71.0892 Cl  0  0  0  0  0  0
    4.9626   66.1777   62.7964 C   0  0  0  0  0  0
    4.2627   68.1384   60.9968 H   0  0  0  0  0  0
    3.5651   69.3118   62.0870 H   0  0  0  0  0  0
    2.7724   67.7595   61.8707 H   0  0  0  0  0  0
    5.5156   67.7079   64.9326 H   0  0  0  0  0  0
    5.4167   70.2546   64.5935 H   0  0  0  0  0  0
    3.8267   70.1107   63.9471 H   0  0  0  0  0  0
    4.6577   70.8585   69.0407 H   0  0  0  0  0  0
    2.4683   69.9772   69.5572 H   0  0  0  0  0  0
    1.8871   69.1564   64.2550 H   0  0  0  0  0  0
    2.3707   67.5887   64.7951 H   0  0  0  0  0  0
   -0.1655   69.1756   65.5255 H   0  0  0  0  0  0
   -0.0698   67.6747   64.6375 H   0  0  0  0  0  0
   -0.7353   67.1974   66.9514 H   0  0  0  0  0  0
    0.8587   66.5443   66.6658 H   0  0  0  0  0  0
    0.0934   69.0337   68.2194 H   0  0  0  0  0  0
    1.1554   68.2047   69.9272 H   0  0  0  0  0  0
   -0.8485   66.9045   69.6058 H   0  0  0  0  0  0
    0.1203   65.7553   68.7227 H   0  0  0  0  0  0
    0.9165   66.5007   71.5449 H   0  0  0  0  0  0
   -0.3105   65.3627   71.3026 H   0  0  0  0  0  0
    3.1964   66.1068   70.3347 H   0  0  0  0  0  0
    4.9576   64.4210   69.9866 H   0  0  0  0  0  0
    4.3967   62.0066   70.0935 H   0  0  0  0  0  0
    2.0736   61.3027   70.5670 H   0  0  0  0  0  0
    5.6691   66.1535   61.9684 H   0  0  0  0  0  0
    5.4332   65.7081   63.6614 H   0  0  0  0  0  0
    4.0855   65.5840   62.5372 H   0  0  0  0  0  0
  1  2  1  0  0  0
  1 27  1  0  0  0
  1 28  1  0  0  0
  1 29  1  0  0  0
  2  3  2  3  0  0
  2 26  1  0  0  0
  3  4  1  0  0  0
  3 30  1  0  0  0
  4  5  1  0  0  0
  4 31  1  0  0  0
  4 32  1  0  0  0
  5 11  1  0  0  0
  5  6  1  0  0  0
  6  7  2  0  0  0
  6  8  1  0  0  0
  8  9  2  0  0  0
  8 33  1  0  0  0
  9 10  1  0  0  0
  9 34  1  0  0  0
 10 15  1  0  0  0
 10 11  2  0  0  0
 11 12  1  0  0  0
 12 13  1  0  0  0
 12 35  1  0  0  0
 12 36  1  0  0  0
 13 14  1  0  0  0
 13 37  1  0  0  0
 13 38  1  0  0  0
 14 15  1  0  0  0
 14 39  1  0  0  0
 14 40  1  0  0  0
 15 16  1  0  0  0
 15 41  1  0  0  0
 16 17  1  0  0  0
 16 42  1  0  0  0
 17 18  1  0  0  0
 17 43  1  0  0  0
 17 44  1  0  0  0
 18 19  1  0  0  0
 18 45  1  0  0  0
 18 46  1  0  0  0
 19 24  1  0  0  0
 19 20  2  0  0  0
 20 21  1  0  0  0
 20 47  1  0  0  0
 21 22  2  0  0  0
 21 48  1  0  0  0
 22 23  1  0  0  0
 22 49  1  0  0  0
 23 24  2  0  0  0
 23 50  1  0  0  0
 24 25  1  0  0  0
 26 51  1  0  0  0
 26 52  1  0  0  0
 26 53  1  0  0  0
M  END
> <s_m_entry_id>
9674

> <s_m_entry_name>
ligand_docking-pose.116

> <s_m_Source_Path>
/home/csk/Desktop/cluster/DUD-E-result/aces

> <s_m_Source_File>
ligand_docking-pose.sdf

> <i_m_Source_File_Index>
116

> <i_lp_mmshare_version>
53161

> <r_lp_tautomer_probability>
1

> <s_lp_Force_Field>
OPLS_2005

> <r_lp_Energy>
32.717163

> <b_lp_Chiralities_Consistent>
1

> <s_lp_Variant>
199501-1

> <s_i_glide_gridfile>
glide-grid_1e66

> <i_i_glide_lignum>
1091

> <i_i_glide_rotatable_bonds>
6

> <r_i_docking_score>
-7.8929632409187

> <r_i_glide_ligand_efficiency>
-0.303575509266104

> <r_i_glide_ligand_efficiency_sa>
-0.899341251688885

> <r_i_glide_ligand_efficiency_ln>
-1.85363651820495

> <r_i_glide_gscore>
-7.8929632409187

> <r_i_glide_lipo>
-4.39336273604032

> <r_i_glide_hbond>
-0.119462308492442

> <r_i_glide_metal>
0

> <r_i_glide_rewards>
-1.99751451774664

> <r_i_glide_evdw>
-39.8531875610352

> <r_i_glide_ecoul>
-0.608587384223938

> <r_i_glide_erotb>
0.701323807046045

> <r_i_glide_esite>
0

> <r_i_glide_emodel>
-53.9881105686741

> <r_i_glide_energy>
-40.4617749452591

> <r_i_glide_einternal>
10.9950475692749

> <i_i_glide_confnum>
49

> <i_i_glide_posenum>
333

> <r_i_glide_eff_state_penalty>
0

> <i_f3d_flags>
0

> <s_user_duplicate_titles>
199501

> <s_m_subgroup_title>
dock_pv

> <s_m_subgroupid>
dock_pv1

> <b_m_subgroup_collapsed>
1

$$$$
199690
                    3D
 Schrodinger Suite 2021-1.
 53 55  0  0  1  0            999 V2000
    3.7764   68.9833   61.8562 C   0  0  0  0  0  0
    4.5856   68.1836   62.8676 C   0  0  0  0  0  0
    4.8634   68.5915   64.1238 C   0  0  0  0  0  0
    4.4174   69.8847   64.7881 C   0  0  0  0  0  0
    3.8331   69.7080   66.1415 N   0  0  0  0  0  0
    4.6463   70.1524   67.1686 C   0  0  0  0  0  0
    5.8406   70.4516   67.0859 O   0  0  0  0  0  0
    3.9797   70.2687   68.4499 C   0  0  0  0  0  0
    2.7844   69.7079   68.7027 C   0  0  0  0  0  0
    2.0531   68.9998   67.6590 C   0  0  0  0  0  0
    2.5820   69.1105   66.3957 C   0  0  0  0  0  0
    1.8603   68.4752   65.1974 C   0  0  0  0  0  0
    0.3851   68.1731   65.4961 C   0  0  0  0  0  0
    0.2865   67.3618   66.7866 C   0  0  0  0  0  0
    0.8191   68.1369   68.0175 C   0  0  1  0  0  0
    1.1407   67.3024   69.1811 N   0  0  2  0  0  0
    0.1367   66.3182   69.5813 C   0  0  0  0  0  0
    0.6411   65.4875   70.7863 C   0  0  0  0  0  0
    1.5513   64.3092   70.4226 C   0  0  0  0  0  0
    2.8997   64.5508   70.1403 C   0  0  0  0  0  0
    3.7614   63.5012   69.8200 C   0  0  0  0  0  0
    3.2798   62.1928   69.7815 C   0  0  0  0  0  0
    1.9392   61.9407   70.0640 C   0  0  0  0  0  0
    1.0740   62.9864   70.3868 C   0  0  0  0  0  0
   -0.5649   62.5954   70.7720 Cl  0  0  0  0  0  0
    4.3366   60.8780   69.4058 Cl  0  0  0  0  0  0
    5.0749   66.8474   62.3493 C   0  0  0  0  0  0
    2.8481   68.4628   61.6244 H   0  0  0  0  0  0
    4.3429   69.1004   60.9308 H   0  0  0  0  0  0
    3.5196   69.9829   62.1956 H   0  0  0  0  0  0
    5.4679   67.9552   64.7561 H   0  0  0  0  0  0
    5.3125   70.5096   64.8144 H   0  0  0  0  0  0
    3.7241   70.4690   64.1834 H   0  0  0  0  0  0
    4.4953   70.8059   69.2313 H   0  0  0  0  0  0
    2.3438   69.8304   69.6809 H   0  0  0  0  0  0
    1.8734   69.1589   64.3477 H   0  0  0  0  0  0
    2.3977   67.5957   64.8392 H   0  0  0  0  0  0
   -0.1893   69.0956   65.5977 H   0  0  0  0  0  0
   -0.0593   67.6273   64.6635 H   0  0  0  0  0  0
   -0.7457   67.0507   66.9534 H   0  0  0  0  0  0
    0.8624   66.4493   66.6562 H   0  0  0  0  0  0
    0.0328   68.8330   68.3235 H   0  0  0  0  0  0
    1.2788   67.9353   69.9598 H   0  0  0  0  0  0
   -0.8227   66.7765   69.8105 H   0  0  0  0  0  0
   -0.0441   65.6297   68.7538 H   0  0  0  0  0  0
    1.1434   66.1175   71.5155 H   0  0  0  0  0  0
   -0.2063   65.1209   71.3599 H   0  0  0  0  0  0
    3.2815   65.5629   70.1705 H   0  0  0  0  0  0
    4.8011   63.7074   69.6065 H   0  0  0  0  0  0
    1.5667   60.9267   70.0411 H   0  0  0  0  0  0
    4.2461   66.2735   61.9354 H   0  0  0  0  0  0
    5.8184   67.0069   61.5703 H   0  0  0  0  0  0
    5.5357   66.2485   63.1348 H   0  0  0  0  0  0
  1  2  1  0  0  0
  1 28  1  0  0  0
  1 29  1  0  0  0
  1 30  1  0  0  0
  2  3  2  3  0  0
  2 27  1  0  0  0
  3  4  1  0  0  0
  3 31  1  0  0  0
  4  5  1  0  0  0
  4 32  1  0  0  0
  4 33  1  0  0  0
  5 11  1  0  0  0
  5  6  1  0  0  0
  6  7  2  0  0  0
  6  8  1  0  0  0
  8  9  2  0  0  0
  8 34  1  0  0  0
  9 10  1  0  0  0
  9 35  1  0  0  0
 10 15  1  0  0  0
 10 11  2  0  0  0
 11 12  1  0  0  0
 12 13  1  0  0  0
 12 36  1  0  0  0
 12 37  1  0  0  0
 13 14  1  0  0  0
 13 38  1  0  0  0
 13 39  1  0  0  0
 14 15  1  0  0  0
 14 40  1  0  0  0
 14 41  1  0  0  0
 15 16  1  0  0  0
 15 42  1  0  0  0
 16 17  1  0  0  0
 16 43  1  0  0  0
 17 18  1  0  0  0
 17 44  1  0  0  0
 17 45  1  0  0  0
 18 19  1  0  0  0
 18 46  1  0  0  0
 18 47  1  0  0  0
 19 24  1  0  0  0
 19 20  2  0  0  0
 20 21  1  0  0  0
 20 48  1  0  0  0
 21 22  2  0  0  0
 21 49  1  0  0  0
 22 23  1  0  0  0
 22 26  1  0  0  0
 23 24  2  0  0  0
 23 50  1  0  0  0
 24 25  1  0  0  0
 27 51  1  0  0  0
 27 52  1  0  0  0
 27 53  1  0  0  0
M  END
> <s_m_entry_id>
9676

> <s_m_entry_name>
ligand_docking-pose.118

> <s_m_Source_Path>
/home/csk/Desktop/cluster/DUD-E-result/aces

> <s_m_Source_File>
ligand_docking-pose.sdf

> <i_m_Source_File_Index>
118

> <i_lp_mmshare_version>
53161

> <r_lp_tautomer_probability>
1

> <s_lp_Force_Field>
OPLS_2005

> <r_lp_Energy>
32.329634

> <b_lp_Chiralities_Consistent>
1

> <s_lp_Variant>
199690-1

> <s_i_glide_gridfile>
glide-grid_1e66

> <i_i_glide_lignum>
1097

> <i_i_glide_rotatable_bonds>
6

> <r_i_docking_score>
-7.86965659057742

> <r_i_glide_ligand_efficiency>
-0.291468762613978

> <r_i_glide_ligand_efficiency_sa>
-0.874406286881302

> <r_i_glide_ligand_efficiency_ln>
-1.83192631285768

> <r_i_glide_gscore>
-7.86965659057742

> <r_i_glide_lipo>
-4.34979879183816

> <r_i_glide_hbond>
-0.0181578054444608

> <r_i_glide_metal>
0

> <r_i_glide_rewards>
-1.75572917373639

> <r_i_glide_evdw>
-42.3898582458496

> <r_i_glide_ecoul>
-1.49645578861237

> <r_i_glide_erotb>
0.597990461025929

> <r_i_glide_esite>
0

> <r_i_glide_emodel>
-56.0871447517958

> <r_i_glide_energy>
-43.886314034462

> <r_i_glide_einternal>
10.94264793396

> <i_i_glide_confnum>
79

> <i_i_glide_posenum>
183

> <r_i_glide_eff_state_penalty>
0

> <i_f3d_flags>
0

> <s_user_duplicate_titles>
199690

> <s_m_subgroup_title>
dock_pv

> <s_m_subgroupid>
dock_pv1

> <b_m_subgroup_collapsed>
1

$$$$
686962
                    3D
 Schrodinger Suite 2021-1.
 25 26  0  0  1  0            999 V2000
    5.8388   69.9615   66.1997 C   0  0  0  0  0  0
    4.9384   69.4074   65.2818 C   0  0  0  0  0  0
    3.5747   69.3087   65.6476 C   0  0  0  0  0  0
    3.1605   69.7080   66.8824 N   0  0  0  0  0  0
    4.0404   70.2425   67.7615 C   0  0  0  0  0  0
    5.3975   70.3924   67.4496 C   0  0  0  0  0  0
    6.3686   70.9081   68.4020 C   0  0  0  0  0  0
    7.1427   71.3069   69.1614 N   0  0  0  0  0  0
    3.3955   70.7324   69.2920 Cl  0  0  0  0  0  0
    2.5378   68.8111   64.8260 N   0  0  0  0  0  0
    2.4910   68.8155   63.3583 C   0  0  0  0  0  0
    1.0226   68.8602   62.9435 C   0  0  0  0  0  0
    0.3435   68.1082   64.0651 C   0  0  0  0  0  0
    1.1818   68.4763   65.2847 C   0  0  0  0  0  0
    5.4806   68.9087   64.0238 C   0  0  0  0  0  0
    5.9083   68.5084   63.0275 N   0  0  0  0  0  0
    6.8926   70.0329   65.9676 H   0  0  0  0  0  0
    2.9540   69.7272   62.9784 H   0  0  0  0  0  0
    2.9643   67.9278   62.9367 H   0  0  0  0  0  0
    0.6682   69.8896   62.8660 H   0  0  0  0  0  0
    0.8553   68.3895   61.9735 H   0  0  0  0  0  0
    0.3662   67.0310   63.8999 H   0  0  0  0  0  0
   -0.7029   68.3943   64.1817 H   0  0  0  0  0  0
    1.2410   67.6275   65.9679 H   0  0  0  0  0  0
    0.7182   69.3054   65.8225 H   0  0  0  0  0  0
  1  6  1  0  0  0
  1  2  2  0  0  0
  1 17  1  0  0  0
  2  3  1  0  0  0
  2 15  1  0  0  0
  3  4  2  0  0  0
  3 10  1  0  0  0
  4  5  1  0  0  0
  5  6  2  0  0  0
  5  9  1  0  0  0
  6  7  1  0  0  0
  7  8  3  0  0  0
 10 14  1  0  0  0
 10 11  1  0  0  0
 11 12  1  0  0  0
 11 18  1  0  0  0
 11 19  1  0  0  0
 12 13  1  0  0  0
 12 20  1  0  0  0
 12 21  1  0  0  0
 13 14  1  0  0  0
 13 22  1  0  0  0
 13 23  1  0  0  0
 14 24  1  0  0  0
 14 25  1  0  0  0
 15 16  3  0  0  0
M  END
> <s_m_entry_id>
9678

> <s_m_entry_name>
ligand_docking-pose.120

> <s_m_Source_Path>
/home/csk/Desktop/cluster/DUD-E-result/aces

> <s_m_Source_File>
ligand_docking-pose.sdf

> <i_m_Source_File_Index>
120

> <i_lp_mmshare_version>
53161

> <r_lp_tautomer_probability>
1

> <s_lp_Force_Field>
OPLS_2005

> <r_lp_Energy>
33.395194

> <b_lp_Chiralities_Consistent>
1

> <s_lp_Variant>
686962-1

> <s_i_glide_gridfile>
glide-grid_1e66

> <i_i_glide_lignum>
497

> <i_i_glide_rotatable_bonds>
1

> <r_i_docking_score>
-7.86520149355159

> <r_i_glide_ligand_efficiency>
-0.491575093346974

> <r_i_glide_ligand_efficiency_sa>
-1.23869161427899

> <r_i_glide_ligand_efficiency_ln>
-2.08482876683203

> <r_i_glide_gscore>
-7.86520149355159

> <r_i_glide_lipo>
-2.62458463314446

> <r_i_glide_hbond>
0

> <r_i_glide_metal>
0

> <r_i_glide_rewards>
-3.58977817869115

> <r_i_glide_evdw>
-32.5131072998047

> <r_i_glide_ecoul>
-2.27809572219849

> <r_i_glide_erotb>
0.316531041604031

> <r_i_glide_esite>
0

> <r_i_glide_emodel>
-51.9833086759276

> <r_i_glide_energy>
-34.7912030220032

> <r_i_glide_einternal>
0.689436376094818

> <i_i_glide_confnum>
3

> <i_i_glide_posenum>
301

> <r_i_glide_eff_state_penalty>
0

> <i_f3d_flags>
0

> <s_user_duplicate_titles>
686962

> <s_m_subgroup_title>
dock_pv

> <s_m_subgroupid>
dock_pv1

> <b_m_subgroup_collapsed>
1

$$$$
335564
                    3D
 Schrodinger Suite 2021-1.
 71 75  0  0  1  0            999 V2000
    2.7318   58.7406   70.7476 C   0  0  0  0  0  0
    3.5433   58.6418   71.8732 C   0  0  0  0  0  0
    4.3388   59.7076   72.2995 C   0  0  0  0  0  0
    4.2833   60.8828   71.5564 C   0  0  0  0  0  0
    3.4301   61.0281   70.4250 C   0  0  0  0  0  0
    2.6583   59.9266   70.0196 C   0  0  0  0  0  0
    3.5644   62.3783   69.9555 C   0  0  0  0  0  0
    4.5211   62.9650   70.7693 C   0  0  0  0  0  0
    4.9509   62.0730   71.7151 N   0  0  0  0  0  0
    2.7434   63.0106   68.8548 C   0  0  0  0  0  0
    3.4681   64.1348   68.0927 C   0  0  0  0  0  0
    3.9323   63.7080   66.7801 N   0  0  0  0  0  0
    3.5430   64.1304   65.5687 C   0  0  0  0  0  0
    2.7430   65.0461   65.4150 O   0  0  0  0  0  0
    4.1999   63.4936   64.3591 C   0  0  0  0  0  0
    4.1567   64.3898   63.1099 C   0  0  0  0  0  0
    4.6066   65.8609   63.2616 C   0  0  0  0  0  0
    4.6162   66.7482   61.9968 C   0  0  0  0  0  0
    3.6579   67.9776   61.9301 C   0  0  0  0  0  0
    3.6536   68.9626   63.1196 C   0  0  0  0  0  0
    2.9430   68.3997   64.2614 N   0  0  0  0  0  0
    2.8308   68.9448   65.5522 C   0  0  0  0  0  0
    3.9061   69.5387   66.2979 C   0  0  0  0  0  0
    5.2764   69.5487   65.9026 C   0  0  0  0  0  0
    6.2515   70.1213   66.7112 C   0  0  0  0  0  0
    5.9094   70.6956   67.9274 C   0  0  0  0  0  0
    4.5889   70.7128   68.3573 C   0  0  0  0  0  0
    3.5835   70.1079   67.5679 C   0  0  0  0  0  0
    2.3359   70.0489   68.0860 N   0  0  0  0  0  0
    1.3645   69.3757   67.4268 C   0  0  0  0  0  0
    1.5559   68.8232   66.1456 C   0  0  0  0  0  0
    0.3652   68.1880   65.3864 C   0  0  0  0  0  0
   -0.9115   67.9959   66.2238 C   0  0  0  0  0  0
   -1.1597   69.1997   67.1344 C   0  0  0  0  0  0
    0.0089   69.3150   68.1198 C   0  0  0  0  0  0
    7.1428   71.3069   68.9517 Cl  0  0  0  0  0  0
    5.6370   62.3019   72.4211 H   0  0  0  0  0  0
    2.1348   57.8903   70.4469 H   0  0  0  0  0  0
    3.5618   57.7133   72.4276 H   0  0  0  0  0  0
    4.9609   59.6400   73.1712 H   0  0  0  0  0  0
    1.9978   60.0013   69.1687 H   0  0  0  0  0  0
    4.9159   63.9723   70.7768 H   0  0  0  0  0  0
    2.3888   62.2510   68.1553 H   0  0  0  0  0  0
    1.8304   63.4143   69.2946 H   0  0  0  0  0  0
    2.7727   64.9716   68.0099 H   0  0  0  0  0  0
    4.3188   64.5084   68.6559 H   0  0  0  0  0  0
    4.7003   63.0620   66.8184 H   0  0  0  0  0  0
    5.2273   63.2341   64.5922 H   0  0  0  0  0  0
    3.6933   62.5497   64.1508 H   0  0  0  0  0  0
    4.7005   63.8378   62.3680 H   0  0  0  0  0  0
    3.1432   64.4343   62.7679 H   0  0  0  0  0  0
    3.9838   66.3327   63.9888 H   0  0  0  0  0  0
    5.5430   65.8793   63.7717 H   0  0  0  0  0  0
    5.6366   67.0879   61.8082 H   0  0  0  0  0  0
    4.3494   66.1089   61.1669 H   0  0  0  0  0  0
    3.9070   68.5418   61.0297 H   0  0  0  0  0  0
    2.6353   67.6401   61.7666 H   0  0  0  0  0  0
    4.6734   69.2476   63.3413 H   0  0  0  0  0  0
    3.1786   69.9042   62.8416 H   0  0  0  0  0  0
    2.0861   67.9459   63.9807 H   0  0  0  0  0  0
    5.6074   69.0414   65.0159 H   0  0  0  0  0  0
    7.2857   70.0897   66.4004 H   0  0  0  0  0  0
    4.3294   71.1267   69.3207 H   0  0  0  0  0  0
    0.1227   68.8340   64.5407 H   0  0  0  0  0  0
    0.6497   67.2223   64.9645 H   0  0  0  0  0  0
   -1.7670   67.8326   65.5681 H   0  0  0  0  0  0
   -0.8225   67.0894   66.8259 H   0  0  0  0  0  0
   -1.2617   70.1109   66.5450 H   0  0  0  0  0  0
   -2.0974   69.0752   67.6773 H   0  0  0  0  0  0
   -0.1315   70.1822   68.7678 H   0  0  0  0  0  0
    0.0169   68.4390   68.7680 H   0  0  0  0  0  0
  1  6  1  0  0  0
  1  2  2  0  0  0
  1 38  1  0  0  0
  2  3  1  0  0  0
  2 39  1  0  0  0
  3  4  2  0  0  0
  3 40  1  0  0  0
  4  9  1  0  0  0
  4  5  1  0  0  0
  5  6  2  0  0  0
  5  7  1  0  0  0
  6 41  1  0  0  0
  7  8  2  0  0  0
  7 10  1  0  0  0
  8  9  1  0  0  0
  8 42  1  0  0  0
  9 37  1  0  0  0
 10 11  1  0  0  0
 10 43  1  0  0  0
 10 44  1  0  0  0
 11 12  1  0  0  0
 11 45  1  0  0  0
 11 46  1  0  0  0
 12 13  1  0  0  0
 12 47  1  0  0  0
 13 14  2  0  0  0
 13 15  1  0  0  0
 15 16  1  0  0  0
 15 48  1  0  0  0
 15 49  1  0  0  0
 16 17  1  0  0  0
 16 50  1  0  0  0
 16 51  1  0  0  0
 17 18  1  0  0  0
 17 52  1  0  0  0
 17 53  1  0  0  0
 18 19  1  0  0  0
 18 54  1  0  0  0
 18 55  1  0  0  0
 19 20  1  0  0  0
 19 56  1  0  0  0
 19 57  1  0  0  0
 20 21  1  0  0  0
 20 58  1  0  0  0
 20 59  1  0  0  0
 21 22  1  0  0  0
 21 60  1  0  0  0
 22 31  1  0  0  0
 22 23  2  0  0  0
 23 28  1  0  0  0
 23 24  1  0  0  0
 24 25  2  0  0  0
 24 61  1  0  0  0
 25 26  1  0  0  0
 25 62  1  0  0  0
 26 27  2  0  0  0
 26 36  1  0  0  0
 27 28  1  0  0  0
 27 63  1  0  0  0
 28 29  2  0  0  0
 29 30  1  0  0  0
 30 35  1  0  0  0
 30 31  2  0  0  0
 31 32  1  0  0  0
 32 33  1  0  0  0
 32 64  1  0  0  0
 32 65  1  0  0  0
 33 34  1  0  0  0
 33 66  1  0  0  0
 33 67  1  0  0  0
 34 35  1  0  0  0
 34 68  1  0  0  0
 34 69  1  0  0  0
 35 70  1  0  0  0
 35 71  1  0  0  0
M  END
> <s_m_entry_id>
9680

> <s_m_entry_name>
ligand_docking-pose.122

> <s_m_Source_Path>
/home/csk/Desktop/cluster/DUD-E-result/aces

> <s_m_Source_File>
ligand_docking-pose.sdf

> <i_m_Source_File_Index>
122

> <i_lp_mmshare_version>
53161

> <r_lp_tautomer_probability>
1

> <s_lp_Force_Field>
OPLS_2005

> <r_lp_Energy>
21.579258

> <b_lp_Chiralities_Consistent>
1

> <s_lp_Variant>
335564-1

> <s_i_glide_gridfile>
glide-grid_1e66

> <i_i_glide_lignum>
274

> <i_i_glide_rotatable_bonds>
12

> <r_i_docking_score>
-7.84821653008069

> <r_i_glide_ligand_efficiency>
-0.218006014724464

> <r_i_glide_ligand_efficiency_sa>
-0.719839999581776

> <r_i_glide_ligand_efficiency_ln>
-1.71226881255655

> <r_i_glide_gscore>
-7.84821653008069

> <r_i_glide_lipo>
-5.37198917149195

> <r_i_glide_hbond>
-0.0941860498051454

> <r_i_glide_metal>
0

> <r_i_glide_rewards>
-0.974386194439692

> <r_i_glide_evdw>
-38.8464393615723

> <r_i_glide_ecoul>
-1.50409412384033

> <r_i_glide_erotb>
0.807527999208463

> <r_i_glide_esite>
-0.0472470268976978

> <r_i_glide_emodel>
-46.7229122654619

> <r_i_glide_energy>
-40.3505334854126

> <r_i_glide_einternal>
11.9091777801514

> <i_i_glide_confnum>
1

> <i_i_glide_posenum>
182

> <r_i_glide_eff_state_penalty>
0

> <i_f3d_flags>
0

> <s_user_duplicate_titles>
335564

> <s_m_subgroup_title>
dock_pv

> <s_m_subgroupid>
dock_pv1

> <b_m_subgroup_collapsed>
1

$$$$
689187
                    3D
 Schrodinger Suite 2021-1.
 53 56  0  0  1  0            999 V2000
    5.3861   70.0211   63.8139 C   0  0  0  0  0  0
    5.5413   69.1543   62.5539 C   0  0  0  0  0  0
    4.4811   68.0486   62.4290 C   0  0  0  0  0  0
    3.1870   68.6167   62.2192 O   0  0  0  0  0  0
    2.1762   68.5080   63.1574 C   0  0  0  0  0  0
    0.9183   68.9672   62.7405 C   0  0  0  0  0  0
   -0.1963   68.9079   63.5819 C   0  0  0  0  0  0
   -0.0367   68.3791   64.8629 C   0  0  0  0  0  0
    1.1886   67.9164   65.2787 C   0  0  0  0  0  0
    2.3154   67.9826   64.4586 C   0  0  0  0  0  0
    1.1401   67.3818   66.5369 O   0  0  0  0  0  0
   -0.1465   67.4639   66.9749 C   0  0  0  0  0  0
   -0.5960   66.9054   68.1222 C   0  0  0  0  0  0
    0.1951   66.1446   69.1099 C   0  0  0  0  0  0
   -0.2907   64.9160   69.5678 C   0  0  0  0  0  0
    0.4843   64.1128   70.4042 C   0  0  0  0  0  0
    1.7228   64.5204   70.7671 N   0  3  0  0  0  0
    2.2130   65.7187   70.3676 C   0  0  0  0  0  0
    1.4494   66.5610   69.5556 C   0  0  0  0  0  0
    2.5244   63.6769   71.6828 C   0  0  0  0  0  0
    2.7639   62.2530   71.2035 C   0  0  0  0  0  0
    3.6490   62.0103   70.1492 C   0  0  0  0  0  0
    3.9047   60.7029   69.7475 C   0  0  0  0  0  0
    3.2762   59.6399   70.3992 C   0  0  0  0  0  0
    2.3807   59.8831   71.4401 C   0  0  0  0  0  0
    2.1268   61.1889   71.8456 C   0  0  0  0  0  0
    3.5436   58.2133   69.9684 C   0  0  0  0  0  0
   -0.9627   68.1607   65.9720 C   0  0  0  0  0  0
   -2.1579   68.4355   66.0702 O   0  0  0  0  0  0
    6.1434   70.8059   63.8428 H   0  0  0  0  0  0
    5.4913   69.4286   64.7226 H   0  0  0  0  0  0
    4.4102   70.5076   63.8416 H   0  0  0  0  0  0
    5.5058   69.7890   61.6677 H   0  0  0  0  0  0
    6.5343   68.7012   62.5513 H   0  0  0  0  0  0
    4.7023   67.4679   61.5340 H   0  0  0  0  0  0
    4.5516   67.3323   63.2450 H   0  0  0  0  0  0
    0.8085   69.3737   61.7453 H   0  0  0  0  0  0
   -1.1555   69.2703   63.2389 H   0  0  0  0  0  0
    3.2600   67.6284   64.8374 H   0  0  0  0  0  0
   -1.6470   67.0073   68.3576 H   0  0  0  0  0  0
   -1.2570   64.5628   69.2318 H   0  0  0  0  0  0
    0.1577   63.1497   70.7756 H   0  0  0  0  0  0
    3.1947   65.9977   70.7264 H   0  0  0  0  0  0
    1.8364   67.5223   69.2446 H   0  0  0  0  0  0
    3.4938   64.1547   71.8229 H   0  0  0  0  0  0
    2.0019   63.7063   72.6412 H   0  0  0  0  0  0
    4.1503   62.8307   69.6537 H   0  0  0  0  0  0
    4.5908   60.5166   68.9346 H   0  0  0  0  0  0
    1.8882   59.0612   71.9432 H   0  0  0  0  0  0
    1.4435   61.3660   72.6639 H   0  0  0  0  0  0
    2.6109   57.6472   69.9686 H   0  0  0  0  0  0
    3.9407   58.1785   68.9559 H   0  0  0  0  0  0
    4.2350   57.7188   70.6504 H   0  0  0  0  0  0
  1  2  1  0  0  0
  1 30  1  0  0  0
  1 31  1  0  0  0
  1 32  1  0  0  0
  2  3  1  0  0  0
  2 33  1  0  0  0
  2 34  1  0  0  0
  3  4  1  0  0  0
  3 35  1  0  0  0
  3 36  1  0  0  0
  4  5  1  0  0  0
  5 10  1  0  0  0
  5  6  2  0  0  0
  6  7  1  0  0  0
  6 37  1  0  0  0
  7  8  2  0  0  0
  7 38  1  0  0  0
  8 28  1  0  0  0
  8  9  1  0  0  0
  9 10  2  0  0  0
  9 11  1  0  0  0
 10 39  1  0  0  0
 11 12  1  0  0  0
 12 13  2  0  0  0
 12 28  1  0  0  0
 13 14  1  0  0  0
 13 40  1  0  0  0
 14 19  1  0  0  0
 14 15  2  0  0  0
 15 16  1  0  0  0
 15 41  1  0  0  0
 16 17  2  0  0  0
 16 42  1  0  0  0
 17 18  1  0  0  0
 17 20  1  0  0  0
 18 19  2  0  0  0
 18 43  1  0  0  0
 19 44  1  0  0  0
 20 21  1  0  0  0
 20 45  1  0  0  0
 20 46  1  0  0  0
 21 26  1  0  0  0
 21 22  2  0  0  0
 22 23  1  0  0  0
 22 47  1  0  0  0
 23 24  2  0  0  0
 23 48  1  0  0  0
 24 25  1  0  0  0
 24 27  1  0  0  0
 25 26  2  0  0  0
 25 49  1  0  0  0
 26 50  1  0  0  0
 27 51  1  0  0  0
 27 52  1  0  0  0
 27 53  1  0  0  0
 28 29  2  0  0  0
M  CHG  1  17   1
M  END
> <s_m_entry_id>
9681

> <s_m_entry_name>
ligand_docking-pose.123

> <s_m_Source_Path>
/home/csk/Desktop/cluster/DUD-E-result/aces

> <s_m_Source_File>
ligand_docking-pose.sdf

> <i_m_Source_File_Index>
123

> <i_lp_mmshare_version>
53161

> <r_lp_tautomer_probability>
1

> <s_lp_Force_Field>
OPLS_2005

> <r_lp_Energy>
40.188909

> <b_lp_Chiralities_Consistent>
1

> <s_lp_Variant>
689187-1

> <s_i_glide_gridfile>
glide-grid_1e66

> <i_i_glide_lignum>
1170

> <i_i_glide_rotatable_bonds>
6

> <r_i_docking_score>
-7.83815002068474

> <r_i_glide_ligand_efficiency>
-0.270281035196025

> <r_i_glide_ligand_efficiency_sa>
-0.830388971164483

> <r_i_glide_ligand_efficiency_ln>
-1.79473759640162

> <r_i_glide_gscore>
-7.83815002068474

> <r_i_glide_lipo>
-3.97843572922334

> <r_i_glide_hbond>
0

> <r_i_glide_metal>
0

> <r_i_glide_rewards>
-2.19489532623828

> <r_i_glide_evdw>
-44.5857048034668

> <r_i_glide_ecoul>
-0.580865085124969

> <r_i_glide_erotb>
0.651596037718972

> <r_i_glide_esite>
0

> <r_i_glide_emodel>
-63.7417989031894

> <r_i_glide_energy>
-45.1665698885918

> <r_i_glide_einternal>
6.16107988357544

> <i_i_glide_confnum>
4

> <i_i_glide_posenum>
111

> <r_i_glide_eff_state_penalty>
0

> <i_f3d_flags>
0

> <s_user_duplicate_titles>
689187

> <s_m_subgroup_title>
dock_pv

> <s_m_subgroupid>
dock_pv1

> <b_m_subgroup_collapsed>
1

$$$$
118424
                    3D
 Schrodinger Suite 2021-1.
 60 63  0  0  1  0            999 V2000
    2.7607   64.7062   70.3679 C   0  0  0  0  0  0
    3.6224   63.6953   69.9497 C   0  0  0  0  0  0
    3.1127   62.4308   69.6636 C   0  0  0  0  0  0
    1.7526   62.1678   69.7986 C   0  0  0  0  0  0
    0.8885   63.1805   70.2072 C   0  0  0  0  0  0
    1.3893   64.4560   70.4845 C   0  0  0  0  0  0
    0.4326   65.5589   70.9430 C   0  0  0  0  0  0
    0.0061   66.5080   69.9032 N   0  0  1  0  0  0
    1.0655   67.4224   69.4412 C   0  0  0  0  0  0
    0.5850   68.4512   68.3756 C   0  0  0  0  0  0
   -0.1920   67.8162   67.2236 C   0  0  0  0  0  0
   -1.2909   66.9069   67.7922 C   0  0  0  0  0  0
   -0.7361   65.8903   68.8062 C   0  0  0  0  0  0
   -0.7430   68.8711   66.2315 C   0  0  0  0  0  0
   -0.9987   68.2368   64.8547 C   0  0  0  0  0  0
   -0.4499   68.9072   63.5960 C   0  0  0  0  0  0
   -1.2553   69.3079   62.7680 O   0  0  0  0  0  0
    1.0070   68.7554   63.3178 C   0  0  0  0  0  0
    1.4691   68.7206   61.9994 C   0  0  0  0  0  0
    2.8196   68.5080   61.7446 C   0  0  0  0  0  0
    3.7252   68.3621   62.7981 C   0  0  0  0  0  0
    3.3025   68.5635   64.1260 C   0  0  0  0  0  0
    1.9403   68.6784   64.3579 C   0  0  0  0  0  0
    4.2181   68.6145   65.1944 N   0  0  0  0  0  0
    5.4123   69.4699   65.1935 C   0  0  0  0  0  0
    5.7441   70.1979   63.8734 C   0  0  0  0  0  0
    6.0625   69.2709   62.6813 C   0  0  0  0  0  0
    5.1786   68.0419   62.5439 C   0  0  0  0  0  0
    3.9430   61.4470   69.2515 F   0  0  0  0  0  0
    3.1605   65.6833   70.6001 H   0  0  0  0  0  0
    4.6801   63.8910   69.8496 H   0  0  0  0  0  0
    1.3700   61.1822   69.5818 H   0  0  0  0  0  0
   -0.1684   62.9739   70.3010 H   0  0  0  0  0  0
    0.8931   66.1078   71.7584 H   0  0  0  0  0  0
   -0.4444   65.0935   71.3920 H   0  0  0  0  0  0
    1.8702   66.8175   69.0342 H   0  0  0  0  0  0
    1.4965   67.9447   70.2965 H   0  0  0  0  0  0
    1.4339   69.0213   67.9974 H   0  0  0  0  0  0
   -0.0530   69.2152   68.8061 H   0  0  0  0  0  0
    0.5254   67.1576   66.7288 H   0  0  0  0  0  0
   -2.0872   67.4855   68.2615 H   0  0  0  0  0  0
   -1.7992   66.3922   66.9760 H   0  0  0  0  0  0
   -0.0570   65.1805   68.3679 H   0  0  0  0  0  0
   -1.5625   65.3037   69.1683 H   0  0  0  0  0  0
   -0.0581   69.7080   66.1804 H   0  0  0  0  0  0
   -1.6711   69.2999   66.6150 H   0  0  0  0  0  0
   -2.0567   68.0180   64.7274 H   0  0  0  0  0  0
   -0.4570   67.3079   64.8360 H   0  0  0  0  0  0
    0.7843   68.8033   61.1658 H   0  0  0  0  0  0
    3.1635   68.4249   60.7235 H   0  0  0  0  0  0
    1.6438   68.7590   65.3872 H   0  0  0  0  0  0
    3.7838   68.5849   66.1055 H   0  0  0  0  0  0
    6.2343   68.7858   65.4086 H   0  0  0  0  0  0
    5.3808   70.1753   66.0253 H   0  0  0  0  0  0
    6.5606   70.9029   64.0326 H   0  0  0  0  0  0
    4.9036   70.8441   63.6111 H   0  0  0  0  0  0
    7.0911   68.9080   62.7402 H   0  0  0  0  0  0
    5.9430   69.8477   61.7619 H   0  0  0  0  0  0
    5.3103   67.5910   61.5668 H   0  0  0  0  0  0
    5.4938   67.2711   63.2473 H   0  0  0  0  0  0
  1  6  1  0  0  0
  1  2  2  0  0  0
  1 30  1  0  0  0
  2  3  1  0  0  0
  2 31  1  0  0  0
  3  4  2  0  0  0
  3 29  1  0  0  0
  4  5  1  0  0  0
  4 32  1  0  0  0
  5  6  2  0  0  0
  5 33  1  0  0  0
  6  7  1  0  0  0
  7  8  1  0  0  0
  7 34  1  0  0  0
  7 35  1  0  0  0
  8 13  1  0  0  0
  8  9  1  0  0  0
  9 10  1  0  0  0
  9 36  1  0  0  0
  9 37  1  0  0  0
 10 11  1  0  0  0
 10 38  1  0  0  0
 10 39  1  0  0  0
 11 12  1  0  0  0
 11 14  1  0  0  0
 11 40  1  0  0  0
 12 13  1  0  0  0
 12 41  1  0  0  0
 12 42  1  0  0  0
 13 43  1  0  0  0
 13 44  1  0  0  0
 14 15  1  0  0  0
 14 45  1  0  0  0
 14 46  1  0  0  0
 15 16  1  0  0  0
 15 47  1  0  0  0
 15 48  1  0  0  0
 16 17  2  0  0  0
 16 18  1  0  0  0
 18 23  1  0  0  0
 18 19  2  0  0  0
 19 20  1  0  0  0
 19 49  1  0  0  0
 20 21  2  0  0  0
 20 50  1  0  0  0
 21 28  1  0  0  0
 21 22  1  0  0  0
 22 23  2  0  0  0
 22 24  1  0  0  0
 23 51  1  0  0  0
 24 25  1  0  0  0
 24 52  1  0  0  0
 25 26  1  0  0  0
 25 53  1  0  0  0
 25 54  1  0  0  0
 26 27  1  0  0  0
 26 55  1  0  0  0
 26 56  1  0  0  0
 27 28  1  0  0  0
 27 57  1  0  0  0
 27 58  1  0  0  0
 28 59  1  0  0  0
 28 60  1  0  0  0
M  END
> <s_m_entry_id>
9683

> <s_m_entry_name>
ligand_docking-pose.125

> <s_m_Source_Path>
/home/csk/Desktop/cluster/DUD-E-result/aces

> <s_m_Source_File>
ligand_docking-pose.sdf

> <i_m_Source_File_Index>
125

> <i_lp_mmshare_version>
53161

> <r_lp_tautomer_probability>
0.99990000499975

> <s_lp_Force_Field>
OPLS_2005

> <r_lp_Energy>
42.19301

> <b_lp_Chiralities_Consistent>
1

> <s_lp_Variant>
118424-1

> <s_i_glide_gridfile>
glide-grid_1e66

> <i_i_glide_lignum>
368

> <i_i_glide_rotatable_bonds>
6

> <r_i_docking_score>
-7.83418803320434

> <r_i_glide_ligand_efficiency>
-0.270144414938081

> <r_i_glide_ligand_efficiency_sa>
-0.829969230447741

> <r_i_glide_ligand_efficiency_ln>
-1.79383040173594

> <r_i_glide_gscore>
-7.83418803320434

> <r_i_glide_lipo>
-4.51950076322845

> <r_i_glide_hbond>
0

> <r_i_glide_metal>
0

> <r_i_glide_rewards>
-1.68219206219278

> <r_i_glide_evdw>
-37.922290802002

> <r_i_glide_ecoul>
-2.42837524414062

> <r_i_glide_erotb>
0.627875618938072

> <r_i_glide_esite>
0

> <r_i_glide_emodel>
-38.0850062174704

> <r_i_glide_energy>
-40.3506660461426

> <r_i_glide_einternal>
18.5073928833008

> <i_i_glide_confnum>
33

> <i_i_glide_posenum>
269

> <r_i_glide_eff_state_penalty>
0

> <i_f3d_flags>
0

> <s_user_duplicate_titles>
118424

> <s_m_subgroup_title>
dock_pv

> <s_m_subgroupid>
dock_pv1

> <b_m_subgroup_collapsed>
1

$$$$
630921
                    3D
 Schrodinger Suite 2021-1.
 48 51  0  0  1  0            999 V2000
    3.3402   62.5386   69.5346 C   0  0  0  0  0  0
    1.9811   62.2410   69.6104 C   0  0  0  0  0  0
    1.0866   63.2079   70.0648 C   0  0  0  0  0  0
    1.5523   64.4673   70.4574 C   0  0  0  0  0  0
    2.9177   64.7579   70.3664 C   0  0  0  0  0  0
    3.8129   63.7935   69.9101 C   0  0  0  0  0  0
    0.5519   65.5361   70.9215 C   0  0  0  0  0  0
    0.1196   66.5240   69.9151 N   0  0  1  0  0  0
    1.1791   67.4814   69.5688 C   0  0  0  0  0  0
    0.8131   68.4751   68.4497 C   0  0  0  0  0  0
    0.3982   67.7257   67.1777 C   0  0  0  0  0  0
   -0.8413   66.9073   67.5895 C   0  0  0  0  0  0
   -0.4724   65.9182   68.7250 C   0  0  0  0  0  0
    0.1716   68.7188   66.0239 C   0  0  0  0  0  0
    0.1036   68.1249   64.6968 N   0  0  0  0  0  0
    0.8720   68.4906   63.6184 C   0  0  0  0  0  0
    2.2831   68.7523   63.6282 C   0  0  0  0  0  0
    3.3130   68.7884   64.5858 C   0  0  0  0  0  0
    4.6126   69.0636   64.1606 C   0  0  0  0  0  0
    4.8999   69.2850   62.8144 C   0  0  0  0  0  0
    3.9053   69.2569   61.8341 C   0  0  0  0  0  0
    2.5992   68.9960   62.2663 C   0  0  0  0  0  0
    1.3973   68.9078   61.5911 N   0  0  0  0  0  0
    0.3827   68.5703   62.4070 N   0  0  0  0  0  0
    1.2314   69.0368   60.6033 H   0  0  0  0  0  0
    4.0331   61.7902   69.1803 H   0  0  0  0  0  0
    1.6189   61.2677   69.3143 H   0  0  0  0  0  0
    0.0317   62.9779   70.1081 H   0  0  0  0  0  0
    3.2895   65.7289   70.6617 H   0  0  0  0  0  0
    4.8671   64.0212   69.8463 H   0  0  0  0  0  0
    0.9591   66.0718   71.7739 H   0  0  0  0  0  0
   -0.3351   65.0260   71.2945 H   0  0  0  0  0  0
    1.9712   66.8663   69.1713 H   0  0  0  0  0  0
    1.5608   67.9968   70.4469 H   0  0  0  0  0  0
    1.6755   69.1124   68.2499 H   0  0  0  0  0  0
    0.0420   69.1785   68.7639 H   0  0  0  0  0  0
    1.2017   67.0401   66.8983 H   0  0  0  0  0  0
   -1.6597   67.5597   67.8997 H   0  0  0  0  0  0
   -1.2409   66.3717   66.7280 H   0  0  0  0  0  0
    0.3324   65.3087   68.3739 H   0  0  0  0  0  0
   -1.2673   65.2427   69.0010 H   0  0  0  0  0  0
    0.9856   69.4424   66.0431 H   0  0  0  0  0  0
   -0.7306   69.3064   66.2001 H   0  0  0  0  0  0
   -0.6996   67.5198   64.5659 H   0  0  0  0  0  0
    3.1075   68.6060   65.6304 H   0  0  0  0  0  0
    5.4145   69.1034   64.8847 H   0  0  0  0  0  0
    5.9205   69.4859   62.5201 H   0  0  0  0  0  0
    4.1512   69.4240   60.7960 H   0  0  0  0  0  0
  1  6  1  0  0  0
  1  2  2  0  0  0
  1 26  1  0  0  0
  2  3  1  0  0  0
  2 27  1  0  0  0
  3  4  2  0  0  0
  3 28  1  0  0  0
  4  5  1  0  0  0
  4  7  1  0  0  0
  5  6  2  0  0  0
  5 29  1  0  0  0
  6 30  1  0  0  0
  7  8  1  0  0  0
  7 31  1  0  0  0
  7 32  1  0  0  0
  8 13  1  0  0  0
  8  9  1  0  0  0
  9 10  1  0  0  0
  9 33  1  0  0  0
  9 34  1  0  0  0
 10 11  1  0  0  0
 10 35  1  0  0  0
 10 36  1  0  0  0
 11 12  1  0  0  0
 11 14  1  0  0  0
 11 37  1  0  0  0
 12 13  1  0  0  0
 12 38  1  0  0  0
 12 39  1  0  0  0
 13 40  1  0  0  0
 13 41  1  0  0  0
 14 15  1  0  0  0
 14 42  1  0  0  0
 14 43  1  0  0  0
 15 16  1  0  0  0
 15 44  1  0  0  0
 16 24  2  0  0  0
 16 17  1  0  0  0
 17 22  2  0  0  0
 17 18  1  0  0  0
 18 19  2  0  0  0
 18 45  1  0  0  0
 19 20  1  0  0  0
 19 46  1  0  0  0
 20 21  2  0  0  0
 20 47  1  0  0  0
 21 22  1  0  0  0
 21 48  1  0  0  0
 22 23  1  0  0  0
 23 25  1  0  0  0
 23 24  1  0  0  0
M  END
> <s_m_entry_id>
9684

> <s_m_entry_name>
ligand_docking-pose.126

> <s_m_Source_Path>
/home/csk/Desktop/cluster/DUD-E-result/aces

> <s_m_Source_File>
ligand_docking-pose.sdf

> <i_m_Source_File_Index>
126

> <i_lp_mmshare_version>
53161

> <r_lp_tautomer_probability>
1

> <s_lp_Force_Field>
OPLS_2005

> <r_lp_Energy>
23.943507

> <b_lp_Chiralities_Consistent>
1

> <s_lp_Variant>
630921-1

> <s_i_glide_gridfile>
glide-grid_1e66

> <i_i_glide_lignum>
460

> <i_i_glide_rotatable_bonds>
5

> <r_i_docking_score>
-7.82715519736304

> <r_i_glide_ligand_efficiency>
-0.326131466556793

> <r_i_glide_ligand_efficiency_sa>
-0.940725934013961

> <r_i_glide_ligand_efficiency_ln>
-1.87339740347749

> <r_i_glide_gscore>
-7.82715519736304

> <r_i_glide_lipo>
-4.01597780271027

> <r_i_glide_hbond>
-0.315982891332568

> <r_i_glide_metal>
0

> <r_i_glide_rewards>
-1.95941051639043

> <r_i_glide_evdw>
-40.3632354736328

> <r_i_glide_ecoul>
-2.84613108634949

> <r_i_glide_erotb>
0.909297449704286

> <r_i_glide_esite>
0

> <r_i_glide_emodel>
-54.9966616415908

> <r_i_glide_energy>
-43.2093665599823

> <r_i_glide_einternal>
8.72323131561279

> <i_i_glide_confnum>
93

> <i_i_glide_posenum>
42

> <r_i_glide_eff_state_penalty>
0

> <i_f3d_flags>
0

> <s_user_duplicate_titles>
630921

> <s_m_subgroup_title>
dock_pv

> <s_m_subgroupid>
dock_pv1

> <b_m_subgroup_collapsed>
1

$$$$
487297
                    3D
 Schrodinger Suite 2021-1.
 39 41  0  0  1  0            999 V2000
    6.2327   70.4601   66.8199 C   0  0  0  0  0  0
    5.2587   69.8988   65.9994 C   0  0  0  0  0  0
    3.9447   69.7077   66.4655 C   0  0  0  0  0  0
    3.6371   70.1080   67.7857 C   0  0  0  0  0  0
    4.6061   70.7099   68.5882 C   0  0  0  0  0  0
    5.9077   70.8588   68.1146 C   0  0  0  0  0  0
    7.1433   71.4288   69.1672 Cl  0  0  0  0  0  0
    2.3823   69.8959   68.3755 N   0  0  0  0  0  0
    1.4753   69.3370   67.6803 C   0  0  0  0  0  0
    1.6247   68.9300   66.3485 N   0  0  0  0  0  0
    2.8705   69.0263   65.6604 C   0  0  0  0  0  0
    3.2134   68.6248   64.4952 N   0  0  0  0  0  0
    2.4168   67.9322   63.5211 C   0  0  0  0  0  0
    2.6180   68.5577   62.1233 C   0  0  0  0  0  0
    4.0182   68.3389   61.5094 C   0  0  0  0  0  0
    5.1332   69.2629   62.0536 C   0  0  0  0  0  0
    6.3382   68.5080   62.3712 N   0  0  0  0  0  0
    0.3604   68.3931   65.8382 C   0  0  0  0  0  0
   -0.6752   68.8402   66.8639 C   0  0  0  0  0  0
    0.0903   69.0058   68.1594 C   0  0  0  0  0  0
    7.2451   70.5524   66.4561 H   0  0  0  0  0  0
    5.5520   69.5816   65.0101 H   0  0  0  0  0  0
    4.3632   70.9897   69.6019 H   0  0  0  0  0  0
    2.7580   66.9069   63.5344 H   0  0  0  0  0  0
    1.3592   67.8868   63.7143 H   0  0  0  0  0  0
    1.8832   68.1093   61.4520 H   0  0  0  0  0  0
    2.3735   69.6222   62.1423 H   0  0  0  0  0  0
    4.2875   67.2856   61.6184 H   0  0  0  0  0  0
    3.9426   68.4966   60.4313 H   0  0  0  0  0  0
    5.3760   70.0323   61.3188 H   0  0  0  0  0  0
    4.8074   69.8025   62.9393 H   0  0  0  0  0  0
    6.7725   68.2259   61.4861 H   0  0  0  0  0  0
    7.0136   69.1138   62.8167 H   0  0  0  0  0  0
    0.0837   68.8594   64.8913 H   0  0  0  0  0  0
    0.3861   67.3069   65.7269 H   0  0  0  0  0  0
   -1.1175   69.7950   66.5662 H   0  0  0  0  0  0
   -1.4976   68.1272   66.9433 H   0  0  0  0  0  0
    0.1103   68.0907   68.7517 H   0  0  0  0  0  0
   -0.3211   69.8143   68.7674 H   0  0  0  0  0  0
  1  6  1  0  0  0
  1  2  2  0  0  0
  1 21  1  0  0  0
  2  3  1  0  0  0
  2 22  1  0  0  0
  3 11  1  0  0  0
  3  4  2  0  0  0
  4  5  1  0  0  0
  4  8  1  0  0  0
  5  6  2  0  0  0
  5 23  1  0  0  0
  6  7  1  0  0  0
  8  9  2  0  0  0
  9 20  1  0  0  0
  9 10  1  0  0  0
 10 11  1  0  0  0
 10 18  1  0  0  0
 11 12  2  0  0  0
 12 13  1  0  0  0
 13 14  1  0  0  0
 13 24  1  0  0  0
 13 25  1  0  0  0
 14 15  1  0  0  0
 14 26  1  0  0  0
 14 27  1  0  0  0
 15 16  1  0  0  0
 15 28  1  0  0  0
 15 29  1  0  0  0
 16 17  1  0  0  0
 16 30  1  0  0  0
 16 31  1  0  0  0
 17 32  1  0  0  0
 17 33  1  0  0  0
 18 19  1  0  0  0
 18 34  1  0  0  0
 18 35  1  0  0  0
 19 20  1  0  0  0
 19 36  1  0  0  0
 19 37  1  0  0  0
 20 38  1  0  0  0
 20 39  1  0  0  0
M  END
> <s_m_entry_id>
9686

> <s_m_entry_name>
ligand_docking-pose.128

> <s_m_Source_Path>
/home/csk/Desktop/cluster/DUD-E-result/aces

> <s_m_Source_File>
ligand_docking-pose.sdf

> <i_m_Source_File_Index>
128

> <i_lp_mmshare_version>
53161

> <r_lp_tautomer_probability>
0.5

> <s_lp_Force_Field>
OPLS_2005

> <r_lp_Energy>
35.057269

> <b_lp_Chiralities_Consistent>
1

> <s_lp_Variant>
487297-1

> <s_i_glide_gridfile>
glide-grid_1e66

> <i_i_glide_lignum>
44

> <i_i_glide_rotatable_bonds>
4

> <r_i_docking_score>
-7.79434932918661

> <r_i_glide_ligand_efficiency>
-0.38971746645933

> <r_i_glide_ligand_efficiency_sa>
-1.05785595539559

> <r_i_glide_ligand_efficiency_ln>
-1.95066856224928

> <r_i_glide_gscore>
-7.79434932918661

> <r_i_glide_lipo>
-3.2499177600832

> <r_i_glide_hbond>
-0.429349493809736

> <r_i_glide_metal>
0

> <r_i_glide_rewards>
-2.44508549622262

> <r_i_glide_evdw>
-33.318042755127

> <r_i_glide_ecoul>
-4.3392186164856

> <r_i_glide_erotb>
0.64678835115814

> <r_i_glide_esite>
0

> <r_i_glide_emodel>
-55.0874455946247

> <r_i_glide_energy>
-37.6572613716125

> <r_i_glide_einternal>
2.20460271835327

> <i_i_glide_confnum>
11

> <i_i_glide_posenum>
307

> <r_i_glide_eff_state_penalty>
0

> <i_f3d_flags>
0

> <s_user_duplicate_titles>
487297

> <s_m_subgroup_title>
dock_pv

> <s_m_subgroupid>
dock_pv1

> <b_m_subgroup_collapsed>
1

$$$$
689267
                    3D
 Schrodinger Suite 2021-1.
 50 53  0  0  1  0            999 V2000
    4.6453   59.7081   71.3673 C   0  0  0  0  0  0
    3.4582   59.1334   72.1540 C   0  0  0  0  0  0
    2.2219   58.8670   71.2678 C   0  0  0  0  0  0
    1.9508   59.9419   70.3680 O   0  0  0  0  0  0
    1.5198   61.1642   70.8393 C   0  0  0  0  0  0
    1.0489   61.3962   72.1479 C   0  0  0  0  0  0
    0.6276   62.6707   72.5415 C   0  0  0  0  0  0
    0.6827   63.7073   71.6124 C   0  0  0  0  0  0
    1.1224   63.4775   70.3359 C   0  0  0  0  0  0
    1.5432   62.2199   69.9223 C   0  0  0  0  0  0
    1.0936   64.6028   69.5680 O   0  0  0  0  0  0
    0.6685   65.6302   70.3404 C   0  0  0  0  0  0
    0.5847   66.9080   69.9077 C   0  0  0  0  0  0
    0.7430   67.3944   68.5246 C   0  0  0  0  0  0
    1.3697   68.6095   68.2176 C   0  0  0  0  0  0
    1.5987   68.9565   66.8762 C   0  0  0  0  0  0
    1.2453   68.1019   65.8797 N   0  3  0  0  0  0
    0.5809   66.9579   66.1537 C   0  0  0  0  0  0
    0.2714   66.6230   67.4693 C   0  0  0  0  0  0
    1.5306   68.4240   64.4521 C   0  0  0  0  0  0
    2.9903   68.5984   64.0173 C   0  0  0  0  0  0
    4.0757   68.4481   64.8934 C   0  0  0  0  0  0
    5.3837   68.6097   64.4364 C   0  0  0  0  0  0
    5.6234   68.9072   63.0971 C   0  0  0  0  0  0
    4.5545   69.0602   62.2177 C   0  0  0  0  0  0
    3.2462   68.9078   62.6735 C   0  0  0  0  0  0
    2.2224   69.0500   61.8000 F   0  0  0  0  0  0
    0.3430   65.1202   71.6741 C   0  0  0  0  0  0
   -0.1331   65.7622   72.6086 O   0  0  0  0  0  0
    5.5546   59.7091   71.9679 H   0  0  0  0  0  0
    4.4543   60.7379   71.0635 H   0  0  0  0  0  0
    4.8176   59.1300   70.4612 H   0  0  0  0  0  0
    3.7570   58.1982   72.6309 H   0  0  0  0  0  0
    3.2082   59.8110   72.9700 H   0  0  0  0  0  0
    2.4123   57.9871   70.6519 H   0  0  0  0  0  0
    1.3443   58.6161   71.8654 H   0  0  0  0  0  0
    0.9952   60.5974   72.8707 H   0  0  0  0  0  0
    0.2713   62.8340   73.5490 H   0  0  0  0  0  0
    1.8847   62.0515   68.9130 H   0  0  0  0  0  0
    0.3430   67.6722   70.6240 H   0  0  0  0  0  0
    1.6973   69.2638   69.0150 H   0  0  0  0  0  0
    2.0942   69.8696   66.5752 H   0  0  0  0  0  0
    0.3388   66.3169   65.3199 H   0  0  0  0  0  0
   -0.2620   65.7080   67.6740 H   0  0  0  0  0  0
    1.0948   67.6371   63.8330 H   0  0  0  0  0  0
    0.9488   69.3079   64.2155 H   0  0  0  0  0  0
    3.9308   68.1995   65.9334 H   0  0  0  0  0  0
    6.2141   68.5045   65.1202 H   0  0  0  0  0  0
    6.6379   69.0180   62.7407 H   0  0  0  0  0  0
    4.7429   69.2893   61.1781 H   0  0  0  0  0  0
  1  2  1  0  0  0
  1 30  1  0  0  0
  1 31  1  0  0  0
  1 32  1  0  0  0
  2  3  1  0  0  0
  2 33  1  0  0  0
  2 34  1  0  0  0
  3  4  1  0  0  0
  3 35  1  0  0  0
  3 36  1  0  0  0
  4  5  1  0  0  0
  5 10  1  0  0  0
  5  6  2  0  0  0
  6  7  1  0  0  0
  6 37  1  0  0  0
  7  8  2  0  0  0
  7 38  1  0  0  0
  8 28  1  0  0  0
  8  9  1  0  0  0
  9 10  2  0  0  0
  9 11  1  0  0  0
 10 39  1  0  0  0
 11 12  1  0  0  0
 12 13  2  0  0  0
 12 28  1  0  0  0
 13 14  1  0  0  0
 13 40  1  0  0  0
 14 19  1  0  0  0
 14 15  2  0  0  0
 15 16  1  0  0  0
 15 41  1  0  0  0
 16 17  2  0  0  0
 16 42  1  0  0  0
 17 18  1  0  0  0
 17 20  1  0  0  0
 18 19  2  0  0  0
 18 43  1  0  0  0
 19 44  1  0  0  0
 20 21  1  0  0  0
 20 45  1  0  0  0
 20 46  1  0  0  0
 21 26  1  0  0  0
 21 22  2  0  0  0
 22 23  1  0  0  0
 22 47  1  0  0  0
 23 24  2  0  0  0
 23 48  1  0  0  0
 24 25  1  0  0  0
 24 49  1  0  0  0
 25 26  2  0  0  0
 25 50  1  0  0  0
 26 27  1  0  0  0
 28 29  2  0  0  0
M  CHG  1  17   1
M  END
> <s_m_entry_id>
9687

> <s_m_entry_name>
ligand_docking-pose.129

> <s_m_Source_Path>
/home/csk/Desktop/cluster/DUD-E-result/aces

> <s_m_Source_File>
ligand_docking-pose.sdf

> <i_m_Source_File_Index>
129

> <i_lp_mmshare_version>
53161

> <r_lp_tautomer_probability>
1

> <s_lp_Force_Field>
OPLS_2005

> <r_lp_Energy>
38.828989

> <b_lp_Chiralities_Consistent>
1

> <s_lp_Variant>
689267-1

> <s_i_glide_gridfile>
glide-grid_1e66

> <i_i_glide_lignum>
1175

> <i_i_glide_rotatable_bonds>
6

> <r_i_docking_score>
-7.79194090220481

> <r_i_glide_ligand_efficiency>
-0.268687617317407

> <r_i_glide_ligand_efficiency_sa>
-0.82549348661115

> <r_i_glide_ligand_efficiency_ln>
-1.78415688003186

> <r_i_glide_gscore>
-7.79194090220481

> <r_i_glide_lipo>
-3.20595892176864

> <r_i_glide_hbond>
0

> <r_i_glide_metal>
0

> <r_i_glide_rewards>
-2.6316060844376

> <r_i_glide_evdw>
-33.3369750976562

> <r_i_glide_ecoul>
-6.18196439743042

> <r_i_glide_erotb>
0.639767518498798

> <r_i_glide_esite>
0

> <r_i_glide_emodel>
-48.9956860318294

> <r_i_glide_energy>
-39.5189394950867

> <r_i_glide_einternal>
14.0620737075806

> <i_i_glide_confnum>
27

> <i_i_glide_posenum>
81

> <r_i_glide_eff_state_penalty>
0

> <i_f3d_flags>
0

> <s_user_duplicate_titles>
689267

> <s_m_subgroup_title>
dock_pv

> <s_m_subgroupid>
dock_pv1

> <b_m_subgroup_collapsed>
1

$$$$
312899
                    3D
 Schrodinger Suite 2021-1.
 46 49  0  0  1  0            999 V2000
   -2.5487   68.1092   66.5432 C   0  0  0  0  0  0
   -2.0310   67.4007   67.6247 C   0  0  0  0  0  0
   -0.6535   67.1582   67.7144 C   0  0  0  0  0  0
    0.1828   67.5562   66.6753 C   0  0  0  0  0  0
   -0.3427   68.1768   65.5494 C   0  0  0  0  0  0
   -1.7074   68.5081   65.5072 C   0  0  0  0  0  0
    0.5789   68.3861   64.5225 N   0  0  0  0  0  0
    0.3762   68.7346   63.2409 C   0  0  0  0  0  0
   -0.7355   68.9113   62.7656 O   0  0  0  0  0  0
    1.4883   68.8526   62.4783 N   0  0  0  0  0  0
    2.8420   68.7874   62.8771 C   0  0  0  0  0  0
    3.7690   68.2176   62.0029 C   0  0  0  0  0  0
    5.1130   68.1333   62.3678 C   0  0  0  0  0  0
    5.5466   68.6376   63.5917 C   0  0  0  0  0  0
    4.6389   69.2351   64.4720 C   0  0  0  0  0  0
    3.2937   69.3080   64.0990 C   0  0  0  0  0  0
    5.0685   69.7985   65.7605 C   0  0  0  0  0  0
    4.3215   69.8677   66.7908 N   0  0  0  0  0  0
    5.0788   70.5425   67.8139 C   0  0  0  0  0  0
    6.5253   70.4415   67.3871 C   0  0  0  0  0  0
    6.3444   70.2753   65.9678 N   0  0  0  0  0  0
   -0.0570   66.4201   68.8190 C   0  0  0  0  0  0
   -0.4574   65.2728   69.1681 N   0  0  0  0  0  0
    0.4018   64.7782   70.2051 C   0  0  0  0  0  0
    1.4978   65.8089   70.3684 C   0  0  0  0  0  0
    1.0458   66.8684   69.5059 N   0  0  0  0  0  0
   -3.6068   68.3244   66.4970 H   0  0  0  0  0  0
   -2.7003   67.0721   68.4078 H   0  0  0  0  0  0
    1.2386   67.3218   66.7136 H   0  0  0  0  0  0
   -2.1467   69.0258   64.6697 H   0  0  0  0  0  0
    1.5341   68.1827   64.7683 H   0  0  0  0  0  0
    1.3255   68.9306   61.4860 H   0  0  0  0  0  0
    3.4570   67.8369   61.0412 H   0  0  0  0  0  0
    5.8295   67.7011   61.6837 H   0  0  0  0  0  0
    6.5973   68.5715   63.8369 H   0  0  0  0  0  0
    2.6064   69.8186   64.7580 H   0  0  0  0  0  0
    4.7412   71.5797   67.8699 H   0  0  0  0  0  0
    4.9098   70.1084   68.7986 H   0  0  0  0  0  0
    6.9869   69.5582   67.8280 H   0  0  0  0  0  0
    7.1289   71.3079   67.6437 H   0  0  0  0  0  0
    7.2116   69.8894   65.6138 H   0  0  0  0  0  0
    0.7935   63.8131   69.8782 H   0  0  0  0  0  0
   -0.1939   64.6611   71.1102 H   0  0  0  0  0  0
    1.5432   66.1081   71.4101 H   0  0  0  0  0  0
    2.4701   65.3947   70.0979 H   0  0  0  0  0  0
    1.8491   67.3653   69.1542 H   0  0  0  0  0  0
  1  6  1  0  0  0
  1  2  2  0  0  0
  1 27  1  0  0  0
  2  3  1  0  0  0
  2 28  1  0  0  0
  3  4  2  0  0  0
  3 22  1  0  0  0
  4  5  1  0  0  0
  4 29  1  0  0  0
  5  6  2  0  0  0
  5  7  1  0  0  0
  6 30  1  0  0  0
  7  8  1  0  0  0
  7 31  1  0  0  0
  8  9  2  0  0  0
  8 10  1  0  0  0
 10 11  1  0  0  0
 10 32  1  0  0  0
 11 16  1  0  0  0
 11 12  2  0  0  0
 12 13  1  0  0  0
 12 33  1  0  0  0
 13 14  2  0  0  0
 13 34  1  0  0  0
 14 15  1  0  0  0
 14 35  1  0  0  0
 15 16  2  0  0  0
 15 17  1  0  0  0
 16 36  1  0  0  0
 17 21  1  0  0  0
 17 18  2  0  0  0
 18 19  1  0  0  0
 19 20  1  0  0  0
 19 37  1  0  0  0
 19 38  1  0  0  0
 20 21  1  0  0  0
 20 39  1  0  0  0
 20 40  1  0  0  0
 21 41  1  0  0  0
 22 26  1  0  0  0
 22 23  2  0  0  0
 23 24  1  0  0  0
 24 25  1  0  0  0
 24 42  1  0  0  0
 24 43  1  0  0  0
 25 26  1  0  0  0
 25 44  1  0  0  0
 25 45  1  0  0  0
 26 46  1  0  0  0
M  END
> <s_m_entry_id>
9689

> <s_m_entry_name>
ligand_docking-pose.131

> <s_m_Source_Path>
/home/csk/Desktop/cluster/DUD-E-result/aces

> <s_m_Source_File>
ligand_docking-pose.sdf

> <i_m_Source_File_Index>
131

> <i_lp_mmshare_version>
53161

> <r_lp_tautomer_probability>
0.249999999998415

> <s_lp_Force_Field>
OPLS_2005

> <r_lp_Energy>
47.157148

> <b_lp_Chiralities_Consistent>
1

> <s_lp_Variant>
312899-1

> <s_i_glide_gridfile>
glide-grid_1e66

> <i_i_glide_lignum>
489

> <i_i_glide_rotatable_bonds>
6

> <r_i_docking_score>
-7.77268596099238

> <r_i_glide_ligand_efficiency>
-0.298949460038168

> <r_i_glide_ligand_efficiency_sa>
-0.88563659905375

> <r_i_glide_ligand_efficiency_ln>
-1.8253897936762

> <r_i_glide_gscore>
-7.77268596099238

> <r_i_glide_lipo>
-3.72685793065682

> <r_i_glide_hbond>
-0.310714227260512

> <r_i_glide_metal>
0

> <r_i_glide_rewards>
-2.1930948030573

> <r_i_glide_evdw>
-49.8947372436523

> <r_i_glide_ecoul>
0.0784051492810249

> <r_i_glide_erotb>
0.940957089772725

> <r_i_glide_esite>
0

> <r_i_glide_emodel>
-65.4505094450224

> <r_i_glide_energy>
-49.8163320943713

> <r_i_glide_einternal>
7.39514207839966

> <i_i_glide_confnum>
43

> <i_i_glide_posenum>
95

> <r_i_glide_eff_state_penalty>
0

> <i_f3d_flags>
0

> <s_user_duplicate_titles>
312899

> <s_m_subgroup_title>
dock_pv

> <s_m_subgroupid>
dock_pv1

> <b_m_subgroup_collapsed>
1

$$$$
77748
                    3D
 Schrodinger Suite 2021-1.
 26 28  0  0  1  0            999 V2000
    5.5720   69.1758   65.0214 C   0  0  0  0  0  0
    5.7324   69.2414   63.6429 C   0  0  0  0  0  0
    4.6334   69.1297   62.8114 C   0  0  0  0  0  0
    3.3552   68.9288   63.3475 C   0  0  0  0  0  0
    3.1759   68.8346   64.7526 C   0  0  0  0  0  0
    4.3091   68.9762   65.5684 C   0  0  0  0  0  0
    1.7970   68.6019   65.3385 C   0  0  0  0  0  0
    1.5711   68.5198   66.7261 C   0  0  0  0  0  0
    0.2945   68.3242   67.2493 C   0  0  0  0  0  0
   -0.8084   68.2301   66.4006 C   0  0  0  0  0  0
   -0.6038   68.3436   65.0241 C   0  0  0  0  0  0
    0.6783   68.5080   64.4790 C   0  0  0  0  0  0
    0.8111   68.5982   62.9947 C   0  0  0  0  0  0
   -0.1257   68.5073   62.2084 O   0  0  0  0  0  0
    2.2211   68.8297   62.3954 C   0  0  0  0  0  0
    2.3368   68.9077   61.1683 O   0  0  0  0  0  0
   -2.1659   68.0024   66.9345 N   0  3  0  0  0  0
   -3.1103   68.5076   66.3367 O   0  5  0  0  0  0
   -2.2789   67.3066   67.9386 O   0  0  0  0  0  0
    6.4323   69.2784   65.6663 H   0  0  0  0  0  0
    6.7087   69.3854   63.2014 H   0  0  0  0  0  0
    4.7984   69.2053   61.7428 H   0  0  0  0  0  0
    4.2415   68.9293   66.6429 H   0  0  0  0  0  0
    2.3715   68.6160   67.4387 H   0  0  0  0  0  0
    0.1638   68.2621   68.3220 H   0  0  0  0  0  0
   -1.4637   68.2619   64.3707 H   0  0  0  0  0  0
  1  6  1  0  0  0
  1  2  2  0  0  0
  1 20  1  0  0  0
  2  3  1  0  0  0
  2 21  1  0  0  0
  3  4  2  0  0  0
  3 22  1  0  0  0
  4 15  1  0  0  0
  4  5  1  0  0  0
  5  6  2  0  0  0
  5  7  1  0  0  0
  6 23  1  0  0  0
  7 12  2  0  0  0
  7  8  1  0  0  0
  8  9  2  0  0  0
  8 24  1  0  0  0
  9 10  1  0  0  0
  9 25  1  0  0  0
 10 11  2  0  0  0
 10 17  1  0  0  0
 11 12  1  0  0  0
 11 26  1  0  0  0
 12 13  1  0  0  0
 13 14  2  0  0  0
 13 15  1  0  0  0
 15 16  2  0  0  0
 17 18  1  0  0  0
 17 19  2  0  0  0
M  CHG  2  17   1  18  -1
M  END
> <s_m_entry_id>
9690

> <s_m_entry_name>
ligand_docking-pose.132

> <s_m_Source_Path>
/home/csk/Desktop/cluster/DUD-E-result/aces

> <s_m_Source_File>
ligand_docking-pose.sdf

> <i_m_Source_File_Index>
132

> <i_lp_mmshare_version>
53161

> <r_lp_tautomer_probability>
1

> <s_lp_Force_Field>
OPLS_2005

> <r_lp_Energy>
23.419232

> <b_lp_Chiralities_Consistent>
1

> <s_lp_Variant>
77748-1

> <s_i_glide_gridfile>
glide-grid_1e66

> <i_i_glide_lignum>
61

> <i_i_glide_rotatable_bonds>
1

> <r_i_docking_score>
-7.77241116925061

> <r_i_glide_ligand_efficiency>
-0.409074272065822

> <r_i_glide_ligand_efficiency_sa>
-1.09157446095881

> <r_i_glide_ligand_efficiency_ln>
-1.97047316749038

> <r_i_glide_gscore>
-7.77241116925061

> <r_i_glide_lipo>
-2.35645675550541

> <r_i_glide_hbond>
0

> <r_i_glide_metal>
0

> <r_i_glide_rewards>
-3.31811628613213

> <r_i_glide_evdw>
-36.8246917724609

> <r_i_glide_ecoul>
-1.71069025993347

> <r_i_glide_erotb>
0

> <r_i_glide_esite>
0

> <r_i_glide_emodel>
-56.2872366542798

> <r_i_glide_energy>
-38.5353820323944

> <r_i_glide_einternal>
1.25035047531128

> <i_i_glide_confnum>
1

> <i_i_glide_posenum>
314

> <r_i_glide_eff_state_penalty>
0

> <i_f3d_flags>
0

> <s_user_duplicate_titles>
77748

> <s_m_subgroup_title>
dock_pv

> <s_m_subgroupid>
dock_pv1

> <b_m_subgroup_collapsed>
1

$$$$
458371
                    3D
 Schrodinger Suite 2021-1.
 49 51  0  0  1  0            999 V2000
    5.3857   68.6740   64.5848 C   0  0  0  0  0  0
    4.3372   69.3125   65.5136 C   0  0  0  0  0  0
    3.1180   68.5072   65.6616 N   0  0  2  0  0  0
    2.4141   68.3782   64.3825 C   0  0  0  0  0  0
    2.2799   69.1329   66.7019 C   0  0  0  0  0  0
    1.0602   68.3304   67.1505 C   0  0  0  0  0  0
   -0.0960   68.3221   66.3623 C   0  0  0  0  0  0
   -1.2184   67.6083   66.7662 C   0  0  0  0  0  0
   -1.1956   66.9088   67.9676 C   0  0  0  0  0  0
   -0.0555   66.9080   68.7778 C   0  0  0  0  0  0
    1.0740   67.6213   68.3615 C   0  0  0  0  0  0
   -0.1513   66.2884   70.1104 C   0  0  0  0  0  0
    0.5318   65.2260   70.5769 C   0  0  0  0  0  0
    0.3431   64.5750   71.8827 C   0  0  0  0  0  0
   -0.4486   64.9102   72.7676 O   0  0  0  0  0  0
    1.3250   63.4903   71.8618 C   0  0  0  0  0  0
    1.6808   62.5067   72.7837 C   0  0  0  0  0  0
    2.7112   61.5936   72.4684 C   0  0  0  0  0  0
    3.3680   61.7076   71.2217 C   0  0  0  0  0  0
    2.9809   62.6857   70.2990 C   0  0  0  0  0  0
    1.9662   63.5655   70.6484 C   0  0  0  0  0  0
    1.4959   64.5823   69.8732 O   0  0  0  0  0  0
    4.3839   60.8588   70.8445 O   0  0  0  0  0  0
    5.5736   60.9554   71.6183 C   0  0  0  0  0  0
    3.1116   60.5709   73.3103 O   0  0  0  0  0  0
    2.5007   60.4313   74.5871 C   0  0  0  0  0  0
    6.3426   69.1875   64.6831 H   0  0  0  0  0  0
    5.0972   68.7393   63.5350 H   0  0  0  0  0  0
    5.5465   67.6254   64.8318 H   0  0  0  0  0  0
    4.8025   69.4254   66.4930 H   0  0  0  0  0  0
    4.1006   70.3215   65.1696 H   0  0  0  0  0  0
    3.0495   67.9383   63.6152 H   0  0  0  0  0  0
    1.5615   67.7064   64.4710 H   0  0  0  0  0  0
    2.0607   69.3424   64.0156 H   0  0  0  0  0  0
    2.8966   69.3052   67.5866 H   0  0  0  0  0  0
    1.9430   70.1087   66.3679 H   0  0  0  0  0  0
   -0.1350   68.8797   65.4374 H   0  0  0  0  0  0
   -2.1096   67.6104   66.1559 H   0  0  0  0  0  0
   -2.0888   66.4000   68.2881 H   0  0  0  0  0  0
    1.9414   67.6714   69.0074 H   0  0  0  0  0  0
   -0.8616   66.7617   70.7708 H   0  0  0  0  0  0
    1.1625   62.4570   73.7305 H   0  0  0  0  0  0
    3.4770   62.7623   69.3451 H   0  0  0  0  0  0
    6.3428   60.3574   71.1332 H   0  0  0  0  0  0
    5.9430   61.9827   71.6757 H   0  0  0  0  0  0
    5.4587   60.5687   72.6335 H   0  0  0  0  0  0
    2.9445   59.5800   75.1033 H   0  0  0  0  0  0
    2.6627   61.3115   75.2086 H   0  0  0  0  0  0
    1.4296   60.2416   74.5012 H   0  0  0  0  0  0
  1  2  1  0  0  0
  1 27  1  0  0  0
  1 28  1  0  0  0
  1 29  1  0  0  0
  2  3  1  0  0  0
  2 30  1  0  0  0
  2 31  1  0  0  0
  3  4  1  0  0  0
  3  5  1  0  0  0
  4 32  1  0  0  0
  4 33  1  0  0  0
  4 34  1  0  0  0
  5  6  1  0  0  0
  5 35  1  0  0  0
  5 36  1  0  0  0
  6 11  1  0  0  0
  6  7  2  0  0  0
  7  8  1  0  0  0
  7 37  1  0  0  0
  8  9  2  0  0  0
  8 38  1  0  0  0
  9 10  1  0  0  0
  9 39  1  0  0  0
 10 11  2  0  0  0
 10 12  1  0  0  0
 11 40  1  0  0  0
 12 13  2  0  0  0
 12 41  1  0  0  0
 13 22  1  0  0  0
 13 14  1  0  0  0
 14 15  2  0  0  0
 14 16  1  0  0  0
 16 21  2  0  0  0
 16 17  1  0  0  0
 17 18  2  0  0  0
 17 42  1  0  0  0
 18 19  1  0  0  0
 18 25  1  0  0  0
 19 20  2  0  0  0
 19 23  1  0  0  0
 20 21  1  0  0  0
 20 43  1  0  0  0
 21 22  1  0  0  0
 23 24  1  0  0  0
 24 44  1  0  0  0
 24 45  1  0  0  0
 24 46  1  0  0  0
 25 26  1  0  0  0
 26 47  1  0  0  0
 26 48  1  0  0  0
 26 49  1  0  0  0
M  END
> <s_m_entry_id>
9691

> <s_m_entry_name>
ligand_docking-pose.133

> <s_m_Source_Path>
/home/csk/Desktop/cluster/DUD-E-result/aces

> <s_m_Source_File>
ligand_docking-pose.sdf

> <i_m_Source_File_Index>
133

> <i_lp_mmshare_version>
53161

> <r_lp_tautomer_probability>
1

> <s_lp_Force_Field>
OPLS_2005

> <r_lp_Energy>
40.324963

> <b_lp_Chiralities_Consistent>
1

> <s_lp_Variant>
458371-1

> <s_i_glide_gridfile>
glide-grid_1e66

> <i_i_glide_lignum>
1254

> <i_i_glide_rotatable_bonds>
6

> <r_i_docking_score>
-7.76734667870423

> <r_i_glide_ligand_efficiency>
-0.298744103027086

> <r_i_glide_ligand_efficiency_sa>
-0.885028229716459

> <r_i_glide_ligand_efficiency_ln>
-1.82413588075044

> <r_i_glide_gscore>
-7.76734667870423

> <r_i_glide_lipo>
-3.62313291783199

> <r_i_glide_hbond>
-0.287652612117748

> <r_i_glide_metal>
0

> <r_i_glide_rewards>
-2.16373750949846

> <r_i_glide_evdw>
-37.0342559814453

> <r_i_glide_ecoul>
-1.99863421916962

> <r_i_glide_erotb>
0.458684292691673

> <r_i_glide_esite>
0

> <r_i_glide_emodel>
-51.8959779749473

> <r_i_glide_energy>
-39.0328902006149

> <r_i_glide_einternal>
9.53085708618164

> <i_i_glide_confnum>
20

> <i_i_glide_posenum>
185

> <r_i_glide_eff_state_penalty>
0

> <i_f3d_flags>
0

> <s_user_duplicate_titles>
458371

> <s_m_subgroup_title>
dock_pv

> <s_m_subgroupid>
dock_pv1

> <b_m_subgroup_collapsed>
1

$$$$
77002
                    3D
 Schrodinger Suite 2021-1.
 77 82  0  0  1  0            999 V2000
    0.5891   66.4614   70.1998 C   0  0  0  0  0  0
   -0.0539   66.1074   71.3778 C   0  0  0  0  0  0
    0.2234   64.8772   71.9678 C   0  0  0  0  0  0
    1.1539   63.9901   71.3761 C   0  0  0  0  0  0
    1.8383   64.3471   70.1789 C   0  0  0  0  0  0
    1.5108   65.6091   69.5977 C   0  0  0  0  0  0
    2.7764   63.4051   69.6202 C   0  0  0  0  0  0
    2.9419   62.1465   70.2713 C   0  0  0  0  0  0
    2.2475   61.9296   71.4837 C   0  0  0  0  0  0
    1.3649   62.8124   71.9962 N   0  0  0  0  0  0
    2.4265   60.6553   72.3089 C   0  0  0  0  0  0
    2.7884   59.4507   71.4385 C   0  0  0  0  0  0
    4.0377   59.7973   70.6300 C   0  0  0  0  0  0
    3.7851   60.9923   69.6905 C   0  0  0  0  0  0
    3.4924   63.7838   68.4490 N   0  0  0  0  0  0
    3.3386   62.9399   67.2652 C   0  0  0  0  0  0
    3.9427   63.4456   65.9175 C   0  0  0  0  0  0
    3.1150   64.0676   64.7688 C   0  0  0  0  0  0
    4.0154   64.3607   63.5351 C   0  0  0  0  0  0
    4.9018   65.6042   63.6251 C   0  0  0  0  0  0
    4.0535   66.8738   63.6035 C   0  0  0  0  0  0
    4.7899   68.1517   63.9810 C   0  0  0  0  0  0
    3.8417   69.2263   64.2313 N   0  0  0  0  0  0
    3.3126   69.3077   65.5329 C   0  0  0  0  0  0
    4.1318   69.8429   66.5517 C   0  0  0  0  0  0
    3.5409   70.1078   67.8041 C   0  0  0  0  0  0
    2.2961   69.7086   68.1187 N   0  0  0  0  0  0
    1.5053   69.1733   67.1691 C   0  0  0  0  0  0
    1.9400   68.9632   65.8226 C   0  0  0  0  0  0
    0.9385   68.5057   64.8850 C   0  0  0  0  0  0
   -0.3568   68.2311   65.3230 C   0  0  0  0  0  0
   -0.7375   68.4174   66.6421 C   0  0  0  0  0  0
    0.1786   68.9074   67.5567 C   0  0  0  0  0  0
   -2.3588   68.0917   67.1360 Cl  0  0  0  0  0  0
    1.1877   68.3645   63.1776 Cl  0  0  0  0  0  0
    4.2603   70.8926   68.8925 C   0  0  0  0  0  0
    5.7781   70.7406   68.7818 C   0  0  0  0  0  0
    6.2323   71.0967   67.3797 C   0  0  0  0  0  0
    5.6258   70.1504   66.3364 C   0  0  0  0  0  0
    0.3743   67.4178   69.7575 H   0  0  0  0  0  0
   -0.7537   66.7929   71.8364 H   0  0  0  0  0  0
   -0.2680   64.5941   72.8867 H   0  0  0  0  0  0
    1.9430   65.9066   68.6595 H   0  0  0  0  0  0
    3.2216   60.8286   73.0354 H   0  0  0  0  0  0
    1.5328   60.4355   72.8957 H   0  0  0  0  0  0
    1.9569   59.1943   70.7785 H   0  0  0  0  0  0
    2.9731   58.5744   72.0622 H   0  0  0  0  0  0
    4.3444   58.9298   70.0471 H   0  0  0  0  0  0
    4.8621   60.0243   71.3081 H   0  0  0  0  0  0
    3.2537   60.5996   68.8202 H   0  0  0  0  0  0
    4.7428   61.3686   69.3508 H   0  0  0  0  0  0
    3.3746   64.7645   68.2381 H   0  0  0  0  0  0
    3.9432   62.1080   67.5460 H   0  0  0  0  0  0
    2.3434   62.5079   67.1688 H   0  0  0  0  0  0
    4.7772   64.1080   66.1327 H   0  0  0  0  0  0
    4.3430   62.5578   65.4404 H   0  0  0  0  0  0
    2.3584   63.3927   64.3681 H   0  0  0  0  0  0
    2.5677   64.9396   65.1233 H   0  0  0  0  0  0
    4.6289   63.4860   63.3150 H   0  0  0  0  0  0
    3.4080   64.5074   62.6501 H   0  0  0  0  0  0
    5.5428   65.5547   64.5034 H   0  0  0  0  0  0
    5.5615   65.6356   62.7619 H   0  0  0  0  0  0
    3.6006   66.9959   62.6194 H   0  0  0  0  0  0
    3.2265   66.7613   64.3010 H   0  0  0  0  0  0
    5.3973   67.9562   64.8621 H   0  0  0  0  0  0
    5.5031   68.4377   63.2057 H   0  0  0  0  0  0
    3.1422   69.2833   63.5049 H   0  0  0  0  0  0
   -1.0978   67.8945   64.6138 H   0  0  0  0  0  0
   -0.1195   69.1353   68.5684 H   0  0  0  0  0  0
    3.9166   70.5899   69.8843 H   0  0  0  0  0  0
    3.9714   71.9383   68.7703 H   0  0  0  0  0  0
    6.0532   69.7096   68.9207 H   0  0  0  0  0  0
    6.3073   71.3118   69.5430 H   0  0  0  0  0  0
    7.3184   71.0097   67.3345 H   0  0  0  0  0  0
    5.9426   72.1227   67.1634 H   0  0  0  0  0  0
    6.1720   69.2093   66.4044 H   0  0  0  0  0  0
    5.8122   70.5524   65.3401 H   0  0  0  0  0  0
  1  6  1  0  0  0
  1  2  2  0  0  0
  1 40  1  0  0  0
  2  3  1  0  0  0
  2 41  1  0  0  0
  3  4  2  0  0  0
  3 42  1  0  0  0
  4 10  1  0  0  0
  4  5  1  0  0  0
  5  6  2  0  0  0
  5  7  1  0  0  0
  6 43  1  0  0  0
  7  8  2  0  0  0
  7 15  1  0  0  0
  8 14  1  0  0  0
  8  9  1  0  0  0
  9 10  2  0  0  0
  9 11  1  0  0  0
 11 12  1  0  0  0
 11 44  1  0  0  0
 11 45  1  0  0  0
 12 13  1  0  0  0
 12 46  1  0  0  0
 12 47  1  0  0  0
 13 14  1  0  0  0
 13 48  1  0  0  0
 13 49  1  0  0  0
 14 50  1  0  0  0
 14 51  1  0  0  0
 15 16  1  0  0  0
 15 52  1  0  0  0
 16 17  1  0  0  0
 16 53  1  0  0  0
 16 54  1  0  0  0
 17 18  1  0  0  0
 17 55  1  0  0  0
 17 56  1  0  0  0
 18 19  1  0  0  0
 18 57  1  0  0  0
 18 58  1  0  0  0
 19 20  1  0  0  0
 19 59  1  0  0  0
 19 60  1  0  0  0
 20 21  1  0  0  0
 20 61  1  0  0  0
 20 62  1  0  0  0
 21 22  1  0  0  0
 21 63  1  0  0  0
 21 64  1  0  0  0
 22 23  1  0  0  0
 22 65  1  0  0  0
 22 66  1  0  0  0
 23 24  1  0  0  0
 23 67  1  0  0  0
 24 29  1  0  0  0
 24 25  2  0  0  0
 25 39  1  0  0  0
 25 26  1  0  0  0
 26 27  2  0  0  0
 26 36  1  0  0  0
 27 28  1  0  0  0
 28 33  2  0  0  0
 28 29  1  0  0  0
 29 30  2  0  0  0
 30 31  1  0  0  0
 30 35  1  0  0  0
 31 32  2  0  0  0
 31 68  1  0  0  0
 32 33  1  0  0  0
 32 34  1  0  0  0
 33 69  1  0  0  0
 36 37  1  0  0  0
 36 70  1  0  0  0
 36 71  1  0  0  0
 37 38  1  0  0  0
 37 72  1  0  0  0
 37 73  1  0  0  0
 38 39  1  0  0  0
 38 74  1  0  0  0
 38 75  1  0  0  0
 39 76  1  0  0  0
 39 77  1  0  0  0
M  END
> <s_m_entry_id>
9692

> <s_m_entry_name>
ligand_docking-pose.134

> <s_m_Source_Path>
/home/csk/Desktop/cluster/DUD-E-result/aces

> <s_m_Source_File>
ligand_docking-pose.sdf

> <i_m_Source_File_Index>
134

> <i_lp_mmshare_version>
53161

> <r_lp_tautomer_probability>
1

> <s_lp_Force_Field>
OPLS_2005

> <r_lp_Energy>
42.880366

> <b_lp_Chiralities_Consistent>
1

> <s_lp_Variant>
77002-1

> <s_i_glide_gridfile>
glide-grid_1e66

> <i_i_glide_lignum>
171

> <i_i_glide_rotatable_bonds>
10

> <r_i_docking_score>
-7.75749011352119

> <r_i_glide_ligand_efficiency>
-0.1989100029108

> <r_i_glide_ligand_efficiency_sa>
-0.674545877177338

> <r_i_glide_ligand_efficiency_ln>
-1.6634260897911

> <r_i_glide_gscore>
-7.75749011352119

> <r_i_glide_lipo>
-5.69491530963476

> <r_i_glide_hbond>
0

> <r_i_glide_metal>
0

> <r_i_glide_rewards>
-0.9

> <r_i_glide_evdw>
-38.4619445800781

> <r_i_glide_ecoul>
2.30552577972412

> <r_i_glide_erotb>
0.446312504653799

> <r_i_glide_esite>
-0.0316189464949349

> <r_i_glide_emodel>
-42.1175550672128

> <r_i_glide_energy>
-36.156418800354

> <r_i_glide_einternal>
13.2378101348877

> <i_i_glide_confnum>
29

> <i_i_glide_posenum>
138

> <r_i_glide_eff_state_penalty>
0

> <i_f3d_flags>
0

> <s_user_duplicate_titles>
77002

> <s_m_subgroup_title>
dock_pv

> <s_m_subgroupid>
dock_pv1

> <b_m_subgroup_collapsed>
1

$$$$
268012
                    3D
 Schrodinger Suite 2021-1.
 57 59  0  0  1  0            999 V2000
   -1.1745   68.6289   63.2832 C   0  0  0  0  0  0
    0.1741   68.5511   63.8637 N   0  0  0  0  0  0
    0.2250   67.9306   65.1954 C   0  0  0  0  0  0
   -0.2292   68.7941   66.3885 C   0  0  0  0  0  0
   -0.1940   68.0184   67.7314 C   0  0  0  0  0  0
   -0.4589   66.5043   67.6073 C   0  0  0  0  0  0
   -0.3701   65.7415   68.9308 C   0  0  0  0  0  0
    0.9291   65.9524   69.5681 N   0  0  1  0  0  0
    1.2243   67.3648   69.8024 C   0  0  0  0  0  0
    1.1137   68.2197   68.5147 C   0  0  0  0  0  0
    1.1017   65.1206   70.7589 C   0  0  0  0  0  0
    2.0164   63.9478   70.4441 C   0  0  0  0  0  0
    1.4773   62.7041   70.1017 C   0  0  0  0  0  0
    2.3237   61.6532   69.7586 C   0  0  0  0  0  0
    3.7027   61.8546   69.7415 C   0  0  0  0  0  0
    4.2436   63.1011   70.0531 C   0  0  0  0  0  0
    3.3987   64.1511   70.3968 C   0  0  0  0  0  0
    1.3230   68.9720   63.2155 C   0  0  0  0  0  0
    1.3582   69.3080   61.5683 S   0  0  0  0  0  0
    2.4017   69.1066   64.0551 N   0  0  0  0  0  0
    3.7316   69.3053   63.8991 C   0  0  0  0  0  0
    4.3495   69.1605   62.8414 O   0  0  0  0  0  0
    4.4506   69.7005   65.1773 C   0  0  0  0  0  0
    3.7871   69.7102   66.4172 C   0  0  0  0  0  0
    4.4391   70.1089   67.5752 C   0  0  0  0  0  0
    5.7688   70.5078   67.5199 C   0  0  0  0  0  0
    6.4529   70.4783   66.3111 C   0  0  0  0  0  0
    5.7975   70.0834   65.1457 C   0  0  0  0  0  0
   -1.3928   67.7053   62.7648 H   0  0  0  0  0  0
   -1.9316   68.7445   64.0580 H   0  0  0  0  0  0
   -1.3004   69.4653   62.5947 H   0  0  0  0  0  0
   -0.4491   67.0843   65.1679 H   0  0  0  0  0  0
    1.1922   67.4723   65.4037 H   0  0  0  0  0  0
    0.3842   69.6917   66.4681 H   0  0  0  0  0  0
   -1.2489   69.1451   66.2157 H   0  0  0  0  0  0
   -0.9712   68.4130   68.3652 H   0  0  0  0  0  0
   -1.4112   66.2739   67.1226 H   0  0  0  0  0  0
    0.2928   66.1083   66.9376 H   0  0  0  0  0  0
   -1.1811   66.0628   69.5784 H   0  0  0  0  0  0
   -0.4820   64.6703   68.7691 H   0  0  0  0  0  0
    0.5439   67.7077   70.5761 H   0  0  0  0  0  0
    2.2314   67.4567   70.2111 H   0  0  0  0  0  0
    1.9407   67.9742   67.8625 H   0  0  0  0  0  0
    1.2590   69.2772   68.7444 H   0  0  0  0  0  0
    1.5425   65.6973   71.5665 H   0  0  0  0  0  0
    0.1407   64.7579   71.1297 H   0  0  0  0  0  0
    0.4076   62.5531   70.1007 H   0  0  0  0  0  0
    1.9142   60.6871   69.5048 H   0  0  0  0  0  0
    4.3568   61.0368   69.4772 H   0  0  0  0  0  0
    5.3111   63.2618   70.0246 H   0  0  0  0  0  0
    3.8146   65.1223   70.6229 H   0  0  0  0  0  0
    2.1278   69.1891   65.0206 H   0  0  0  0  0  0
    2.7487   69.4472   66.5091 H   0  0  0  0  0  0
    3.9085   70.1211   68.5158 H   0  0  0  0  0  0
    6.2743   70.8202   68.4217 H   0  0  0  0  0  0
    7.4931   70.7656   66.2806 H   0  0  0  0  0  0
    6.3401   70.0891   64.2110 H   0  0  0  0  0  0
  1  2  1  0  0  0
  1 29  1  0  0  0
  1 30  1  0  0  0
  1 31  1  0  0  0
  2  3  1  0  0  0
  2 18  1  0  0  0
  3  4  1  0  0  0
  3 32  1  0  0  0
  3 33  1  0  0  0
  4  5  1  0  0  0
  4 34  1  0  0  0
  4 35  1  0  0  0
  5 10  1  0  0  0
  5  6  1  0  0  0
  5 36  1  0  0  0
  6  7  1  0  0  0
  6 37  1  0  0  0
  6 38  1  0  0  0
  7  8  1  0  0  0
  7 39  1  0  0  0
  7 40  1  0  0  0
  8  9  1  0  0  0
  8 11  1  0  0  0
  9 10  1  0  0  0
  9 41  1  0  0  0
  9 42  1  0  0  0
 10 43  1  0  0  0
 10 44  1  0  0  0
 11 12  1  0  0  0
 11 45  1  0  0  0
 11 46  1  0  0  0
 12 17  1  0  0  0
 12 13  2  0  0  0
 13 14  1  0  0  0
 13 47  1  0  0  0
 14 15  2  0  0  0
 14 48  1  0  0  0
 15 16  1  0  0  0
 15 49  1  0  0  0
 16 17  2  0  0  0
 16 50  1  0  0  0
 17 51  1  0  0  0
 18 19  2  0  0  0
 18 20  1  0  0  0
 20 21  1  0  0  0
 20 52  1  0  0  0
 21 22  2  0  0  0
 21 23  1  0  0  0
 23 28  1  0  0  0
 23 24  2  0  0  0
 24 25  1  0  0  0
 24 53  1  0  0  0
 25 26  2  0  0  0
 25 54  1  0  0  0
 26 27  1  0  0  0
 26 55  1  0  0  0
 27 28  2  0  0  0
 27 56  1  0  0  0
 28 57  1  0  0  0
M  END
> <s_m_entry_id>
9693

> <s_m_entry_name>
ligand_docking-pose.135

> <s_m_Source_Path>
/home/csk/Desktop/cluster/DUD-E-result/aces

> <s_m_Source_File>
ligand_docking-pose.sdf

> <i_m_Source_File_Index>
135

> <i_lp_mmshare_version>
53161

> <r_lp_tautomer_probability>
1

> <s_lp_Force_Field>
OPLS_2005

> <r_lp_Energy>
48.898516

> <b_lp_Chiralities_Consistent>
1

> <s_lp_Variant>
268012-1

> <s_i_glide_gridfile>
glide-grid_1e66

> <i_i_glide_lignum>
1764

> <i_i_glide_rotatable_bonds>
9

> <r_i_docking_score>
-7.7549658517974

> <r_i_glide_ligand_efficiency>
-0.276963066135621

> <r_i_glide_ligand_efficiency_sa>
-0.841022991310144

> <r_i_glide_ligand_efficiency_ln>
-1.79007381428624

> <r_i_glide_gscore>
-7.7549658517974

> <r_i_glide_lipo>
-3.59862638344583

> <r_i_glide_hbond>
0

> <r_i_glide_metal>
0

> <r_i_glide_rewards>
-2.80851330135034

> <r_i_glide_evdw>
-42.1068229675293

> <r_i_glide_ecoul>
-1.61570394039154

> <r_i_glide_erotb>
0.99987057243397

> <r_i_glide_esite>
0

> <r_i_glide_emodel>
-52.7986414966562

> <r_i_glide_energy>
-43.7225269079208

> <r_i_glide_einternal>
10.9490594863892

> <i_i_glide_confnum>
39

> <i_i_glide_posenum>
349

> <r_i_glide_eff_state_penalty>
0

> <i_f3d_flags>
0

> <s_user_duplicate_titles>
268012

> <s_m_subgroup_title>
dock_pv

> <s_m_subgroupid>
dock_pv1

> <b_m_subgroup_collapsed>
1

$$$$
199689
                    3D
 Schrodinger Suite 2021-1.
 53 55  0  0  1  0            999 V2000
   -0.8726   66.8201   67.4973 C   0  0  0  0  0  0
   -0.0435   67.9966   67.0283 C   0  0  0  0  0  0
    0.7792   67.9644   65.9673 C   0  0  0  0  0  0
    1.0966   66.7582   65.1055 C   0  0  0  0  0  0
    2.4040   66.8088   64.4278 N   0  0  0  0  0  0
    3.2605   65.7576   64.7399 C   0  0  0  0  0  0
    3.1423   64.8646   65.5719 O   0  0  0  0  0  0
    4.4574   65.6562   63.9296 C   0  0  0  0  0  0
    4.7336   66.5149   62.9421 C   0  0  0  0  0  0
    3.8458   67.6283   62.6742 C   0  0  0  0  0  0
    2.6853   67.7076   63.3838 C   0  0  0  0  0  0
    1.6318   68.7642   62.9942 C   0  0  0  0  0  0
    1.7937   69.1926   61.5241 C   0  0  0  0  0  0
    3.2161   69.7081   61.3469 C   0  0  0  0  0  0
    4.3066   68.7029   61.7151 C   0  0  1  0  0  0
    5.5432   69.3293   62.1965 N   0  0  2  0  0  0
    5.5195   70.0888   63.4553 C   0  0  0  0  0  0
    5.7429   69.1973   64.6887 C   0  0  0  0  0  0
    5.3431   69.8260   65.9991 C   0  0  0  0  0  0
    4.0152   69.7083   66.4113 C   0  0  0  0  0  0
    3.6360   70.1079   67.6877 C   0  0  0  0  0  0
    4.5871   70.6480   68.5493 C   0  0  0  0  0  0
    5.9064   70.8311   68.1197 C   0  0  0  0  0  0
    6.2864   70.4137   66.8435 C   0  0  0  0  0  0
    6.8367   71.3406   68.9577 F   0  0  0  0  0  0
    4.2306   70.9027   69.8254 F   0  0  0  0  0  0
   -0.2305   69.2689   67.8166 C   0  0  0  0  0  0
   -0.3866   66.3175   68.3336 H   0  0  0  0  0  0
   -1.0079   66.1074   66.6892 H   0  0  0  0  0  0
   -1.8678   67.1390   67.8093 H   0  0  0  0  0  0
    1.2619   68.8833   65.6923 H   0  0  0  0  0  0
    0.9254   65.8421   65.6687 H   0  0  0  0  0  0
    0.3431   66.7276   64.3220 H   0  0  0  0  0  0
    5.1383   64.8458   64.1436 H   0  0  0  0  0  0
    5.6364   66.4182   62.3574 H   0  0  0  0  0  0
    0.6255   68.3545   63.0504 H   0  0  0  0  0  0
    1.6362   69.6167   63.6696 H   0  0  0  0  0  0
    1.6078   68.3597   60.8481 H   0  0  0  0  0  0
    1.0742   69.9719   61.2647 H   0  0  0  0  0  0
    3.4257   70.1206   60.3675 H   0  0  0  0  0  0
    3.3019   70.5081   62.0418 H   0  0  0  0  0  0
    4.5120   68.1519   60.8011 H   0  0  0  0  0  0
    5.9876   69.8271   61.4363 H   0  0  0  0  0  0
    6.3262   70.8230   63.4308 H   0  0  0  0  0  0
    4.6166   70.6812   63.5761 H   0  0  0  0  0  0
    5.1600   68.2909   64.6617 H   0  0  0  0  0  0
    6.7487   68.8153   64.7299 H   0  0  0  0  0  0
    3.2982   69.2527   65.7512 H   0  0  0  0  0  0
    2.6207   69.9642   68.0285 H   0  0  0  0  0  0
    7.3182   70.4995   66.5331 H   0  0  0  0  0  0
    0.2660   69.1528   68.7691 H   0  0  0  0  0  0
    0.2466   70.1082   67.3239 H   0  0  0  0  0  0
   -1.2810   69.5124   67.9655 H   0  0  0  0  0  0
  1  2  1  0  0  0
  1 28  1  0  0  0
  1 29  1  0  0  0
  1 30  1  0  0  0
  2  3  2  3  0  0
  2 27  1  0  0  0
  3  4  1  0  0  0
  3 31  1  0  0  0
  4  5  1  0  0  0
  4 32  1  0  0  0
  4 33  1  0  0  0
  5 11  1  0  0  0
  5  6  1  0  0  0
  6  7  2  0  0  0
  6  8  1  0  0  0
  8  9  2  0  0  0
  8 34  1  0  0  0
  9 10  1  0  0  0
  9 35  1  0  0  0
 10 15  1  0  0  0
 10 11  2  0  0  0
 11 12  1  0  0  0
 12 13  1  0  0  0
 12 36  1  0  0  0
 12 37  1  0  0  0
 13 14  1  0  0  0
 13 38  1  0  0  0
 13 39  1  0  0  0
 14 15  1  0  0  0
 14 40  1  0  0  0
 14 41  1  0  0  0
 15 16  1  0  0  0
 15 42  1  0  0  0
 16 17  1  0  0  0
 16 43  1  0  0  0
 17 18  1  0  0  0
 17 44  1  0  0  0
 17 45  1  0  0  0
 18 19  1  0  0  0
 18 46  1  0  0  0
 18 47  1  0  0  0
 19 24  1  0  0  0
 19 20  2  0  0  0
 20 21  1  0  0  0
 20 48  1  0  0  0
 21 22  2  0  0  0
 21 49  1  0  0  0
 22 23  1  0  0  0
 22 26  1  0  0  0
 23 24  2  0  0  0
 23 25  1  0  0  0
 24 50  1  0  0  0
 27 51  1  0  0  0
 27 52  1  0  0  0
 27 53  1  0  0  0
M  END
> <s_m_entry_id>
9694

> <s_m_entry_name>
ligand_docking-pose.136

> <s_m_Source_Path>
/home/csk/Desktop/cluster/DUD-E-result/aces

> <s_m_Source_File>
ligand_docking-pose.sdf

> <i_m_Source_File_Index>
136

> <i_lp_mmshare_version>
53161

> <r_lp_tautomer_probability>
1

> <s_lp_Force_Field>
OPLS_2005

> <r_lp_Energy>
34.441413

> <b_lp_Chiralities_Consistent>
1

> <s_lp_Variant>
199689-1

> <s_i_glide_gridfile>
glide-grid_1e66

> <i_i_glide_lignum>
1099

> <i_i_glide_rotatable_bonds>
6

> <r_i_docking_score>
-7.7548347690006

> <r_i_glide_ligand_efficiency>
-0.287216102555578

> <r_i_glide_ligand_efficiency_sa>
-0.861648306720116

> <r_i_glide_ligand_efficiency_ln>
-1.80519768578027

> <r_i_glide_gscore>
-7.7548347690006

> <r_i_glide_lipo>
-3.82444208809879

> <r_i_glide_hbond>
-0.176526710271408

> <r_i_glide_metal>
0

> <r_i_glide_rewards>
-2.28080434916991

> <r_i_glide_evdw>
-28.5245342254639

> <r_i_glide_ecoul>
-4.90686845779419

> <r_i_glide_erotb>
0.696160281315754

> <r_i_glide_esite>
-0.00696492283392083

> <r_i_glide_emodel>
-44.2530179829228

> <r_i_glide_energy>
-33.4314026832581

> <r_i_glide_einternal>
9.69764137268066

> <i_i_glide_confnum>
42

> <i_i_glide_posenum>
114

> <r_i_glide_eff_state_penalty>
0

> <i_f3d_flags>
0

> <s_user_duplicate_titles>
199689

> <s_m_subgroup_title>
dock_pv

> <s_m_subgroupid>
dock_pv1

> <b_m_subgroup_collapsed>
1

$$$$
612836
                    3D
 Schrodinger Suite 2021-1.
 44 47  0  0  1  0            999 V2000
    4.8687   69.6702   65.8444 C   0  0  0  0  0  0
    3.7092   69.2036   65.2210 C   0  0  0  0  0  0
    2.5028   69.2014   65.9287 C   0  0  0  0  0  0
    2.4559   69.6709   67.2015 N   0  3  0  0  0  0
    3.5720   70.1080   67.8368 C   0  0  0  0  0  0
    4.8019   70.1092   67.1680 C   0  0  0  0  0  0
    1.1552   69.6786   67.9147 C   0  0  0  0  0  0
    0.7179   68.2930   68.3542 C   0  0  0  0  0  0
   -0.4570   67.7356   67.8619 C   0  0  0  0  0  0
   -0.8804   66.4912   68.3093 C   0  0  0  0  0  0
   -0.0572   65.7080   69.1680 C   0  0  0  0  0  0
   -0.3841   64.3856   69.5680 C   0  0  0  0  0  0
    0.4808   63.6328   70.3521 C   0  0  0  0  0  0
    1.7147   64.1491   70.7392 C   0  0  0  0  0  0
    2.0561   65.4542   70.3768 C   0  0  0  0  0  0
    1.1713   66.2586   69.6200 C   0  0  0  0  0  0
    1.4837   67.5899   69.2758 C   0  0  0  0  0  0
    2.6778   63.3150   71.5799 C   0  0  0  0  0  0
    2.8216   61.9063   71.1332 N   0  3  0  0  0  0
    3.5910   61.6375   70.0486 C   0  0  0  0  0  0
    3.7313   60.3205   69.5980 C   0  0  0  0  0  0
    3.0619   59.2909   70.2643 C   0  0  0  0  0  0
    2.2729   59.5949   71.3754 C   0  0  0  0  0  0
    2.1638   60.9225   71.7995 C   0  0  0  0  0  0
    5.8100   69.6844   65.3116 H   0  0  0  0  0  0
    3.7464   68.8560   64.1984 H   0  0  0  0  0  0
    1.5684   68.8561   65.5070 H   0  0  0  0  0  0
    3.4543   70.4447   68.8582 H   0  0  0  0  0  0
    5.6942   70.4586   67.6675 H   0  0  0  0  0  0
    1.2235   70.3571   68.7680 H   0  0  0  0  0  0
    0.4249   70.1080   67.2325 H   0  0  0  0  0  0
   -1.0795   68.2878   67.1719 H   0  0  0  0  0  0
   -1.8232   66.1080   67.9528 H   0  0  0  0  0  0
   -1.2903   63.9290   69.2148 H   0  0  0  0  0  0
    0.1920   62.6282   70.6250 H   0  0  0  0  0  0
    2.9988   65.8779   70.6951 H   0  0  0  0  0  0
    2.3430   68.0580   69.7102 H   0  0  0  0  0  0
    3.6835   63.7414   71.5680 H   0  0  0  0  0  0
    2.3430   63.3080   72.6195 H   0  0  0  0  0  0
    4.0665   62.4848   69.5724 H   0  0  0  0  0  0
    4.3430   60.0997   68.7367 H   0  0  0  0  0  0
    3.1430   58.2678   69.9223 H   0  0  0  0  0  0
    1.7458   58.8084   71.8983 H   0  0  0  0  0  0
    1.5608   61.2200   72.6470 H   0  0  0  0  0  0
  1  6  1  0  0  0
  1  2  2  0  0  0
  1 25  1  0  0  0
  2  3  1  0  0  0
  2 26  1  0  0  0
  3  4  2  0  0  0
  3 27  1  0  0  0
  4  5  1  0  0  0
  4  7  1  0  0  0
  5  6  2  0  0  0
  5 28  1  0  0  0
  6 29  1  0  0  0
  7  8  1  0  0  0
  7 30  1  0  0  0
  7 31  1  0  0  0
  8 17  1  0  0  0
  8  9  2  0  0  0
  9 10  1  0  0  0
  9 32  1  0  0  0
 10 11  2  0  0  0
 10 33  1  0  0  0
 11 16  1  0  0  0
 11 12  1  0  0  0
 12 13  2  0  0  0
 12 34  1  0  0  0
 13 14  1  0  0  0
 13 35  1  0  0  0
 14 15  2  0  0  0
 14 18  1  0  0  0
 15 16  1  0  0  0
 15 36  1  0  0  0
 16 17  2  0  0  0
 17 37  1  0  0  0
 18 19  1  0  0  0
 18 38  1  0  0  0
 18 39  1  0  0  0
 19 24  1  0  0  0
 19 20  2  0  0  0
 20 21  1  0  0  0
 20 40  1  0  0  0
 21 22  2  0  0  0
 21 41  1  0  0  0
 22 23  1  0  0  0
 22 42  1  0  0  0
 23 24  2  0  0  0
 23 43  1  0  0  0
 24 44  1  0  0  0
M  CHG  2   4   1  19   1
M  END
> <s_m_entry_id>
9695

> <s_m_entry_name>
ligand_docking-pose.137

> <s_m_Source_Path>
/home/csk/Desktop/cluster/DUD-E-result/aces

> <s_m_Source_File>
ligand_docking-pose.sdf

> <i_m_Source_File_Index>
137

> <i_lp_mmshare_version>
53161

> <r_lp_tautomer_probability>
1

> <s_lp_Force_Field>
OPLS_2005

> <r_lp_Energy>
32.197182

> <b_lp_Chiralities_Consistent>
1

> <s_lp_Variant>
612836-1

> <s_i_glide_gridfile>
glide-grid_1e66

> <i_i_glide_lignum>
493

> <i_i_glide_rotatable_bonds>
4

> <r_i_docking_score>
-7.73938820454763

> <r_i_glide_ligand_efficiency>
-0.322474508522818

> <r_i_glide_ligand_efficiency_sa>
-0.930177441718869

> <r_i_glide_ligand_efficiency_ln>
-1.85239073473189

> <r_i_glide_gscore>
-7.73938820454763

> <r_i_glide_lipo>
-3.8003030214474

> <r_i_glide_hbond>
0

> <r_i_glide_metal>
0

> <r_i_glide_rewards>
-2.81942600686054

> <r_i_glide_evdw>
-26.273006439209

> <r_i_glide_ecoul>
-3.77764344215393

> <r_i_glide_erotb>
0.760637662043837

> <r_i_glide_esite>
0

> <r_i_glide_emodel>
-47.0445190794599

> <r_i_glide_energy>
-30.0506498813629

> <r_i_glide_einternal>
2.43141031265259

> <i_i_glide_confnum>
4

> <i_i_glide_posenum>
396

> <r_i_glide_eff_state_penalty>
0

> <i_f3d_flags>
0

> <s_user_duplicate_titles>
612836

> <s_m_subgroup_title>
dock_pv

> <s_m_subgroupid>
dock_pv1

> <b_m_subgroup_collapsed>
1

$$$$
650613
                    3D
 Schrodinger Suite 2021-1.
 74 78  0  0  1  0            999 V2000
    0.8892   68.1081   63.6888 C   0  0  0  0  0  0
    2.0519   68.3720   62.9744 C   0  0  0  0  0  0
    3.1767   68.8790   63.6166 C   0  0  0  0  0  0
    3.1390   69.1439   65.0099 C   0  0  0  0  0  0
    1.9531   68.8841   65.7592 C   0  0  0  0  0  0
    0.8284   68.3494   65.0595 C   0  0  0  0  0  0
    1.9530   69.2228   67.1542 C   0  0  0  0  0  0
    3.1055   69.8123   67.7132 C   0  0  0  0  0  0
    4.2459   69.9733   66.8967 C   0  0  0  0  0  0
    4.2497   69.6655   65.5803 N   0  0  0  0  0  0
    5.5519   70.5406   67.4475 C   0  0  0  0  0  0
    5.3283   71.4640   68.6494 C   0  0  0  0  0  0
    4.4896   70.7329   69.7019 C   0  0  0  0  0  0
    3.1078   70.3402   69.1559 C   0  0  0  0  0  0
    0.8176   69.0311   67.9673 N   0  0  0  0  0  0
    0.4251   67.6489   68.2247 C   0  0  0  0  0  0
    1.0040   67.0896   69.5393 C   0  0  0  0  0  0
    1.2314   65.5810   69.4672 C   0  0  0  0  0  0
    1.7913   64.9596   70.7556 C   0  0  0  0  0  0
    2.1341   63.4731   70.5789 C   0  0  0  0  0  0
    3.3988   63.2171   69.7285 C   0  0  0  0  0  0
    4.7276   63.2625   70.5191 C   0  0  0  0  0  0
    4.9467   62.0900   71.5007 C   0  0  0  0  0  0
    4.7583   60.8077   70.8183 N   0  0  1  0  0  0
    4.4849   59.7045   71.7319 C   0  0  0  0  0  0
    3.2042   59.9129   72.5393 C   0  0  0  0  0  0
    3.2700   59.8655   73.9289 C   0  0  0  0  0  0
    2.1628   60.1628   74.7173 C   0  0  0  0  0  0
    0.9366   60.5407   74.1022 C   0  0  0  0  0  0
   -0.2199   60.9312   74.8341 C   0  0  0  0  0  0
   -1.3725   61.3173   74.1577 C   0  0  0  0  0  0
   -1.3704   61.3008   72.7690 C   0  0  0  0  0  0
   -0.3000   60.9206   72.0302 N   0  0  0  0  0  0
    0.8463   60.5504   72.6727 C   0  0  0  0  0  0
    1.9897   60.1941   71.9020 C   0  0  0  0  0  0
    1.9227   60.1668   70.5260 O   0  0  0  0  0  0
    2.3322   60.0859   76.4374 Cl  0  0  0  0  0  0
    0.0217   67.7152   63.1766 H   0  0  0  0  0  0
    2.0826   68.1812   61.9112 H   0  0  0  0  0  0
    4.0769   69.0919   63.0601 H   0  0  0  0  0  0
   -0.0956   68.1620   65.5849 H   0  0  0  0  0  0
    6.1041   71.0597   66.6642 H   0  0  0  0  0  0
    6.1843   69.7080   67.7568 H   0  0  0  0  0  0
    4.8321   72.3880   68.3501 H   0  0  0  0  0  0
    6.2945   71.7472   69.0727 H   0  0  0  0  0  0
    4.3284   71.3036   70.6080 H   0  0  0  0  0  0
    5.0660   69.8905   70.0670 H   0  0  0  0  0  0
    2.4650   71.2205   69.1657 H   0  0  0  0  0  0
    2.6468   69.6332   69.8447 H   0  0  0  0  0  0
    0.7864   69.5917   68.8152 H   0  0  0  0  0  0
    0.7436   67.0235   67.3886 H   0  0  0  0  0  0
   -0.6621   67.5735   68.2390 H   0  0  0  0  0  0
    0.3420   67.3229   70.3711 H   0  0  0  0  0  0
    1.9572   67.5569   69.7698 H   0  0  0  0  0  0
    1.9376   65.4082   68.6588 H   0  0  0  0  0  0
    0.3049   65.0770   69.1859 H   0  0  0  0  0  0
    1.0626   65.0757   71.5585 H   0  0  0  0  0  0
    2.6820   65.4992   71.0707 H   0  0  0  0  0  0
    1.2829   62.9673   70.1222 H   0  0  0  0  0  0
    2.2439   63.0121   71.5623 H   0  0  0  0  0  0
    3.4660   63.9343   68.9131 H   0  0  0  0  0  0
    3.3002   62.2591   69.2209 H   0  0  0  0  0  0
    4.7912   64.2039   71.0676 H   0  0  0  0  0  0
    5.5432   63.3088   69.8048 H   0  0  0  0  0  0
    4.2344   62.2079   72.3195 H   0  0  0  0  0  0
    5.9430   62.1150   71.9439 H   0  0  0  0  0  0
    3.9474   60.8813   70.2135 H   0  0  0  0  0  0
    5.3520   59.5419   72.3680 H   0  0  0  0  0  0
    4.3433   58.7964   71.1438 H   0  0  0  0  0  0
    4.2018   59.6147   74.4129 H   0  0  0  0  0  0
   -0.1983   60.9447   75.9155 H   0  0  0  0  0  0
   -2.2538   61.6280   74.6995 H   0  0  0  0  0  0
   -2.2523   61.5895   72.2154 H   0  0  0  0  0  0
    1.0202   60.3114   70.2188 H   0  0  0  0  0  0
  1  6  1  0  0  0
  1  2  2  0  0  0
  1 38  1  0  0  0
  2  3  1  0  0  0
  2 39  1  0  0  0
  3  4  2  0  0  0
  3 40  1  0  0  0
  4 10  1  0  0  0
  4  5  1  0  0  0
  5  6  2  0  0  0
  5  7  1  0  0  0
  6 41  1  0  0  0
  7  8  2  0  0  0
  7 15  1  0  0  0
  8 14  1  0  0  0
  8  9  1  0  0  0
  9 10  2  0  0  0
  9 11  1  0  0  0
 11 12  1  0  0  0
 11 42  1  0  0  0
 11 43  1  0  0  0
 12 13  1  0  0  0
 12 44  1  0  0  0
 12 45  1  0  0  0
 13 14  1  0  0  0
 13 46  1  0  0  0
 13 47  1  0  0  0
 14 48  1  0  0  0
 14 49  1  0  0  0
 15 16  1  0  0  0
 15 50  1  0  0  0
 16 17  1  0  0  0
 16 51  1  0  0  0
 16 52  1  0  0  0
 17 18  1  0  0  0
 17 53  1  0  0  0
 17 54  1  0  0  0
 18 19  1  0  0  0
 18 55  1  0  0  0
 18 56  1  0  0  0
 19 20  1  0  0  0
 19 57  1  0  0  0
 19 58  1  0  0  0
 20 21  1  0  0  0
 20 59  1  0  0  0
 20 60  1  0  0  0
 21 22  1  0  0  0
 21 61  1  0  0  0
 21 62  1  0  0  0
 22 23  1  0  0  0
 22 63  1  0  0  0
 22 64  1  0  0  0
 23 24  1  0  0  0
 23 65  1  0  0  0
 23 66  1  0  0  0
 24 25  1  0  0  0
 24 67  1  0  0  0
 25 26  1  0  0  0
 25 68  1  0  0  0
 25 69  1  0  0  0
 26 35  1  0  0  0
 26 27  2  0  0  0
 27 28  1  0  0  0
 27 70  1  0  0  0
 28 29  2  0  0  0
 28 37  1  0  0  0
 29 34  1  0  0  0
 29 30  1  0  0  0
 30 31  2  0  0  0
 30 71  1  0  0  0
 31 32  1  0  0  0
 31 72  1  0  0  0
 32 33  2  0  0  0
 32 73  1  0  0  0
 33 34  1  0  0  0
 34 35  2  0  0  0
 35 36  1  0  0  0
 36 74  1  0  0  0
M  END
> <s_m_entry_id>
9697

> <s_m_entry_name>
ligand_docking-pose.139

> <s_m_Source_Path>
/home/csk/Desktop/cluster/DUD-E-result/aces

> <s_m_Source_File>
ligand_docking-pose.sdf

> <i_m_Source_File_Index>
139

> <i_lp_mmshare_version>
53161

> <r_lp_tautomer_probability>
1

> <s_lp_Force_Field>
OPLS_2005

> <r_lp_Energy>
36.41617

> <b_lp_Chiralities_Consistent>
1

> <s_lp_Variant>
650613-1

> <s_i_glide_gridfile>
glide-grid_1e66

> <i_i_glide_lignum>
160

> <i_i_glide_rotatable_bonds>
13

> <r_i_docking_score>
-7.73180806407078

> <r_i_glide_ligand_efficiency>
-0.208967785515426

> <r_i_glide_ligand_efficiency_sa>
-0.696327020346442

> <r_i_glide_ligand_efficiency_ln>
-1.67684790979868

> <r_i_glide_gscore>
-7.73180806407078

> <r_i_glide_lipo>
-4.66114292374218

> <r_i_glide_hbond>
-0.0849408284897198

> <r_i_glide_metal>
0

> <r_i_glide_rewards>
-0.9

> <r_i_glide_evdw>
-48.8789596557617

> <r_i_glide_ecoul>
-3.11124658584595

> <r_i_glide_erotb>
0.844543306535785

> <r_i_glide_esite>
-0.0196326477096864

> <r_i_glide_emodel>
-70.5352036336115

> <r_i_glide_energy>
-51.9902062416077

> <r_i_glide_einternal>
8.28387355804443

> <i_i_glide_confnum>
29

> <i_i_glide_posenum>
257

> <r_i_glide_eff_state_penalty>
0

> <i_f3d_flags>
0

> <s_user_duplicate_titles>
650613

> <s_m_subgroup_title>
dock_pv

> <s_m_subgroupid>
dock_pv1

> <b_m_subgroup_collapsed>
1

$$$$
676786
                    3D
 Schrodinger Suite 2021-1.
 63 67  0  0  1  0            999 V2000
    6.3473   70.4564   66.8329 C   0  0  0  0  0  0
    5.8689   71.0338   68.0029 C   0  0  0  0  0  0
    4.5377   70.8704   68.3723 C   0  0  0  0  0  0
    3.6595   70.1078   67.5635 C   0  0  0  0  0  0
    4.1317   69.5036   66.3611 C   0  0  0  0  0  0
    5.5064   69.7071   66.0162 C   0  0  0  0  0  0
    3.2184   68.6940   65.5978 C   0  0  0  0  0  0
    1.8490   68.6516   65.9911 C   0  0  0  0  0  0
    1.4888   69.3086   67.1912 C   0  0  0  0  0  0
    2.3781   69.9681   67.9683 N   0  0  0  0  0  0
    0.0459   69.3485   67.7032 C   0  0  0  0  0  0
   -0.8824   68.3194   67.0555 C   0  0  0  0  0  0
   -0.6949   68.3719   65.5462 C   0  0  0  0  0  0
    0.7370   67.9472   65.1867 C   0  0  0  0  0  0
    3.7808   67.9958   64.4992 N   0  0  0  0  0  0
    3.3248   66.7510   63.8901 C   0  0  0  0  0  0
    3.9364   65.4346   64.4124 C   0  0  0  0  0  0
    3.1464   64.8059   65.5991 C   0  0  0  0  0  0
    3.9428   63.7064   66.3556 C   0  0  0  0  0  0
    3.2170   62.9081   67.3646 N   0  0  2  0  0  0
    3.7275   62.7501   68.7331 C   0  0  2  0  0  0
    3.9366   61.2487   69.0640 C   0  0  0  0  0  0
    4.1748   60.9990   70.5571 C   0  0  0  0  0  0
    2.9173   61.3949   71.3465 C   0  0  0  0  0  0
    2.3896   62.7642   70.9242 C   0  0  0  0  0  0
    2.7822   63.3978   69.7753 C   0  0  0  0  0  0
    2.1680   64.7108   69.5675 C   0  0  0  0  0  0
    1.2083   65.1820   70.3927 C   0  0  0  0  0  0
    0.7715   64.4519   71.5676 C   0  0  0  0  0  0
    1.4299   63.2822   71.7659 N   0  0  0  0  0  0
   -0.0586   64.8630   72.3701 O   0  0  0  0  0  0
    7.3841   70.5793   66.5552 H   0  0  0  0  0  0
    6.5339   71.6083   68.6308 H   0  0  0  0  0  0
    4.1626   71.3064   69.2865 H   0  0  0  0  0  0
    5.9185   69.2735   65.1173 H   0  0  0  0  0  0
    0.0432   69.1846   68.7690 H   0  0  0  0  0  0
   -0.3744   70.3449   67.5679 H   0  0  0  0  0  0
   -1.9191   68.5326   67.3222 H   0  0  0  0  0  0
   -0.6635   67.3184   67.4323 H   0  0  0  0  0  0
   -0.9024   69.3743   65.1714 H   0  0  0  0  0  0
   -1.4159   67.7139   65.0634 H   0  0  0  0  0  0
    0.8669   68.1271   64.1192 H   0  0  0  0  0  0
    0.7959   66.8745   65.3743 H   0  0  0  0  0  0
    4.7535   68.2073   64.3288 H   0  0  0  0  0  0
    2.2632   66.6402   63.9682 H   0  0  0  0  0  0
    3.5123   66.8448   62.8195 H   0  0  0  0  0  0
    3.9414   64.7128   63.5937 H   0  0  0  0  0  0
    4.9916   65.5791   64.6430 H   0  0  0  0  0  0
    2.8410   65.5858   66.2996 H   0  0  0  0  0  0
    2.2388   64.3869   65.1678 H   0  0  0  0  0  0
    4.3226   63.0290   65.5811 H   0  0  0  0  0  0
    4.8341   64.1080   66.8254 H   0  0  0  0  0  0
    2.7598   62.0824   67.0104 H   0  0  0  0  0  0
    4.6872   63.2596   68.8253 H   0  0  0  0  0  0
    3.0478   60.6866   68.7693 H   0  0  0  0  0  0
    4.7430   60.8267   68.4659 H   0  0  0  0  0  0
    4.4151   59.9517   70.7420 H   0  0  0  0  0  0
    5.0330   61.5805   70.9030 H   0  0  0  0  0  0
    2.1241   60.6486   71.2806 H   0  0  0  0  0  0
    3.1734   61.4106   72.4072 H   0  0  0  0  0  0
    2.4613   65.3069   68.7185 H   0  0  0  0  0  0
    0.7596   66.1455   70.2082 H   0  0  0  0  0  0
    1.1470   62.7938   72.6006 H   0  0  0  0  0  0
  1  6  1  0  0  0
  1  2  2  0  0  0
  1 32  1  0  0  0
  2  3  1  0  0  0
  2 33  1  0  0  0
  3  4  2  0  0  0
  3 34  1  0  0  0
  4 10  1  0  0  0
  4  5  1  0  0  0
  5  6  2  0  0  0
  5  7  1  0  0  0
  6 35  1  0  0  0
  7  8  2  0  0  0
  7 15  1  0  0  0
  8 14  1  0  0  0
  8  9  1  0  0  0
  9 10  2  0  0  0
  9 11  1  0  0  0
 11 12  1  0  0  0
 11 36  1  0  0  0
 11 37  1  0  0  0
 12 13  1  0  0  0
 12 38  1  0  0  0
 12 39  1  0  0  0
 13 14  1  0  0  0
 13 40  1  0  0  0
 13 41  1  0  0  0
 14 42  1  0  0  0
 14 43  1  0  0  0
 15 16  1  0  0  0
 15 44  1  0  0  0
 16 17  1  0  0  0
 16 45  1  0  0  0
 16 46  1  0  0  0
 17 18  1  0  0  0
 17 47  1  0  0  0
 17 48  1  0  0  0
 18 19  1  0  0  0
 18 49  1  0  0  0
 18 50  1  0  0  0
 19 20  1  0  0  0
 19 51  1  0  0  0
 19 52  1  0  0  0
 20 21  1  0  0  0
 20 53  1  0  0  0
 21 22  1  0  0  0
 21 54  1  0  0  0
 21 26  1  0  0  0
 22 23  1  0  0  0
 22 55  1  0  0  0
 22 56  1  0  0  0
 23 24  1  0  0  0
 23 57  1  0  0  0
 23 58  1  0  0  0
 24 59  1  0  0  0
 24 60  1  0  0  0
 24 25  1  0  0  0
 25 30  1  0  0  0
 25 26  2  0  0  0
 26 27  1  0  0  0
 27 61  1  0  0  0
 27 28  2  0  0  0
 28 29  1  0  0  0
 28 62  1  0  0  0
 29 31  2  0  0  0
 29 30  1  0  0  0
 30 63  1  0  0  0
M  END
> <s_m_entry_id>
9701

> <s_m_entry_name>
ligand_docking-pose.143

> <s_m_Source_Path>
/home/csk/Desktop/cluster/DUD-E-result/aces

> <s_m_Source_File>
ligand_docking-pose.sdf

> <i_m_Source_File_Index>
143

> <i_lp_mmshare_version>
53161

> <r_lp_tautomer_probability>
0.999

> <s_lp_Force_Field>
OPLS_2005

> <r_lp_Energy>
35.980072

> <b_lp_Chiralities_Consistent>
1

> <s_lp_Variant>
676786-1

> <s_i_glide_gridfile>
glide-grid_1e66

> <i_i_glide_lignum>
200

> <i_i_glide_rotatable_bonds>
7

> <r_i_docking_score>
-7.72731349610259

> <r_i_glide_ligand_efficiency>
-0.249268177293632

> <r_i_glide_ligand_efficiency_sa>
-0.783046228510759

> <r_i_glide_ligand_efficiency_ln>
-1.74274600708954

> <r_i_glide_gscore>
-7.72731349610259

> <r_i_glide_lipo>
-4.53784465155302

> <r_i_glide_hbond>
-0.253658370741757

> <r_i_glide_metal>
0

> <r_i_glide_rewards>
-1.46891945454545

> <r_i_glide_evdw>
-23.9562397003174

> <r_i_glide_ecoul>
-5.58918857574463

> <r_i_glide_erotb>
0.569299252115211

> <r_i_glide_esite>
0

> <r_i_glide_emodel>
-38.1689936180861

> <r_i_glide_energy>
-29.545428276062

> <r_i_glide_einternal>
13.7110958099365

> <i_i_glide_confnum>
117

> <i_i_glide_posenum>
248

> <r_i_glide_eff_state_penalty>
0

> <i_f3d_flags>
0

> <s_user_duplicate_titles>
676786

> <s_m_subgroup_title>
dock_pv

> <s_m_subgroupid>
dock_pv1

> <b_m_subgroup_collapsed>
1

$$$$
232622
                    3D
 Schrodinger Suite 2021-1.
 52 55  0  0  1  0            999 V2000
    3.8595   61.1681   69.7660 C   0  0  0  0  0  0
    2.5105   60.8889   69.5704 C   0  0  0  0  0  0
    1.5464   61.7372   70.1097 C   0  0  0  0  0  0
    1.9317   62.8500   70.8547 C   0  0  0  0  0  0
    3.2886   63.1406   71.0235 C   0  0  0  0  0  0
    4.2541   62.2933   70.4872 C   0  0  0  0  0  0
    0.8703   63.7813   71.4378 C   0  0  0  0  0  0
    0.5270   64.9369   70.6011 N   0  0  1  0  0  0
    1.6570   65.8183   70.2596 C   0  0  0  0  0  0
    1.1651   67.1336   69.6298 C   0  0  0  0  0  0
    0.3259   66.8683   68.3692 C   0  0  0  0  0  0
   -0.8539   65.9853   68.8304 C   0  0  0  0  0  0
   -0.3929   64.6591   69.4873 C   0  0  0  0  0  0
   -0.1910   68.1454   67.6713 C   0  0  0  0  0  0
    0.8456   69.2098   67.2497 C   0  0  0  0  0  0
    1.7502   68.9077   66.1197 N   0  0  0  0  0  0
    1.3298   68.4599   64.9046 C   0  0  0  0  0  0
    0.1881   68.1542   64.5664 O   0  0  0  0  0  0
    2.5389   68.4470   64.0501 C   0  0  0  0  0  0
    2.6970   68.1087   62.7071 C   0  0  0  0  0  0
    3.9786   68.1416   62.1545 C   0  0  0  0  0  0
    5.0702   68.5260   62.9407 C   0  0  0  0  0  0
    4.8854   68.9165   64.2726 C   0  0  0  0  0  0
    3.5974   68.8608   64.8086 C   0  0  0  0  0  0
    3.0752   69.2192   66.1531 C   0  0  0  0  0  0
    3.7015   69.7082   67.0941 O   0  0  0  0  0  0
    6.3426   68.5082   62.3875 N   0  0  0  0  0  0
    4.6051   60.5103   69.3455 H   0  0  0  0  0  0
    2.2111   60.0186   69.0040 H   0  0  0  0  0  0
    0.4974   61.5282   69.9687 H   0  0  0  0  0  0
    3.5930   64.0218   71.5680 H   0  0  0  0  0  0
    5.3007   62.5127   70.6280 H   0  0  0  0  0  0
    1.2246   64.1408   72.4031 H   0  0  0  0  0  0
   -0.0404   63.2129   71.6417 H   0  0  0  0  0  0
    2.3449   65.2960   69.5962 H   0  0  0  0  0  0
    2.2075   66.0489   71.1673 H   0  0  0  0  0  0
    2.0106   67.7772   69.3993 H   0  0  0  0  0  0
    0.6040   67.6998   70.3671 H   0  0  0  0  0  0
    0.9374   66.3067   67.6641 H   0  0  0  0  0  0
   -1.5203   66.5081   69.5132 H   0  0  0  0  0  0
   -1.4919   65.8029   67.9713 H   0  0  0  0  0  0
    0.0479   63.9747   68.7710 H   0  0  0  0  0  0
   -1.2550   64.1082   69.8566 H   0  0  0  0  0  0
   -0.8519   68.6646   68.3562 H   0  0  0  0  0  0
   -0.8308   67.8803   66.8301 H   0  0  0  0  0  0
    1.4368   69.4779   68.1280 H   0  0  0  0  0  0
    0.2873   70.1075   67.0091 H   0  0  0  0  0  0
    1.8564   67.8092   62.0979 H   0  0  0  0  0  0
    4.1260   67.8668   61.1205 H   0  0  0  0  0  0
    5.7248   69.2436   64.8682 H   0  0  0  0  0  0
    6.4499   68.3664   61.3806 H   0  0  0  0  0  0
    7.0944   68.9490   62.9023 H   0  0  0  0  0  0
  1  6  1  0  0  0
  1  2  2  0  0  0
  1 28  1  0  0  0
  2  3  1  0  0  0
  2 29  1  0  0  0
  3  4  2  0  0  0
  3 30  1  0  0  0
  4  5  1  0  0  0
  4  7  1  0  0  0
  5  6  2  0  0  0
  5 31  1  0  0  0
  6 32  1  0  0  0
  7  8  1  0  0  0
  7 33  1  0  0  0
  7 34  1  0  0  0
  8 13  1  0  0  0
  8  9  1  0  0  0
  9 10  1  0  0  0
  9 35  1  0  0  0
  9 36  1  0  0  0
 10 11  1  0  0  0
 10 37  1  0  0  0
 10 38  1  0  0  0
 11 12  1  0  0  0
 11 14  1  0  0  0
 11 39  1  0  0  0
 12 13  1  0  0  0
 12 40  1  0  0  0
 12 41  1  0  0  0
 13 42  1  0  0  0
 13 43  1  0  0  0
 14 15  1  0  0  0
 14 44  1  0  0  0
 14 45  1  0  0  0
 15 16  1  0  0  0
 15 46  1  0  0  0
 15 47  1  0  0  0
 16 25  1  0  0  0
 16 17  1  0  0  0
 17 18  2  0  0  0
 17 19  1  0  0  0
 19 24  2  0  0  0
 19 20  1  0  0  0
 20 21  2  0  0  0
 20 48  1  0  0  0
 21 22  1  0  0  0
 21 49  1  0  0  0
 22 23  2  0  0  0
 22 27  1  0  0  0
 23 24  1  0  0  0
 23 50  1  0  0  0
 24 25  1  0  0  0
 25 26  2  0  0  0
 27 51  1  0  0  0
 27 52  1  0  0  0
M  END
> <s_m_entry_id>
9702

> <s_m_entry_name>
ligand_docking-pose.144

> <s_m_Source_Path>
/home/csk/Desktop/cluster/DUD-E-result/aces

> <s_m_Source_File>
ligand_docking-pose.sdf

> <i_m_Source_File_Index>
144

> <i_lp_mmshare_version>
53161

> <r_lp_tautomer_probability>
1

> <s_lp_Force_Field>
OPLS_2005

> <r_lp_Energy>
49.570318

> <b_lp_Chiralities_Consistent>
1

> <s_lp_Variant>
232622-1

> <s_i_glide_gridfile>
glide-grid_1e66

> <i_i_glide_lignum>
385

> <i_i_glide_rotatable_bonds>
5

> <r_i_docking_score>
-7.72469996083642

> <r_i_glide_ligand_efficiency>
-0.286099998549497

> <r_i_glide_ligand_efficiency_sa>
-0.858299994705552

> <r_i_glide_ligand_efficiency_ln>
-1.79818279925079

> <r_i_glide_gscore>
-7.72469996083642

> <r_i_glide_lipo>
-3.37291803283708

> <r_i_glide_hbond>
-0.451429313030047

> <r_i_glide_metal>
0

> <r_i_glide_rewards>
-2.63988501122647

> <r_i_glide_evdw>
-33.6284370422363

> <r_i_glide_ecoul>
-1.37529194355011

> <r_i_glide_erotb>
0.727248039901511

> <r_i_glide_esite>
-0.1

> <r_i_glide_emodel>
-40.9276134025087

> <r_i_glide_energy>
-35.0037289857864

> <r_i_glide_einternal>
14.7498502731323

> <i_i_glide_confnum>
54

> <i_i_glide_posenum>
217

> <r_i_glide_eff_state_penalty>
0

> <i_f3d_flags>
0

> <s_user_duplicate_titles>
232622

> <s_m_subgroup_title>
dock_pv

> <s_m_subgroupid>
dock_pv1

> <b_m_subgroup_collapsed>
1

$$$$
512605
                    3D
 Schrodinger Suite 2021-1.
 52 54  0  0  1  0            999 V2000
    4.4852   62.8633   63.3870 C   0  0  0  0  0  0
    3.9620   64.0009   64.2659 C   0  0  0  0  0  0
    4.6764   65.3302   64.0011 C   0  0  0  0  0  0
    4.3430   65.8680   62.6880 N   0  0  2  0  0  0
    5.1104   67.0820   62.4300 C   0  0  0  0  0  0
    4.3430   68.0288   61.4908 C   0  0  0  0  0  0
    2.9438   68.5270   61.9101 C   0  0  0  0  0  0
    2.8884   69.2279   63.2716 C   0  0  0  0  0  0
    2.9625   68.2792   64.3716 N   0  0  0  0  0  0
    2.8362   68.8489   65.6426 C   0  0  0  0  0  0
    3.9071   69.5498   66.2826 C   0  0  0  0  0  0
    5.2107   69.7080   65.7307 C   0  0  0  0  0  0
    6.2050   70.3733   66.4405 C   0  0  0  0  0  0
    5.9429   70.9082   67.6976 C   0  0  0  0  0  0
    4.6767   70.7913   68.2632 C   0  0  0  0  0  0
    3.6489   70.1080   67.5681 C   0  0  0  0  0  0
    2.4316   70.0120   68.1524 N   0  0  0  0  0  0
    1.4414   69.3146   67.5432 C   0  0  0  0  0  0
    1.5967   68.6993   66.2887 C   0  0  0  0  0  0
    0.4107   67.9776   65.6093 C   0  0  0  0  0  0
   -0.7973   67.7410   66.5299 C   0  0  0  0  0  0
   -1.0887   68.9921   67.3589 C   0  0  0  0  0  0
    0.1104   69.2821   68.2729 C   0  0  0  0  0  0
    3.9430   61.9437   63.5678 H   0  0  0  0  0  0
    5.5453   62.6726   63.5577 H   0  0  0  0  0  0
    4.3438   63.0917   62.3402 H   0  0  0  0  0  0
    2.8848   64.1162   64.1379 H   0  0  0  0  0  0
    4.1093   63.7269   65.3109 H   0  0  0  0  0  0
    4.3694   66.0440   64.7659 H   0  0  0  0  0  0
    5.7507   65.1767   64.0930 H   0  0  0  0  0  0
    3.3797   66.1702   62.7167 H   0  0  0  0  0  0
    5.3268   67.6138   63.3566 H   0  0  0  0  0  0
    6.0695   66.8283   61.9778 H   0  0  0  0  0  0
    4.9642   68.9124   61.3418 H   0  0  0  0  0  0
    4.2624   67.5501   60.5161 H   0  0  0  0  0  0
    2.5919   69.2284   61.1521 H   0  0  0  0  0  0
    2.2247   67.7084   61.8894 H   0  0  0  0  0  0
    3.6977   69.9545   63.3630 H   0  0  0  0  0  0
    1.9791   69.8256   63.3582 H   0  0  0  0  0  0
    2.2547   67.5717   64.2462 H   0  0  0  0  0  0
    5.4360   69.3019   64.7574 H   0  0  0  0  0  0
    7.1891   70.4812   66.0064 H   0  0  0  0  0  0
    6.7252   71.4236   68.2354 H   0  0  0  0  0  0
    4.4697   71.2093   69.2375 H   0  0  0  0  0  0
    0.0844   68.5874   64.7654 H   0  0  0  0  0  0
    0.7255   67.0202   65.1915 H   0  0  0  0  0  0
   -1.6725   67.4637   65.9404 H   0  0  0  0  0  0
   -0.5997   66.8936   67.1906 H   0  0  0  0  0  0
   -1.2819   69.8425   66.7032 H   0  0  0  0  0  0
   -1.9904   68.8561   67.9581 H   0  0  0  0  0  0
   -0.0574   70.2378   68.7680 H   0  0  0  0  0  0
    0.2031   68.5075   69.0344 H   0  0  0  0  0  0
  1  2  1  0  0  0
  1 24  1  0  0  0
  1 25  1  0  0  0
  1 26  1  0  0  0
  2  3  1  0  0  0
  2 27  1  0  0  0
  2 28  1  0  0  0
  3  4  1  0  0  0
  3 29  1  0  0  0
  3 30  1  0  0  0
  4  5  1  0  0  0
  4 31  1  0  0  0
  5  6  1  0  0  0
  5 32  1  0  0  0
  5 33  1  0  0  0
  6  7  1  0  0  0
  6 34  1  0  0  0
  6 35  1  0  0  0
  7  8  1  0  0  0
  7 36  1  0  0  0
  7 37  1  0  0  0
  8  9  1  0  0  0
  8 38  1  0  0  0
  8 39  1  0  0  0
  9 10  1  0  0  0
  9 40  1  0  0  0
 10 19  1  0  0  0
 10 11  2  0  0  0
 11 16  1  0  0  0
 11 12  1  0  0  0
 12 13  2  0  0  0
 12 41  1  0  0  0
 13 14  1  0  0  0
 13 42  1  0  0  0
 14 15  2  0  0  0
 14 43  1  0  0  0
 15 16  1  0  0  0
 15 44  1  0  0  0
 16 17  2  0  0  0
 17 18  1  0  0  0
 18 23  1  0  0  0
 18 19  2  0  0  0
 19 20  1  0  0  0
 20 21  1  0  0  0
 20 45  1  0  0  0
 20 46  1  0  0  0
 21 22  1  0  0  0
 21 47  1  0  0  0
 21 48  1  0  0  0
 22 23  1  0  0  0
 22 49  1  0  0  0
 22 50  1  0  0  0
 23 51  1  0  0  0
 23 52  1  0  0  0
M  END
> <s_m_entry_id>
9703

> <s_m_entry_name>
ligand_docking-pose.145

> <s_m_Source_Path>
/home/csk/Desktop/cluster/DUD-E-result/aces

> <s_m_Source_File>
ligand_docking-pose.sdf

> <i_m_Source_File_Index>
145

> <i_lp_mmshare_version>
53161

> <r_lp_tautomer_probability>
1

> <s_lp_Force_Field>
OPLS_2005

> <r_lp_Energy>
28.687098

> <b_lp_Chiralities_Consistent>
1

> <s_lp_Variant>
512605-1

> <s_i_glide_gridfile>
glide-grid_1e66

> <i_i_glide_lignum>
1158

> <i_i_glide_rotatable_bonds>
8

> <r_i_docking_score>
-7.72328665211211

> <r_i_glide_ligand_efficiency>
-0.335795071830961

> <r_i_glide_ligand_efficiency_sa>
-0.954956515778868

> <r_i_glide_ligand_efficiency_ln>
-1.86756074337221

> <r_i_glide_gscore>
-7.72328665211211

> <r_i_glide_lipo>
-4.08470798491511

> <r_i_glide_hbond>
-0.253834215710332

> <r_i_glide_metal>
0

> <r_i_glide_rewards>
-1.77113494713407

> <r_i_glide_evdw>
-38.1898880004883

> <r_i_glide_ecoul>
-5.67433547973633

> <r_i_glide_erotb>
1.14703521763226

> <r_i_glide_esite>
0

> <r_i_glide_emodel>
-60.3923938937908

> <r_i_glide_energy>
-43.8642234802246

> <r_i_glide_einternal>
6.05250263214111

> <i_i_glide_confnum>
125

> <i_i_glide_posenum>
264

> <r_i_glide_eff_state_penalty>
0

> <i_f3d_flags>
0

> <s_user_duplicate_titles>
512605

> <s_m_subgroup_title>
dock_pv

> <s_m_subgroupid>
dock_pv1

> <b_m_subgroup_collapsed>
1

$$$$
153324
                    3D
 Schrodinger Suite 2021-1.
 36 39  0  0  1  0            999 V2000
    6.9003   70.6821   67.9795 C   0  0  0  0  0  0
    5.9764   70.9081   68.9847 C   0  0  0  0  0  0
    4.6225   70.6791   68.7682 C   0  0  0  0  0  0
    4.2011   70.1080   67.5477 C   0  0  0  0  0  0
    5.1396   69.8972   66.4978 C   0  0  0  0  0  0
    6.5002   70.2237   66.7337 C   0  0  0  0  0  0
    4.6706   69.3076   65.2939 C   0  0  0  0  0  0
    3.3446   68.8302   65.2247 C   0  0  0  0  0  0
    2.4936   69.0731   66.3306 C   0  0  0  0  0  0
    2.9142   69.7080   67.4464 N   0  0  0  0  0  0
    1.0239   68.6555   66.3752 C   0  0  0  0  0  0
    0.5805   67.7414   65.2280 C   0  0  0  0  0  0
    1.3075   68.0476   63.9139 C   0  0  0  0  0  0
    2.8542   67.9952   64.0328 C   0  0  2  0  0  0
    3.4719   66.5896   64.0416 C   0  0  0  0  0  0
    3.1429   65.4739   64.8175 C   0  0  0  0  0  0
    3.8728   64.3150   64.5558 C   0  0  0  0  0  0
    4.8069   64.5093   63.5680 C   0  0  0  0  0  0
    4.7429   66.1241   62.9386 S   0  0  0  0  0  0
    5.5429   69.1475   64.2067 N   0  0  0  0  0  0
    7.9429   70.8439   68.1780 H   0  0  0  0  0  0
    6.3251   71.2475   69.9475 H   0  0  0  0  0  0
    3.9050   70.8325   69.5622 H   0  0  0  0  0  0
    7.2402   70.0527   65.9681 H   0  0  0  0  0  0
    0.4180   69.5609   66.3680 H   0  0  0  0  0  0
    0.7997   68.1761   67.3298 H   0  0  0  0  0  0
   -0.4957   67.8474   65.0814 H   0  0  0  0  0  0
    0.7084   66.7002   65.5092 H   0  0  0  0  0  0
    1.0023   69.0318   63.5534 H   0  0  0  0  0  0
    0.9550   67.3361   63.1678 H   0  0  0  0  0  0
    3.2041   68.5021   63.1318 H   0  0  0  0  0  0
    2.3859   65.4974   65.5806 H   0  0  0  0  0  0
    3.7332   63.3801   65.0789 H   0  0  0  0  0  0
    5.5095   63.7824   63.1870 H   0  0  0  0  0  0
    6.4780   69.5356   64.2573 H   0  0  0  0  0  0
    5.1922   68.7693   63.3399 H   0  0  0  0  0  0
  1  6  1  0  0  0
  1  2  2  0  0  0
  1 21  1  0  0  0
  2  3  1  0  0  0
  2 22  1  0  0  0
  3  4  2  0  0  0
  3 23  1  0  0  0
  4 10  1  0  0  0
  4  5  1  0  0  0
  5  6  2  0  0  0
  5  7  1  0  0  0
  6 24  1  0  0  0
  7  8  2  0  0  0
  7 20  1  0  0  0
  8 14  1  0  0  0
  8  9  1  0  0  0
  9 10  2  0  0  0
  9 11  1  0  0  0
 11 12  1  0  0  0
 11 25  1  0  0  0
 11 26  1  0  0  0
 12 13  1  0  0  0
 12 27  1  0  0  0
 12 28  1  0  0  0
 13 14  1  0  0  0
 13 29  1  0  0  0
 13 30  1  0  0  0
 14 15  1  0  0  0
 14 31  1  0  0  0
 15 19  1  0  0  0
 15 16  2  0  0  0
 16 17  1  0  0  0
 16 32  1  0  0  0
 17 18  2  0  0  0
 17 33  1  0  0  0
 18 19  1  0  0  0
 18 34  1  0  0  0
 20 35  1  0  0  0
 20 36  1  0  0  0
M  END
> <s_m_entry_id>
9706

> <s_m_entry_name>
ligand_docking-pose.148

> <s_m_Source_Path>
/home/csk/Desktop/cluster/DUD-E-result/aces

> <s_m_Source_File>
ligand_docking-pose.sdf

> <i_m_Source_File_Index>
148

> <i_lp_mmshare_version>
53161

> <r_lp_tautomer_probability>
1

> <s_lp_Force_Field>
OPLS_2005

> <r_lp_Energy>
16.228933

> <b_lp_Chiralities_Consistent>
1

> <s_lp_Variant>
153324-2

> <s_i_glide_gridfile>
glide-grid_1e66

> <i_i_glide_lignum>
125

> <i_i_glide_rotatable_bonds>
1

> <r_i_docking_score>
-7.70843153686149

> <r_i_glide_ligand_efficiency>
-0.385421576843074

> <r_i_glide_ligand_efficiency_sa>
-1.04619511695392

> <r_i_glide_ligand_efficiency_ln>
-1.92916617258875

> <r_i_glide_gscore>
-7.70843153686149

> <r_i_glide_lipo>
-3.50154574388427

> <r_i_glide_hbond>
-0.25677029118935

> <r_i_glide_metal>
0

> <r_i_glide_rewards>
-2.3718564355536

> <r_i_glide_evdw>
-29.9966239929199

> <r_i_glide_ecoul>
-2.05424904823303

> <r_i_glide_erotb>
0.229709490646681

> <r_i_glide_esite>
0

> <r_i_glide_emodel>
-43.551667393003

> <r_i_glide_energy>
-32.050873041153

> <r_i_glide_einternal>
2.94997358322144

> <i_i_glide_confnum>
1

> <i_i_glide_posenum>
17

> <r_i_glide_eff_state_penalty>
0

> <i_f3d_flags>
0

> <s_user_duplicate_titles>
153324

> <s_m_subgroup_title>
dock_pv

> <s_m_subgroupid>
dock_pv1

> <b_m_subgroup_collapsed>
1

$$$$
268590
                    3D
 Schrodinger Suite 2021-1.
 58 60  0  0  1  0            999 V2000
    6.1920   68.9079   62.6675 C   0  0  0  0  0  0
    4.9705   69.0913   61.9680 O   0  0  0  0  0  0
    3.7917   68.9238   62.6541 C   0  0  0  0  0  0
    3.7175   68.7869   64.0448 C   0  0  0  0  0  0
    2.4929   68.5859   64.6591 C   0  0  0  0  0  0
    1.3176   68.5092   63.8954 C   0  0  0  0  0  0
    1.3944   68.6818   62.5074 C   0  0  0  0  0  0
    2.6249   68.8915   61.8957 C   0  0  0  0  0  0
   -0.0235   68.2732   64.5487 C   0  0  0  0  0  0
   -1.0623   68.5080   63.9280 O   0  0  0  0  0  0
    0.0571   67.7584   65.8012 N   0  0  0  0  0  0
   -0.8555   67.5599   66.7977 C   0  0  0  0  0  0
   -2.4482   68.1079   66.7964 S   0  0  0  0  0  0
   -0.2647   66.8601   67.8138 N   0  0  0  0  0  0
   -0.9289   66.3784   69.0258 C   0  0  0  0  0  0
   -0.0294   66.3908   70.2866 C   0  0  0  0  0  0
    0.9017   65.1612   70.5076 C   0  0  0  0  0  0
    0.2625   63.7852   70.1957 C   0  0  0  0  0  0
    1.2130   62.6013   70.4448 C   0  0  0  0  0  0
    2.4922   62.7970   69.7445 N   0  0  1  0  0  0
    3.1753   64.0598   70.0530 C   0  0  0  0  0  0
    2.2387   65.2476   69.7485 C   0  0  0  0  0  0
    3.3475   61.6091   69.6270 C   0  0  0  0  0  0
    3.4789   60.7282   70.8718 C   0  0  0  0  0  0
    3.4151   59.3396   70.7168 C   0  0  0  0  0  0
    3.5391   58.5075   71.8256 C   0  0  0  0  0  0
    3.7343   59.0623   73.0871 C   0  0  0  0  0  0
    3.8307   60.4420   73.2468 C   0  0  0  0  0  0
    3.7332   61.2741   72.1359 C   0  0  0  0  0  0
    7.0215   68.9077   61.9683 H   0  0  0  0  0  0
    6.2150   67.9500   63.1831 H   0  0  0  0  0  0
    6.3435   69.7120   63.3887 H   0  0  0  0  0  0
    4.5964   68.8406   64.6679 H   0  0  0  0  0  0
    2.4860   68.5069   65.7371 H   0  0  0  0  0  0
    0.5065   68.6442   61.8901 H   0  0  0  0  0  0
    2.6774   69.0093   60.8237 H   0  0  0  0  0  0
    1.0040   67.5585   66.0762 H   0  0  0  0  0  0
    0.6236   66.4227   67.6154 H   0  0  0  0  0  0
   -1.8551   66.9073   69.2409 H   0  0  0  0  0  0
   -1.2582   65.3686   68.8152 H   0  0  0  0  0  0
    0.5634   67.3076   70.3000 H   0  0  0  0  0  0
   -0.6688   66.5080   71.1637 H   0  0  0  0  0  0
    1.1617   65.1396   71.5674 H   0  0  0  0  0  0
   -0.6388   63.6594   70.7944 H   0  0  0  0  0  0
   -0.0870   63.7094   69.1682 H   0  0  0  0  0  0
    1.3690   62.4216   71.5084 H   0  0  0  0  0  0
    0.7431   61.7007   70.0481 H   0  0  0  0  0  0
    3.5439   64.0788   71.0768 H   0  0  0  0  0  0
    4.0512   64.1508   69.4074 H   0  0  0  0  0  0
    2.0808   65.3151   68.6752 H   0  0  0  0  0  0
    2.7415   66.1771   70.0176 H   0  0  0  0  0  0
    2.9250   61.0019   68.8253 H   0  0  0  0  0  0
    4.3432   61.8826   69.2783 H   0  0  0  0  0  0
    3.2439   58.9009   69.7429 H   0  0  0  0  0  0
    3.4763   57.4348   71.7135 H   0  0  0  0  0  0
    3.8190   58.4133   73.9467 H   0  0  0  0  0  0
    3.9690   60.8679   74.2300 H   0  0  0  0  0  0
    3.8183   62.3392   72.2752 H   0  0  0  0  0  0
  1  2  1  0  0  0
  1 30  1  0  0  0
  1 31  1  0  0  0
  1 32  1  0  0  0
  2  3  1  0  0  0
  3  8  1  0  0  0
  3  4  2  0  0  0
  4  5  1  0  0  0
  4 33  1  0  0  0
  5  6  2  0  0  0
  5 34  1  0  0  0
  6  7  1  0  0  0
  6  9  1  0  0  0
  7  8  2  0  0  0
  7 35  1  0  0  0
  8 36  1  0  0  0
  9 10  2  0  0  0
  9 11  1  0  0  0
 11 12  1  0  0  0
 11 37  1  0  0  0
 12 13  2  0  0  0
 12 14  1  0  0  0
 14 15  1  0  0  0
 14 38  1  0  0  0
 15 16  1  0  0  0
 15 39  1  0  0  0
 15 40  1  0  0  0
 16 17  1  0  0  0
 16 41  1  0  0  0
 16 42  1  0  0  0
 17 22  1  0  0  0
 17 18  1  0  0  0
 17 43  1  0  0  0
 18 19  1  0  0  0
 18 44  1  0  0  0
 18 45  1  0  0  0
 19 20  1  0  0  0
 19 46  1  0  0  0
 19 47  1  0  0  0
 20 21  1  0  0  0
 20 23  1  0  0  0
 21 22  1  0  0  0
 21 48  1  0  0  0
 21 49  1  0  0  0
 22 50  1  0  0  0
 22 51  1  0  0  0
 23 24  1  0  0  0
 23 52  1  0  0  0
 23 53  1  0  0  0
 24 29  1  0  0  0
 24 25  2  0  0  0
 25 26  1  0  0  0
 25 54  1  0  0  0
 26 27  2  0  0  0
 26 55  1  0  0  0
 27 28  1  0  0  0
 27 56  1  0  0  0
 28 29  2  0  0  0
 28 57  1  0  0  0
 29 58  1  0  0  0
M  END
> <s_m_entry_id>
9707

> <s_m_entry_name>
ligand_docking-pose.149

> <s_m_Source_Path>
/home/csk/Desktop/cluster/DUD-E-result/aces

> <s_m_Source_File>
ligand_docking-pose.sdf

> <i_m_Source_File_Index>
149

> <i_lp_mmshare_version>
53161

> <r_lp_tautomer_probability>
1

> <s_lp_Force_Field>
OPLS_2005

> <r_lp_Energy>
40.136728

> <b_lp_Chiralities_Consistent>
1

> <s_lp_Variant>
268590-1

> <s_i_glide_gridfile>
glide-grid_1e66

> <i_i_glide_lignum>
2114

> <i_i_glide_rotatable_bonds>
10

> <r_i_docking_score>
-7.7039248661179

> <r_i_glide_ligand_efficiency>
-0.265652581590272

> <r_i_glide_ligand_efficiency_sa>
-0.816168895290582

> <r_i_glide_ligand_efficiency_ln>
-1.76400343966206

> <r_i_glide_gscore>
-7.7039248661179

> <r_i_glide_lipo>
-3.97107255850002

> <r_i_glide_hbond>
-0.00688147331067714

> <r_i_glide_metal>
0

> <r_i_glide_rewards>
-2.32817357287181

> <r_i_glide_evdw>
-53.6383934020996

> <r_i_glide_ecoul>
1.57872998714447

> <r_i_glide_erotb>
1.04731291059792

> <r_i_glide_esite>
0

> <r_i_glide_emodel>
-66.4216060403208

> <r_i_glide_energy>
-52.0596634149551

> <r_i_glide_einternal>
17.4362850189209

> <i_i_glide_confnum>
89

> <i_i_glide_posenum>
114

> <r_i_glide_eff_state_penalty>
0

> <i_f3d_flags>
0

> <s_user_duplicate_titles>
268590

> <s_m_subgroup_title>
dock_pv

> <s_m_subgroupid>
dock_pv1

> <b_m_subgroup_collapsed>
1

$$$$
117621
                    3D
 Schrodinger Suite 2021-1.
 75 80  0  0  1  0            999 V2000
    6.4909   70.6903   67.5675 C   0  0  0  0  0  0
    5.9600   70.2081   66.3754 C   0  0  0  0  0  0
    4.5733   69.8962   66.3064 C   0  0  0  0  0  0
    3.9064   69.3926   65.1508 C   0  0  0  0  0  0
    2.5330   69.0751   65.2269 C   0  0  0  0  0  0
    1.9130   69.1338   66.4935 C   0  0  0  0  0  0
    2.5061   69.7081   67.5686 N   0  0  0  0  0  0
    3.7985   70.1071   67.4839 C   0  0  0  0  0  0
    4.3179   70.6384   68.6239 N   0  0  0  0  0  0
    5.6441   70.9083   68.6459 C   0  0  0  0  0  0
    0.5150   68.5520   66.7280 C   0  0  0  0  0  0
   -0.3459   68.4341   65.4558 C   0  0  0  0  0  0
    0.4769   67.8601   64.2943 C   0  0  0  0  0  0
    1.6762   68.7662   63.9800 C   0  0  0  0  0  0
    4.5967   69.2540   63.9317 N   0  0  0  0  0  0
    5.2885   67.9722   63.8071 C   0  0  0  0  0  0
    4.3363   66.7956   63.5416 C   0  0  0  0  0  0
    4.9484   65.3976   63.6425 C   0  0  0  0  0  0
    3.8616   64.3192   63.7080 C   0  0  0  0  0  0
    3.1031   64.2213   65.0562 C   0  0  0  0  0  0
    3.9430   63.4677   66.0984 C   0  0  0  0  0  0
    3.4023   62.9414   67.4613 C   0  0  0  0  0  0
    3.5432   63.8651   68.5825 N   0  0  0  0  0  0
    2.8706   63.5424   69.7836 C   0  0  0  0  0  0
    1.8509   64.4371   70.2275 C   0  0  0  0  0  0
    1.4817   65.6459   69.5685 C   0  0  0  0  0  0
    0.5369   66.4883   70.1405 C   0  0  0  0  0  0
   -0.0570   66.1080   71.3374 C   0  0  0  0  0  0
    0.2141   64.9400   71.9679 N   0  0  0  0  0  0
    1.1613   64.1270   71.4298 C   0  0  0  0  0  0
    1.4393   63.0265   72.1576 N   0  0  0  0  0  0
    2.4355   62.2032   71.7609 C   0  0  0  0  0  0
    3.2143   62.4364   70.6044 C   0  0  0  0  0  0
    4.4840   61.5979   70.3686 C   0  0  0  0  0  0
    4.7929   60.5007   71.4141 C   0  0  0  0  0  0
    4.2559   60.8243   72.8102 C   0  0  0  0  0  0
    2.7447   61.0487   72.7062 C   0  0  0  0  0  0
    7.5429   70.9093   67.6489 H   0  0  0  0  0  0
    6.6027   70.0583   65.5193 H   0  0  0  0  0  0
    6.0375   71.3051   69.5683 H   0  0  0  0  0  0
   -0.0135   69.1166   67.4986 H   0  0  0  0  0  0
    0.6522   67.5500   67.1347 H   0  0  0  0  0  0
   -0.7724   69.3979   65.1812 H   0  0  0  0  0  0
   -1.2036   67.7894   65.6555 H   0  0  0  0  0  0
   -0.1504   67.7542   63.4076 H   0  0  0  0  0  0
    0.8222   66.8552   64.5427 H   0  0  0  0  0  0
    1.3101   69.7076   63.5683 H   0  0  0  0  0  0
    2.2473   68.3399   63.1609 H   0  0  0  0  0  0
    5.2878   69.9899   63.8859 H   0  0  0  0  0  0
    5.8385   67.7673   64.7277 H   0  0  0  0  0  0
    6.0473   68.0342   63.0256 H   0  0  0  0  0  0
    3.8735   66.9198   62.5615 H   0  0  0  0  0  0
    3.5297   66.8458   64.2663 H   0  0  0  0  0  0
    5.5952   65.3079   64.5120 H   0  0  0  0  0  0
    5.5689   65.2342   62.7683 H   0  0  0  0  0  0
    4.2969   63.3518   63.4540 H   0  0  0  0  0  0
    3.1443   64.5081   62.9165 H   0  0  0  0  0  0
    2.1865   63.7081   64.8042 H   0  0  0  0  0  0
    2.7984   65.1938   65.4422 H   0  0  0  0  0  0
    4.7988   64.1079   66.3017 H   0  0  0  0  0  0
    4.3262   62.5982   65.5675 H   0  0  0  0  0  0
    4.0143   62.1080   67.7413 H   0  0  0  0  0  0
    2.4036   62.5080   67.3911 H   0  0  0  0  0  0
    3.3758   64.8206   68.3039 H   0  0  0  0  0  0
    1.9423   65.9211   68.6356 H   0  0  0  0  0  0
    0.2918   67.4333   69.6770 H   0  0  0  0  0  0
   -0.7773   66.7564   71.8160 H   0  0  0  0  0  0
    4.4600   61.1057   69.4013 H   0  0  0  0  0  0
    5.3129   62.3056   70.3681 H   0  0  0  0  0  0
    4.3479   59.5601   71.0834 H   0  0  0  0  0  0
    5.8689   60.3218   71.4568 H   0  0  0  0  0  0
    4.4660   60.0016   73.4957 H   0  0  0  0  0  0
    4.7499   61.7084   73.2188 H   0  0  0  0  0  0
    2.3286   61.2338   73.6992 H   0  0  0  0  0  0
    2.2545   60.1470   72.3356 H   0  0  0  0  0  0
  1 10  1  0  0  0
  1  2  2  0  0  0
  1 38  1  0  0  0
  2  3  1  0  0  0
  2 39  1  0  0  0
  3  8  2  0  0  0
  3  4  1  0  0  0
  4  5  2  0  0  0
  4 15  1  0  0  0
  5 14  1  0  0  0
  5  6  1  0  0  0
  6  7  2  0  0  0
  6 11  1  0  0  0
  7  8  1  0  0  0
  8  9  1  0  0  0
  9 10  2  0  0  0
 10 40  1  0  0  0
 11 12  1  0  0  0
 11 41  1  0  0  0
 11 42  1  0  0  0
 12 13  1  0  0  0
 12 43  1  0  0  0
 12 44  1  0  0  0
 13 14  1  0  0  0
 13 45  1  0  0  0
 13 46  1  0  0  0
 14 47  1  0  0  0
 14 48  1  0  0  0
 15 16  1  0  0  0
 15 49  1  0  0  0
 16 17  1  0  0  0
 16 50  1  0  0  0
 16 51  1  0  0  0
 17 18  1  0  0  0
 17 52  1  0  0  0
 17 53  1  0  0  0
 18 19  1  0  0  0
 18 54  1  0  0  0
 18 55  1  0  0  0
 19 20  1  0  0  0
 19 56  1  0  0  0
 19 57  1  0  0  0
 20 21  1  0  0  0
 20 58  1  0  0  0
 20 59  1  0  0  0
 21 22  1  0  0  0
 21 60  1  0  0  0
 21 61  1  0  0  0
 22 23  1  0  0  0
 22 62  1  0  0  0
 22 63  1  0  0  0
 23 24  1  0  0  0
 23 64  1  0  0  0
 24 33  1  0  0  0
 24 25  2  0  0  0
 25 30  1  0  0  0
 25 26  1  0  0  0
 26 27  2  0  0  0
 26 65  1  0  0  0
 27 28  1  0  0  0
 27 66  1  0  0  0
 28 29  2  0  0  0
 28 67  1  0  0  0
 29 30  1  0  0  0
 30 31  2  0  0  0
 31 32  1  0  0  0
 32 37  1  0  0  0
 32 33  2  0  0  0
 33 34  1  0  0  0
 34 35  1  0  0  0
 34 68  1  0  0  0
 34 69  1  0  0  0
 35 36  1  0  0  0
 35 70  1  0  0  0
 35 71  1  0  0  0
 36 37  1  0  0  0
 36 72  1  0  0  0
 36 73  1  0  0  0
 37 74  1  0  0  0
 37 75  1  0  0  0
M  END
> <s_m_entry_id>
9708

> <s_m_entry_name>
ligand_docking-pose.150

> <s_m_Source_Path>
/home/csk/Desktop/cluster/DUD-E-result/aces

> <s_m_Source_File>
ligand_docking-pose.sdf

> <i_m_Source_File_Index>
150

> <i_lp_mmshare_version>
53161

> <r_lp_tautomer_probability>
1

> <s_lp_Force_Field>
OPLS_2005

> <r_lp_Energy>
35.466459

> <b_lp_Chiralities_Consistent>
1

> <s_lp_Variant>
117621-1

> <s_i_glide_gridfile>
glide-grid_1e66

> <i_i_glide_lignum>
7

> <i_i_glide_rotatable_bonds>
10

> <r_i_docking_score>
-7.70246785014295

> <r_i_glide_ligand_efficiency>
-0.20817480676062

> <r_i_glide_ligand_efficiency_sa>
-0.693684639214966

> <r_i_glide_ligand_efficiency_ln>
-1.67048470522994

> <r_i_glide_gscore>
-7.70246785014295

> <r_i_glide_lipo>
-4.87864949818926

> <r_i_glide_hbond>
0

> <r_i_glide_metal>
0

> <r_i_glide_rewards>
-1.47002775548108

> <r_i_glide_evdw>
-41.2811965942383

> <r_i_glide_ecoul>
0.398161083459854

> <r_i_glide_erotb>
0.666282868869997

> <r_i_glide_esite>
-0.0157377981496716

> <r_i_glide_emodel>
-38.1768045954135

> <r_i_glide_energy>
-40.8830355107784

> <r_i_glide_einternal>
8.23213291168213

> <i_i_glide_confnum>
24

> <i_i_glide_posenum>
71

> <r_i_glide_eff_state_penalty>
0

> <i_f3d_flags>
0

> <s_user_duplicate_titles>
117621

> <s_m_subgroup_title>
dock_pv

> <s_m_subgroupid>
dock_pv1

> <b_m_subgroup_collapsed>
1

$$$$
374482
                    3D
 Schrodinger Suite 2021-1.
 67 71  0  0  1  0            999 V2000
    3.1781   60.9404   73.6936 C   0  0  0  0  0  0
    2.9504   59.5667   73.6671 C   0  0  0  0  0  0
    2.8500   58.8625   72.4666 C   0  0  0  0  0  0
    2.9894   59.6053   71.2902 C   0  0  0  0  0  0
    3.2430   61.0023   71.2844 C   0  0  0  0  0  0
    3.3367   61.6691   72.5145 C   0  0  0  0  0  0
    3.3482   61.3849   69.8996 C   0  0  0  0  0  0
    3.1339   60.3070   69.1681 N   0  0  0  0  0  0
    2.9307   59.2495   69.9670 N   0  0  0  0  0  0
    3.6990   62.6844   69.3445 C   0  0  0  0  0  0
    4.1843   63.5662   70.0516 O   0  0  0  0  0  0
    3.5182   62.8220   68.0155 N   0  0  0  0  0  0
    3.9430   63.9444   67.1895 C   0  0  0  0  0  0
    3.7932   63.7080   65.6556 C   0  0  0  0  0  0
    4.4171   64.7990   64.7680 C   0  0  0  0  0  0
    4.1997   64.6614   63.2651 C   0  0  0  0  0  0
    4.7430   65.8745   62.4624 C   0  0  0  0  0  0
    4.5366   67.2900   63.0436 C   0  0  0  0  0  0
    3.0721   67.7079   63.2361 C   0  0  0  0  0  0
    2.9336   69.0231   63.8350 N   0  0  0  0  0  0
    2.7789   69.1050   65.2320 C   0  0  0  0  0  0
    3.8330   69.6550   66.0250 C   0  0  0  0  0  0
    5.1430   69.9362   65.5351 C   0  0  0  0  0  0
    6.1218   70.4435   66.3846 C   0  0  0  0  0  0
    5.8261   70.7242   67.7141 C   0  0  0  0  0  0
    4.5480   70.5080   68.2153 C   0  0  0  0  0  0
    3.5493   69.9410   67.3911 C   0  0  0  0  0  0
    2.3430   69.6799   67.9434 N   0  0  0  0  0  0
    1.3811   69.0771   67.2061 C   0  0  0  0  0  0
    1.5430   68.7738   65.8370 C   0  0  0  0  0  0
    0.3467   68.2423   65.0130 C   0  0  0  0  0  0
   -0.9917   68.1081   65.7764 C   0  0  0  0  0  0
   -1.1267   69.0768   66.9528 C   0  0  0  0  0  0
    0.0486   68.8504   67.9100 C   0  0  0  0  0  0
    7.0549   71.3079   68.7680 Cl  0  0  0  0  0  0
    2.7429   58.3355   69.5766 H   0  0  0  0  0  0
    3.2368   61.4457   74.6475 H   0  0  0  0  0  0
    2.8442   59.0342   74.6017 H   0  0  0  0  0  0
    2.6695   57.7971   72.4573 H   0  0  0  0  0  0
    3.5151   62.7317   72.5355 H   0  0  0  0  0  0
    2.9672   62.1081   67.5659 H   0  0  0  0  0  0
    4.9894   64.1080   67.4323 H   0  0  0  0  0  0
    3.4255   64.8574   67.4892 H   0  0  0  0  0  0
    2.7430   63.7080   65.4014 H   0  0  0  0  0  0
    4.1786   62.7344   65.3600 H   0  0  0  0  0  0
    5.4942   64.8718   64.9311 H   0  0  0  0  0  0
    3.9430   65.7326   65.0759 H   0  0  0  0  0  0
    3.1430   64.5081   63.0929 H   0  0  0  0  0  0
    4.6737   63.7426   62.9170 H   0  0  0  0  0  0
    4.3430   65.8583   61.4515 H   0  0  0  0  0  0
    5.8181   65.7533   62.3680 H   0  0  0  0  0  0
    5.0220   68.0116   62.3826 H   0  0  0  0  0  0
    5.0735   67.3786   63.9893 H   0  0  0  0  0  0
    2.5599   66.9611   63.8396 H   0  0  0  0  0  0
    2.5558   67.7080   62.2755 H   0  0  0  0  0  0
    3.5814   69.6943   63.4466 H   0  0  0  0  0  0
    5.3932   69.7359   64.5042 H   0  0  0  0  0  0
    7.1192   70.6135   66.0034 H   0  0  0  0  0  0
    4.3230   70.7189   69.2510 H   0  0  0  0  0  0
    0.1905   68.9080   64.1640 H   0  0  0  0  0  0
    0.5838   67.2708   64.5836 H   0  0  0  0  0  0
   -1.8267   68.2347   65.0862 H   0  0  0  0  0  0
   -1.0808   67.0884   66.1555 H   0  0  0  0  0  0
   -1.1456   70.1079   66.5992 H   0  0  0  0  0  0
   -2.0728   68.9115   67.4706 H   0  0  0  0  0  0
    0.0240   67.8347   68.3065 H   0  0  0  0  0  0
   -0.0495   69.5162   68.7679 H   0  0  0  0  0  0
  1  6  1  0  0  0
  1  2  2  0  0  0
  1 37  1  0  0  0
  2  3  1  0  0  0
  2 38  1  0  0  0
  3  4  2  0  0  0
  3 39  1  0  0  0
  4  9  1  0  0  0
  4  5  1  0  0  0
  5  6  2  0  0  0
  5  7  1  0  0  0
  6 40  1  0  0  0
  7  8  2  0  0  0
  7 10  1  0  0  0
  8  9  1  0  0  0
  9 36  1  0  0  0
 10 11  2  0  0  0
 10 12  1  0  0  0
 12 13  1  0  0  0
 12 41  1  0  0  0
 13 14  1  0  0  0
 13 42  1  0  0  0
 13 43  1  0  0  0
 14 15  1  0  0  0
 14 44  1  0  0  0
 14 45  1  0  0  0
 15 16  1  0  0  0
 15 46  1  0  0  0
 15 47  1  0  0  0
 16 17  1  0  0  0
 16 48  1  0  0  0
 16 49  1  0  0  0
 17 18  1  0  0  0
 17 50  1  0  0  0
 17 51  1  0  0  0
 18 19  1  0  0  0
 18 52  1  0  0  0
 18 53  1  0  0  0
 19 20  1  0  0  0
 19 54  1  0  0  0
 19 55  1  0  0  0
 20 21  1  0  0  0
 20 56  1  0  0  0
 21 30  1  0  0  0
 21 22  2  0  0  0
 22 27  1  0  0  0
 22 23  1  0  0  0
 23 24  2  0  0  0
 23 57  1  0  0  0
 24 25  1  0  0  0
 24 58  1  0  0  0
 25 26  2  0  0  0
 25 35  1  0  0  0
 26 27  1  0  0  0
 26 59  1  0  0  0
 27 28  2  0  0  0
 28 29  1  0  0  0
 29 34  1  0  0  0
 29 30  2  0  0  0
 30 31  1  0  0  0
 31 32  1  0  0  0
 31 60  1  0  0  0
 31 61  1  0  0  0
 32 33  1  0  0  0
 32 62  1  0  0  0
 32 63  1  0  0  0
 33 34  1  0  0  0
 33 64  1  0  0  0
 33 65  1  0  0  0
 34 66  1  0  0  0
 34 67  1  0  0  0
M  END
> <s_m_entry_id>
9710

> <s_m_entry_name>
ligand_docking-pose.152

> <s_m_Source_Path>
/home/csk/Desktop/cluster/DUD-E-result/aces

> <s_m_Source_File>
ligand_docking-pose.sdf

> <i_m_Source_File_Index>
152

> <i_lp_mmshare_version>
53161

> <r_lp_tautomer_probability>
0.980392156862745

> <s_lp_Force_Field>
OPLS_2005

> <r_lp_Energy>
28.826209

> <b_lp_Chiralities_Consistent>
1

> <s_lp_Variant>
374482-1

> <s_i_glide_gridfile>
glide-grid_1e66

> <i_i_glide_lignum>
295

> <i_i_glide_rotatable_bonds>
11

> <r_i_docking_score>
-7.69450876394184

> <r_i_glide_ligand_efficiency>
-0.219843107541196

> <r_i_glide_ligand_efficiency_sa>
-0.71912138175293

> <r_i_glide_ligand_efficiency_ln>
-1.68911544410638

> <r_i_glide_gscore>
-7.69450876394184

> <r_i_glide_lipo>
-4.11485434475095

> <r_i_glide_hbond>
-0.0291208940638101

> <r_i_glide_metal>
0

> <r_i_glide_rewards>
-1.92705751774346

> <r_i_glide_evdw>
-44.7243232727051

> <r_i_glide_ecoul>
-0.748468935489655

> <r_i_glide_erotb>
0.762599956772619

> <r_i_glide_esite>
-0.0375894601975437

> <r_i_glide_emodel>
-54.4200198937042

> <r_i_glide_energy>
-45.4727922081947

> <r_i_glide_einternal>
9.30106163024902

> <i_i_glide_confnum>
7

> <i_i_glide_posenum>
303

> <r_i_glide_eff_state_penalty>
0

> <i_f3d_flags>
0

> <s_user_duplicate_titles>
374482

> <s_m_subgroup_title>
dock_pv

> <s_m_subgroupid>
dock_pv1

> <b_m_subgroup_collapsed>
1

$$$$
240732
                    3D
 Schrodinger Suite 2021-1.
 53 56  0  0  1  0            999 V2000
    0.0033   70.5080   60.9301 C   0  0  0  0  0  0
    0.5801   69.2244   60.7700 O   0  0  0  0  0  0
    1.6044   68.9198   61.6321 C   0  0  0  0  0  0
    2.9201   68.9086   61.1638 C   0  0  0  0  0  0
    3.9652   68.5229   61.9992 C   0  0  0  0  0  0
    3.6956   68.1128   63.3042 C   0  0  0  0  0  0
    2.3752   68.1078   63.7643 C   0  0  0  0  0  0
    1.3299   68.5349   62.9502 C   0  0  0  0  0  0
    0.0123   68.4359   63.6783 C   0  0  0  0  0  0
    0.3502   67.8787   65.0718 C   0  0  1  0  0  0
    1.8500   67.5949   65.0389 C   0  0  0  0  0  0
    2.4943   66.9959   65.8905 O   0  0  0  0  0  0
   -0.0769   68.7818   66.2719 C   0  0  0  0  0  0
   -0.1589   68.1241   67.6735 C   0  0  0  0  0  0
   -0.8719   66.7614   67.7808 C   0  0  0  0  0  0
   -0.6910   66.0399   69.1288 C   0  0  0  0  0  0
    0.7128   65.9559   69.5381 N   0  0  1  0  0  0
    1.2220   67.3084   69.7830 C   0  0  0  0  0  0
    1.0804   68.2866   68.5825 C   0  0  0  0  0  0
    0.8503   65.0811   70.7163 C   0  0  0  0  0  0
    2.0362   64.1113   70.6693 C   0  0  0  0  0  0
    1.8593   62.8089   71.1470 C   0  0  0  0  0  0
    2.9349   61.9264   71.2074 C   0  0  0  0  0  0
    4.2000   62.3511   70.8093 C   0  0  0  0  0  0
    4.3962   63.6519   70.3527 C   0  0  0  0  0  0
    3.3186   64.5302   70.2967 C   0  0  0  0  0  0
   -0.7745   70.6274   60.1747 H   0  0  0  0  0  0
   -0.4544   70.6444   61.9098 H   0  0  0  0  0  0
    0.7418   71.2946   60.7682 H   0  0  0  0  0  0
    3.1372   69.1732   60.1410 H   0  0  0  0  0  0
    4.9795   68.5132   61.6230 H   0  0  0  0  0  0
    4.5078   67.7827   63.9348 H   0  0  0  0  0  0
   -0.4834   69.4013   63.7657 H   0  0  0  0  0  0
   -0.6699   67.7531   63.1688 H   0  0  0  0  0  0
   -0.1193   66.9081   65.1680 H   0  0  0  0  0  0
    0.5755   69.6523   66.3649 H   0  0  0  0  0  0
   -1.0631   69.1945   66.0436 H   0  0  0  0  0  0
   -0.8542   68.7706   68.2051 H   0  0  0  0  0  0
   -1.9263   66.8545   67.5108 H   0  0  0  0  0  0
   -0.4574   66.0820   67.0413 H   0  0  0  0  0  0
   -1.2834   66.5079   69.9153 H   0  0  0  0  0  0
   -1.0719   65.0249   69.0136 H   0  0  0  0  0  0
    0.7405   67.7079   70.6711 H   0  0  0  0  0  0
    2.2743   67.2469   70.0518 H   0  0  0  0  0  0
    1.9438   68.0966   67.9704 H   0  0  0  0  0  0
    1.2301   69.3277   68.8616 H   0  0  0  0  0  0
    0.9146   65.6658   71.6336 H   0  0  0  0  0  0
   -0.0467   64.4727   70.8481 H   0  0  0  0  0  0
    0.8853   62.4762   71.4745 H   0  0  0  0  0  0
    2.7892   60.9213   71.5732 H   0  0  0  0  0  0
    5.0366   61.6711   70.8649 H   0  0  0  0  0  0
    5.3791   63.9848   70.0534 H   0  0  0  0  0  0
    3.4955   65.5392   69.9684 H   0  0  0  0  0  0
  1  2  1  0  0  0
  1 27  1  0  0  0
  1 28  1  0  0  0
  1 29  1  0  0  0
  2  3  1  0  0  0
  3  8  1  0  0  0
  3  4  2  0  0  0
  4  5  1  0  0  0
  4 30  1  0  0  0
  5  6  2  0  0  0
  5 31  1  0  0  0
  6  7  1  0  0  0
  6 32  1  0  0  0
  7 11  1  0  0  0
  7  8  2  0  0  0
  8  9  1  0  0  0
  9 10  1  0  0  0
  9 33  1  0  0  0
  9 34  1  0  0  0
 10 11  1  0  0  0
 10 13  1  0  0  0
 10 35  1  0  0  0
 11 12  2  0  0  0
 13 14  1  0  0  0
 13 36  1  0  0  0
 13 37  1  0  0  0
 14 19  1  0  0  0
 14 15  1  0  0  0
 14 38  1  0  0  0
 15 16  1  0  0  0
 15 39  1  0  0  0
 15 40  1  0  0  0
 16 17  1  0  0  0
 16 41  1  0  0  0
 16 42  1  0  0  0
 17 18  1  0  0  0
 17 20  1  0  0  0
 18 19  1  0  0  0
 18 43  1  0  0  0
 18 44  1  0  0  0
 19 45  1  0  0  0
 19 46  1  0  0  0
 20 21  1  0  0  0
 20 47  1  0  0  0
 20 48  1  0  0  0
 21 26  1  0  0  0
 21 22  2  0  0  0
 22 23  1  0  0  0
 22 49  1  0  0  0
 23 24  2  0  0  0
 23 50  1  0  0  0
 24 25  1  0  0  0
 24 51  1  0  0  0
 25 26  2  0  0  0
 25 52  1  0  0  0
 26 53  1  0  0  0
M  END
> <s_m_entry_id>
9711

> <s_m_entry_name>
ligand_docking-pose.153

> <s_m_Source_Path>
/home/csk/Desktop/cluster/DUD-E-result/aces

> <s_m_Source_File>
ligand_docking-pose.sdf

> <i_m_Source_File_Index>
153

> <i_lp_mmshare_version>
53161

> <r_lp_tautomer_probability>
0.99995

> <s_lp_Force_Field>
OPLS_2005

> <r_lp_Energy>
45.449053

> <b_lp_Chiralities_Consistent>
1

> <s_lp_Variant>
240732-1

> <s_i_glide_gridfile>
glide-grid_1e66

> <i_i_glide_lignum>
2101

> <i_i_glide_rotatable_bonds>
5

> <r_i_docking_score>
-7.69271879685618

> <r_i_glide_ligand_efficiency>
-0.295873799879084

> <r_i_glide_ligand_efficiency_sa>
-0.876524967934601

> <r_i_glide_ligand_efficiency_ln>
-1.80660976757248

> <r_i_glide_gscore>
-7.69271879685618

> <r_i_glide_lipo>
-4.13503161063981

> <r_i_glide_hbond>
0

> <r_i_glide_metal>
0

> <r_i_glide_rewards>
-2.05511928927487

> <r_i_glide_evdw>
-41.1479148864746

> <r_i_glide_ecoul>
-0.46057066321373

> <r_i_glide_erotb>
0.623913446864289

> <r_i_glide_esite>
0

> <r_i_glide_emodel>
-47.715999747821

> <r_i_glide_energy>
-41.6084855496883

> <r_i_glide_einternal>
20.5862979888916

> <i_i_glide_confnum>
88

> <i_i_glide_posenum>
292

> <r_i_glide_eff_state_penalty>
0

> <i_f3d_flags>
0

> <s_user_duplicate_titles>
240732

> <s_m_subgroup_title>
dock_pv

> <s_m_subgroupid>
dock_pv1

> <b_m_subgroup_collapsed>
1

$$$$
179507
                    3D
 Schrodinger Suite 2021-1.
 55 57  0  0  1  0            999 V2000
   -1.8644   69.2470   66.2555 C   0  0  0  0  0  0
   -2.7562   68.1932   66.3325 C   0  0  0  0  0  0
   -2.4570   67.1062   67.1352 C   0  0  0  0  0  0
   -1.2753   67.0633   67.8746 C   0  0  0  0  0  0
   -0.2966   68.0776   67.7129 C   0  0  0  0  0  0
   -0.6430   69.2002   66.9173 C   0  0  0  0  0  0
    0.9185   67.9361   68.4434 C   0  0  0  0  0  0
    1.0500   66.8120   69.3073 C   0  0  0  0  0  0
    0.0111   65.8788   69.4037 C   0  0  0  0  0  0
   -1.1472   66.0654   68.7652 N   0  0  0  0  0  0
    0.0287   64.6313   70.3154 C   0  0  0  0  0  0
    1.1778   63.6081   70.1949 C   0  0  0  0  0  0
    2.5499   64.0543   70.7001 C   0  0  0  0  0  0
    3.0746   65.3078   70.0000 C   0  0  0  0  0  0
    2.2072   66.5611   70.2306 C   0  0  0  0  0  0
    1.9431   68.9085   68.3684 N   0  0  0  0  0  0
    2.6111   69.1006   67.0735 C   0  0  0  0  0  0
    3.9720   69.8369   67.1730 C   0  0  0  0  0  0
    5.0211   69.3912   66.1207 C   0  0  0  0  0  0
    4.9442   70.0955   64.7521 C   0  0  0  0  0  0
    5.4337   69.2316   63.5525 C   0  0  0  0  0  0
    4.4149   68.2433   62.9023 C   0  0  0  0  0  0
    3.2535   68.9629   62.1417 C   0  0  0  0  0  0
    2.4918   69.7012   62.9457 F   0  0  0  0  0  0
    2.4188   68.1078   61.5680 F   0  0  0  0  0  0
    3.7113   69.7532   61.1696 F   0  0  0  0  0  0
    5.1429   67.4612   61.9688 O   0  0  0  0  0  0
    3.8488   67.4358   63.9154 O   0  0  0  0  0  0
   -2.1417   70.1078   65.6784 H   0  0  0  0  0  0
   -3.6976   68.2352   65.8040 H   0  0  0  0  0  0
   -3.1711   66.3069   67.2398 H   0  0  0  0  0  0
    0.0186   70.0443   66.8718 H   0  0  0  0  0  0
   -0.8583   64.0399   70.1114 H   0  0  0  0  0  0
   -0.0578   64.9589   71.3517 H   0  0  0  0  0  0
    1.2601   63.2691   69.1678 H   0  0  0  0  0  0
    0.8974   62.7155   70.7571 H   0  0  0  0  0  0
    3.2635   63.2423   70.5549 H   0  0  0  0  0  0
    2.5086   64.2148   71.7775 H   0  0  0  0  0  0
    3.1559   65.0914   68.9350 H   0  0  0  0  0  0
    4.0832   65.5002   70.3680 H   0  0  0  0  0  0
    2.7429   67.4735   70.3653 H   0  0  0  0  0  0
    1.7079   66.4608   71.1681 H   0  0  0  0  0  0
    2.5866   68.8716   69.1440 H   0  0  0  0  0  0
    1.9724   69.5531   66.3180 H   0  0  0  0  0  0
    2.7943   68.1067   66.6753 H   0  0  0  0  0  0
    4.4044   69.7080   68.1633 H   0  0  0  0  0  0
    3.8291   70.9081   67.1407 H   0  0  0  0  0  0
    4.9587   68.3178   65.9682 H   0  0  0  0  0  0
    6.0208   69.5495   66.5304 H   0  0  0  0  0  0
    5.5773   70.9815   64.8074 H   0  0  0  0  0  0
    3.9432   70.4834   64.5817 H   0  0  0  0  0  0
    6.3251   68.6857   63.8693 H   0  0  0  0  0  0
    5.7934   69.9104   62.7774 H   0  0  0  0  0  0
    5.5066   68.0303   61.2731 H   0  0  0  0  0  0
    3.4072   68.0164   64.5387 H   0  0  0  0  0  0
  1  6  1  0  0  0
  1  2  2  0  0  0
  1 29  1  0  0  0
  2  3  1  0  0  0
  2 30  1  0  0  0
  3  4  2  0  0  0
  3 31  1  0  0  0
  4 10  1  0  0  0
  4  5  1  0  0  0
  5  6  2  0  0  0
  5  7  1  0  0  0
  6 32  1  0  0  0
  7  8  2  0  0  0
  7 16  1  0  0  0
  8 15  1  0  0  0
  8  9  1  0  0  0
  9 10  2  0  0  0
  9 11  1  0  0  0
 11 12  1  0  0  0
 11 33  1  0  0  0
 11 34  1  0  0  0
 12 13  1  0  0  0
 12 35  1  0  0  0
 12 36  1  0  0  0
 13 14  1  0  0  0
 13 37  1  0  0  0
 13 38  1  0  0  0
 14 15  1  0  0  0
 14 39  1  0  0  0
 14 40  1  0  0  0
 15 41  1  0  0  0
 15 42  1  0  0  0
 16 17  1  0  0  0
 16 43  1  0  0  0
 17 18  1  0  0  0
 17 44  1  0  0  0
 17 45  1  0  0  0
 18 19  1  0  0  0
 18 46  1  0  0  0
 18 47  1  0  0  0
 19 20  1  0  0  0
 19 48  1  0  0  0
 19 49  1  0  0  0
 20 21  1  0  0  0
 20 50  1  0  0  0
 20 51  1  0  0  0
 21 22  1  0  0  0
 21 52  1  0  0  0
 21 53  1  0  0  0
 22 23  1  0  0  0
 22 27  1  0  0  0
 22 28  1  0  0  0
 23 24  1  0  0  0
 23 25  1  0  0  0
 23 26  1  0  0  0
 27 54  1  0  0  0
 28 55  1  0  0  0
M  END
> <s_m_entry_id>
9714

> <s_m_entry_name>
ligand_docking-pose.156

> <s_m_Source_Path>
/home/csk/Desktop/cluster/DUD-E-result/aces

> <s_m_Source_File>
ligand_docking-pose.sdf

> <i_m_Source_File_Index>
156

> <i_lp_mmshare_version>
53161

> <r_lp_tautomer_probability>
1

> <s_lp_Force_Field>
OPLS_2005

> <r_lp_Energy>
28.151169

> <b_lp_Chiralities_Consistent>
1

> <s_lp_Variant>
179507-1

> <s_i_glide_gridfile>
glide-grid_1e66

> <i_i_glide_lignum>
243

> <i_i_glide_rotatable_bonds>
10

> <r_i_docking_score>
-7.68191428895066

> <r_i_glide_ligand_efficiency>
-0.274354081748238

> <r_i_glide_ligand_efficiency_sa>
-0.833100578100419

> <r_i_glide_ligand_efficiency_ln>
-1.77321136869413

> <r_i_glide_gscore>
-7.68191428895066

> <r_i_glide_lipo>
-4.14258980435882

> <r_i_glide_hbond>
0

> <r_i_glide_metal>
0

> <r_i_glide_rewards>
-2.08260696044193

> <r_i_glide_evdw>
-24.0780429840088

> <r_i_glide_ecoul>
-6.54913187026978

> <r_i_glide_erotb>
0.746896312232763

> <r_i_glide_esite>
-0.0173419066417692

> <r_i_glide_emodel>
-28.268452686445

> <r_i_glide_energy>
-30.6271748542786

> <r_i_glide_einternal>
9.85396480560303

> <i_i_glide_confnum>
47

> <i_i_glide_posenum>
214

> <r_i_glide_eff_state_penalty>
0

> <i_f3d_flags>
0

> <s_user_duplicate_titles>
179507

> <s_m_subgroup_title>
dock_pv

> <s_m_subgroupid>
dock_pv1

> <b_m_subgroup_collapsed>
1

$$$$
427366
                    3D
 Schrodinger Suite 2021-1.
 37 39  0  0  1  0            999 V2000
    6.5052   70.3968   66.8290 C   0  0  0  0  0  0
    6.0681   70.9779   68.0125 C   0  0  0  0  0  0
    4.7395   70.8583   68.4052 C   0  0  0  0  0  0
    3.8247   70.1261   67.6085 C   0  0  0  0  0  0
    4.2446   69.5763   66.3669 C   0  0  0  0  0  0
    5.6182   69.7080   66.0079 C   0  0  0  0  0  0
    3.2592   68.9067   65.5707 C   0  0  0  0  0  0
    1.9443   68.7623   66.0634 C   0  0  0  0  0  0
    1.6509   69.3035   67.3351 C   0  0  0  0  0  0
    2.5554   70.0019   68.0584 N   0  0  0  0  0  0
    0.2663   69.1695   67.9655 C   0  0  0  0  0  0
   -0.8413   69.0230   66.9151 C   0  0  0  0  0  0
   -0.4891   67.8690   65.9685 C   0  0  0  0  0  0
    0.8280   68.1278   65.2100 C   0  0  0  0  0  0
    3.5865   68.3683   64.3134 N   0  0  0  0  0  0
    3.9136   69.3486   63.2779 C   0  0  0  0  0  0
    4.6001   68.7391   62.0461 C   0  0  0  0  0  0
    5.9380   68.2655   62.3680 N   0  0  0  0  0  0
    7.5409   70.4895   66.5346 H   0  0  0  0  0  0
    6.7652   71.5219   68.6342 H   0  0  0  0  0  0
    4.3978   71.3034   69.3282 H   0  0  0  0  0  0
    5.9861   69.2647   65.0958 H   0  0  0  0  0  0
    0.0513   70.0215   68.6126 H   0  0  0  0  0  0
    0.2766   68.2922   68.6125 H   0  0  0  0  0  0
   -0.9640   69.9527   66.3582 H   0  0  0  0  0  0
   -1.7972   68.8306   67.4061 H   0  0  0  0  0  0
   -1.3003   67.7119   65.2565 H   0  0  0  0  0  0
   -0.4086   66.9400   66.5376 H   0  0  0  0  0  0
    0.6194   68.8050   64.3807 H   0  0  0  0  0  0
    1.1673   67.1928   64.7609 H   0  0  0  0  0  0
    2.9132   67.6930   63.9842 H   0  0  0  0  0  0
    4.5366   70.1528   63.6697 H   0  0  0  0  0  0
    2.9887   69.8515   62.9917 H   0  0  0  0  0  0
    4.6840   69.4951   61.2642 H   0  0  0  0  0  0
    4.0107   67.9208   61.6300 H   0  0  0  0  0  0
    6.4163   68.1081   61.4762 H   0  0  0  0  0  0
    6.4633   69.0052   62.8152 H   0  0  0  0  0  0
  1  6  1  0  0  0
  1  2  2  0  0  0
  1 19  1  0  0  0
  2  3  1  0  0  0
  2 20  1  0  0  0
  3  4  2  0  0  0
  3 21  1  0  0  0
  4 10  1  0  0  0
  4  5  1  0  0  0
  5  6  2  0  0  0
  5  7  1  0  0  0
  6 22  1  0  0  0
  7  8  2  0  0  0
  7 15  1  0  0  0
  8 14  1  0  0  0
  8  9  1  0  0  0
  9 10  2  0  0  0
  9 11  1  0  0  0
 11 12  1  0  0  0
 11 23  1  0  0  0
 11 24  1  0  0  0
 12 13  1  0  0  0
 12 25  1  0  0  0
 12 26  1  0  0  0
 13 14  1  0  0  0
 13 27  1  0  0  0
 13 28  1  0  0  0
 14 29  1  0  0  0
 14 30  1  0  0  0
 15 16  1  0  0  0
 15 31  1  0  0  0
 16 17  1  0  0  0
 16 32  1  0  0  0
 16 33  1  0  0  0
 17 18  1  0  0  0
 17 34  1  0  0  0
 17 35  1  0  0  0
 18 36  1  0  0  0
 18 37  1  0  0  0
M  END
> <s_m_entry_id>
9716

> <s_m_entry_name>
ligand_docking-pose.158

> <s_m_Source_Path>
/home/csk/Desktop/cluster/DUD-E-result/aces

> <s_m_Source_File>
ligand_docking-pose.sdf

> <i_m_Source_File_Index>
158

> <i_lp_mmshare_version>
53161

> <r_lp_tautomer_probability>
1

> <s_lp_Force_Field>
OPLS_2005

> <r_lp_Energy>
18.384342

> <b_lp_Chiralities_Consistent>
1

> <s_lp_Variant>
427366-1

> <s_i_glide_gridfile>
glide-grid_1e66

> <i_i_glide_lignum>
225

> <i_i_glide_rotatable_bonds>
3

> <r_i_docking_score>
-7.68018986895628

> <r_i_glide_ligand_efficiency>
-0.426677214942015

> <r_i_glide_ligand_efficiency_sa>
-1.11821063808696

> <r_i_glide_ligand_efficiency_ln>
-1.97415320357702

> <r_i_glide_gscore>
-7.68018986895628

> <r_i_glide_lipo>
-3.31239150609363

> <r_i_glide_hbond>
-0.222443777860341

> <r_i_glide_metal>
0

> <r_i_glide_rewards>
-2.24698246969697

> <r_i_glide_evdw>
-31.1506690979004

> <r_i_glide_ecoul>
-4.2550835609436

> <r_i_glide_erotb>
0.297423873731224

> <r_i_glide_esite>
0

> <r_i_glide_emodel>
-52.0865337047089

> <r_i_glide_energy>
-35.405752658844

> <r_i_glide_einternal>
1.06213736534119

> <i_i_glide_confnum>
7

> <i_i_glide_posenum>
369

> <r_i_glide_eff_state_penalty>
0

> <i_f3d_flags>
0

> <s_user_duplicate_titles>
427366

> <s_m_subgroup_title>
dock_pv

> <s_m_subgroupid>
dock_pv1

> <b_m_subgroup_collapsed>
1

$$$$
84967
                    3D
 Schrodinger Suite 2021-1.
 52 54  0  0  1  0            999 V2000
    3.8598   69.5229   60.9167 C   0  0  0  0  0  0
    5.0084   69.7080   61.6759 C   0  0  0  0  0  0
    4.9546   69.6237   63.0579 C   0  0  0  0  0  0
    3.7318   69.3828   63.6805 C   0  0  0  0  0  0
    2.5609   69.2811   62.9085 C   0  0  0  0  0  0
    2.6300   69.3080   61.5241 C   0  0  0  0  0  0
    3.7091   69.3663   65.2048 C   0  0  0  0  0  0
    2.4409   68.9080   65.7639 N   0  0  1  0  0  0
    2.1686   67.4858   65.4907 C   0  0  0  0  0  0
    0.7478   67.1506   65.9583 C   0  0  0  0  0  0
    0.6514   67.3952   67.4650 C   0  0  0  0  0  0
    0.9068   68.8947   67.7030 C   0  0  0  0  0  0
    2.2859   69.3145   67.1681 C   0  0  0  0  0  0
   -0.6858   66.9334   68.0584 C   0  0  0  0  0  0
   -0.5358   66.5080   69.5227 C   0  0  0  0  0  0
    0.1836   65.2416   69.6313 N   0  0  0  0  0  0
    0.4521   64.5836   70.7732 C   0  0  0  0  0  0
    0.0528   64.9411   71.8832 O   0  0  0  0  0  0
    1.2655   63.3265   70.6099 C   0  0  0  0  0  0
    0.9393   62.1819   71.3448 C   0  0  0  0  0  0
    1.6627   61.0047   71.1680 C   0  0  0  0  0  0
    2.7318   60.9560   70.2623 C   0  0  0  0  0  0
    3.0762   62.1159   69.5558 C   0  0  0  0  0  0
    2.3520   63.2894   69.7282 C   0  0  0  0  0  0
    3.4878   59.6995   70.0484 N   0  3  0  0  0  0
    3.2388   58.7272   70.7539 O   0  5  0  0  0  0
    4.3430   59.6812   69.1682 O   0  0  0  0  0  0
    3.9430   69.5408   59.8408 H   0  0  0  0  0  0
    5.9430   69.8863   61.1689 H   0  0  0  0  0  0
    5.8583   69.7548   63.6369 H   0  0  0  0  0  0
    1.5921   69.1636   63.3712 H   0  0  0  0  0  0
    1.7365   69.1901   60.9280 H   0  0  0  0  0  0
    3.8785   70.3969   65.5229 H   0  0  0  0  0  0
    4.5413   68.7753   65.5922 H   0  0  0  0  0  0
    2.9235   66.8615   65.9680 H   0  0  0  0  0  0
    2.2409   67.2588   64.4285 H   0  0  0  0  0  0
    0.5345   66.1080   65.7390 H   0  0  0  0  0  0
   -0.0147   67.6951   65.3977 H   0  0  0  0  0  0
    1.4626   66.8284   67.9253 H   0  0  0  0  0  0
    0.1201   69.5186   67.2753 H   0  0  0  0  0  0
    0.8545   69.1135   68.7680 H   0  0  0  0  0  0
    3.0931   68.9080   67.7760 H   0  0  0  0  0  0
    2.3768   70.3995   67.2345 H   0  0  0  0  0  0
   -1.1034   66.1080   67.4825 H   0  0  0  0  0  0
   -1.4268   67.7296   67.9680 H   0  0  0  0  0  0
   -1.5249   66.5080   69.9680 H   0  0  0  0  0  0
    0.0333   67.2624   70.0713 H   0  0  0  0  0  0
    0.4727   64.8234   68.7533 H   0  0  0  0  0  0
    0.1104   62.1920   72.0398 H   0  0  0  0  0  0
    1.3769   60.1274   71.7317 H   0  0  0  0  0  0
    3.9053   62.1158   68.8627 H   0  0  0  0  0  0
    2.6393   64.1687   69.1680 H   0  0  0  0  0  0
  1  6  1  0  0  0
  1  2  2  0  0  0
  1 28  1  0  0  0
  2  3  1  0  0  0
  2 29  1  0  0  0
  3  4  2  0  0  0
  3 30  1  0  0  0
  4  5  1  0  0  0
  4  7  1  0  0  0
  5  6  2  0  0  0
  5 31  1  0  0  0
  6 32  1  0  0  0
  7  8  1  0  0  0
  7 33  1  0  0  0
  7 34  1  0  0  0
  8 13  1  0  0  0
  8  9  1  0  0  0
  9 10  1  0  0  0
  9 35  1  0  0  0
  9 36  1  0  0  0
 10 11  1  0  0  0
 10 37  1  0  0  0
 10 38  1  0  0  0
 11 12  1  0  0  0
 11 14  1  0  0  0
 11 39  1  0  0  0
 12 13  1  0  0  0
 12 40  1  0  0  0
 12 41  1  0  0  0
 13 42  1  0  0  0
 13 43  1  0  0  0
 14 15  1  0  0  0
 14 44  1  0  0  0
 14 45  1  0  0  0
 15 16  1  0  0  0
 15 46  1  0  0  0
 15 47  1  0  0  0
 16 17  1  0  0  0
 16 48  1  0  0  0
 17 18  2  0  0  0
 17 19  1  0  0  0
 19 24  1  0  0  0
 19 20  2  0  0  0
 20 21  1  0  0  0
 20 49  1  0  0  0
 21 22  2  0  0  0
 21 50  1  0  0  0
 22 23  1  0  0  0
 22 25  1  0  0  0
 23 24  2  0  0  0
 23 51  1  0  0  0
 24 52  1  0  0  0
 25 26  1  0  0  0
 25 27  2  0  0  0
M  CHG  2  25   1  26  -1
M  END
> <s_m_entry_id>
9718

> <s_m_entry_name>
ligand_docking-pose.160

> <s_m_Source_Path>
/home/csk/Desktop/cluster/DUD-E-result/aces

> <s_m_Source_File>
ligand_docking-pose.sdf

> <i_m_Source_File_Index>
160

> <i_lp_mmshare_version>
53161

> <r_lp_tautomer_probability>
1

> <s_lp_Force_Field>
OPLS_2005

> <r_lp_Energy>
29.298927

> <b_lp_Chiralities_Consistent>
1

> <s_lp_Variant>
84967-1

> <s_i_glide_gridfile>
glide-grid_1e66

> <i_i_glide_lignum>
428

> <i_i_glide_rotatable_bonds>
8

> <r_i_docking_score>
-7.6732650361723

> <r_i_glide_ligand_efficiency>
-0.284195001339715

> <r_i_glide_ligand_efficiency_sa>
-0.852585003082485

> <r_i_glide_ligand_efficiency_ln>
-1.78620959675999

> <r_i_glide_gscore>
-7.6732650361723

> <r_i_glide_lipo>
-3.5651201244113

> <r_i_glide_hbond>
-0.32

> <r_i_glide_metal>
0

> <r_i_glide_rewards>
-2.02538311966499

> <r_i_glide_evdw>
-39.3846626281738

> <r_i_glide_ecoul>
-5.10790681838989

> <r_i_glide_erotb>
0.998501340184617

> <r_i_glide_esite>
-0.025843978113457

> <r_i_glide_emodel>
-59.2388765763812

> <r_i_glide_energy>
-44.4925694465637

> <r_i_glide_einternal>
5.8628830909729

> <i_i_glide_confnum>
36

> <i_i_glide_posenum>
261

> <r_i_glide_eff_state_penalty>
0

> <i_f3d_flags>
0

> <s_user_duplicate_titles>
84967

> <s_m_subgroup_title>
dock_pv

> <s_m_subgroupid>
dock_pv1

> <b_m_subgroup_collapsed>
1

$$$$
631096
                    3D
 Schrodinger Suite 2021-1.
 61 63  0  0  1  0            999 V2000
    5.1247   60.5943   71.7068 C   0  0  0  0  0  0
    4.5296   60.6341   70.3687 N   0  0  0  0  0  0
    3.7340   59.4207   70.1728 C   0  0  0  0  0  0
    3.6610   61.8087   70.2145 C   0  0  0  0  0  0
    4.4260   63.1529   70.1326 C   0  0  0  0  0  0
    3.5913   64.3813   70.5454 C   0  0  0  0  0  0
    2.3818   64.6680   69.6378 C   0  0  0  0  0  0
    1.4898   65.8098   70.1637 C   0  0  0  0  0  0
    0.2461   66.0792   69.2895 C   0  0  0  0  0  0
    0.5308   66.7679   67.9372 C   0  0  0  0  0  0
    0.8751   68.2550   68.0680 C   0  0  0  0  0  0
    1.1008   68.9080   66.7822 N   0  0  0  0  0  0
    2.4049   69.1229   66.2881 C   0  0  0  0  0  0
    3.4439   69.7326   67.0691 C   0  0  0  0  0  0
    3.2585   70.3066   68.3672 C   0  0  0  0  0  0
    4.3172   70.9057   69.0373 C   0  0  0  0  0  0
    5.5862   70.9449   68.4703 C   0  0  0  0  0  0
    5.8061   70.4328   67.1963 C   0  0  0  0  0  0
    4.7388   69.8461   66.4763 C   0  0  0  0  0  0
    4.9869   69.4578   65.2057 N   0  0  0  0  0  0
    3.9651   69.0359   64.4297 C   0  0  0  0  0  0
    2.6660   68.8027   64.9368 C   0  0  0  0  0  0
    1.5912   68.1771   64.0277 C   0  0  0  0  0  0
    1.9035   68.3082   62.5257 C   0  0  0  0  0  0
    3.3523   67.8951   62.2323 C   0  0  0  0  0  0
    4.3037   68.8602   62.9488 C   0  0  0  0  0  0
    5.7696   61.4507   71.8962 H   0  0  0  0  0  0
    5.7459   59.7086   71.8272 H   0  0  0  0  0  0
    4.3607   60.5743   72.4866 H   0  0  0  0  0  0
    3.3157   59.3907   69.1652 H   0  0  0  0  0  0
    4.3435   58.5245   70.2964 H   0  0  0  0  0  0
    2.9044   59.3616   70.8815 H   0  0  0  0  0  0
    3.0973   61.7017   69.2855 H   0  0  0  0  0  0
    2.9070   61.8405   71.0046 H   0  0  0  0  0  0
    5.3729   63.1298   70.6654 H   0  0  0  0  0  0
    4.7171   63.3040   69.0921 H   0  0  0  0  0  0
    3.2492   64.2431   71.5700 H   0  0  0  0  0  0
    4.2396   65.2597   70.5677 H   0  0  0  0  0  0
    2.7441   64.9067   68.6388 H   0  0  0  0  0  0
    1.7732   63.7668   69.5473 H   0  0  0  0  0  0
    1.1520   65.5505   71.1676 H   0  0  0  0  0  0
    2.0759   66.7215   70.2803 H   0  0  0  0  0  0
   -0.2733   65.1362   69.1097 H   0  0  0  0  0  0
   -0.4574   66.6883   69.8572 H   0  0  0  0  0  0
    1.3429   66.2687   67.4151 H   0  0  0  0  0  0
   -0.3414   66.6593   67.2889 H   0  0  0  0  0  0
    0.0664   68.7786   68.5801 H   0  0  0  0  0  0
    1.7216   68.3467   68.7428 H   0  0  0  0  0  0
    0.3907   68.7076   66.0943 H   0  0  0  0  0  0
    2.2811   70.3266   68.8266 H   0  0  0  0  0  0
    4.1374   71.3080   70.0223 H   0  0  0  0  0  0
    6.4001   71.4006   69.0153 H   0  0  0  0  0  0
    6.7843   70.4987   66.7405 H   0  0  0  0  0  0
    1.5032   67.1217   64.2913 H   0  0  0  0  0  0
    0.6115   68.6158   64.2170 H   0  0  0  0  0  0
    1.2034   67.7083   61.9447 H   0  0  0  0  0  0
    1.7454   69.3406   62.2078 H   0  0  0  0  0  0
    3.5424   66.8732   62.5641 H   0  0  0  0  0  0
    3.5452   67.9150   61.1583 H   0  0  0  0  0  0
    5.3407   68.5454   62.8160 H   0  0  0  0  0  0
    4.2307   69.8420   62.4758 H   0  0  0  0  0  0
  1  2  1  0  0  0
  1 27  1  0  0  0
  1 28  1  0  0  0
  1 29  1  0  0  0
  2  3  1  0  0  0
  2  4  1  0  0  0
  3 30  1  0  0  0
  3 31  1  0  0  0
  3 32  1  0  0  0
  4  5  1  0  0  0
  4 33  1  0  0  0
  4 34  1  0  0  0
  5  6  1  0  0  0
  5 35  1  0  0  0
  5 36  1  0  0  0
  6  7  1  0  0  0
  6 37  1  0  0  0
  6 38  1  0  0  0
  7  8  1  0  0  0
  7 39  1  0  0  0
  7 40  1  0  0  0
  8  9  1  0  0  0
  8 41  1  0  0  0
  8 42  1  0  0  0
  9 10  1  0  0  0
  9 43  1  0  0  0
  9 44  1  0  0  0
 10 11  1  0  0  0
 10 45  1  0  0  0
 10 46  1  0  0  0
 11 12  1  0  0  0
 11 47  1  0  0  0
 11 48  1  0  0  0
 12 13  1  0  0  0
 12 49  1  0  0  0
 13 22  1  0  0  0
 13 14  2  0  0  0
 14 19  1  0  0  0
 14 15  1  0  0  0
 15 16  2  0  0  0
 15 50  1  0  0  0
 16 17  1  0  0  0
 16 51  1  0  0  0
 17 18  2  0  0  0
 17 52  1  0  0  0
 18 19  1  0  0  0
 18 53  1  0  0  0
 19 20  2  0  0  0
 20 21  1  0  0  0
 21 26  1  0  0  0
 21 22  2  0  0  0
 22 23  1  0  0  0
 23 24  1  0  0  0
 23 54  1  0  0  0
 23 55  1  0  0  0
 24 25  1  0  0  0
 24 56  1  0  0  0
 24 57  1  0  0  0
 25 26  1  0  0  0
 25 58  1  0  0  0
 25 59  1  0  0  0
 26 60  1  0  0  0
 26 61  1  0  0  0
M  END
> <s_m_entry_id>
9719

> <s_m_entry_name>
ligand_docking-pose.161

> <s_m_Source_Path>
/home/csk/Desktop/cluster/DUD-E-result/aces

> <s_m_Source_File>
ligand_docking-pose.sdf

> <i_m_Source_File_Index>
161

> <i_lp_mmshare_version>
53161

> <r_lp_tautomer_probability>
1

> <s_lp_Force_Field>
OPLS_2005

> <r_lp_Energy>
24.667584

> <b_lp_Chiralities_Consistent>
1

> <s_lp_Variant>
631096-1

> <s_i_glide_gridfile>
glide-grid_1e66

> <i_i_glide_lignum>
1781

> <i_i_glide_rotatable_bonds>
10

> <r_i_docking_score>
-7.66825182021531

> <r_i_glide_ligand_efficiency>
-0.294932762315974

> <r_i_glide_ligand_efficiency_sa>
-0.873737147856691

> <r_i_glide_ligand_efficiency_ln>
-1.80086377839107

> <r_i_glide_gscore>
-7.66825182021531

> <r_i_glide_lipo>
-4.65529427832456

> <r_i_glide_hbond>
0

> <r_i_glide_metal>
0

> <r_i_glide_rewards>
-1.89856295454545

> <r_i_glide_evdw>
-43.2343902587891

> <r_i_glide_ecoul>
-1.16678464412689

> <r_i_glide_erotb>
1.22234262221319

> <r_i_glide_esite>
0

> <r_i_glide_emodel>
-61.9213477882919

> <r_i_glide_energy>
-44.401174902916

> <r_i_glide_einternal>
4.5691351890564

> <i_i_glide_confnum>
16

> <i_i_glide_posenum>
183

> <r_i_glide_eff_state_penalty>
0

> <i_f3d_flags>
0

> <s_user_duplicate_titles>
631096

> <s_m_subgroup_title>
dock_pv

> <s_m_subgroupid>
dock_pv1

> <b_m_subgroup_collapsed>
1

$$$$
153742
                    3D
 Schrodinger Suite 2021-1.
 39 41  0  0  1  0            999 V2000
    2.3078   68.9082   61.3695 C   0  0  0  0  0  0
    0.7786   69.0174   61.5207 C   0  0  0  0  0  0
    0.2420   68.3928   62.8149 C   0  0  0  0  0  0
    1.0172   68.9079   63.8777 O   0  0  0  0  0  0
    0.9329   68.2761   65.1497 C   0  0  2  0  0  0
   -0.5043   68.3610   65.7155 C   0  0  0  0  0  0
   -0.5284   67.9989   67.1986 C   0  0  0  0  0  0
    0.2621   69.0626   67.9674 C   0  0  0  0  0  0
    1.6522   69.3076   67.3893 C   0  0  0  0  0  0
    1.9931   68.9073   66.0785 C   0  0  0  0  0  0
    3.3320   69.0873   65.6690 C   0  0  0  0  0  0
    4.2725   69.7077   66.5396 C   0  0  0  0  0  0
    5.6448   69.9180   66.2177 C   0  0  0  0  0  0
    6.5006   70.5079   67.1417 C   0  0  0  0  0  0
    6.0251   70.9533   68.3687 C   0  0  0  0  0  0
    4.6893   70.7724   68.7139 C   0  0  0  0  0  0
    3.8082   70.1125   67.8225 C   0  0  0  0  0  0
    2.5390   69.8855   68.2326 N   0  0  0  0  0  0
    3.7281   68.6464   64.4021 N   0  0  0  0  0  0
    2.6267   69.1735   60.3653 H   0  0  0  0  0  0
    2.6641   67.8964   61.5683 H   0  0  0  0  0  0
    2.8162   69.5910   62.0494 H   0  0  0  0  0  0
    0.4856   70.0667   61.4731 H   0  0  0  0  0  0
    0.2986   68.5291   60.6741 H   0  0  0  0  0  0
   -0.8149   68.6311   62.9477 H   0  0  0  0  0  0
    0.3311   67.3082   62.7762 H   0  0  0  0  0  0
    1.2169   67.2296   65.0210 H   0  0  0  0  0  0
   -0.8866   69.3762   65.6040 H   0  0  0  0  0  0
   -1.1779   67.7085   65.1663 H   0  0  0  0  0  0
   -1.5551   67.9585   67.5655 H   0  0  0  0  0  0
   -0.1012   67.0065   67.3586 H   0  0  0  0  0  0
   -0.2888   70.0055   67.9655 H   0  0  0  0  0  0
    0.3439   68.7524   69.0079 H   0  0  0  0  0  0
    6.0369   69.6036   65.2615 H   0  0  0  0  0  0
    7.5428   70.6380   66.8925 H   0  0  0  0  0  0
    6.7002   71.4272   69.0667 H   0  0  0  0  0  0
    4.3188   71.0813   69.6799 H   0  0  0  0  0  0
    4.6058   69.0010   64.0511 H   0  0  0  0  0  0
    2.9630   68.5035   63.7539 H   0  0  0  0  0  0
  1  2  1  0  0  0
  1 20  1  0  0  0
  1 21  1  0  0  0
  1 22  1  0  0  0
  2  3  1  0  0  0
  2 23  1  0  0  0
  2 24  1  0  0  0
  3  4  1  0  0  0
  3 25  1  0  0  0
  3 26  1  0  0  0
  4  5  1  0  0  0
  5 10  1  0  0  0
  5  6  1  0  0  0
  5 27  1  0  0  0
  6  7  1  0  0  0
  6 28  1  0  0  0
  6 29  1  0  0  0
  7  8  1  0  0  0
  7 30  1  0  0  0
  7 31  1  0  0  0
  8  9  1  0  0  0
  8 32  1  0  0  0
  8 33  1  0  0  0
  9 18  2  0  0  0
  9 10  1  0  0  0
 10 11  2  0  0  0
 11 12  1  0  0  0
 11 19  1  0  0  0
 12 17  2  0  0  0
 12 13  1  0  0  0
 13 14  2  0  0  0
 13 34  1  0  0  0
 14 15  1  0  0  0
 14 35  1  0  0  0
 15 16  2  0  0  0
 15 36  1  0  0  0
 16 17  1  0  0  0
 16 37  1  0  0  0
 17 18  1  0  0  0
 19 38  1  0  0  0
 19 39  1  0  0  0
M  END
> <s_m_entry_id>
9720

> <s_m_entry_name>
ligand_docking-pose.162

> <s_m_Source_Path>
/home/csk/Desktop/cluster/DUD-E-result/aces

> <s_m_Source_File>
ligand_docking-pose.sdf

> <i_m_Source_File_Index>
162

> <i_lp_mmshare_version>
53161

> <r_lp_tautomer_probability>
1

> <s_lp_Force_Field>
OPLS_2005

> <r_lp_Energy>
21.566579

> <b_lp_Chiralities_Consistent>
1

> <s_lp_Variant>
153742-1

> <s_i_glide_gridfile>
glide-grid_1e66

> <i_i_glide_lignum>
1176

> <i_i_glide_rotatable_bonds>
3

> <r_i_docking_score>
-7.6668895303884

> <r_i_glide_ligand_efficiency>
-0.40352050159939

> <r_i_glide_ligand_efficiency_sa>
-1.0767547707041

> <r_i_glide_ligand_efficiency_ln>
-1.94372116564181

> <r_i_glide_gscore>
-7.6668895303884

> <r_i_glide_lipo>
-4.04727158330062

> <r_i_glide_hbond>
0

> <r_i_glide_metal>
0

> <r_i_glide_rewards>
-2.33108327195476

> <r_i_glide_evdw>
-34.6593856811523

> <r_i_glide_ecoul>
-0.613252460956573

> <r_i_glide_erotb>
0.536422478068083

> <r_i_glide_esite>
0

> <r_i_glide_emodel>
-49.5972776069335

> <r_i_glide_energy>
-35.2726381421089

> <r_i_glide_einternal>
1.68559730052948

> <i_i_glide_confnum>
8

> <i_i_glide_posenum>
203

> <r_i_glide_eff_state_penalty>
0

> <i_f3d_flags>
0

> <s_user_duplicate_titles>
153742

> <s_m_subgroup_title>
dock_pv

> <s_m_subgroupid>
dock_pv1

> <b_m_subgroup_collapsed>
1

$$$$
676787
                    3D
 Schrodinger Suite 2021-1.
 72 76  0  0  1  0            999 V2000
    6.2194   70.4939   66.3637 C   0  0  0  0  0  0
    5.9402   70.7893   67.6928 C   0  0  0  0  0  0
    4.6780   70.5312   68.2183 C   0  0  0  0  0  0
    3.6676   69.9641   67.4055 C   0  0  0  0  0  0
    3.9359   69.6714   66.0384 C   0  0  0  0  0  0
    5.2390   69.9566   65.5330 C   0  0  0  0  0  0
    2.8762   69.1070   65.2609 C   0  0  0  0  0  0
    1.6427   68.7870   65.8760 C   0  0  0  0  0  0
    1.4897   69.1110   67.2409 C   0  0  0  0  0  0
    2.4634   69.7079   67.9683 N   0  0  0  0  0  0
    0.1558   68.9153   67.9526 C   0  0  0  0  0  0
   -1.0268   69.0897   66.9934 C   0  0  0  0  0  0
   -0.8803   68.0838   65.8508 C   0  0  0  0  0  0
    0.4414   68.2424   65.0666 C   0  0  0  0  0  0
    3.0243   68.9952   63.8657 N   0  0  0  0  0  0
    3.1425   67.6622   63.3030 C   0  0  0  0  0  0
    4.5990   67.2216   63.1265 C   0  0  0  0  0  0
    4.7706   65.8259   62.4960 C   0  0  0  0  0  0
    4.1976   64.5936   63.2516 C   0  0  0  0  0  0
    4.3622   64.6565   64.7680 C   0  0  0  0  0  0
    3.5995   63.6345   65.6331 C   0  0  0  0  0  0
    3.6985   63.9453   67.1626 C   0  0  0  0  0  0
    3.1430   62.9080   68.0467 N   0  0  1  0  0  0
    3.3392   63.2272   69.4616 C   0  0  2  0  0  0
    4.6500   62.6083   69.9693 C   0  0  0  0  0  0
    4.7035   62.3514   71.4726 C   0  0  0  0  0  0
    3.5526   61.4356   71.9068 C   0  0  0  0  0  0
    2.2238   61.9906   71.4084 C   0  0  0  0  0  0
    2.1261   62.7882   70.3010 C   0  0  0  0  0  0
    0.7771   63.2667   69.9997 C   0  0  0  0  0  0
   -0.2733   62.9079   70.7677 C   0  0  0  0  0  0
   -0.1445   62.0252   71.9136 C   0  0  0  0  0  0
    1.1267   61.6191   72.1524 N   0  0  0  0  0  0
   -1.0822   61.6648   72.6151 O   0  0  0  0  0  0
    7.2065   70.6880   65.9680 H   0  0  0  0  0  0
    6.7093   71.2125   68.3233 H   0  0  0  0  0  0
    4.4622   70.7510   69.2545 H   0  0  0  0  0  0
    5.4788   69.7468   64.5013 H   0  0  0  0  0  0
    0.0579   69.6302   68.7680 H   0  0  0  0  0  0
    0.1326   67.9230   68.4045 H   0  0  0  0  0  0
   -1.0626   70.1078   66.6046 H   0  0  0  0  0  0
   -1.9669   68.9291   67.5235 H   0  0  0  0  0  0
   -1.7272   68.1579   65.1665 H   0  0  0  0  0  0
   -0.9282   67.0747   66.2657 H   0  0  0  0  0  0
    0.2637   68.9077   64.2214 H   0  0  0  0  0  0
    0.6782   67.2731   64.6328 H   0  0  0  0  0  0
    3.6789   69.6447   63.4528 H   0  0  0  0  0  0
    2.6364   67.6590   62.3376 H   0  0  0  0  0  0
    2.6142   66.9266   63.9068 H   0  0  0  0  0  0
    5.1208   67.2689   64.0834 H   0  0  0  0  0  0
    5.1106   67.9521   62.4960 H   0  0  0  0  0  0
    5.8421   65.7062   62.3680 H   0  0  0  0  0  0
    4.3431   65.8575   61.4953 H   0  0  0  0  0  0
    4.6397   63.6717   62.8723 H   0  0  0  0  0  0
    3.1430   64.5079   63.0478 H   0  0  0  0  0  0
    3.9430   65.6116   65.0814 H   0  0  0  0  0  0
    5.4259   64.6294   65.0051 H   0  0  0  0  0  0
    3.9430   62.6243   65.4159 H   0  0  0  0  0  0
    2.5734   63.7080   65.2878 H   0  0  0  0  0  0
    3.1916   64.8942   67.3582 H   0  0  0  0  0  0
    4.7429   64.1079   67.4315 H   0  0  0  0  0  0
    2.1338   62.8569   67.9677 H   0  0  0  0  0  0
    3.3964   64.3103   69.5990 H   0  0  0  0  0  0
    5.4704   63.2703   69.6759 H   0  0  0  0  0  0
    4.7430   61.6349   69.4851 H   0  0  0  0  0  0
    4.6109   63.3080   71.9680 H   0  0  0  0  0  0
    5.6652   61.9293   71.7676 H   0  0  0  0  0  0
    3.5610   61.4349   72.9990 H   0  0  0  0  0  0
    3.6831   60.3914   71.6204 H   0  0  0  0  0  0
    0.6133   63.9363   69.1681 H   0  0  0  0  0  0
   -1.2570   63.2728   70.5317 H   0  0  0  0  0  0
    1.2169   61.0164   72.9549 H   0  0  0  0  0  0
  1  6  1  0  0  0
  1  2  2  0  0  0
  1 35  1  0  0  0
  2  3  1  0  0  0
  2 36  1  0  0  0
  3  4  2  0  0  0
  3 37  1  0  0  0
  4 10  1  0  0  0
  4  5  1  0  0  0
  5  6  2  0  0  0
  5  7  1  0  0  0
  6 38  1  0  0  0
  7  8  2  0  0  0
  7 15  1  0  0  0
  8 14  1  0  0  0
  8  9  1  0  0  0
  9 10  2  0  0  0
  9 11  1  0  0  0
 11 12  1  0  0  0
 11 39  1  0  0  0
 11 40  1  0  0  0
 12 13  1  0  0  0
 12 41  1  0  0  0
 12 42  1  0  0  0
 13 14  1  0  0  0
 13 43  1  0  0  0
 13 44  1  0  0  0
 14 45  1  0  0  0
 14 46  1  0  0  0
 15 16  1  0  0  0
 15 47  1  0  0  0
 16 17  1  0  0  0
 16 48  1  0  0  0
 16 49  1  0  0  0
 17 18  1  0  0  0
 17 50  1  0  0  0
 17 51  1  0  0  0
 18 19  1  0  0  0
 18 52  1  0  0  0
 18 53  1  0  0  0
 19 20  1  0  0  0
 19 54  1  0  0  0
 19 55  1  0  0  0
 20 21  1  0  0  0
 20 56  1  0  0  0
 20 57  1  0  0  0
 21 22  1  0  0  0
 21 58  1  0  0  0
 21 59  1  0  0  0
 22 23  1  0  0  0
 22 60  1  0  0  0
 22 61  1  0  0  0
 23 24  1  0  0  0
 23 62  1  0  0  0
 24 25  1  0  0  0
 24 63  1  0  0  0
 24 29  1  0  0  0
 25 26  1  0  0  0
 25 64  1  0  0  0
 25 65  1  0  0  0
 26 27  1  0  0  0
 26 66  1  0  0  0
 26 67  1  0  0  0
 27 68  1  0  0  0
 27 69  1  0  0  0
 27 28  1  0  0  0
 28 33  1  0  0  0
 28 29  2  0  0  0
 29 30  1  0  0  0
 30 70  1  0  0  0
 30 31  2  0  0  0
 31 32  1  0  0  0
 31 71  1  0  0  0
 32 34  2  0  0  0
 32 33  1  0  0  0
 33 72  1  0  0  0
M  END
> <s_m_entry_id>
9723

> <s_m_entry_name>
ligand_docking-pose.165

> <s_m_Source_Path>
/home/csk/Desktop/cluster/DUD-E-result/aces

> <s_m_Source_File>
ligand_docking-pose.sdf

> <i_m_Source_File_Index>
165

> <i_lp_mmshare_version>
53161

> <r_lp_tautomer_probability>
0.999

> <s_lp_Force_Field>
OPLS_2005

> <r_lp_Energy>
39.320692

> <b_lp_Chiralities_Consistent>
1

> <s_lp_Variant>
676787-1

> <s_i_glide_gridfile>
glide-grid_1e66

> <i_i_glide_lignum>
172

> <i_i_glide_rotatable_bonds>
10

> <r_i_docking_score>
-7.65108993514444

> <r_i_glide_ligand_efficiency>
-0.225032056916013

> <r_i_glide_ligand_efficiency_sa>
-0.729016506393936

> <r_i_glide_ligand_efficiency_ln>
-1.6903403724769

> <r_i_glide_gscore>
-7.65108993514444

> <r_i_glide_lipo>
-4.83093412962036

> <r_i_glide_hbond>
-0.31156756556986

> <r_i_glide_metal>
0

> <r_i_glide_rewards>
-1.18201213636364

> <r_i_glide_evdw>
-37.4434928894043

> <r_i_glide_ecoul>
-1.46260297298431

> <r_i_glide_erotb>
0.764988986827277

> <r_i_glide_esite>
0

> <r_i_glide_emodel>
-48.035896857109

> <r_i_glide_energy>
-38.9060958623886

> <r_i_glide_einternal>
6.82361364364624

> <i_i_glide_confnum>
72

> <i_i_glide_posenum>
289

> <r_i_glide_eff_state_penalty>
0

> <i_f3d_flags>
0

> <s_user_duplicate_titles>
676787

> <s_m_subgroup_title>
dock_pv

> <s_m_subgroupid>
dock_pv1

> <b_m_subgroup_collapsed>
1

$$$$
179351
                    3D
 Schrodinger Suite 2021-1.
 44 46  0  0  1  0            999 V2000
    3.8218   70.3080   68.2811 C   0  0  0  0  0  0
    3.4679   69.7078   66.9256 C   0  0  0  0  0  0
    2.2556   69.0416   66.6666 C   0  0  0  0  0  0
    2.0459   68.5178   65.3755 C   0  0  0  0  0  0
    3.0548   68.6915   64.3751 C   0  0  0  0  0  0
    2.9303   68.2422   63.0278 C   0  0  0  0  0  0
    3.9620   68.4431   62.1133 C   0  0  0  0  0  0
    5.1346   69.0825   62.4987 C   0  0  0  0  0  0
    5.2935   69.5384   63.8038 C   0  0  0  0  0  0
    4.2603   69.3558   64.7541 C   0  0  0  0  0  0
    4.4545   69.8380   66.0068 N   0  0  0  0  0  0
    0.8538   67.8395   65.0902 N   0  0  0  0  0  0
    1.1901   68.8643   67.7588 C   0  0  0  0  0  0
    1.1429   67.4898   68.1405 O   0  0  0  0  0  0
    1.2326   67.2468   69.5389 C   0  0  0  0  0  0
    1.1290   65.7586   69.8196 C   0  0  0  0  0  0
   -0.0781   65.1126   69.5690 C   0  0  0  0  0  0
   -0.2584   63.7799   69.9376 C   0  0  0  0  0  0
    0.7839   63.0653   70.5104 C   0  0  0  0  0  0
    2.0270   63.6776   70.6892 C   0  0  0  0  0  0
    2.1919   65.0340   70.3669 C   0  0  0  0  0  0
    3.1365   62.8842   71.2662 C   0  0  0  0  0  0
    2.9806   62.1094   72.2139 O   0  0  0  0  0  0
    4.4480   62.8718   70.4684 C   0  0  0  0  0  0
    5.1427   63.9762   70.7379 F   0  0  0  0  0  0
    4.1851   62.8356   69.1602 F   0  0  0  0  0  0
    5.1610   61.7954   70.7985 F   0  0  0  0  0  0
    3.4077   71.3073   68.3776 H   0  0  0  0  0  0
    3.4435   69.7086   69.1056 H   0  0  0  0  0  0
    4.9014   70.3834   68.4179 H   0  0  0  0  0  0
    2.0263   67.7491   62.7046 H   0  0  0  0  0  0
    3.8574   68.1055   61.0922 H   0  0  0  0  0  0
    5.9266   69.2289   61.7766 H   0  0  0  0  0  0
    6.2046   70.0429   64.0961 H   0  0  0  0  0  0
    0.6868   67.4516   64.1748 H   0  0  0  0  0  0
    0.2380   67.6097   65.8590 H   0  0  0  0  0  0
    0.2106   69.1448   67.3692 H   0  0  0  0  0  0
    1.3435   69.5406   68.6001 H   0  0  0  0  0  0
    0.3903   67.7079   70.0478 H   0  0  0  0  0  0
    2.1502   67.6597   69.9605 H   0  0  0  0  0  0
   -0.8991   65.6597   69.1294 H   0  0  0  0  0  0
   -1.2145   63.3072   69.7715 H   0  0  0  0  0  0
    0.6246   62.0304   70.7812 H   0  0  0  0  0  0
    3.1319   65.5370   70.5508 H   0  0  0  0  0  0
  1  2  1  0  0  0
  1 28  1  0  0  0
  1 29  1  0  0  0
  1 30  1  0  0  0
  2 11  1  0  0  0
  2  3  2  0  0  0
  3  4  1  0  0  0
  3 13  1  0  0  0
  4  5  2  0  0  0
  4 12  1  0  0  0
  5 10  1  0  0  0
  5  6  1  0  0  0
  6  7  2  0  0  0
  6 31  1  0  0  0
  7  8  1  0  0  0
  7 32  1  0  0  0
  8  9  2  0  0  0
  8 33  1  0  0  0
  9 10  1  0  0  0
  9 34  1  0  0  0
 10 11  2  0  0  0
 12 35  1  0  0  0
 12 36  1  0  0  0
 13 14  1  0  0  0
 13 37  1  0  0  0
 13 38  1  0  0  0
 14 15  1  0  0  0
 15 16  1  0  0  0
 15 39  1  0  0  0
 15 40  1  0  0  0
 16 21  1  0  0  0
 16 17  2  0  0  0
 17 18  1  0  0  0
 17 41  1  0  0  0
 18 19  2  0  0  0
 18 42  1  0  0  0
 19 20  1  0  0  0
 19 43  1  0  0  0
 20 21  2  0  0  0
 20 22  1  0  0  0
 21 44  1  0  0  0
 22 23  2  0  0  0
 22 24  1  0  0  0
 24 25  1  0  0  0
 24 26  1  0  0  0
 24 27  1  0  0  0
M  END
> <s_m_entry_id>
9724

> <s_m_entry_name>
ligand_docking-pose.166

> <s_m_Source_Path>
/home/csk/Desktop/cluster/DUD-E-result/aces

> <s_m_Source_File>
ligand_docking-pose.sdf

> <i_m_Source_File_Index>
166

> <i_lp_mmshare_version>
53161

> <r_lp_tautomer_probability>
1

> <s_lp_Force_Field>
OPLS_2005

> <r_lp_Energy>
38.236131

> <b_lp_Chiralities_Consistent>
1

> <s_lp_Variant>
179351-1

> <s_i_glide_gridfile>
glide-grid_1e66

> <i_i_glide_lignum>
687

> <i_i_glide_rotatable_bonds>
6

> <r_i_docking_score>
-7.64633171913991

> <r_i_glide_ligand_efficiency>
-0.283197471079256

> <r_i_glide_ligand_efficiency_sa>
-0.849592412304396

> <r_i_glide_ligand_efficiency_ln>
-1.77993996458529

> <r_i_glide_gscore>
-7.64633171913991

> <r_i_glide_lipo>
-3.5228942390864

> <r_i_glide_hbond>
0

> <r_i_glide_metal>
0

> <r_i_glide_rewards>
-2.66640420385871

> <r_i_glide_evdw>
-39.7699775695801

> <r_i_glide_ecoul>
-1.05580508708954

> <r_i_glide_erotb>
0.689836365347637

> <r_i_glide_esite>
0

> <r_i_glide_emodel>
-53.62627599216

> <r_i_glide_energy>
-40.8257826566696

> <r_i_glide_einternal>
6.36990880966187

> <i_i_glide_confnum>
60

> <i_i_glide_posenum>
235

> <r_i_glide_eff_state_penalty>
0

> <i_f3d_flags>
0

> <s_user_duplicate_titles>
179351

> <s_m_subgroup_title>
dock_pv

> <s_m_subgroupid>
dock_pv1

> <b_m_subgroup_collapsed>
1

$$$$
489863
                    3D
 Schrodinger Suite 2021-1.
 53 55  0  0  1  0            999 V2000
    5.5967   70.3202   65.5487 C   0  0  0  0  0  0
    4.6093   69.3088   64.9595 C   0  0  0  0  0  0
    4.7938   68.6748   63.7684 C   0  0  0  0  0  0
    3.8492   67.6295   63.3079 C   0  0  0  0  0  0
    3.9449   66.9148   62.3093 O   0  0  0  0  0  0
    2.7418   67.3830   64.0895 O   0  0  0  0  0  0
    2.5012   68.0647   65.2670 C   0  0  0  0  0  0
    3.3829   69.0360   65.7586 C   0  0  0  0  0  0
    3.0525   69.6866   66.9576 C   0  0  0  0  0  0
    1.8922   69.3362   67.6515 C   0  0  0  0  0  0
    1.0335   68.3424   67.1787 C   0  0  0  0  0  0
    1.3389   67.7198   65.9590 C   0  0  0  0  0  0
   -0.0545   68.0477   67.9798 O   0  0  0  0  0  0
   -0.7920   66.8295   67.8367 C   0  0  0  0  0  0
   -0.7288   66.0315   69.1563 C   0  0  0  0  0  0
    0.7048   65.7945   69.6436 C   0  0  0  0  0  0
    0.7586   64.6069   70.4376 O   0  0  0  0  0  0
    1.9828   63.9861   70.5860 C   0  0  0  0  0  0
    1.9993   62.6671   71.0428 C   0  0  0  0  0  0
    3.2007   61.9469   71.1831 C   0  0  0  0  0  0
    4.3934   62.5904   70.8208 C   0  0  0  0  0  0
    4.3864   63.9049   70.3668 C   0  0  0  0  0  0
    3.1980   64.6077   70.2843 C   0  0  0  0  0  0
    5.5429   64.5078   69.9686 O   0  0  0  0  0  0
    3.2262   60.5994   71.6328 N   0  0  0  0  0  0
    1.9664   59.8773   71.8090 C   0  0  0  0  0  0
    4.2997   60.2078   72.5519 C   0  0  0  0  0  0
    5.9453   68.8827   62.7833 C   0  0  0  0  0  0
    6.4655   70.5157   64.9335 H   0  0  0  0  0  0
    5.1431   71.2930   65.7183 H   0  0  0  0  0  0
    5.9653   69.9542   66.5065 H   0  0  0  0  0  0
    3.6927   70.4528   67.3713 H   0  0  0  0  0  0
    1.6613   69.8325   68.5850 H   0  0  0  0  0  0
    0.6910   66.9749   65.5236 H   0  0  0  0  0  0
   -0.4541   66.1748   67.0345 H   0  0  0  0  0  0
   -1.8280   67.0772   67.6077 H   0  0  0  0  0  0
   -1.2173   65.0699   69.0155 H   0  0  0  0  0  0
   -1.2869   66.5108   69.9512 H   0  0  0  0  0  0
    1.0607   66.6510   70.2200 H   0  0  0  0  0  0
    1.3519   65.7057   68.7680 H   0  0  0  0  0  0
    1.0502   62.2162   71.2865 H   0  0  0  0  0  0
    5.3383   62.0753   70.8596 H   0  0  0  0  0  0
    3.2296   65.6385   69.9684 H   0  0  0  0  0  0
    5.4194   65.4190   69.6866 H   0  0  0  0  0  0
    1.3297   59.9798   70.9287 H   0  0  0  0  0  0
    1.4153   60.2695   72.6648 H   0  0  0  0  0  0
    2.1355   58.8108   71.9685 H   0  0  0  0  0  0
    5.2913   60.4868   72.2001 H   0  0  0  0  0  0
    4.1546   60.6943   73.5190 H   0  0  0  0  0  0
    4.3084   59.1285   72.7145 H   0  0  0  0  0  0
    6.7427   69.5016   63.1679 H   0  0  0  0  0  0
    6.4079   67.9410   62.4864 H   0  0  0  0  0  0
    5.5794   69.3658   61.8756 H   0  0  0  0  0  0
  1  2  1  0  0  0
  1 29  1  0  0  0
  1 30  1  0  0  0
  1 31  1  0  0  0
  2  8  1  0  0  0
  2  3  2  0  0  0
  3  4  1  0  0  0
  3 28  1  0  0  0
  4  5  2  0  0  0
  4  6  1  0  0  0
  6  7  1  0  0  0
  7 12  1  0  0  0
  7  8  2  0  0  0
  8  9  1  0  0  0
  9 10  2  0  0  0
  9 32  1  0  0  0
 10 11  1  0  0  0
 10 33  1  0  0  0
 11 12  2  0  0  0
 11 13  1  0  0  0
 12 34  1  0  0  0
 13 14  1  0  0  0
 14 15  1  0  0  0
 14 35  1  0  0  0
 14 36  1  0  0  0
 15 16  1  0  0  0
 15 37  1  0  0  0
 15 38  1  0  0  0
 16 17  1  0  0  0
 16 39  1  0  0  0
 16 40  1  0  0  0
 17 18  1  0  0  0
 18 23  1  0  0  0
 18 19  2  0  0  0
 19 20  1  0  0  0
 19 41  1  0  0  0
 20 21  2  0  0  0
 20 25  1  0  0  0
 21 22  1  0  0  0
 21 42  1  0  0  0
 22 23  2  0  0  0
 22 24  1  0  0  0
 23 43  1  0  0  0
 24 44  1  0  0  0
 25 26  1  0  0  0
 25 27  1  0  0  0
 26 45  1  0  0  0
 26 46  1  0  0  0
 26 47  1  0  0  0
 27 48  1  0  0  0
 27 49  1  0  0  0
 27 50  1  0  0  0
 28 51  1  0  0  0
 28 52  1  0  0  0
 28 53  1  0  0  0
M  END
> <s_m_entry_id>
9725

> <s_m_entry_name>
ligand_docking-pose.167

> <s_m_Source_Path>
/home/csk/Desktop/cluster/DUD-E-result/aces

> <s_m_Source_File>
ligand_docking-pose.sdf

> <i_m_Source_File_Index>
167

> <i_lp_mmshare_version>
53161

> <r_lp_tautomer_probability>
1

> <s_lp_Force_Field>
OPLS_2005

> <r_lp_Energy>
29.859576

> <b_lp_Chiralities_Consistent>
1

> <s_lp_Variant>
489863-1

> <s_i_glide_gridfile>
glide-grid_1e66

> <i_i_glide_lignum>
834

> <i_i_glide_rotatable_bonds>
8

> <r_i_docking_score>
-7.64427159198527

> <r_i_glide_ligand_efficiency>
-0.27300969971376

> <r_i_glide_ligand_efficiency_sa>
-0.829018242445069

> <r_i_glide_ligand_efficiency_ln>
-1.76452232899691

> <r_i_glide_gscore>
-7.64427159198527

> <r_i_glide_lipo>
-4.30283026995785

> <r_i_glide_hbond>
0

> <r_i_glide_metal>
0

> <r_i_glide_rewards>
-0.809387228668663

> <r_i_glide_evdw>
-45.3160171508789

> <r_i_glide_ecoul>
-7.06179809570312

> <r_i_glide_erotb>
0.793016478540662

> <r_i_glide_esite>
0

> <r_i_glide_emodel>
-71.2613643730758

> <r_i_glide_energy>
-52.377815246582

> <r_i_glide_einternal>
10.1430015563965

> <i_i_glide_confnum>
6

> <i_i_glide_posenum>
192

> <r_i_glide_eff_state_penalty>
0

> <i_f3d_flags>
0

> <s_user_duplicate_titles>
489863

> <s_m_subgroup_title>
dock_pv

> <s_m_subgroupid>
dock_pv1

> <b_m_subgroup_collapsed>
1

$$$$
85554
                    3D
 Schrodinger Suite 2021-1.
 52 54  0  0  1  0            999 V2000
    3.4260   62.4934   69.5078 C   0  0  0  0  0  0
    3.8673   63.7443   69.9324 C   0  0  0  0  0  0
    2.9485   64.6689   70.4227 C   0  0  0  0  0  0
    1.5897   64.3426   70.4972 C   0  0  0  0  0  0
    1.1560   63.0887   70.0542 C   0  0  0  0  0  0
    2.0742   62.1609   69.5683 C   0  0  0  0  0  0
    0.5664   65.3668   71.0074 C   0  0  0  0  0  0
    0.0944   66.3670   70.0329 N   0  0  1  0  0  0
    1.1405   67.3126   69.6265 C   0  0  0  0  0  0
    0.6249   68.3634   68.6236 C   0  0  0  0  0  0
   -0.0667   67.7459   67.3918 C   0  0  0  0  0  0
   -1.1576   66.7825   67.8900 C   0  0  0  0  0  0
   -0.5473   65.7621   68.8696 C   0  0  0  0  0  0
   -0.5917   68.8314   66.4151 C   0  0  0  0  0  0
   -0.5162   68.5071   64.9090 C   0  0  0  0  0  0
    0.8423   68.1105   64.5490 N   0  0  0  0  0  0
    1.6209   68.7280   63.6485 C   0  0  0  0  0  0
    1.1881   69.3066   62.6525 O   0  0  0  0  0  0
    3.0762   68.7980   64.0507 C   0  0  0  0  0  0
    3.3752   69.1819   65.3711 C   0  0  0  0  0  0
    4.6872   69.3118   65.8038 C   0  0  0  0  0  0
    5.7295   69.0720   64.9213 C   0  0  0  0  0  0
    5.4640   68.6906   63.6087 C   0  0  0  0  0  0
    4.1450   68.5426   63.1617 C   0  0  0  0  0  0
    3.9433   68.0485   61.7926 N   0  3  0  0  0  0
    4.3390   66.9078   61.5679 O   0  5  0  0  0  0
    3.4217   68.7874   60.9641 O   0  0  0  0  0  0
    4.1368   61.7766   69.1271 H   0  0  0  0  0  0
    4.9160   64.0009   69.8805 H   0  0  0  0  0  0
    3.2959   65.6349   70.7618 H   0  0  0  0  0  0
    0.1068   62.8318   70.0864 H   0  0  0  0  0  0
    1.7371   61.1907   69.2356 H   0  0  0  0  0  0
    0.9646   65.8917   71.8705 H   0  0  0  0  0  0
   -0.3012   64.8168   71.3736 H   0  0  0  0  0  0
    1.9430   66.7472   69.1691 H   0  0  0  0  0  0
    1.5576   67.8043   70.5021 H   0  0  0  0  0  0
    1.4455   69.0112   68.3142 H   0  0  0  0  0  0
   -0.0539   69.0315   69.1404 H   0  0  0  0  0  0
    0.6949   67.1339   66.9067 H   0  0  0  0  0  0
   -1.9797   67.3101   68.3692 H   0  0  0  0  0  0
   -1.6263   66.2831   67.0407 H   0  0  0  0  0  0
    0.2752   65.2930   68.3686 H   0  0  0  0  0  0
   -1.2570   64.9965   69.1680 H   0  0  0  0  0  0
    0.0112   69.7158   66.5676 H   0  0  0  0  0  0
   -1.6076   69.1299   66.6804 H   0  0  0  0  0  0
   -0.8571   69.3572   64.3196 H   0  0  0  0  0  0
   -1.2031   67.7080   64.6748 H   0  0  0  0  0  0
    1.2806   67.4506   65.1745 H   0  0  0  0  0  0
    2.5865   69.4052   66.0757 H   0  0  0  0  0  0
    4.8967   69.6164   66.8195 H   0  0  0  0  0  0
    6.7431   69.1886   65.2619 H   0  0  0  0  0  0
    6.2917   68.5074   62.9354 H   0  0  0  0  0  0
  1  6  1  0  0  0
  1  2  2  0  0  0
  1 28  1  0  0  0
  2  3  1  0  0  0
  2 29  1  0  0  0
  3  4  2  0  0  0
  3 30  1  0  0  0
  4  5  1  0  0  0
  4  7  1  0  0  0
  5  6  2  0  0  0
  5 31  1  0  0  0
  6 32  1  0  0  0
  7  8  1  0  0  0
  7 33  1  0  0  0
  7 34  1  0  0  0
  8 13  1  0  0  0
  8  9  1  0  0  0
  9 10  1  0  0  0
  9 35  1  0  0  0
  9 36  1  0  0  0
 10 11  1  0  0  0
 10 37  1  0  0  0
 10 38  1  0  0  0
 11 12  1  0  0  0
 11 14  1  0  0  0
 11 39  1  0  0  0
 12 13  1  0  0  0
 12 40  1  0  0  0
 12 41  1  0  0  0
 13 42  1  0  0  0
 13 43  1  0  0  0
 14 15  1  0  0  0
 14 44  1  0  0  0
 14 45  1  0  0  0
 15 16  1  0  0  0
 15 46  1  0  0  0
 15 47  1  0  0  0
 16 17  1  0  0  0
 16 48  1  0  0  0
 17 18  2  0  0  0
 17 19  1  0  0  0
 19 24  1  0  0  0
 19 20  2  0  0  0
 20 21  1  0  0  0
 20 49  1  0  0  0
 21 22  2  0  0  0
 21 50  1  0  0  0
 22 23  1  0  0  0
 22 51  1  0  0  0
 23 24  2  0  0  0
 23 52  1  0  0  0
 24 25  1  0  0  0
 25 26  1  0  0  0
 25 27  2  0  0  0
M  CHG  2  25   1  26  -1
M  END
> <s_m_entry_id>
9726

> <s_m_entry_name>
ligand_docking-pose.168

> <s_m_Source_Path>
/home/csk/Desktop/cluster/DUD-E-result/aces

> <s_m_Source_File>
ligand_docking-pose.sdf

> <i_m_Source_File_Index>
168

> <i_lp_mmshare_version>
53161

> <r_lp_tautomer_probability>
1

> <s_lp_Force_Field>
OPLS_2005

> <r_lp_Energy>
31.438173

> <b_lp_Chiralities_Consistent>
1

> <s_lp_Variant>
85554-1

> <s_i_glide_gridfile>
glide-grid_1e66

> <i_i_glide_lignum>
430

> <i_i_glide_rotatable_bonds>
8

> <r_i_docking_score>
-7.63325042186516

> <r_i_glide_ligand_efficiency>
-0.282712978587599

> <r_i_glide_ligand_efficiency_sa>
-0.84813893483102

> <r_i_glide_ligand_efficiency_ln>
-1.77689485424177

> <r_i_glide_gscore>
-7.63325042186516

> <r_i_glide_lipo>
-3.68701269572391

> <r_i_glide_hbond>
0

> <r_i_glide_metal>
0

> <r_i_glide_rewards>
-1.78135052273229

> <r_i_glide_evdw>
-41.5557899475098

> <r_i_glide_ecoul>
-6.47963428497314

> <r_i_glide_erotb>
0.998501340184617

> <r_i_glide_esite>
-0.113653903472128

> <r_i_glide_emodel>
-61.004775150194

> <r_i_glide_energy>
-48.0354242324829

> <r_i_glide_einternal>
21.9567279815674

> <i_i_glide_confnum>
115

> <i_i_glide_posenum>
353

> <r_i_glide_eff_state_penalty>
0

> <i_f3d_flags>
0

> <s_user_duplicate_titles>
85554

> <s_m_subgroup_title>
dock_pv

> <s_m_subgroupid>
dock_pv1

> <b_m_subgroup_collapsed>
1

$$$$
245783
                    3D
 Schrodinger Suite 2021-1.
 31 31  0  0  1  0            999 V2000
   -0.3563   67.1915   67.8991 C   0  0  0  0  0  0
    0.5214   67.8582   66.8495 C   0  0  0  0  0  0
    1.5056   68.5074   67.2040 O   0  0  0  0  0  0
    0.1366   67.6891   65.5693 N   0  0  0  0  0  0
    0.7946   68.1552   64.4215 C   0  0  0  0  0  0
    0.0080   68.5064   63.3217 C   0  0  0  0  0  0
    0.6056   68.9615   62.1474 C   0  0  0  0  0  0
    1.9927   69.0661   62.0571 C   0  0  0  0  0  0
    2.7946   68.7151   63.1559 C   0  0  0  0  0  0
    2.1915   68.2415   64.3301 C   0  0  0  0  0  0
    4.3106   68.7622   63.0697 N   0  3  0  0  0  0
    4.8586   67.3530   62.7558 C   0  0  0  0  0  0
    4.8562   69.7030   61.9680 C   0  0  0  0  0  0
    4.9871   69.2570   64.3789 C   0  0  0  0  0  0
   -1.4031   67.4619   67.7595 H   0  0  0  0  0  0
   -0.0530   67.5042   68.8987 H   0  0  0  0  0  0
   -0.2620   66.1077   67.8392 H   0  0  0  0  0  0
   -0.7286   67.1923   65.3981 H   0  0  0  0  0  0
   -1.0692   68.4291   63.3747 H   0  0  0  0  0  0
   -0.0094   69.2299   61.3011 H   0  0  0  0  0  0
    2.4017   69.4160   61.1232 H   0  0  0  0  0  0
    2.7863   67.9214   65.1704 H   0  0  0  0  0  0
    5.9421   67.4195   62.6585 H   0  0  0  0  0  0
    4.5690   66.6918   63.5734 H   0  0  0  0  0  0
    4.4088   67.0362   61.8136 H   0  0  0  0  0  0
    5.9431   69.6744   61.9864 H   0  0  0  0  0  0
    4.5136   69.3544   60.9946 H   0  0  0  0  0  0
    4.4991   70.7001   62.1980 H   0  0  0  0  0  0
    6.0613   69.3618   64.2132 H   0  0  0  0  0  0
    4.5416   70.2214   64.6317 H   0  0  0  0  0  0
    4.8186   68.5330   65.1753 H   0  0  0  0  0  0
  1  2  1  0  0  0
  1 15  1  0  0  0
  1 16  1  0  0  0
  1 17  1  0  0  0
  2  3  2  0  0  0
  2  4  1  0  0  0
  4  5  1  0  0  0
  4 18  1  0  0  0
  5 10  1  0  0  0
  5  6  2  0  0  0
  6  7  1  0  0  0
  6 19  1  0  0  0
  7  8  2  0  0  0
  7 20  1  0  0  0
  8  9  1  0  0  0
  8 21  1  0  0  0
  9 10  2  0  0  0
  9 11  1  0  0  0
 10 22  1  0  0  0
 11 12  1  0  0  0
 11 13  1  0  0  0
 11 14  1  0  0  0
 12 23  1  0  0  0
 12 24  1  0  0  0
 12 25  1  0  0  0
 13 26  1  0  0  0
 13 27  1  0  0  0
 13 28  1  0  0  0
 14 29  1  0  0  0
 14 30  1  0  0  0
 14 31  1  0  0  0
M  CHG  1  11   1
M  END
> <s_m_entry_id>
9730

> <s_m_entry_name>
ligand_docking-pose.172

> <s_m_Source_Path>
/home/csk/Desktop/cluster/DUD-E-result/aces

> <s_m_Source_File>
ligand_docking-pose.sdf

> <i_m_Source_File_Index>
172

> <i_lp_mmshare_version>
53161

> <r_lp_tautomer_probability>
1

> <s_lp_Force_Field>
OPLS_2005

> <r_lp_Energy>
20.517238

> <b_lp_Chiralities_Consistent>
1

> <s_lp_Variant>
245783-1

> <s_i_glide_gridfile>
glide-grid_1e66

> <i_i_glide_lignum>
1448

> <i_i_glide_rotatable_bonds>
3

> <r_i_docking_score>
-7.60802439661783

> <r_i_glide_ligand_efficiency>
-0.543430314044131

> <r_i_glide_ligand_efficiency_sa>
-1.30974436635961

> <r_i_glide_ligand_efficiency_ln>
-2.09065802143386

> <r_i_glide_gscore>
-7.60802439661783

> <r_i_glide_lipo>
-2.07786311854192

> <r_i_glide_hbond>
-0.191635463086834

> <r_i_glide_metal>
0

> <r_i_glide_rewards>
-3.50362196918538

> <r_i_glide_evdw>
-29.2343597412109

> <r_i_glide_ecoul>
-5.36967754364014

> <r_i_glide_erotb>
0.432265772802867

> <r_i_glide_esite>
0

> <r_i_glide_emodel>
-55.2348255193406

> <r_i_glide_energy>
-34.6040372848511

> <r_i_glide_einternal>
3.00379943847656

> <i_i_glide_confnum>
1

> <i_i_glide_posenum>
349

> <r_i_glide_eff_state_penalty>
0

> <i_f3d_flags>
0

> <s_user_duplicate_titles>
245783

> <s_m_subgroup_title>
dock_pv

> <s_m_subgroupid>
dock_pv1

> <b_m_subgroup_collapsed>
1

$$$$
374503
                    3D
 Schrodinger Suite 2021-1.
 71 75  0  0  1  0            999 V2000
    3.5888   60.4563   73.1388 C   0  0  0  0  0  0
    2.3689   59.8085   73.3167 C   0  0  0  0  0  0
    1.1753   60.3310   72.8176 C   0  0  0  0  0  0
    1.2558   61.5423   72.1218 C   0  0  0  0  0  0
    2.4936   62.2256   71.9139 C   0  0  0  0  0  0
    3.6683   61.6599   72.4413 C   0  0  0  0  0  0
    2.2149   63.4140   71.1469 C   0  0  0  0  0  0
    0.8453   63.4163   70.9499 C   0  0  0  0  0  0
    0.2796   62.3052   71.5225 N   0  0  0  0  0  0
    3.2241   64.4245   70.6333 C   0  0  0  0  0  0
    4.2140   63.8566   69.5872 C   0  0  0  0  0  0
    3.5571   63.3132   68.3098 C   0  0  0  0  0  0
    2.7545   62.3850   68.3699 O   0  0  0  0  0  0
    3.9430   63.8729   67.1414 N   0  0  0  0  0  0
    3.5422   63.4928   65.7804 C   0  0  0  0  0  0
    4.5527   63.3829   64.6005 C   0  0  0  0  0  0
    5.1951   64.6603   64.0270 C   0  0  0  0  0  0
    4.2176   65.6470   63.3786 C   0  0  0  0  0  0
    4.9344   66.8421   62.7195 C   0  0  0  0  0  0
    3.9618   67.8585   62.0956 C   0  0  0  0  0  0
    4.0036   69.1647   62.7537 N   0  0  0  0  0  0
    3.4554   69.2306   64.0511 C   0  0  0  0  0  0
    4.2728   69.6537   65.1463 C   0  0  0  0  0  0
    5.6209   70.0806   65.0132 C   0  0  0  0  0  0
    6.3444   70.4945   66.1252 C   0  0  0  0  0  0
    5.7735   70.5072   67.3905 C   0  0  0  0  0  0
    4.4525   70.1079   67.5608 C   0  0  0  0  0  0
    3.6982   69.6593   66.4508 C   0  0  0  0  0  0
    2.4467   69.2021   66.6792 N   0  0  0  0  0  0
    1.6962   68.7703   65.6417 C   0  0  0  0  0  0
    2.1083   68.9071   64.2976 C   0  0  0  0  0  0
    1.0452   68.8783   63.1881 C   0  0  0  0  0  0
   -0.0814   67.9144   63.5308 C   0  0  0  0  0  0
   -0.6987   68.3094   64.8855 C   0  0  0  0  0  0
    0.3429   68.1564   66.0023 C   0  0  0  0  0  0
    6.7158   70.9906   68.7527 Cl  0  0  0  0  0  0
   -0.7094   62.1081   71.4777 H   0  0  0  0  0  0
    4.4849   60.0181   73.5547 H   0  0  0  0  0  0
    2.3488   58.8765   73.8638 H   0  0  0  0  0  0
    0.2353   59.8196   72.9669 H   0  0  0  0  0  0
    4.6219   62.1497   72.3123 H   0  0  0  0  0  0
    0.2216   64.1189   70.4161 H   0  0  0  0  0  0
    2.7349   65.3161   70.2353 H   0  0  0  0  0  0
    3.8066   64.7929   71.4757 H   0  0  0  0  0  0
    4.9727   64.6004   69.3468 H   0  0  0  0  0  0
    4.7597   63.0207   70.0240 H   0  0  0  0  0  0
    4.5727   64.6584   67.2162 H   0  0  0  0  0  0
    3.1432   62.5067   65.8990 H   0  0  0  0  0  0
    2.7441   64.1705   65.4793 H   0  0  0  0  0  0
    5.3254   62.6358   64.7698 H   0  0  0  0  0  0
    3.9912   62.9413   63.7762 H   0  0  0  0  0  0
    5.7902   65.1808   64.7674 H   0  0  0  0  0  0
    5.9193   64.3442   63.2739 H   0  0  0  0  0  0
    3.6261   65.1201   62.6304 H   0  0  0  0  0  0
    3.5196   66.0178   64.1310 H   0  0  0  0  0  0
    5.5506   67.3328   63.4696 H   0  0  0  0  0  0
    5.6249   66.4954   61.9550 H   0  0  0  0  0  0
    4.2105   68.0332   61.0464 H   0  0  0  0  0  0
    2.9712   67.4156   62.0898 H   0  0  0  0  0  0
    4.9058   69.6112   62.6687 H   0  0  0  0  0  0
    6.0991   70.0941   64.0450 H   0  0  0  0  0  0
    7.3721   70.8031   65.9975 H   0  0  0  0  0  0
    4.0042   70.1092   68.5441 H   0  0  0  0  0  0
    0.6248   69.8827   63.1167 H   0  0  0  0  0  0
    1.4206   68.6855   62.1887 H   0  0  0  0  0  0
   -0.8420   67.9146   62.7494 H   0  0  0  0  0  0
    0.3428   66.9093   63.5751 H   0  0  0  0  0  0
   -1.0644   69.3315   64.8471 H   0  0  0  0  0  0
   -1.5766   67.7087   65.1155 H   0  0  0  0  0  0
   -0.0413   68.5629   66.9396 H   0  0  0  0  0  0
    0.5041   67.0934   66.1818 H   0  0  0  0  0  0
  1  6  1  0  0  0
  1  2  2  0  0  0
  1 38  1  0  0  0
  2  3  1  0  0  0
  2 39  1  0  0  0
  3  4  2  0  0  0
  3 40  1  0  0  0
  4  9  1  0  0  0
  4  5  1  0  0  0
  5  6  2  0  0  0
  5  7  1  0  0  0
  6 41  1  0  0  0
  7  8  2  0  0  0
  7 10  1  0  0  0
  8  9  1  0  0  0
  8 42  1  0  0  0
  9 37  1  0  0  0
 10 11  1  0  0  0
 10 43  1  0  0  0
 10 44  1  0  0  0
 11 12  1  0  0  0
 11 45  1  0  0  0
 11 46  1  0  0  0
 12 13  2  0  0  0
 12 14  1  0  0  0
 14 15  1  0  0  0
 14 47  1  0  0  0
 15 16  1  0  0  0
 15 48  1  0  0  0
 15 49  1  0  0  0
 16 17  1  0  0  0
 16 50  1  0  0  0
 16 51  1  0  0  0
 17 18  1  0  0  0
 17 52  1  0  0  0
 17 53  1  0  0  0
 18 19  1  0  0  0
 18 54  1  0  0  0
 18 55  1  0  0  0
 19 20  1  0  0  0
 19 56  1  0  0  0
 19 57  1  0  0  0
 20 21  1  0  0  0
 20 58  1  0  0  0
 20 59  1  0  0  0
 21 22  1  0  0  0
 21 60  1  0  0  0
 22 31  1  0  0  0
 22 23  2  0  0  0
 23 28  1  0  0  0
 23 24  1  0  0  0
 24 25  2  0  0  0
 24 61  1  0  0  0
 25 26  1  0  0  0
 25 62  1  0  0  0
 26 27  2  0  0  0
 26 36  1  0  0  0
 27 28  1  0  0  0
 27 63  1  0  0  0
 28 29  2  0  0  0
 29 30  1  0  0  0
 30 35  1  0  0  0
 30 31  2  0  0  0
 31 32  1  0  0  0
 32 33  1  0  0  0
 32 64  1  0  0  0
 32 65  1  0  0  0
 33 34  1  0  0  0
 33 66  1  0  0  0
 33 67  1  0  0  0
 34 35  1  0  0  0
 34 68  1  0  0  0
 34 69  1  0  0  0
 35 70  1  0  0  0
 35 71  1  0  0  0
M  END
> <s_m_entry_id>
9734

> <s_m_entry_name>
ligand_docking-pose.176

> <s_m_Source_Path>
/home/csk/Desktop/cluster/DUD-E-result/aces

> <s_m_Source_File>
ligand_docking-pose.sdf

> <i_m_Source_File_Index>
176

> <i_lp_mmshare_version>
53161

> <r_lp_tautomer_probability>
1

> <s_lp_Force_Field>
OPLS_2005

> <r_lp_Energy>
23.84114

> <b_lp_Chiralities_Consistent>
1

> <s_lp_Variant>
374503-1

> <s_i_glide_gridfile>
glide-grid_1e66

> <i_i_glide_lignum>
269

> <i_i_glide_rotatable_bonds>
12

> <r_i_docking_score>
-7.58213176672678

> <r_i_glide_ligand_efficiency>
-0.210614771297966

> <r_i_glide_ligand_efficiency_sa>
-0.695434651537763

> <r_i_glide_ligand_efficiency_ln>
-1.65421630597226

> <r_i_glide_gscore>
-7.58213176672678

> <r_i_glide_lipo>
-5.0001188172616

> <r_i_glide_hbond>
-0.0255971631329131

> <r_i_glide_metal>
0

> <r_i_glide_rewards>
-0.899995445431916

> <r_i_glide_evdw>
-41.3630905151367

> <r_i_glide_ecoul>
-2.0536162853241

> <r_i_glide_erotb>
0.807527999208463

> <r_i_glide_esite>
-0.0877513715533698

> <r_i_glide_emodel>
-43.0482628645727

> <r_i_glide_energy>
-43.4167068004608

> <r_i_glide_einternal>
13.7550220489502

> <i_i_glide_confnum>
7

> <i_i_glide_posenum>
113

> <r_i_glide_eff_state_penalty>
0

> <i_f3d_flags>
0

> <s_user_duplicate_titles>
374503

> <s_m_subgroup_title>
dock_pv

> <s_m_subgroupid>
dock_pv1

> <b_m_subgroup_collapsed>
1

$$$$
118242
                    3D
 Schrodinger Suite 2021-1.
 57 60  0  0  1  0            999 V2000
    7.0474   71.2985   68.9508 C   0  0  0  0  0  0
    6.0228   70.7147   67.9989 C   0  0  0  0  0  0
    4.6583   70.7714   68.2946 C   0  0  0  0  0  0
    3.7392   70.1079   67.4776 C   0  0  0  0  0  0
    4.1781   69.3993   66.3583 C   0  0  0  0  0  0
    5.5427   69.3306   66.0645 C   0  0  0  0  0  0
    6.4554   70.0114   66.8755 C   0  0  0  0  0  0
    6.0861   68.3838   65.0053 C   0  0  0  0  0  0
    5.6078   68.5398   63.6418 N   0  0  2  0  0  0
    5.4196   69.9199   63.1752 C   0  0  0  0  0  0
    5.1426   69.9169   61.6641 C   0  0  0  0  0  0
    3.9564   69.0146   61.2712 C   0  0  0  0  0  0
    4.3424   67.5968   61.7317 C   0  0  0  0  0  0
    4.6509   67.5123   63.2320 C   0  0  0  0  0  0
    2.6293   69.5821   61.8235 C   0  0  0  0  0  0
    1.3927   68.6877   61.6782 C   0  0  0  0  0  0
    0.2074   69.2281   62.4807 C   0  0  0  0  0  0
   -0.4892   70.1021   61.9676 O   0  0  0  0  0  0
   -0.0778   68.5926   63.8055 C   0  0  0  0  0  0
    0.9635   68.1076   64.6063 C   0  0  0  0  0  0
    0.7285   67.6215   65.8914 C   0  0  0  0  0  0
   -0.5704   67.6138   66.3862 C   0  0  0  0  0  0
   -1.6104   68.1225   65.6246 C   0  0  0  0  0  0
   -1.3739   68.5966   64.3339 C   0  0  0  0  0  0
   -2.8555   68.1341   66.4549 C   0  0  0  0  0  0
   -2.4637   67.2749   67.6593 C   0  0  0  0  0  0
   -1.0062   67.2049   67.6457 N   0  0  0  0  0  0
    6.6640   71.3078   69.9682 H   0  0  0  0  0  0
    7.9400   70.6725   68.9848 H   0  0  0  0  0  0
    7.3304   72.3068   68.6572 H   0  0  0  0  0  0
    4.3067   71.2983   69.1692 H   0  0  0  0  0  0
    2.6859   70.1372   67.7171 H   0  0  0  0  0  0
    3.4665   68.8604   65.7566 H   0  0  0  0  0  0
    7.5142   69.9327   66.6734 H   0  0  0  0  0  0
    5.9572   67.3564   65.3289 H   0  0  0  0  0  0
    7.1531   68.5078   64.9618 H   0  0  0  0  0  0
    6.3374   70.4745   63.3774 H   0  0  0  0  0  0
    4.6372   70.4254   63.7405 H   0  0  0  0  0  0
    6.0757   69.6948   61.1679 H   0  0  0  0  0  0
    4.9158   70.9099   61.3296 H   0  0  0  0  0  0
    3.8963   68.9947   60.1817 H   0  0  0  0  0  0
    3.5406   66.9079   61.5210 H   0  0  0  0  0  0
    5.1903   67.2069   61.1740 H   0  0  0  0  0  0
    5.0930   66.5364   63.4361 H   0  0  0  0  0  0
    3.7656   67.5584   63.8476 H   0  0  0  0  0  0
    2.4257   70.5080   61.2890 H   0  0  0  0  0  0
    2.7523   69.8535   62.8721 H   0  0  0  0  0  0
    1.6028   67.6908   62.0347 H   0  0  0  0  0  0
    1.1107   68.5857   60.6308 H   0  0  0  0  0  0
    1.9711   68.1506   64.2544 H   0  0  0  0  0  0
    1.5506   67.2643   66.4926 H   0  0  0  0  0  0
   -2.1924   69.0056   63.7584 H   0  0  0  0  0  0
   -3.7126   67.7059   65.9392 H   0  0  0  0  0  0
   -3.1272   69.1428   66.7682 H   0  0  0  0  0  0
   -2.8572   67.6774   68.5916 H   0  0  0  0  0  0
   -2.8569   66.2657   67.5421 H   0  0  0  0  0  0
   -0.6926   66.3797   68.1356 H   0  0  0  0  0  0
  1  2  1  0  0  0
  1 28  1  0  0  0
  1 29  1  0  0  0
  1 30  1  0  0  0
  2  7  1  0  0  0
  2  3  2  0  0  0
  3  4  1  0  0  0
  3 31  1  0  0  0
  4  5  2  0  0  0
  4 32  1  0  0  0
  5  6  1  0  0  0
  5 33  1  0  0  0
  6  7  2  0  0  0
  6  8  1  0  0  0
  7 34  1  0  0  0
  8  9  1  0  0  0
  8 35  1  0  0  0
  8 36  1  0  0  0
  9 14  1  0  0  0
  9 10  1  0  0  0
 10 11  1  0  0  0
 10 37  1  0  0  0
 10 38  1  0  0  0
 11 12  1  0  0  0
 11 39  1  0  0  0
 11 40  1  0  0  0
 12 13  1  0  0  0
 12 15  1  0  0  0
 12 41  1  0  0  0
 13 14  1  0  0  0
 13 42  1  0  0  0
 13 43  1  0  0  0
 14 44  1  0  0  0
 14 45  1  0  0  0
 15 16  1  0  0  0
 15 46  1  0  0  0
 15 47  1  0  0  0
 16 17  1  0  0  0
 16 48  1  0  0  0
 16 49  1  0  0  0
 17 18  2  0  0  0
 17 19  1  0  0  0
 19 24  1  0  0  0
 19 20  2  0  0  0
 20 21  1  0  0  0
 20 50  1  0  0  0
 21 22  2  0  0  0
 21 51  1  0  0  0
 22 27  1  0  0  0
 22 23  1  0  0  0
 23 24  2  0  0  0
 23 25  1  0  0  0
 24 52  1  0  0  0
 25 26  1  0  0  0
 25 53  1  0  0  0
 25 54  1  0  0  0
 26 27  1  0  0  0
 26 55  1  0  0  0
 26 56  1  0  0  0
 27 57  1  0  0  0
M  END
> <s_m_entry_id>
9735

> <s_m_entry_name>
ligand_docking-pose.177

> <s_m_Source_Path>
/home/csk/Desktop/cluster/DUD-E-result/aces

> <s_m_Source_File>
ligand_docking-pose.sdf

> <i_m_Source_File_Index>
177

> <i_lp_mmshare_version>
53161

> <r_lp_tautomer_probability>
0.99990000499975

> <s_lp_Force_Field>
OPLS_2005

> <r_lp_Energy>
44.890249

> <b_lp_Chiralities_Consistent>
1

> <s_lp_Variant>
118242-1

> <s_i_glide_gridfile>
glide-grid_1e66

> <i_i_glide_lignum>
742

> <i_i_glide_rotatable_bonds>
6

> <r_i_docking_score>
-7.58190086745453

> <r_i_glide_ligand_efficiency>
-0.280811143239057

> <r_i_glide_ligand_efficiency_sa>
-0.842433428791662

> <r_i_glide_ligand_efficiency_ln>
-1.76494152453854

> <r_i_glide_gscore>
-7.58190086745453

> <r_i_glide_lipo>
-4.59701887930573

> <r_i_glide_hbond>
0

> <r_i_glide_metal>
0

> <r_i_glide_rewards>
-1.93744681818182

> <r_i_glide_evdw>
-41.3187026977539

> <r_i_glide_ecoul>
1.91910874843597

> <r_i_glide_erotb>
0.730633652655319

> <r_i_glide_esite>
0

> <r_i_glide_emodel>
-34.2017606922235

> <r_i_glide_energy>
-39.3995939493179

> <r_i_glide_einternal>
16.9058208465576

> <i_i_glide_confnum>
35

> <i_i_glide_posenum>
33

> <r_i_glide_eff_state_penalty>
0

> <i_f3d_flags>
0

> <s_user_duplicate_titles>
118242

> <s_m_subgroup_title>
dock_pv

> <s_m_subgroupid>
dock_pv1

> <b_m_subgroup_collapsed>
1

$$$$
118127
                    3D
 Schrodinger Suite 2021-1.
 54 57  0  0  1  0            999 V2000
    2.5256   69.9191   67.5375 C   0  0  0  0  0  0
    2.7629   70.5079   68.7699 C   0  0  0  0  0  0
    4.0547   70.8836   69.1202 C   0  0  0  0  0  0
    5.1254   70.6438   68.2533 C   0  0  0  0  0  0
    4.9089   70.0187   67.0103 C   0  0  0  0  0  0
    3.5827   69.7081   66.6520 C   0  0  0  0  0  0
    6.1325   69.6039   66.1584 C   0  0  0  0  0  0
    5.9268   69.2026   64.7581 N   0  0  1  0  0  0
    5.2282   67.9186   64.5082 C   0  0  0  0  0  0
    4.6814   67.7612   63.0589 C   0  0  0  0  0  0
    4.0105   69.0731   62.5875 C   0  0  0  0  0  0
    5.1996   70.0071   62.5029 C   0  0  0  0  0  0
    5.6434   70.3786   63.9203 C   0  0  0  0  0  0
    3.2658   69.0255   61.2391 C   0  0  0  0  0  0
    1.8338   68.4635   61.2805 C   0  0  0  0  0  0
    0.7738   69.1907   62.1142 C   0  0  0  0  0  0
    0.1639   70.1095   61.5689 O   0  0  0  0  0  0
    0.3692   68.6183   63.4401 C   0  0  0  0  0  0
    1.2522   67.9248   64.2810 C   0  0  0  0  0  0
    0.8756   67.5386   65.5676 C   0  0  0  0  0  0
   -0.4023   67.8391   66.0250 C   0  0  0  0  0  0
   -1.2967   68.5046   65.2042 C   0  0  0  0  0  0
   -0.9275   68.8594   63.9068 C   0  0  0  0  0  0
   -2.5949   68.6649   65.9332 C   0  0  0  0  0  0
   -2.3308   68.0464   67.3081 C   0  0  0  0  0  0
   -0.9515   67.5690   67.2784 N   0  0  0  0  0  0
    6.7152   71.0912   68.7753 Cl  0  0  0  0  0  0
    1.5148   69.6649   67.2549 H   0  0  0  0  0  0
    1.9434   70.6825   69.4519 H   0  0  0  0  0  0
    4.2188   71.3075   70.0957 H   0  0  0  0  0  0
    3.3280   69.3230   65.6836 H   0  0  0  0  0  0
    6.6553   68.8078   66.6832 H   0  0  0  0  0  0
    6.8294   70.4438   66.1422 H   0  0  0  0  0  0
    4.3840   67.7702   65.1708 H   0  0  0  0  0  0
    5.9077   67.1246   64.7905 H   0  0  0  0  0  0
    3.9736   66.9349   63.0261 H   0  0  0  0  0  0
    5.4528   67.4195   62.3649 H   0  0  0  0  0  0
    3.3198   69.4671   63.3332 H   0  0  0  0  0  0
    5.9760   69.6338   61.8404 H   0  0  0  0  0  0
    4.8970   70.9080   62.0042 H   0  0  0  0  0  0
    4.8135   70.9080   64.3850 H   0  0  0  0  0  0
    6.4887   71.0679   63.9185 H   0  0  0  0  0  0
    3.8561   68.4583   60.5176 H   0  0  0  0  0  0
    3.2011   70.0328   60.8251 H   0  0  0  0  0  0
    1.8515   67.4268   61.5863 H   0  0  0  0  0  0
    1.4529   68.5075   60.2597 H   0  0  0  0  0  0
    2.2451   67.6837   63.9668 H   0  0  0  0  0  0
    1.5782   67.0182   66.2007 H   0  0  0  0  0  0
   -1.6626   69.3087   63.2581 H   0  0  0  0  0  0
   -3.4320   68.1539   65.4575 H   0  0  0  0  0  0
   -2.8578   69.7081   66.0573 H   0  0  0  0  0  0
   -2.4566   68.7981   68.0857 H   0  0  0  0  0  0
   -3.0123   67.2213   67.5166 H   0  0  0  0  0  0
   -0.8664   66.7157   67.8113 H   0  0  0  0  0  0
  1  6  1  0  0  0
  1  2  2  0  0  0
  1 28  1  0  0  0
  2  3  1  0  0  0
  2 29  1  0  0  0
  3  4  2  0  0  0
  3 30  1  0  0  0
  4  5  1  0  0  0
  4 27  1  0  0  0
  5  6  2  0  0  0
  5  7  1  0  0  0
  6 31  1  0  0  0
  7  8  1  0  0  0
  7 32  1  0  0  0
  7 33  1  0  0  0
  8 13  1  0  0  0
  8  9  1  0  0  0
  9 10  1  0  0  0
  9 34  1  0  0  0
  9 35  1  0  0  0
 10 11  1  0  0  0
 10 36  1  0  0  0
 10 37  1  0  0  0
 11 12  1  0  0  0
 11 14  1  0  0  0
 11 38  1  0  0  0
 12 13  1  0  0  0
 12 39  1  0  0  0
 12 40  1  0  0  0
 13 41  1  0  0  0
 13 42  1  0  0  0
 14 15  1  0  0  0
 14 43  1  0  0  0
 14 44  1  0  0  0
 15 16  1  0  0  0
 15 45  1  0  0  0
 15 46  1  0  0  0
 16 17  2  0  0  0
 16 18  1  0  0  0
 18 23  1  0  0  0
 18 19  2  0  0  0
 19 20  1  0  0  0
 19 47  1  0  0  0
 20 21  2  0  0  0
 20 48  1  0  0  0
 21 26  1  0  0  0
 21 22  1  0  0  0
 22 23  2  0  0  0
 22 24  1  0  0  0
 23 49  1  0  0  0
 24 25  1  0  0  0
 24 50  1  0  0  0
 24 51  1  0  0  0
 25 26  1  0  0  0
 25 52  1  0  0  0
 25 53  1  0  0  0
 26 54  1  0  0  0
M  END
> <s_m_entry_id>
9736

> <s_m_entry_name>
ligand_docking-pose.178

> <s_m_Source_Path>
/home/csk/Desktop/cluster/DUD-E-result/aces

> <s_m_Source_File>
ligand_docking-pose.sdf

> <i_m_Source_File_Index>
178

> <i_lp_mmshare_version>
53161

> <r_lp_tautomer_probability>
0.99990000499975

> <s_lp_Force_Field>
OPLS_2005

> <r_lp_Energy>
45.864537

> <b_lp_Chiralities_Consistent>
1

> <s_lp_Variant>
118127-1

> <s_i_glide_gridfile>
glide-grid_1e66

> <i_i_glide_lignum>
361

> <i_i_glide_rotatable_bonds>
6

> <r_i_docking_score>
-7.57556943869305

> <r_i_glide_ligand_efficiency>
-0.28057664587752

> <r_i_glide_ligand_efficiency_sa>
-0.841729936707826

> <r_i_glide_ligand_efficiency_ln>
-1.76346767230462

> <r_i_glide_gscore>
-7.57556943869305

> <r_i_glide_lipo>
-4.66282953398709

> <r_i_glide_hbond>
0

> <r_i_glide_metal>
0

> <r_i_glide_rewards>
-1.76489862121212

> <r_i_glide_evdw>
-41.1778678894043

> <r_i_glide_ecoul>
1.65747368335724

> <r_i_glide_erotb>
0.662431058472793

> <r_i_glide_esite>
0

> <r_i_glide_emodel>
-39.2712999109907

> <r_i_glide_energy>
-39.5203942060471

> <r_i_glide_einternal>
11.7063179016113

> <i_i_glide_confnum>
14

> <i_i_glide_posenum>
62

> <r_i_glide_eff_state_penalty>
0

> <i_f3d_flags>
0

> <s_user_duplicate_titles>
118127

> <s_m_subgroup_title>
dock_pv

> <s_m_subgroupid>
dock_pv1

> <b_m_subgroup_collapsed>
1

$$$$
487301
                    3D
 Schrodinger Suite 2021-1.
 51 53  0  0  1  0            999 V2000
    1.4133   68.5081   62.4034 C   0  0  0  0  0  0
    1.0654   68.4330   63.7515 C   0  0  0  0  0  0
    2.0037   68.7456   64.7492 C   0  0  0  0  0  0
    3.3029   69.1443   64.3525 C   0  0  0  0  0  0
    3.6588   69.1653   63.0039 C   0  0  0  0  0  0
    2.7114   68.8558   62.0333 C   0  0  0  0  0  0
    3.1433   68.9080   60.3680 Cl  0  0  0  0  0  0
    4.2946   69.5409   65.2644 N   0  0  0  0  0  0
    3.9450   69.7081   66.4784 C   0  0  0  0  0  0
    2.6787   69.3893   66.9967 N   0  0  0  0  0  0
    1.6774   68.7375   66.2176 C   0  0  0  0  0  0
    0.5825   68.1601   66.5749 N   0  0  0  0  0  0
    0.0823   68.0047   67.9273 C   0  0  0  0  0  0
    0.5032   66.6301   68.4818 C   0  0  0  0  0  0
    0.3449   66.5013   70.0073 C   0  0  0  0  0  0
    0.7012   65.1113   70.5712 C   0  0  0  0  0  0
    2.1773   64.6879   70.4029 C   0  0  0  0  0  0
    2.4907   63.3740   71.1474 C   0  0  0  0  0  0
    3.9324   62.8590   70.9524 C   0  0  0  0  0  0
    4.1908   61.5766   71.7643 C   0  0  0  0  0  0
    5.5432   61.0855   71.5693 N   0  0  0  0  0  0
    2.6014   69.7113   68.4224 C   0  0  0  0  0  0
    3.8532   70.5331   68.7106 C   0  0  0  0  0  0
    4.8263   70.2717   67.5678 C   0  0  0  0  0  0
    0.6784   68.2704   61.6469 H   0  0  0  0  0  0
    0.0555   68.1476   64.0147 H   0  0  0  0  0  0
    4.6584   69.4548   62.7079 H   0  0  0  0  0  0
    0.3483   68.8119   68.5955 H   0  0  0  0  0  0
   -1.0065   68.0569   67.8915 H   0  0  0  0  0  0
   -0.0787   65.8584   67.9750 H   0  0  0  0  0  0
    1.5430   66.4358   68.2251 H   0  0  0  0  0  0
    0.9515   67.2632   70.5016 H   0  0  0  0  0  0
   -0.6887   66.7224   70.2754 H   0  0  0  0  0  0
    0.4510   65.1063   71.6332 H   0  0  0  0  0  0
    0.0549   64.3617   70.1126 H   0  0  0  0  0  0
    2.4052   64.5660   69.3433 H   0  0  0  0  0  0
    2.8342   65.4790   70.7677 H   0  0  0  0  0  0
    2.3000   63.5178   72.2131 H   0  0  0  0  0  0
    1.7914   62.6028   70.8182 H   0  0  0  0  0  0
    4.1043   62.6637   69.8926 H   0  0  0  0  0  0
    4.6415   63.6367   71.2393 H   0  0  0  0  0  0
    4.0330   61.7626   72.8274 H   0  0  0  0  0  0
    3.4889   60.7971   71.4659 H   0  0  0  0  0  0
    6.1993   61.7358   71.9812 H   0  0  0  0  0  0
    5.6534   60.2329   72.1012 H   0  0  0  0  0  0
    1.7371   70.3437   68.6303 H   0  0  0  0  0  0
    2.5261   68.8458   69.0791 H   0  0  0  0  0  0
    3.6066   71.5944   68.7678 H   0  0  0  0  0  0
    4.2742   70.2843   69.6854 H   0  0  0  0  0  0
    5.6047   69.5585   67.8334 H   0  0  0  0  0  0
    5.3083   71.1929   67.2372 H   0  0  0  0  0  0
  1  6  1  0  0  0
  1  2  2  0  0  0
  1 25  1  0  0  0
  2  3  1  0  0  0
  2 26  1  0  0  0
  3 11  1  0  0  0
  3  4  2  0  0  0
  4  5  1  0  0  0
  4  8  1  0  0  0
  5  6  2  0  0  0
  5 27  1  0  0  0
  6  7  1  0  0  0
  8  9  2  0  0  0
  9 24  1  0  0  0
  9 10  1  0  0  0
 10 11  1  0  0  0
 10 22  1  0  0  0
 11 12  2  0  0  0
 12 13  1  0  0  0
 13 14  1  0  0  0
 13 28  1  0  0  0
 13 29  1  0  0  0
 14 15  1  0  0  0
 14 30  1  0  0  0
 14 31  1  0  0  0
 15 16  1  0  0  0
 15 32  1  0  0  0
 15 33  1  0  0  0
 16 17  1  0  0  0
 16 34  1  0  0  0
 16 35  1  0  0  0
 17 18  1  0  0  0
 17 36  1  0  0  0
 17 37  1  0  0  0
 18 19  1  0  0  0
 18 38  1  0  0  0
 18 39  1  0  0  0
 19 20  1  0  0  0
 19 40  1  0  0  0
 19 41  1  0  0  0
 20 21  1  0  0  0
 20 42  1  0  0  0
 20 43  1  0  0  0
 21 44  1  0  0  0
 21 45  1  0  0  0
 22 23  1  0  0  0
 22 46  1  0  0  0
 22 47  1  0  0  0
 23 24  1  0  0  0
 23 48  1  0  0  0
 23 49  1  0  0  0
 24 50  1  0  0  0
 24 51  1  0  0  0
M  END
> <s_m_entry_id>
9737

> <s_m_entry_name>
ligand_docking-pose.179

> <s_m_Source_Path>
/home/csk/Desktop/cluster/DUD-E-result/aces

> <s_m_Source_File>
ligand_docking-pose.sdf

> <i_m_Source_File_Index>
179

> <i_lp_mmshare_version>
53161

> <r_lp_tautomer_probability>
0.5

> <s_lp_Force_Field>
OPLS_2005

> <r_lp_Energy>
38.052429

> <b_lp_Chiralities_Consistent>
1

> <s_lp_Variant>
487301-1

> <s_i_glide_gridfile>
glide-grid_1e66

> <i_i_glide_lignum>
37

> <i_i_glide_rotatable_bonds>
8

> <r_i_docking_score>
-7.5728866658261

> <r_i_glide_ligand_efficiency>
-0.315536944409421

> <r_i_glide_ligand_efficiency_sa>
-0.910166044017014

> <r_i_glide_ligand_efficiency_ln>
-1.81253927625807

> <r_i_glide_gscore>
-7.5728866658261

> <r_i_glide_lipo>
-4.12014242445898

> <r_i_glide_hbond>
-0.104230299314983

> <r_i_glide_metal>
0

> <r_i_glide_rewards>
-2.01625190319093

> <r_i_glide_evdw>
-41.853443145752

> <r_i_glide_ecoul>
-2.30564093589783

> <r_i_glide_erotb>
1.10625625881106

> <r_i_glide_esite>
0

> <r_i_glide_emodel>
-60.4970276310556

> <r_i_glide_energy>
-44.1590840816498

> <r_i_glide_einternal>
2.63770389556885

> <i_i_glide_confnum>
145

> <i_i_glide_posenum>
184

> <r_i_glide_eff_state_penalty>
0

> <i_f3d_flags>
0

> <s_user_duplicate_titles>
487301

> <s_m_subgroup_title>
dock_pv

> <s_m_subgroupid>
dock_pv1

> <b_m_subgroup_collapsed>
1

$$$$
199611
                    3D
 Schrodinger Suite 2021-1.
 54 56  0  0  1  0            999 V2000
    3.7150   68.8134   61.8902 C   0  0  0  0  0  0
    4.4958   68.0359   62.9399 C   0  0  0  0  0  0
    4.7872   68.4845   64.1787 C   0  0  0  0  0  0
    4.3698   69.8156   64.7873 C   0  0  0  0  0  0
    3.7827   69.7075   66.1442 N   0  0  0  0  0  0
    4.6192   70.1216   67.1665 C   0  0  0  0  0  0
    5.8245   70.3688   67.0716 O   0  0  0  0  0  0
    3.9709   70.2547   68.4557 C   0  0  0  0  0  0
    2.7690   69.7116   68.7192 C   0  0  0  0  0  0
    2.0125   69.0261   67.6789 C   0  0  0  0  0  0
    2.5231   69.1360   66.4104 C   0  0  0  0  0  0
    1.7744   68.5103   65.2201 C   0  0  0  0  0  0
    0.2949   68.2481   65.5321 C   0  0  0  0  0  0
    0.1956   67.4343   66.8188 C   0  0  0  0  0  0
    0.7764   68.1780   68.0482 C   0  0  1  0  0  0
    1.1290   67.3077   69.1756 N   0  0  2  0  0  0
    0.0910   66.3764   69.6060 C   0  0  0  0  0  0
    0.5870   65.5080   70.7846 C   0  0  0  0  0  0
    1.4854   64.3355   70.4016 C   0  0  0  0  0  0
    2.8522   64.5343   70.1883 C   0  0  0  0  0  0
    3.6780   63.4511   69.8936 C   0  0  0  0  0  0
    3.1342   62.1696   69.8237 C   0  0  0  0  0  0
    1.7709   61.9664   70.0242 C   0  0  0  0  0  0
    0.9447   63.0495   70.3121 C   0  0  0  0  0  0
    3.9428   61.0954   69.5676 O   0  0  0  0  0  0
    4.9435   66.6690   62.4653 C   0  0  0  0  0  0
    2.8168   68.2647   61.6026 H   0  0  0  0  0  0
    4.3387   68.9488   61.0050 H   0  0  0  0  0  0
    3.4049   69.8044   62.2128 H   0  0  0  0  0  0
    5.3706   67.8574   64.8385 H   0  0  0  0  0  0
    5.2613   70.4466   64.7817 H   0  0  0  0  0  0
    3.6644   70.3460   64.1551 H   0  0  0  0  0  0
    4.5082   70.7787   69.2321 H   0  0  0  0  0  0
    2.3431   69.8310   69.7043 H   0  0  0  0  0  0
    1.7929   69.1928   64.3699 H   0  0  0  0  0  0
    2.2878   67.6196   64.8589 H   0  0  0  0  0  0
   -0.2539   69.1845   65.6452 H   0  0  0  0  0  0
   -0.1757   67.7129   64.7068 H   0  0  0  0  0  0
   -0.8419   67.1521   67.0037 H   0  0  0  0  0  0
    0.7431   66.5051   66.6699 H   0  0  0  0  0  0
    0.0150   68.8830   68.3913 H   0  0  0  0  0  0
    1.3350   67.9145   69.9601 H   0  0  0  0  0  0
   -0.8308   66.8960   69.8726 H   0  0  0  0  0  0
   -0.1511   65.7091   68.7765 H   0  0  0  0  0  0
    1.0990   66.1098   71.5312 H   0  0  0  0  0  0
   -0.2669   65.1071   71.3281 H   0  0  0  0  0  0
    3.2744   65.5267   70.2611 H   0  0  0  0  0  0
    4.7349   63.6048   69.7321 H   0  0  0  0  0  0
    1.3463   60.9747   69.9685 H   0  0  0  0  0  0
   -0.1102   62.8845   70.4767 H   0  0  0  0  0  0
    3.4527   60.2722   69.6102 H   0  0  0  0  0  0
    4.0767   66.0496   62.2360 H   0  0  0  0  0  0
    5.5453   66.7866   61.5678 H   0  0  0  0  0  0
    5.5421   66.1489   63.2101 H   0  0  0  0  0  0
  1  2  1  0  0  0
  1 27  1  0  0  0
  1 28  1  0  0  0
  1 29  1  0  0  0
  2  3  2  3  0  0
  2 26  1  0  0  0
  3  4  1  0  0  0
  3 30  1  0  0  0
  4  5  1  0  0  0
  4 31  1  0  0  0
  4 32  1  0  0  0
  5 11  1  0  0  0
  5  6  1  0  0  0
  6  7  2  0  0  0
  6  8  1  0  0  0
  8  9  2  0  0  0
  8 33  1  0  0  0
  9 10  1  0  0  0
  9 34  1  0  0  0
 10 15  1  0  0  0
 10 11  2  0  0  0
 11 12  1  0  0  0
 12 13  1  0  0  0
 12 35  1  0  0  0
 12 36  1  0  0  0
 13 14  1  0  0  0
 13 37  1  0  0  0
 13 38  1  0  0  0
 14 15  1  0  0  0
 14 39  1  0  0  0
 14 40  1  0  0  0
 15 16  1  0  0  0
 15 41  1  0  0  0
 16 17  1  0  0  0
 16 42  1  0  0  0
 17 18  1  0  0  0
 17 43  1  0  0  0
 17 44  1  0  0  0
 18 19  1  0  0  0
 18 45  1  0  0  0
 18 46  1  0  0  0
 19 24  1  0  0  0
 19 20  2  0  0  0
 20 21  1  0  0  0
 20 47  1  0  0  0
 21 22  2  0  0  0
 21 48  1  0  0  0
 22 23  1  0  0  0
 22 25  1  0  0  0
 23 24  2  0  0  0
 23 49  1  0  0  0
 24 50  1  0  0  0
 25 51  1  0  0  0
 26 52  1  0  0  0
 26 53  1  0  0  0
 26 54  1  0  0  0
M  END
> <s_m_entry_id>
9738

> <s_m_entry_name>
ligand_docking-pose.180

> <s_m_Source_Path>
/home/csk/Desktop/cluster/DUD-E-result/aces

> <s_m_Source_File>
ligand_docking-pose.sdf

> <i_m_Source_File_Index>
180

> <i_lp_mmshare_version>
53161

> <r_lp_tautomer_probability>
0.999999999997365

> <s_lp_Force_Field>
OPLS_2005

> <r_lp_Energy>
35.181649

> <b_lp_Chiralities_Consistent>
1

> <s_lp_Variant>
199611-1

> <s_i_glide_gridfile>
glide-grid_1e66

> <i_i_glide_lignum>
1101

> <i_i_glide_rotatable_bonds>
7

> <r_i_docking_score>
-7.57218758755591

> <r_i_glide_ligand_efficiency>
-0.291237984136766

> <r_i_glide_ligand_efficiency_sa>
-0.862791382039037

> <r_i_glide_ligand_efficiency_ln>
-1.77830340856347

> <r_i_glide_gscore>
-7.57218758755591

> <r_i_glide_lipo>
-4.10156503889854

> <r_i_glide_hbond>
-0.0044332842975458

> <r_i_glide_metal>
0

> <r_i_glide_rewards>
-2.12040084444168

> <r_i_glide_evdw>
-40.9378242492676

> <r_i_glide_ecoul>
-1.47087407112122

> <r_i_glide_erotb>
0.921733903213417

> <r_i_glide_esite>
0

> <r_i_glide_emodel>
-53.812858984328

> <r_i_glide_energy>
-42.4086983203888

> <r_i_glide_einternal>
13.0778026580811

> <i_i_glide_confnum>
104

> <i_i_glide_posenum>
151

> <r_i_glide_eff_state_penalty>
0

> <i_f3d_flags>
0

> <s_user_duplicate_titles>
199611

> <s_m_subgroup_title>
dock_pv

> <s_m_subgroupid>
dock_pv1

> <b_m_subgroup_collapsed>
1

$$$$
179328
                    3D
 Schrodinger Suite 2021-1.
 44 46  0  0  1  0            999 V2000
   -0.2196   67.9032   65.0770 C   0  0  0  0  0  0
    1.0568   68.4876   65.6516 C   0  0  0  0  0  0
    1.1476   68.9279   66.9739 C   0  0  0  0  0  0
    2.3451   69.5471   67.3939 C   0  0  0  0  0  0
    3.4693   69.5980   66.4855 C   0  0  0  0  0  0
    3.2624   69.0513   65.1753 C   0  0  0  0  0  0
    2.0807   68.5296   64.7757 N   0  0  0  0  0  0
    4.3010   69.0500   64.2191 C   0  0  0  0  0  0
    5.5432   69.5703   64.5418 C   0  0  0  0  0  0
    5.7773   70.0996   65.8013 C   0  0  0  0  0  0
    4.7797   70.1351   66.7732 C   0  0  0  0  0  0
    5.2145   70.9080   68.2661 Cl  0  0  0  0  0  0
    2.4133   70.0830   68.6861 N   0  0  0  0  0  0
   -0.0290   68.6887   67.9391 C   0  0  0  0  0  0
   -0.0877   67.3402   68.4361 O   0  0  0  0  0  0
    1.1428   66.7627   68.8582 C   0  0  0  0  0  0
    0.9832   65.7446   69.9738 C   0  0  0  0  0  0
    0.1349   65.9929   71.0501 C   0  0  0  0  0  0
    0.0045   65.0508   72.0701 C   0  0  0  0  0  0
    0.7421   63.8678   72.0319 C   0  0  0  0  0  0
    1.6492   63.6244   70.9912 C   0  0  0  0  0  0
    1.7551   64.5789   69.9680 C   0  0  0  0  0  0
    2.4586   62.3573   70.9986 C   0  0  0  0  0  0
    2.2332   61.4379   71.7937 O   0  0  0  0  0  0
    3.6562   62.2273   70.0296 C   0  0  0  0  0  0
    3.2129   62.1907   68.7703 F   0  0  0  0  0  0
    4.3404   61.1043   70.2685 F   0  0  0  0  0  0
    4.4761   63.2703   70.1776 F   0  0  0  0  0  0
   -0.4547   66.9606   65.5710 H   0  0  0  0  0  0
   -1.0568   68.5873   65.2122 H   0  0  0  0  0  0
   -0.1368   67.7085   64.0063 H   0  0  0  0  0  0
    4.1197   68.6480   63.2327 H   0  0  0  0  0  0
    6.3412   69.5718   63.8117 H   0  0  0  0  0  0
    6.7546   70.5066   66.0172 H   0  0  0  0  0  0
    3.2824   70.5006   68.9880 H   0  0  0  0  0  0
    1.6222   70.0163   69.3242 H   0  0  0  0  0  0
   -0.9792   68.9196   67.4563 H   0  0  0  0  0  0
   -0.0015   69.3868   68.7679 H   0  0  0  0  0  0
    1.8541   67.5068   69.2162 H   0  0  0  0  0  0
    1.5432   66.2825   67.9687 H   0  0  0  0  0  0
   -0.4382   66.9079   71.0918 H   0  0  0  0  0  0
   -0.6487   65.2476   72.9057 H   0  0  0  0  0  0
    0.6211   63.1585   72.8402 H   0  0  0  0  0  0
    2.4378   64.4366   69.1453 H   0  0  0  0  0  0
  1  2  1  0  0  0
  1 29  1  0  0  0
  1 30  1  0  0  0
  1 31  1  0  0  0
  2  7  1  0  0  0
  2  3  2  0  0  0
  3  4  1  0  0  0
  3 14  1  0  0  0
  4  5  2  0  0  0
  4 13  1  0  0  0
  5 11  1  0  0  0
  5  6  1  0  0  0
  6  7  2  0  0  0
  6  8  1  0  0  0
  8  9  2  0  0  0
  8 32  1  0  0  0
  9 10  1  0  0  0
  9 33  1  0  0  0
 10 11  2  0  0  0
 10 34  1  0  0  0
 11 12  1  0  0  0
 13 35  1  0  0  0
 13 36  1  0  0  0
 14 15  1  0  0  0
 14 37  1  0  0  0
 14 38  1  0  0  0
 15 16  1  0  0  0
 16 17  1  0  0  0
 16 39  1  0  0  0
 16 40  1  0  0  0
 17 22  1  0  0  0
 17 18  2  0  0  0
 18 19  1  0  0  0
 18 41  1  0  0  0
 19 20  2  0  0  0
 19 42  1  0  0  0
 20 21  1  0  0  0
 20 43  1  0  0  0
 21 22  2  0  0  0
 21 23  1  0  0  0
 22 44  1  0  0  0
 23 24  2  0  0  0
 23 25  1  0  0  0
 25 26  1  0  0  0
 25 27  1  0  0  0
 25 28  1  0  0  0
M  END
> <s_m_entry_id>
9742

> <s_m_entry_name>
ligand_docking-pose.184

> <s_m_Source_Path>
/home/csk/Desktop/cluster/DUD-E-result/aces

> <s_m_Source_File>
ligand_docking-pose.sdf

> <i_m_Source_File_Index>
184

> <i_lp_mmshare_version>
53161

> <r_lp_tautomer_probability>
1

> <s_lp_Force_Field>
OPLS_2005

> <r_lp_Energy>
43.860751

> <b_lp_Chiralities_Consistent>
1

> <s_lp_Variant>
179328-1

> <s_i_glide_gridfile>
glide-grid_1e66

> <i_i_glide_lignum>
693

> <i_i_glide_rotatable_bonds>
6

> <r_i_docking_score>
-7.55420415809408

> <r_i_glide_ligand_efficiency>
-0.269793005646217

> <r_i_glide_ligand_efficiency_sa>
-0.819250464724522

> <r_i_glide_ligand_efficiency_ln>
-1.74373212076005

> <r_i_glide_gscore>
-7.55420415809408

> <r_i_glide_lipo>
-3.5316961025125

> <r_i_glide_hbond>
0

> <r_i_glide_metal>
0

> <r_i_glide_rewards>
-2.3088014926878

> <r_i_glide_evdw>
-39.3376502990723

> <r_i_glide_ecoul>
-2.23847079277039

> <r_i_glide_erotb>
0.588946570975394

> <r_i_glide_esite>
0

> <r_i_glide_emodel>
-58.4285132983798

> <r_i_glide_energy>
-41.5761210918427

> <r_i_glide_einternal>
3.18148064613342

> <i_i_glide_confnum>
45

> <i_i_glide_posenum>
297

> <r_i_glide_eff_state_penalty>
0

> <i_f3d_flags>
0

> <s_user_duplicate_titles>
179328

> <s_m_subgroup_title>
dock_pv

> <s_m_subgroupid>
dock_pv1

> <b_m_subgroup_collapsed>
1

$$$$
424204
                    3D
 Schrodinger Suite 2021-1.
 46 49  0  0  1  0            999 V2000
    3.9430   69.5983   60.4574 C   0  0  0  0  0  0
    2.9102   68.6246   60.4484 O   0  0  0  0  0  0
    2.1649   68.5934   61.5982 C   0  0  0  0  0  0
    0.8064   68.9081   61.5823 C   0  0  0  0  0  0
    0.0646   68.8501   62.7679 C   0  0  0  0  0  0
    0.6686   68.5081   63.9888 C   0  0  0  0  0  0
    2.0475   68.2792   63.9925 C   0  0  0  0  0  0
    2.7527   68.2423   62.8087 C   0  0  0  0  0  0
    4.0309   67.7711   62.9435 O   0  0  0  0  0  0
    4.3270   67.7311   64.3340 C   0  0  2  0  0  0
    2.9789   67.9596   65.1116 C   0  0  2  0  0  0
    2.3940   66.7017   65.8238 C   0  0  0  0  0  0
    1.2317   66.9733   66.8000 C   0  0  0  0  0  0
   -0.0571   67.3222   66.2132 N   0  0  2  0  0  0
   -0.1357   68.4624   65.2849 C   0  0  0  0  0  0
   -1.0602   67.4404   67.2708 C   0  0  0  0  0  0
   -2.4801   67.4198   66.7680 C   0  0  0  0  0  0
   -3.2411   68.5080   66.5719 C   0  0  0  0  0  0
    3.1293   69.1429   66.0879 C   0  0  0  0  0  0
    4.2922   69.7080   66.4607 C   0  0  0  0  0  0
    5.6367   69.3043   65.8995 C   0  0  1  0  0  0
    5.4199   68.8334   64.4548 C   0  0  0  0  0  0
    6.5370   70.3869   65.9680 O   0  0  0  0  0  0
    4.7617   66.7576   64.5588 H   0  0  0  0  0  0
    6.0693   68.5080   66.4987 H   0  0  0  0  0  0
    4.3430   69.7150   59.4512 H   0  0  0  0  0  0
    3.5565   70.5623   60.7680 H   0  0  0  0  0  0
    4.7543   69.3308   61.1347 H   0  0  0  0  0  0
    0.3326   69.1757   60.6498 H   0  0  0  0  0  0
   -0.9919   69.0758   62.7412 H   0  0  0  0  0  0
    3.1430   66.1497   66.3680 H   0  0  0  0  0  0
    2.0526   65.9808   65.0777 H   0  0  0  0  0  0
    1.5018   67.7721   67.4901 H   0  0  0  0  0  0
    1.1125   66.1080   67.4471 H   0  0  0  0  0  0
   -1.1693   68.6024   64.9729 H   0  0  0  0  0  0
    0.1281   69.3356   65.8682 H   0  0  0  0  0  0
   -0.8816   68.3309   67.8775 H   0  0  0  0  0  0
   -0.9806   66.5845   67.9435 H   0  0  0  0  0  0
   -2.8763   66.4441   66.5338 H   0  0  0  0  0  0
   -2.8570   69.4984   66.7680 H   0  0  0  0  0  0
   -4.2535   68.4246   66.2042 H   0  0  0  0  0  0
    2.2444   69.5390   66.5626 H   0  0  0  0  0  0
    4.2562   70.4899   67.2061 H   0  0  0  0  0  0
    6.3686   68.4735   64.0577 H   0  0  0  0  0  0
    5.1239   69.7114   63.8744 H   0  0  0  0  0  0
    7.3022   70.1802   65.4126 H   0  0  0  0  0  0
  1  2  1  0  0  0
  1 26  1  0  0  0
  1 27  1  0  0  0
  1 28  1  0  0  0
  2  3  1  0  0  0
  3  8  1  0  0  0
  3  4  2  0  0  0
  4  5  1  0  0  0
  4 29  1  0  0  0
  5  6  2  0  0  0
  5 30  1  0  0  0
  6 15  1  0  0  0
  6  7  1  0  0  0
  7 11  1  0  0  0
  7  8  2  0  0  0
  8  9  1  0  0  0
  9 10  1  0  0  0
 10 24  1  0  0  0
 10 22  1  0  0  0
 10 11  1  0  0  0
 11 12  1  0  0  0
 11 19  1  0  0  0
 12 13  1  0  0  0
 12 31  1  0  0  0
 12 32  1  0  0  0
 13 14  1  0  0  0
 13 33  1  0  0  0
 13 34  1  0  0  0
 14 15  1  0  0  0
 14 16  1  0  0  0
 15 35  1  0  0  0
 15 36  1  0  0  0
 16 17  1  0  0  0
 16 37  1  0  0  0
 16 38  1  0  0  0
 17 18  2  0  0  0
 17 39  1  0  0  0
 18 40  1  0  0  0
 18 41  1  0  0  0
 19 20  2  0  0  0
 19 42  1  0  0  0
 20 21  1  0  0  0
 20 43  1  0  0  0
 21 25  1  0  0  0
 21 22  1  0  0  0
 21 23  1  0  0  0
 22 44  1  0  0  0
 22 45  1  0  0  0
 23 46  1  0  0  0
M  END
> <s_m_entry_id>
9743

> <s_m_entry_name>
ligand_docking-pose.185

> <s_m_Source_Path>
/home/csk/Desktop/cluster/DUD-E-result/aces

> <s_m_Source_File>
ligand_docking-pose.sdf

> <i_m_Source_File_Index>
185

> <i_lp_mmshare_version>
53161

> <r_lp_tautomer_probability>
1

> <s_lp_Force_Field>
OPLS_2005

> <r_lp_Energy>
48.465632

> <b_lp_Chiralities_Consistent>
1

> <s_lp_Variant>
424204-1

> <s_i_glide_gridfile>
glide-grid_1e66

> <i_i_glide_lignum>
2039

> <i_i_glide_rotatable_bonds>
4

> <r_i_docking_score>
-7.5499087581744

> <r_i_glide_ligand_efficiency>
-0.328256902529322

> <r_i_glide_ligand_efficiency_sa>
-0.933518965035811

> <r_i_glide_ligand_efficiency_ln>
-1.82563639651425

> <r_i_glide_gscore>
-7.5499087581744

> <r_i_glide_lipo>
-4.08904608959261

> <r_i_glide_hbond>
-0.32

> <r_i_glide_metal>
0

> <r_i_glide_rewards>
-1.52510049747773

> <r_i_glide_evdw>
-32.9418754577637

> <r_i_glide_ecoul>
-2.31261539459229

> <r_i_glide_erotb>
0.378223910972973

> <r_i_glide_esite>
0

> <r_i_glide_emodel>
-39.8446503240633

> <r_i_glide_energy>
-35.254490852356

> <r_i_glide_einternal>
9.29378223419189

> <i_i_glide_confnum>
13

> <i_i_glide_posenum>
20

> <r_i_glide_eff_state_penalty>
0

> <i_f3d_flags>
0

> <s_user_duplicate_titles>
424204

> <s_m_subgroup_title>
dock_pv

> <s_m_subgroupid>
dock_pv1

> <b_m_subgroup_collapsed>
1

$$$$
591788
                    3D
 Schrodinger Suite 2021-1.
 52 54  0  0  1  0            999 V2000
   -0.1378   68.2688   62.4772 C   0  0  0  0  0  0
    1.1391   68.4541   63.0726 O   0  0  0  0  0  0
    1.2448   68.4734   64.4517 C   0  0  0  0  0  0
    0.2105   68.0847   65.3221 C   0  0  0  0  0  0
    0.3684   68.1156   66.7164 C   0  0  0  0  0  0
    1.5432   68.6903   67.2322 C   0  0  0  0  0  0
    2.5844   69.0423   66.3768 C   0  0  0  0  0  0
    2.4629   68.9087   64.9872 C   0  0  0  0  0  0
    3.4712   69.2308   64.0962 O   0  0  0  0  0  0
    4.7326   69.6697   64.5896 C   0  0  0  0  0  0
    1.7476   68.9111   68.5712 O   0  0  0  0  0  0
   -0.7490   67.5660   67.5680 C   0  0  0  0  0  0
   -1.9202   67.7843   67.2621 O   0  0  0  0  0  0
   -0.5011   66.5935   68.6549 C   0  0  0  0  0  0
    0.7081   66.0739   68.9569 C   0  0  0  0  0  0
    1.0646   65.0351   69.9524 C   0  0  0  0  0  0
    0.1627   64.0537   70.3664 C   0  0  0  0  0  0
    0.5978   62.9877   71.1517 C   0  0  0  0  0  0
    1.9412   62.8763   71.5362 C   0  0  0  0  0  0
    2.8281   63.8890   71.1469 C   0  0  0  0  0  0
    2.3940   64.9553   70.3670 C   0  0  0  0  0  0
    2.3810   61.7491   72.2313 N   0  0  0  0  0  0
    3.8168   61.4222   72.3438 C   0  0  0  0  0  0
    4.0736   59.9287   72.6295 C   0  0  0  0  0  0
    3.3364   59.4492   73.8821 C   0  0  0  0  0  0
    1.8592   59.8449   73.7879 C   0  0  0  0  0  0
    1.6760   61.3441   73.4629 C   0  0  0  0  0  0
   -0.0377   68.2986   61.3917 H   0  0  0  0  0  0
   -0.8340   69.0557   62.7725 H   0  0  0  0  0  0
   -0.5687   67.3085   62.7404 H   0  0  0  0  0  0
   -0.7170   67.7088   64.9156 H   0  0  0  0  0  0
    3.4877   69.4383   66.8150 H   0  0  0  0  0  0
    5.3927   69.8855   63.7491 H   0  0  0  0  0  0
    4.6434   70.5836   65.1774 H   0  0  0  0  0  0
    5.2115   68.9003   65.1975 H   0  0  0  0  0  0
    0.9643   69.1311   69.0904 H   0  0  0  0  0  0
   -1.3755   66.2882   69.2072 H   0  0  0  0  0  0
    1.5430   66.3898   68.3631 H   0  0  0  0  0  0
   -0.8570   64.0684   70.0134 H   0  0  0  0  0  0
   -0.1088   62.2128   71.4065 H   0  0  0  0  0  0
    3.8699   63.8571   71.4264 H   0  0  0  0  0  0
    3.1099   65.7023   70.0542 H   0  0  0  0  0  0
    4.3067   61.6512   71.3971 H   0  0  0  0  0  0
    4.2805   62.0509   73.1079 H   0  0  0  0  0  0
    3.8027   59.3309   71.7585 H   0  0  0  0  0  0
    5.1418   59.7742   72.7633 H   0  0  0  0  0  0
    3.7851   59.9019   74.7679 H   0  0  0  0  0  0
    3.4403   58.3690   73.9968 H   0  0  0  0  0  0
    1.3653   59.6195   74.7346 H   0  0  0  0  0  0
    1.3385   59.2406   73.0424 H   0  0  0  0  0  0
    2.0273   61.9644   74.2884 H   0  0  0  0  0  0
    0.6058   61.5299   73.3716 H   0  0  0  0  0  0
  1  2  1  0  0  0
  1 28  1  0  0  0
  1 29  1  0  0  0
  1 30  1  0  0  0
  2  3  1  0  0  0
  3  8  1  0  0  0
  3  4  2  0  0  0
  4  5  1  0  0  0
  4 31  1  0  0  0
  5  6  2  0  0  0
  5 12  1  0  0  0
  6  7  1  0  0  0
  6 11  1  0  0  0
  7  8  2  0  0  0
  7 32  1  0  0  0
  8  9  1  0  0  0
  9 10  1  0  0  0
 10 33  1  0  0  0
 10 34  1  0  0  0
 10 35  1  0  0  0
 11 36  1  0  0  0
 12 13  2  0  0  0
 12 14  1  0  0  0
 14 15  2  0  0  0
 14 37  1  0  0  0
 15 16  1  0  0  0
 15 38  1  0  0  0
 16 21  1  0  0  0
 16 17  2  0  0  0
 17 18  1  0  0  0
 17 39  1  0  0  0
 18 19  2  0  0  0
 18 40  1  0  0  0
 19 20  1  0  0  0
 19 22  1  0  0  0
 20 21  2  0  0  0
 20 41  1  0  0  0
 21 42  1  0  0  0
 22 27  1  0  0  0
 22 23  1  0  0  0
 23 24  1  0  0  0
 23 43  1  0  0  0
 23 44  1  0  0  0
 24 25  1  0  0  0
 24 45  1  0  0  0
 24 46  1  0  0  0
 25 26  1  0  0  0
 25 47  1  0  0  0
 25 48  1  0  0  0
 26 27  1  0  0  0
 26 49  1  0  0  0
 26 50  1  0  0  0
 27 51  1  0  0  0
 27 52  1  0  0  0
M  END
> <s_m_entry_id>
9744

> <s_m_entry_name>
ligand_docking-pose.186

> <s_m_Source_Path>
/home/csk/Desktop/cluster/DUD-E-result/aces

> <s_m_Source_File>
ligand_docking-pose.sdf

> <i_m_Source_File_Index>
186

> <i_lp_mmshare_version>
53161

> <r_lp_tautomer_probability>
1

> <s_lp_Force_Field>
OPLS_2005

> <r_lp_Energy>
40.974728

> <b_lp_Chiralities_Consistent>
1

> <s_lp_Variant>
591788-1

> <s_i_glide_gridfile>
glide-grid_1e66

> <i_i_glide_lignum>
2148

> <i_i_glide_rotatable_bonds>
7

> <r_i_docking_score>
-7.5498277758375

> <r_i_glide_ligand_efficiency>
-0.279623250956944

> <r_i_glide_ligand_efficiency_sa>
-0.838869751949241

> <r_i_glide_ligand_efficiency_ln>
-1.75747543757633

> <r_i_glide_gscore>
-7.5498277758375

> <r_i_glide_lipo>
-3.64067108273185

> <r_i_glide_hbond>
-0.103239084781491

> <r_i_glide_metal>
0

> <r_i_glide_rewards>
-2.02069359394871

> <r_i_glide_evdw>
-40.3986434936523

> <r_i_glide_ecoul>
-2.23915457725525

> <r_i_glide_erotb>
0.570581346895451

> <r_i_glide_esite>
0

> <r_i_glide_emodel>
-58.317257110177

> <r_i_glide_energy>
-42.6377980709076

> <r_i_glide_einternal>
4.96053552627563

> <i_i_glide_confnum>
36

> <i_i_glide_posenum>
171

> <r_i_glide_eff_state_penalty>
0

> <i_f3d_flags>
0

> <s_user_duplicate_titles>
591788

> <s_m_subgroup_title>
dock_pv

> <s_m_subgroupid>
dock_pv1

> <b_m_subgroup_collapsed>
1

$$$$
631085
                    3D
 Schrodinger Suite 2021-1.
 64 68  0  0  1  0            999 V2000
    3.4716   58.6103   71.9074 C   0  0  0  0  0  0
    3.9440   59.6732   72.6723 C   0  0  0  0  0  0
    4.1663   60.9095   72.0724 C   0  0  0  0  0  0
    3.9217   61.0764   70.7064 C   0  0  0  0  0  0
    3.4273   60.0100   69.9483 C   0  0  0  0  0  0
    3.2093   58.7726   70.5487 C   0  0  0  0  0  0
    4.1104   62.4490   70.0696 C   0  0  0  0  0  0
    2.9930   63.3595   70.3493 N   0  0  1  0  0  0
    3.4077   64.7534   70.1394 C   0  0  0  0  0  0
    2.2563   65.7266   70.4409 C   0  0  0  0  0  0
    1.0376   65.5013   69.5489 C   0  0  0  0  0  0
    0.6173   64.0251   69.7898 C   0  0  0  0  0  0
    1.7719   63.0028   69.6033 C   0  0  0  0  0  0
   -0.0882   66.5038   69.8851 C   0  0  0  0  0  0
   -1.3144   66.5080   68.9280 C   0  0  0  0  0  0
   -1.3494   67.3005   67.5910 C   0  0  0  0  0  0
   -2.3946   67.2175   66.9477 O   0  0  0  0  0  0
   -0.1270   67.9342   67.0199 C   0  0  0  0  0  0
    0.0820   67.7958   65.6466 C   0  0  0  0  0  0
    1.2446   68.2496   65.0468 C   0  0  0  0  0  0
    2.2168   68.8703   65.8253 C   0  0  0  0  0  0
    1.9656   69.1486   67.1670 C   0  0  0  0  0  0
    0.7686   68.7296   67.7501 C   0  0  0  0  0  0
    3.1116   69.8974   67.7797 C   0  0  0  0  0  0
    4.1376   69.8954   66.6511 C   0  0  0  0  0  0
    3.4996   69.3080   65.4804 N   0  0  0  0  0  0
    4.2134   68.6652   64.4626 C   0  0  0  0  0  0
    5.0306   69.4063   63.6078 C   0  0  0  0  0  0
    5.6835   68.7675   62.5573 C   0  0  0  0  0  0
    5.5281   67.3988   62.3684 C   0  0  0  0  0  0
    4.7428   66.6435   63.2284 C   0  0  0  0  0  0
    4.1018   67.2770   64.2826 C   0  0  0  0  0  0
    3.3023   57.6512   72.3763 H   0  0  0  0  0  0
    4.1324   59.5400   73.7274 H   0  0  0  0  0  0
    4.5160   61.7386   72.6690 H   0  0  0  0  0  0
    3.2011   60.1383   68.8997 H   0  0  0  0  0  0
    2.8230   57.9447   69.9686 H   0  0  0  0  0  0
    4.2438   62.3508   68.9913 H   0  0  0  0  0  0
    5.0370   62.8668   70.4675 H   0  0  0  0  0  0
    3.7378   64.8641   69.1062 H   0  0  0  0  0  0
    4.2681   64.9930   70.7668 H   0  0  0  0  0  0
    2.5973   66.7600   70.3686 H   0  0  0  0  0  0
    1.9306   65.5956   71.4682 H   0  0  0  0  0  0
    1.3664   65.6798   68.5227 H   0  0  0  0  0  0
    0.2361   63.9022   70.8045 H   0  0  0  0  0  0
   -0.2356   63.7597   69.1679 H   0  0  0  0  0  0
    2.0355   62.9076   68.5527 H   0  0  0  0  0  0
    1.4373   62.0119   69.9114 H   0  0  0  0  0  0
    0.3401   67.4884   70.0273 H   0  0  0  0  0  0
   -0.4566   66.2703   70.8852 H   0  0  0  0  0  0
   -2.1706   66.9026   69.4791 H   0  0  0  0  0  0
   -1.5736   65.4805   68.7136 H   0  0  0  0  0  0
   -0.6500   67.3080   65.0311 H   0  0  0  0  0  0
    1.3948   68.0889   63.9893 H   0  0  0  0  0  0
    0.5633   69.0174   68.7666 H   0  0  0  0  0  0
    3.5053   69.4152   68.6665 H   0  0  0  0  0  0
    2.8322   70.9080   68.0557 H   0  0  0  0  0  0
    5.0149   69.3090   66.9291 H   0  0  0  0  0  0
    4.4731   70.9070   66.4191 H   0  0  0  0  0  0
    5.1375   70.4742   63.7422 H   0  0  0  0  0  0
    6.3145   69.3081   61.8729 H   0  0  0  0  0  0
    6.0609   66.9210   61.5679 H   0  0  0  0  0  0
    4.6423   65.5772   63.0961 H   0  0  0  0  0  0
    3.4979   66.6852   64.9541 H   0  0  0  0  0  0
  1  6  1  0  0  0
  1  2  2  0  0  0
  1 33  1  0  0  0
  2  3  1  0  0  0
  2 34  1  0  0  0
  3  4  2  0  0  0
  3 35  1  0  0  0
  4  5  1  0  0  0
  4  7  1  0  0  0
  5  6  2  0  0  0
  5 36  1  0  0  0
  6 37  1  0  0  0
  7  8  1  0  0  0
  7 38  1  0  0  0
  7 39  1  0  0  0
  8 13  1  0  0  0
  8  9  1  0  0  0
  9 10  1  0  0  0
  9 40  1  0  0  0
  9 41  1  0  0  0
 10 11  1  0  0  0
 10 42  1  0  0  0
 10 43  1  0  0  0
 11 12  1  0  0  0
 11 14  1  0  0  0
 11 44  1  0  0  0
 12 13  1  0  0  0
 12 45  1  0  0  0
 12 46  1  0  0  0
 13 47  1  0  0  0
 13 48  1  0  0  0
 14 15  1  0  0  0
 14 49  1  0  0  0
 14 50  1  0  0  0
 15 16  1  0  0  0
 15 51  1  0  0  0
 15 52  1  0  0  0
 16 17  2  0  0  0
 16 18  1  0  0  0
 18 23  1  0  0  0
 18 19  2  0  0  0
 19 20  1  0  0  0
 19 53  1  0  0  0
 20 21  2  0  0  0
 20 54  1  0  0  0
 21 26  1  0  0  0
 21 22  1  0  0  0
 22 23  2  0  0  0
 22 24  1  0  0  0
 23 55  1  0  0  0
 24 25  1  0  0  0
 24 56  1  0  0  0
 24 57  1  0  0  0
 25 26  1  0  0  0
 25 58  1  0  0  0
 25 59  1  0  0  0
 26 27  1  0  0  0
 27 32  1  0  0  0
 27 28  2  0  0  0
 28 29  1  0  0  0
 28 60  1  0  0  0
 29 30  2  0  0  0
 29 61  1  0  0  0
 30 31  1  0  0  0
 30 62  1  0  0  0
 31 32  2  0  0  0
 31 63  1  0  0  0
 32 64  1  0  0  0
M  END
> <s_m_entry_id>
9745

> <s_m_entry_name>
ligand_docking-pose.187

> <s_m_Source_Path>
/home/csk/Desktop/cluster/DUD-E-result/aces

> <s_m_Source_File>
ligand_docking-pose.sdf

> <i_m_Source_File_Index>
187

> <i_lp_mmshare_version>
53161

> <r_lp_tautomer_probability>
0.99990000499975

> <s_lp_Force_Field>
OPLS_2005

> <r_lp_Energy>
55.113715

> <b_lp_Chiralities_Consistent>
1

> <s_lp_Variant>
631085-1

> <s_i_glide_gridfile>
glide-grid_1e66

> <i_i_glide_lignum>
359

> <i_i_glide_rotatable_bonds>
7

> <r_i_docking_score>
-7.54961768684155

> <r_i_glide_ligand_efficiency>
-0.235925552713798

> <r_i_glide_ligand_efficiency_sa>
-0.749016940262827

> <r_i_glide_ligand_efficiency_ln>
-1.69056519488948

> <r_i_glide_gscore>
-7.54961768684155

> <r_i_glide_lipo>
-3.99932374164938

> <r_i_glide_hbond>
0

> <r_i_glide_metal>
0

> <r_i_glide_rewards>
-1.96004104786923

> <r_i_glide_evdw>
-46.6768226623535

> <r_i_glide_ecoul>
-0.176165387034416

> <r_i_glide_erotb>
0.770013043849901

> <r_i_glide_esite>
0

> <r_i_glide_emodel>
-56.8013510763361

> <r_i_glide_energy>
-46.8529880493879

> <r_i_glide_einternal>
13.5489730834961

> <i_i_glide_confnum>
18

> <i_i_glide_posenum>
100

> <r_i_glide_eff_state_penalty>
0

> <i_f3d_flags>
0

> <s_user_duplicate_titles>
631085

> <s_m_subgroup_title>
dock_pv

> <s_m_subgroupid>
dock_pv1

> <b_m_subgroup_collapsed>
1

$$$$
261914
                    3D
 Schrodinger Suite 2021-1.
 65 68  0  0  1  0            999 V2000
    5.1638   66.5710   61.9768 C   0  0  0  0  0  0
    5.1386   67.6749   62.9847 C   0  0  0  0  0  0
    5.9386   68.8122   62.8389 C   0  0  0  0  0  0
    5.7673   69.8855   63.7085 C   0  0  0  0  0  0
    4.8019   69.8282   64.7052 C   0  0  0  0  0  0
    3.9690   68.7131   64.7960 C   0  0  0  0  0  0
    4.1944   67.6038   63.9935 C   0  0  0  0  0  0
    2.7807   68.7418   65.5202 N   0  0  0  0  0  0
    2.7405   69.4346   66.7859 C   0  0  0  0  0  0
    1.4605   68.8542   67.2838 C   0  0  0  0  0  0
    0.6947   68.9076   66.0616 N   0  0  0  0  0  0
    1.5147   68.8231   64.9377 C   0  0  0  0  0  0
    1.1612   68.8796   63.6215 C   0  0  0  0  0  0
   -0.1803   68.9001   63.1794 C   0  0  0  0  0  0
   -1.2543   68.9072   62.7700 N   0  0  0  0  0  0
    2.0459   68.9338   62.5058 C   0  0  0  0  0  0
    2.6665   69.0036   61.5311 N   0  0  0  0  0  0
   -0.7347   69.1689   66.0900 C   0  0  0  0  0  0
   -1.5487   67.8922   66.2451 C   0  0  0  0  0  0
   -2.1209   67.9481   67.5681 N   0  0  2  0  0  0
   -2.0821   66.6748   68.2576 C   0  0  0  0  0  0
   -0.7676   66.3158   68.9529 C   0  0  0  0  0  0
    0.2515   67.0284   69.5642 C   0  0  0  0  0  0
    1.1002   66.1166   70.1883 C   0  0  0  0  0  0
    0.5800   64.8594   69.9325 C   0  0  0  0  0  0
   -0.5359   64.9960   69.1695 O   0  0  0  0  0  0
    0.9555   63.4302   70.2845 C   0  0  0  0  0  0
    2.3039   63.2846   70.8460 N   0  0  0  0  0  0
    3.3505   63.5453   69.8438 C   0  0  0  0  0  0
    4.7533   63.4614   70.4750 C   0  0  0  0  0  0
    4.9963   62.1049   71.1613 C   0  0  0  0  0  0
    3.8377   61.7712   72.1134 C   0  0  0  0  0  0
    2.4576   61.9513   71.4490 C   0  0  0  0  0  0
    5.7845   66.9089   61.1682 H   0  0  0  0  0  0
    4.1638   66.3880   61.5862 H   0  0  0  0  0  0
    5.5402   65.6588   62.4278 H   0  0  0  0  0  0
    6.6583   68.8873   62.0349 H   0  0  0  0  0  0
    6.3649   70.7758   63.5864 H   0  0  0  0  0  0
    4.6352   70.6917   65.3287 H   0  0  0  0  0  0
    3.5323   66.7510   64.0556 H   0  0  0  0  0  0
    3.5867   69.2190   67.4366 H   0  0  0  0  0  0
    2.6714   70.5079   66.6599 H   0  0  0  0  0  0
    1.5778   67.8186   67.5995 H   0  0  0  0  0  0
    1.0313   69.4532   68.0875 H   0  0  0  0  0  0
   -0.9290   69.8815   66.8954 H   0  0  0  0  0  0
   -1.0648   69.7076   65.2111 H   0  0  0  0  0  0
   -2.3596   67.8550   65.5182 H   0  0  0  0  0  0
   -0.9346   67.0013   66.0808 H   0  0  0  0  0  0
   -3.0790   68.2685   67.5082 H   0  0  0  0  0  0
   -2.8399   66.7736   69.0356 H   0  0  0  0  0  0
   -2.4491   65.9222   67.5669 H   0  0  0  0  0  0
    0.3427   68.1031   69.5795 H   0  0  0  0  0  0
    1.9853   66.3433   70.7643 H   0  0  0  0  0  0
    0.2210   63.0448   70.9926 H   0  0  0  0  0  0
    0.8613   62.7940   69.4019 H   0  0  0  0  0  0
    3.2465   62.8444   69.0129 H   0  0  0  0  0  0
    3.2198   64.5401   69.4189 H   0  0  0  0  0  0
    5.5052   63.6282   69.7024 H   0  0  0  0  0  0
    4.8838   64.2922   71.1663 H   0  0  0  0  0  0
    5.9395   62.1058   71.7095 H   0  0  0  0  0  0
    5.0747   61.3229   70.4053 H   0  0  0  0  0  0
    3.8867   62.3614   73.0275 H   0  0  0  0  0  0
    3.9388   60.7388   72.4507 H   0  0  0  0  0  0
    1.6862   61.8204   72.2100 H   0  0  0  0  0  0
    2.2814   61.1777   70.6986 H   0  0  0  0  0  0
  1  2  1  0  0  0
  1 34  1  0  0  0
  1 35  1  0  0  0
  1 36  1  0  0  0
  2  7  1  0  0  0
  2  3  2  0  0  0
  3  4  1  0  0  0
  3 37  1  0  0  0
  4  5  2  0  0  0
  4 38  1  0  0  0
  5  6  1  0  0  0
  5 39  1  0  0  0
  6  7  2  0  0  0
  6  8  1  0  0  0
  7 40  1  0  0  0
  8 12  1  0  0  0
  8  9  1  0  0  0
  9 10  1  0  0  0
  9 41  1  0  0  0
  9 42  1  0  0  0
 10 11  1  0  0  0
 10 43  1  0  0  0
 10 44  1  0  0  0
 11 12  1  0  0  0
 11 18  1  0  0  0
 12 13  2  3  0  0
 13 14  1  0  0  0
 13 16  1  0  0  0
 14 15  3  0  0  0
 16 17  3  0  0  0
 18 19  1  0  0  0
 18 45  1  0  0  0
 18 46  1  0  0  0
 19 20  1  0  0  0
 19 47  1  0  0  0
 19 48  1  0  0  0
 20 21  1  0  0  0
 20 49  1  0  0  0
 21 22  1  0  0  0
 21 50  1  0  0  0
 21 51  1  0  0  0
 22 26  1  0  0  0
 22 23  2  0  0  0
 23 24  1  0  0  0
 23 52  1  0  0  0
 24 25  2  0  0  0
 24 53  1  0  0  0
 25 26  1  0  0  0
 25 27  1  0  0  0
 27 28  1  0  0  0
 27 54  1  0  0  0
 27 55  1  0  0  0
 28 33  1  0  0  0
 28 29  1  0  0  0
 29 30  1  0  0  0
 29 56  1  0  0  0
 29 57  1  0  0  0
 30 31  1  0  0  0
 30 58  1  0  0  0
 30 59  1  0  0  0
 31 32  1  0  0  0
 31 60  1  0  0  0
 31 61  1  0  0  0
 32 33  1  0  0  0
 32 62  1  0  0  0
 32 63  1  0  0  0
 33 64  1  0  0  0
 33 65  1  0  0  0
M  END
> <s_m_entry_id>
9748

> <s_m_entry_name>
ligand_docking-pose.190

> <s_m_Source_Path>
/home/csk/Desktop/cluster/DUD-E-result/aces

> <s_m_Source_File>
ligand_docking-pose.sdf

> <i_m_Source_File_Index>
190

> <i_lp_mmshare_version>
53161

> <r_lp_tautomer_probability>
0.5

> <s_lp_Force_Field>
OPLS_2005

> <r_lp_Energy>
51.266405

> <b_lp_Chiralities_Consistent>
1

> <s_lp_Variant>
261914-1

> <s_i_glide_gridfile>
glide-grid_1e66

> <i_i_glide_lignum>
759

> <i_i_glide_rotatable_bonds>
8

> <r_i_docking_score>
-7.54218691301592

> <r_i_glide_ligand_efficiency>
-0.22855111857624

> <r_i_glide_ligand_efficiency_sa>
-0.733085558137824

> <r_i_glide_ligand_efficiency_ln>
-1.67734331810089

> <r_i_glide_gscore>
-7.54218691301592

> <r_i_glide_lipo>
-3.99310216874115

> <r_i_glide_hbond>
0

> <r_i_glide_metal>
0

> <r_i_glide_rewards>
-2.19794432035833

> <r_i_glide_evdw>
-38.5055084228516

> <r_i_glide_ecoul>
-1.56962215900421

> <r_i_glide_erotb>
0.809578321076773

> <r_i_glide_esite>
0

> <r_i_glide_emodel>
-66.4314494389428

> <r_i_glide_energy>
-40.0751305818558

> <r_i_glide_einternal>
11.3713712692261

> <i_i_glide_confnum>
34

> <i_i_glide_posenum>
11

> <r_i_glide_eff_state_penalty>
0

> <i_f3d_flags>
0

> <s_user_duplicate_titles>
261914

> <s_m_subgroup_title>
dock_pv

> <s_m_subgroupid>
dock_pv1

> <b_m_subgroup_collapsed>
1

$$$$
427362
                    3D
 Schrodinger Suite 2021-1.
 43 45  0  0  1  0            999 V2000
    6.1843   70.3797   66.6206 C   0  0  0  0  0  0
    5.8609   70.9097   67.8648 C   0  0  0  0  0  0
    4.5687   70.7864   68.3662 C   0  0  0  0  0  0
    3.5772   70.1065   67.6135 C   0  0  0  0  0  0
    3.8880   69.5666   66.3316 C   0  0  0  0  0  0
    5.2234   69.7218   65.8564 C   0  0  0  0  0  0
    2.8386   68.9088   65.6023 C   0  0  0  0  0  0
    1.5786   68.7265   66.2220 C   0  0  0  0  0  0
    1.3879   69.2890   67.5023 C   0  0  0  0  0  0
    2.3442   69.9910   68.1525 N   0  0  0  0  0  0
    0.0744   69.1340   68.2588 C   0  0  0  0  0  0
   -1.1060   68.7030   67.3736 C   0  0  0  0  0  0
   -0.6787   67.5130   66.5184 C   0  0  0  0  0  0
    0.4100   67.9798   65.5465 C   0  0  0  0  0  0
    3.0933   68.4707   64.2844 N   0  0  0  0  0  0
    2.2318   68.9716   63.2134 C   0  0  0  0  0  0
    2.7140   68.5715   61.8141 C   0  0  0  0  0  0
    3.6745   69.5906   61.1813 C   0  0  0  0  0  0
    4.9218   69.9562   62.0129 C   0  0  0  0  0  0
    5.7059   68.7863   62.3680 N   0  0  0  0  0  0
    7.1899   70.4817   66.2381 H   0  0  0  0  0  0
    6.6163   71.4202   68.4443 H   0  0  0  0  0  0
    4.3137   71.1909   69.3346 H   0  0  0  0  0  0
    5.5063   69.3191   64.8988 H   0  0  0  0  0  0
   -0.1727   70.0663   68.7680 H   0  0  0  0  0  0
    0.2558   68.3787   69.0249 H   0  0  0  0  0  0
   -1.4230   69.5333   66.7392 H   0  0  0  0  0  0
   -1.9790   68.4379   67.9670 H   0  0  0  0  0  0
   -1.5354   67.1223   65.9694 H   0  0  0  0  0  0
   -0.3135   66.6951   67.1430 H   0  0  0  0  0  0
   -0.0846   68.6687   64.8616 H   0  0  0  0  0  0
    0.7689   67.1304   64.9634 H   0  0  0  0  0  0
    4.0659   68.5709   64.0221 H   0  0  0  0  0  0
    2.1403   70.0593   63.2929 H   0  0  0  0  0  0
    1.2145   68.6150   63.3080 H   0  0  0  0  0  0
    1.8459   68.4688   61.1612 H   0  0  0  0  0  0
    3.1733   67.5821   61.8378 H   0  0  0  0  0  0
    3.1199   70.5078   60.9972 H   0  0  0  0  0  0
    3.9522   69.2260   60.1937 H   0  0  0  0  0  0
    4.6327   70.4827   62.9234 H   0  0  0  0  0  0
    5.5434   70.6479   61.4435 H   0  0  0  0  0  0
    6.0271   68.4011   61.4773 H   0  0  0  0  0  0
    6.5484   69.0913   62.8372 H   0  0  0  0  0  0
  1  6  1  0  0  0
  1  2  2  0  0  0
  1 21  1  0  0  0
  2  3  1  0  0  0
  2 22  1  0  0  0
  3  4  2  0  0  0
  3 23  1  0  0  0
  4 10  1  0  0  0
  4  5  1  0  0  0
  5  6  2  0  0  0
  5  7  1  0  0  0
  6 24  1  0  0  0
  7  8  2  0  0  0
  7 15  1  0  0  0
  8 14  1  0  0  0
  8  9  1  0  0  0
  9 10  2  0  0  0
  9 11  1  0  0  0
 11 12  1  0  0  0
 11 25  1  0  0  0
 11 26  1  0  0  0
 12 13  1  0  0  0
 12 27  1  0  0  0
 12 28  1  0  0  0
 13 14  1  0  0  0
 13 29  1  0  0  0
 13 30  1  0  0  0
 14 31  1  0  0  0
 14 32  1  0  0  0
 15 16  1  0  0  0
 15 33  1  0  0  0
 16 17  1  0  0  0
 16 34  1  0  0  0
 16 35  1  0  0  0
 17 18  1  0  0  0
 17 36  1  0  0  0
 17 37  1  0  0  0
 18 19  1  0  0  0
 18 38  1  0  0  0
 18 39  1  0  0  0
 19 20  1  0  0  0
 19 40  1  0  0  0
 19 41  1  0  0  0
 20 42  1  0  0  0
 20 43  1  0  0  0
M  END
> <s_m_entry_id>
9750

> <s_m_entry_name>
ligand_docking-pose.192

> <s_m_Source_Path>
/home/csk/Desktop/cluster/DUD-E-result/aces

> <s_m_Source_File>
ligand_docking-pose.sdf

> <i_m_Source_File_Index>
192

> <i_lp_mmshare_version>
53161

> <r_lp_tautomer_probability>
1

> <s_lp_Force_Field>
OPLS_2005

> <r_lp_Energy>
26.401791

> <b_lp_Chiralities_Consistent>
1

> <s_lp_Variant>
427362-1

> <s_i_glide_gridfile>
glide-grid_1e66

> <i_i_glide_lignum>
198

> <i_i_glide_rotatable_bonds>
5

> <r_i_docking_score>
-7.5320944448357

> <r_i_glide_ligand_efficiency>
-0.376604722241785

> <r_i_glide_ligand_efficiency_sa>
-1.02226249152512

> <r_i_glide_ligand_efficiency_ln>
-1.88503481444123

> <r_i_glide_gscore>
-7.5320944448357

> <r_i_glide_lipo>
-3.64932283662153

> <r_i_glide_hbond>
-0.158339148341593

> <r_i_glide_metal>
0

> <r_i_glide_rewards>
-2.26102898963416

> <r_i_glide_evdw>
-35.0379257202148

> <r_i_glide_ecoul>
-3.0010142326355

> <r_i_glide_erotb>
0.738644950667657

> <r_i_glide_esite>
0

> <r_i_glide_emodel>
-51.5513670850245

> <r_i_glide_energy>
-38.0389399528503

> <r_i_glide_einternal>
4.69878149032593

> <i_i_glide_confnum>
52

> <i_i_glide_posenum>
171

> <r_i_glide_eff_state_penalty>
0

> <i_f3d_flags>
0

> <s_user_duplicate_titles>
427362

> <s_m_subgroup_title>
dock_pv

> <s_m_subgroupid>
dock_pv1

> <b_m_subgroup_collapsed>
1

$$$$
179350
                    3D
 Schrodinger Suite 2021-1.
 44 46  0  0  1  0            999 V2000
    3.8796   64.1082   69.0171 C   0  0  0  0  0  0
    2.8337   63.4320   69.8867 C   0  0  0  0  0  0
    1.8270   64.1433   70.5595 C   0  0  0  0  0  0
    0.9374   63.4167   71.3742 C   0  0  0  0  0  0
    1.0826   61.9939   71.4862 C   0  0  0  0  0  0
    2.1416   61.3792   70.7504 C   0  0  0  0  0  0
    2.9845   62.0911   69.9622 N   0  0  0  0  0  0
    2.3549   59.9837   70.8393 C   0  0  0  0  0  0
    1.5433   59.2014   71.6505 C   0  0  0  0  0  0
    0.5034   59.7806   72.3676 C   0  0  0  0  0  0
    0.2546   61.1491   72.2946 C   0  0  0  0  0  0
   -0.7802   61.6467   73.0130 F   0  0  0  0  0  0
   -0.0547   64.0914   72.0914 N   0  0  0  0  0  0
    1.7536   65.6775   70.4451 C   0  0  0  0  0  0
    1.3000   66.1103   69.1679 O   0  0  0  0  0  0
   -0.1121   66.0846   68.9611 C   0  0  0  0  0  0
   -0.5023   66.9019   67.7280 C   0  0  0  0  0  0
   -1.8247   67.3247   67.5683 C   0  0  0  0  0  0
   -2.1853   68.1110   66.4762 C   0  0  0  0  0  0
   -1.2393   68.4255   65.5009 C   0  0  0  0  0  0
    0.0740   67.9344   65.5887 C   0  0  0  0  0  0
    0.4343   67.2021   66.7303 C   0  0  0  0  0  0
    1.0179   68.1181   64.4349 C   0  0  0  0  0  0
    0.6335   68.5087   63.3293 O   0  0  0  0  0  0
    2.5273   67.8714   64.6513 C   0  0  0  0  0  0
    2.7477   66.5645   64.8140 F   0  0  0  0  0  0
    2.9428   68.5292   65.7353 F   0  0  0  0  0  0
    3.2321   68.2905   63.5959 F   0  0  0  0  0  0
    3.4083   64.5367   68.1343 H   0  0  0  0  0  0
    4.3839   64.9046   69.5685 H   0  0  0  0  0  0
    4.6533   63.4200   68.6762 H   0  0  0  0  0  0
    3.1599   59.5303   70.2779 H   0  0  0  0  0  0
    1.7152   58.1363   71.7202 H   0  0  0  0  0  0
   -0.1267   59.1595   72.9880 H   0  0  0  0  0  0
   -0.6483   63.5439   72.7040 H   0  0  0  0  0  0
   -0.0577   65.1003   72.1089 H   0  0  0  0  0  0
    2.7549   66.0785   70.5906 H   0  0  0  0  0  0
    1.1571   66.1354   71.2329 H   0  0  0  0  0  0
   -0.6234   66.5082   69.8284 H   0  0  0  0  0  0
   -0.4554   65.0559   68.8437 H   0  0  0  0  0  0
   -2.5710   67.0818   68.3094 H   0  0  0  0  0  0
   -3.2027   68.4588   66.3769 H   0  0  0  0  0  0
   -1.5573   69.0019   64.6418 H   0  0  0  0  0  0
    1.4350   66.8129   66.8488 H   0  0  0  0  0  0
  1  2  1  0  0  0
  1 29  1  0  0  0
  1 30  1  0  0  0
  1 31  1  0  0  0
  2  7  1  0  0  0
  2  3  2  0  0  0
  3  4  1  0  0  0
  3 14  1  0  0  0
  4  5  2  0  0  0
  4 13  1  0  0  0
  5 11  1  0  0  0
  5  6  1  0  0  0
  6  7  2  0  0  0
  6  8  1  0  0  0
  8  9  2  0  0  0
  8 32  1  0  0  0
  9 10  1  0  0  0
  9 33  1  0  0  0
 10 11  2  0  0  0
 10 34  1  0  0  0
 11 12  1  0  0  0
 13 35  1  0  0  0
 13 36  1  0  0  0
 14 15  1  0  0  0
 14 37  1  0  0  0
 14 38  1  0  0  0
 15 16  1  0  0  0
 16 17  1  0  0  0
 16 39  1  0  0  0
 16 40  1  0  0  0
 17 22  1  0  0  0
 17 18  2  0  0  0
 18 19  1  0  0  0
 18 41  1  0  0  0
 19 20  2  0  0  0
 19 42  1  0  0  0
 20 21  1  0  0  0
 20 43  1  0  0  0
 21 22  2  0  0  0
 21 23  1  0  0  0
 22 44  1  0  0  0
 23 24  2  0  0  0
 23 25  1  0  0  0
 25 26  1  0  0  0
 25 27  1  0  0  0
 25 28  1  0  0  0
M  END
> <s_m_entry_id>
9755

> <s_m_entry_name>
ligand_docking-pose.197

> <s_m_Source_Path>
/home/csk/Desktop/cluster/DUD-E-result/aces

> <s_m_Source_File>
ligand_docking-pose.sdf

> <i_m_Source_File_Index>
197

> <i_lp_mmshare_version>
53161

> <r_lp_tautomer_probability>
1

> <s_lp_Force_Field>
OPLS_2005

> <r_lp_Energy>
40.848568

> <b_lp_Chiralities_Consistent>
1

> <s_lp_Variant>
179350-1

> <s_i_glide_gridfile>
glide-grid_1e66

> <i_i_glide_lignum>
694

> <i_i_glide_rotatable_bonds>
6

> <r_i_docking_score>
-7.51499418373464

> <r_i_glide_ligand_efficiency>
-0.268392649419094

> <r_i_glide_ligand_efficiency_sa>
-0.814998158453266

> <r_i_glide_ligand_efficiency_ln>
-1.73468130742302

> <r_i_glide_gscore>
-7.51499418373464

> <r_i_glide_lipo>
-3.59632235649613

> <r_i_glide_hbond>
0

> <r_i_glide_metal>
0

> <r_i_glide_rewards>
-2.49683869476292

> <r_i_glide_evdw>
-42.4974060058594

> <r_i_glide_ecoul>
0.459220975637436

> <r_i_glide_erotb>
0.634154021471763

> <r_i_glide_esite>
0

> <r_i_glide_emodel>
-58.8775757484942

> <r_i_glide_energy>
-42.0381850302219

> <r_i_glide_einternal>
2.99521350860596

> <i_i_glide_confnum>
43

> <i_i_glide_posenum>
39

> <r_i_glide_eff_state_penalty>
0

> <i_f3d_flags>
0

> <s_user_duplicate_titles>
179350

> <s_m_subgroup_title>
dock_pv

> <s_m_subgroupid>
dock_pv1

> <b_m_subgroup_collapsed>
1

$$$$
597705
                    3D
 Schrodinger Suite 2021-1.
 48 51  0  0  1  0            999 V2000
   -0.9496   68.5080   64.6789 C   0  0  0  0  0  0
   -1.4259   68.9078   65.9260 C   0  0  0  0  0  0
   -0.5346   69.0998   66.9764 C   0  0  0  0  0  0
    0.8331   68.9081   66.7757 C   0  0  0  0  0  0
    1.3186   68.4228   65.5471 C   0  0  0  0  0  0
    0.4077   68.2378   64.4944 C   0  0  0  0  0  0
    2.7095   68.1940   65.3688 N   0  0  0  0  0  0
    3.6528   69.1210   65.9057 C   0  0  0  0  0  0
    4.8504   69.4469   65.2428 C   0  0  0  0  0  0
    5.8163   70.2381   65.8630 C   0  0  0  0  0  0
    5.5972   70.7401   67.1433 C   0  0  0  0  0  0
    4.3865   70.4987   67.7842 C   0  0  0  0  0  0
    3.4105   69.7080   67.1685 C   0  0  0  0  0  0
    1.9433   69.3095   68.0815 S   0  0  0  0  0  0
    3.1430   66.9968   64.8627 C   0  0  0  0  0  0
    3.9370   66.8983   63.9237 O   0  0  0  0  0  0
    2.7430   65.9149   65.5697 N   0  0  0  0  0  0
    3.1433   64.5121   65.3494 C   0  0  0  0  0  0
    3.9430   63.7280   66.4607 C   0  0  0  0  0  0
    3.5430   63.7411   67.8868 N   0  0  0  0  0  0
    4.5080   64.0759   68.9552 C   0  0  0  0  0  0
    3.7616   64.4418   70.2567 C   0  0  0  0  0  0
    2.8944   63.2754   70.7528 C   0  0  0  0  0  0
    2.0220   62.7467   69.6034 C   0  0  0  0  0  0
    2.8455   62.5079   68.3178 C   0  0  0  0  0  0
   -1.6413   68.3715   63.8604 H   0  0  0  0  0  0
   -2.4805   69.0934   66.0704 H   0  0  0  0  0  0
   -0.8996   69.4520   67.9313 H   0  0  0  0  0  0
    0.7482   67.9014   63.5257 H   0  0  0  0  0  0
    5.0619   69.0636   64.2557 H   0  0  0  0  0  0
    6.7376   70.4591   65.3478 H   0  0  0  0  0  0
    6.3560   71.3310   67.6317 H   0  0  0  0  0  0
    4.2133   70.8999   68.7723 H   0  0  0  0  0  0
    2.0953   66.0711   66.3306 H   0  0  0  0  0  0
    3.7410   64.4468   64.4380 H   0  0  0  0  0  0
    2.2312   64.0006   65.0835 H   0  0  0  0  0  0
    4.9606   64.1080   66.4162 H   0  0  0  0  0  0
    3.9430   62.6971   66.1049 H   0  0  0  0  0  0
    5.1723   64.9077   68.7680 H   0  0  0  0  0  0
    5.1430   63.2150   69.1190 H   0  0  0  0  0  0
    3.1481   65.3289   70.0900 H   0  0  0  0  0  0
    4.4803   64.7232   71.0270 H   0  0  0  0  0  0
    3.5370   62.4752   71.1233 H   0  0  0  0  0  0
    2.2740   63.5899   71.5931 H   0  0  0  0  0  0
    1.5450   61.8143   69.9073 H   0  0  0  0  0  0
    1.2001   63.4328   69.3942 H   0  0  0  0  0  0
    2.1517   62.1279   67.5680 H   0  0  0  0  0  0
    3.5777   61.7096   68.4531 H   0  0  0  0  0  0
  1  6  1  0  0  0
  1  2  2  0  0  0
  1 26  1  0  0  0
  2  3  1  0  0  0
  2 27  1  0  0  0
  3  4  2  0  0  0
  3 28  1  0  0  0
  4 14  1  0  0  0
  4  5  1  0  0  0
  5  6  2  0  0  0
  5  7  1  0  0  0
  6 29  1  0  0  0
  7  8  1  0  0  0
  7 15  1  0  0  0
  8 13  2  0  0  0
  8  9  1  0  0  0
  9 10  2  0  0  0
  9 30  1  0  0  0
 10 11  1  0  0  0
 10 31  1  0  0  0
 11 12  2  0  0  0
 11 32  1  0  0  0
 12 13  1  0  0  0
 12 33  1  0  0  0
 13 14  1  0  0  0
 15 16  2  0  0  0
 15 17  1  0  0  0
 17 18  1  0  0  0
 17 34  1  0  0  0
 18 19  1  0  0  0
 18 35  1  0  0  0
 18 36  1  0  0  0
 19 20  1  0  0  0
 19 37  1  0  0  0
 19 38  1  0  0  0
 20 25  1  0  0  0
 20 21  1  0  0  0
 21 22  1  0  0  0
 21 39  1  0  0  0
 21 40  1  0  0  0
 22 23  1  0  0  0
 22 41  1  0  0  0
 22 42  1  0  0  0
 23 24  1  0  0  0
 23 43  1  0  0  0
 23 44  1  0  0  0
 24 25  1  0  0  0
 24 45  1  0  0  0
 24 46  1  0  0  0
 25 47  1  0  0  0
 25 48  1  0  0  0
M  END
> <s_m_entry_id>
9756

> <s_m_entry_name>
ligand_docking-pose.198

> <s_m_Source_Path>
/home/csk/Desktop/cluster/DUD-E-result/aces

> <s_m_Source_File>
ligand_docking-pose.sdf

> <i_m_Source_File_Index>
198

> <i_lp_mmshare_version>
53161

> <r_lp_tautomer_probability>
1

> <s_lp_Force_Field>
OPLS_2005

> <r_lp_Energy>
52.384297

> <b_lp_Chiralities_Consistent>
1

> <s_lp_Variant>
597705-1

> <s_i_glide_gridfile>
glide-grid_1e66

> <i_i_glide_lignum>
302

> <i_i_glide_rotatable_bonds>
5

> <r_i_docking_score>
-7.51163897527581

> <r_i_glide_ligand_efficiency>
-0.300465559011032

> <r_i_glide_ligand_efficiency_sa>
-0.878566623327638

> <r_i_glide_ligand_efficiency_ln>
-1.78048354279554

> <r_i_glide_gscore>
-7.51163897527581

> <r_i_glide_lipo>
-3.59670292814952

> <r_i_glide_hbond>
-0.227184384430574

> <r_i_glide_metal>
0

> <r_i_glide_rewards>
-2.08718316061271

> <r_i_glide_evdw>
-26.9651126861572

> <r_i_glide_ecoul>
-4.73889589309692

> <r_i_glide_erotb>
0.458521516189397

> <r_i_glide_esite>
0

> <r_i_glide_emodel>
-35.3129247119824

> <r_i_glide_energy>
-31.7040085792542

> <r_i_glide_einternal>
6.5494818687439

> <i_i_glide_confnum>
13

> <i_i_glide_posenum>
215

> <r_i_glide_eff_state_penalty>
0

> <i_f3d_flags>
0

> <s_user_duplicate_titles>
597705

> <s_m_subgroup_title>
dock_pv

> <s_m_subgroupid>
dock_pv1

> <b_m_subgroup_collapsed>
1

$$$$
245894
                    3D
 Schrodinger Suite 2021-1.
 35 36  0  0  1  0            999 V2000
    4.3430   69.6482   61.3839 C   0  0  0  0  0  0
    4.3924   68.8573   62.7084 N   0  3  0  0  0  0
    5.1482   69.7082   63.7523 C   0  0  0  0  0  0
    4.8698   69.1984   65.1746 C   0  0  0  0  0  0
    3.4741   69.0555   65.4489 O   0  0  0  0  0  0
    2.7444   68.1956   64.6088 C   0  0  2  0  0  0
    2.9230   68.6201   63.1361 C   0  0  0  0  0  0
    1.2618   68.2777   65.0658 C   0  0  0  0  0  0
    0.2060   68.4222   64.1541 C   0  0  0  0  0  0
   -1.1045   68.5081   64.6031 C   0  0  0  0  0  0
   -1.3938   68.4466   65.9683 C   0  0  0  0  0  0
   -0.3435   68.3081   66.8835 C   0  0  0  0  0  0
    0.9700   68.2239   66.4347 C   0  0  0  0  0  0
   -2.7953   68.4986   66.4324 N   0  3  0  0  0  0
   -3.6569   68.9073   65.6595 O   0  5  0  0  0  0
   -3.0323   68.1080   67.5680 O   0  0  0  0  0  0
    3.1456   66.8921   64.7387 O   0  0  0  0  0  0
    5.1429   67.5284   62.4518 C   0  0  0  0  0  0
    3.9455   68.9887   60.6101 H   0  0  0  0  0  0
    3.6975   70.5079   61.5117 H   0  0  0  0  0  0
    5.3643   69.9559   61.1538 H   0  0  0  0  0  0
    4.7755   70.7289   63.6531 H   0  0  0  0  0  0
    6.2099   69.7063   63.4991 H   0  0  0  0  0  0
    5.2656   69.9196   65.8911 H   0  0  0  0  0  0
    5.3990   68.2704   65.3932 H   0  0  0  0  0  0
    2.4172   69.5807   63.0180 H   0  0  0  0  0  0
    2.4853   67.8924   62.4511 H   0  0  0  0  0  0
    0.3682   68.4585   63.0885 H   0  0  0  0  0  0
   -1.9003   68.6134   63.8793 H   0  0  0  0  0  0
   -0.5379   68.2668   67.9472 H   0  0  0  0  0  0
    1.7639   68.1283   67.1611 H   0  0  0  0  0  0
    3.0454   66.6665   65.6664 H   0  0  0  0  0  0
    4.5588   66.9487   61.7369 H   0  0  0  0  0  0
    6.1202   67.7756   62.0299 H   0  0  0  0  0  0
    5.2517   66.9976   63.3940 H   0  0  0  0  0  0
  1  2  1  0  0  0
  1 19  1  0  0  0
  1 20  1  0  0  0
  1 21  1  0  0  0
  2  7  1  0  0  0
  2  3  1  0  0  0
  2 18  1  0  0  0
  3  4  1  0  0  0
  3 22  1  0  0  0
  3 23  1  0  0  0
  4  5  1  0  0  0
  4 24  1  0  0  0
  4 25  1  0  0  0
  5  6  1  0  0  0
  6  7  1  0  0  0
  6  8  1  0  0  0
  6 17  1  0  0  0
  7 26  1  0  0  0
  7 27  1  0  0  0
  8 13  1  0  0  0
  8  9  2  0  0  0
  9 10  1  0  0  0
  9 28  1  0  0  0
 10 11  2  0  0  0
 10 29  1  0  0  0
 11 12  1  0  0  0
 11 14  1  0  0  0
 12 13  2  0  0  0
 12 30  1  0  0  0
 13 31  1  0  0  0
 14 15  1  0  0  0
 14 16  2  0  0  0
 17 32  1  0  0  0
 18 33  1  0  0  0
 18 34  1  0  0  0
 18 35  1  0  0  0
M  CHG  3   2   1  14   1  15  -1
M  END
> <s_m_entry_id>
9757

> <s_m_entry_name>
ligand_docking-pose.199

> <s_m_Source_Path>
/home/csk/Desktop/cluster/DUD-E-result/aces

> <s_m_Source_File>
ligand_docking-pose.sdf

> <i_m_Source_File_Index>
199

> <i_lp_mmshare_version>
53161

> <r_lp_tautomer_probability>
1

> <s_lp_Force_Field>
OPLS_2005

> <r_lp_Energy>
29.916785

> <b_lp_Chiralities_Consistent>
1

> <s_lp_Variant>
245894-1

> <s_i_glide_gridfile>
glide-grid_1e66

> <i_i_glide_lignum>
1682

> <i_i_glide_rotatable_bonds>
3

> <r_i_docking_score>
-7.5096275120561

> <r_i_glide_ligand_efficiency>
-0.417201528447561

> <r_i_glide_ligand_efficiency_sa>
-1.09337731427632

> <r_i_glide_ligand_efficiency_ln>
-1.93031102922595

> <r_i_glide_gscore>
-7.5096275120561

> <r_i_glide_lipo>
-2.05486447429167

> <r_i_glide_hbond>
0

> <r_i_glide_metal>
0

> <r_i_glide_rewards>
-3.60992632548607

> <r_i_glide_evdw>
-35.4913635253906

> <r_i_glide_ecoul>
-2.29391312599182

> <r_i_glide_erotb>
0.273818432889948

> <r_i_glide_esite>
0

> <r_i_glide_emodel>
-58.1379113179361

> <r_i_glide_energy>
-37.7852766513824

> <r_i_glide_einternal>
1.13771605491638

> <i_i_glide_confnum>
2

> <i_i_glide_posenum>
315

> <r_i_glide_eff_state_penalty>
0

> <i_f3d_flags>
0

> <s_user_duplicate_titles>
245894

> <s_m_subgroup_title>
dock_pv

> <s_m_subgroupid>
dock_pv1

> <b_m_subgroup_collapsed>
1

$$$$
630280
                    3D
 Schrodinger Suite 2021-1.
 57 60  0  0  1  0            999 V2000
    2.6028   62.5170   70.0878 C   0  0  0  0  0  0
    1.2129   62.4881   70.1860 C   0  0  0  0  0  0
    0.5058   63.6746   70.3703 C   0  0  0  0  0  0
    1.1913   64.8883   70.4739 C   0  0  0  0  0  0
    2.5870   64.9067   70.3675 C   0  0  0  0  0  0
    3.2938   63.7226   70.1765 C   0  0  0  0  0  0
    0.4157   66.1990   70.6490 C   0  0  0  0  0  0
    0.0454   66.9077   69.4190 N   0  0  1  0  0  0
    1.2033   67.5963   68.8414 C   0  0  0  0  0  0
    1.0003   68.1335   67.4207 C   0  0  0  0  0  0
    0.4219   67.0129   66.5521 C   0  0  0  0  0  0
   -0.9844   66.7963   67.1150 C   0  0  0  0  0  0
   -0.8641   66.1776   68.5252 C   0  0  0  0  0  0
    0.5057   67.3086   65.0585 C   0  0  0  0  0  0
   -0.3901   68.4697   64.5316 C   0  0  0  0  0  0
    0.0058   69.0479   63.1583 C   0  0  0  0  0  0
   -0.8570   69.3953   62.3683 O   0  0  0  0  0  0
    1.4344   69.1157   62.8060 C   0  0  0  0  0  0
    1.8744   69.0005   61.4859 C   0  0  0  0  0  0
    3.2390   69.0340   61.2120 C   0  0  0  0  0  0
    4.1518   69.1879   62.2560 C   0  0  0  0  0  0
    3.7116   69.3043   63.5873 C   0  0  0  0  0  0
    2.3577   69.3418   63.8188 C   0  0  0  0  0  0
    4.6450   69.3130   64.7817 C   0  0  0  0  0  0
    6.0914   69.3528   64.3305 C   0  0  0  0  0  0
    6.3426   68.5436   63.0423 C   0  0  0  0  0  0
    5.5131   69.0659   61.9681 N   0  0  0  0  0  0
    3.1475   61.5949   69.9443 H   0  0  0  0  0  0
    0.6865   61.5483   70.1182 H   0  0  0  0  0  0
   -0.5722   63.6477   70.4354 H   0  0  0  0  0  0
    3.1293   65.8382   70.4446 H   0  0  0  0  0  0
    4.3714   63.7427   70.1016 H   0  0  0  0  0  0
    1.0616   66.8949   71.1680 H   0  0  0  0  0  0
   -0.4568   66.0372   71.2763 H   0  0  0  0  0  0
    1.9430   66.8141   68.7746 H   0  0  0  0  0  0
    1.5887   68.3556   69.5230 H   0  0  0  0  0  0
    1.9779   68.4331   67.0428 H   0  0  0  0  0  0
    0.4196   69.0568   67.3858 H   0  0  0  0  0  0
    1.0134   66.1101   66.6943 H   0  0  0  0  0  0
   -1.6100   67.6899   67.0827 H   0  0  0  0  0  0
   -1.5234   66.1071   66.4694 H   0  0  0  0  0  0
   -0.4574   65.1757   68.3988 H   0  0  0  0  0  0
   -1.8286   66.1077   69.0218 H   0  0  0  0  0  0
    0.3438   66.4073   64.4905 H   0  0  0  0  0  0
    1.5665   67.4072   64.8826 H   0  0  0  0  0  0
   -0.3783   69.2955   65.2403 H   0  0  0  0  0  0
   -1.4255   68.1308   64.4871 H   0  0  0  0  0  0
    1.1725   68.8584   60.6747 H   0  0  0  0  0  0
    3.5892   68.9102   60.1969 H   0  0  0  0  0  0
    2.0383   69.4985   64.8402 H   0  0  0  0  0  0
    4.4752   68.4049   65.3619 H   0  0  0  0  0  0
    4.4289   70.1516   65.4441 H   0  0  0  0  0  0
    6.3433   70.3975   64.1484 H   0  0  0  0  0  0
    6.7410   69.0096   65.1384 H   0  0  0  0  0  0
    7.3910   68.5084   62.7499 H   0  0  0  0  0  0
    5.9817   67.5219   63.1688 H   0  0  0  0  0  0
    5.7819   68.7389   61.0342 H   0  0  0  0  0  0
  1  6  1  0  0  0
  1  2  2  0  0  0
  1 28  1  0  0  0
  2  3  1  0  0  0
  2 29  1  0  0  0
  3  4  2  0  0  0
  3 30  1  0  0  0
  4  5  1  0  0  0
  4  7  1  0  0  0
  5  6  2  0  0  0
  5 31  1  0  0  0
  6 32  1  0  0  0
  7  8  1  0  0  0
  7 33  1  0  0  0
  7 34  1  0  0  0
  8 13  1  0  0  0
  8  9  1  0  0  0
  9 10  1  0  0  0
  9 35  1  0  0  0
  9 36  1  0  0  0
 10 11  1  0  0  0
 10 37  1  0  0  0
 10 38  1  0  0  0
 11 12  1  0  0  0
 11 14  1  0  0  0
 11 39  1  0  0  0
 12 13  1  0  0  0
 12 40  1  0  0  0
 12 41  1  0  0  0
 13 42  1  0  0  0
 13 43  1  0  0  0
 14 15  1  0  0  0
 14 44  1  0  0  0
 14 45  1  0  0  0
 15 16  1  0  0  0
 15 46  1  0  0  0
 15 47  1  0  0  0
 16 17  2  0  0  0
 16 18  1  0  0  0
 18 23  1  0  0  0
 18 19  2  0  0  0
 19 20  1  0  0  0
 19 48  1  0  0  0
 20 21  2  0  0  0
 20 49  1  0  0  0
 21 27  1  0  0  0
 21 22  1  0  0  0
 22 23  2  0  0  0
 22 24  1  0  0  0
 23 50  1  0  0  0
 24 25  1  0  0  0
 24 51  1  0  0  0
 24 52  1  0  0  0
 25 26  1  0  0  0
 25 53  1  0  0  0
 25 54  1  0  0  0
 26 27  1  0  0  0
 26 55  1  0  0  0
 26 56  1  0  0  0
 27 57  1  0  0  0
M  END
> <s_m_entry_id>
9759

> <s_m_entry_name>
ligand_docking-pose.201

> <s_m_Source_Path>
/home/csk/Desktop/cluster/DUD-E-result/aces

> <s_m_Source_File>
ligand_docking-pose.sdf

> <i_m_Source_File_Index>
201

> <i_lp_mmshare_version>
53161

> <r_lp_tautomer_probability>
0.99990000499975

> <s_lp_Force_Field>
OPLS_2005

> <r_lp_Energy>
36.432378

> <b_lp_Chiralities_Consistent>
1

> <s_lp_Variant>
630280-1

> <s_i_glide_gridfile>
glide-grid_1e66

> <i_i_glide_lignum>
356

> <i_i_glide_rotatable_bonds>
6

> <r_i_docking_score>
-7.50283817368971

> <r_i_glide_ligand_efficiency>
-0.277882895321841

> <r_i_glide_ligand_efficiency_sa>
-0.833648685049667

> <r_i_glide_ligand_efficiency_ln>
-1.74653703288046

> <r_i_glide_gscore>
-7.50283817368971

> <r_i_glide_lipo>
-4.25275418570536

> <r_i_glide_hbond>
-0.16

> <r_i_glide_metal>
0

> <r_i_glide_rewards>
-1.88563537454711

> <r_i_glide_evdw>
-29.1211051940918

> <r_i_glide_ecoul>
-3.04551386833191

> <r_i_glide_erotb>
0.730633652655319

> <r_i_glide_esite>
-0.0221999261381814

> <r_i_glide_emodel>
-43.3508377415272

> <r_i_glide_energy>
-32.1666190624237

> <r_i_glide_einternal>
13.7237815856934

> <i_i_glide_confnum>
4

> <i_i_glide_posenum>
211

> <r_i_glide_eff_state_penalty>
0

> <i_f3d_flags>
0

> <s_user_duplicate_titles>
630280

> <s_m_subgroup_title>
dock_pv

> <s_m_subgroupid>
dock_pv1

> <b_m_subgroup_collapsed>
1

$$$$
630327
                    3D
 Schrodinger Suite 2021-1.
 66 69  0  0  1  0            999 V2000
   -2.7036   60.1098   74.0847 C   0  0  0  0  0  0
   -2.2814   61.4108   73.5660 N   0  0  0  0  0  0
   -1.0035   61.7053   73.1091 C   0  0  0  0  0  0
   -0.6522   62.8383   72.7729 O   0  0  0  0  0  0
   -0.2047   60.5889   73.0831 O   0  0  0  0  0  0
    1.1061   60.6498   72.6550 C   0  0  0  0  0  0
    2.0886   60.0408   73.4396 C   0  0  0  0  0  0
    3.4310   60.0991   73.0650 C   0  0  0  0  0  0
    3.8005   60.7690   71.8989 C   0  0  0  0  0  0
    2.8243   61.3535   71.0858 C   0  0  0  0  0  0
    1.4826   61.2814   71.4611 C   0  0  0  0  0  0
    3.2256   62.1689   69.8681 C   0  0  0  0  0  0
    3.7788   63.4741   70.2495 N   0  0  1  0  0  0
    4.4991   64.0873   69.1435 C   0  0  0  0  0  0
    2.8304   64.4180   70.8572 C   0  0  0  0  0  0
    1.6110   64.7900   69.9814 C   0  0  0  0  0  0
    0.8622   66.0385   70.4707 C   0  0  0  0  0  0
   -0.4570   66.1081   69.9342 O   0  0  0  0  0  0
   -0.7046   66.6221   68.6783 C   0  0  0  0  0  0
   -2.0472   66.9080   68.3680 C   0  0  0  0  0  0
   -2.4185   67.5451   67.1860 C   0  0  0  0  0  0
   -1.4154   67.8778   66.2922 C   0  0  0  0  0  0
   -0.1070   67.5768   66.5733 C   0  0  0  0  0  0
    0.2873   66.9650   67.7531 C   0  0  0  0  0  0
    0.7242   67.9420   65.5730 O   0  0  0  0  0  0
   -0.0224   68.5085   64.5960 C   0  0  0  0  0  0
    0.5049   68.9956   63.4582 C   0  0  0  0  0  0
    1.9397   69.0338   63.1141 C   0  0  0  0  0  0
    2.9621   68.8426   64.0602 C   0  0  0  0  0  0
    4.2970   68.8257   63.6785 C   0  0  0  0  0  0
    4.6322   69.0196   62.3412 C   0  0  0  0  0  0
    3.6321   69.3103   61.4072 C   0  0  0  0  0  0
    2.2941   69.2925   61.7893 C   0  0  0  0  0  0
    3.9430   69.6627   60.1213 O   0  0  0  0  0  0
    5.9434   68.9096   61.9681 O   0  0  0  0  0  0
    5.2742   68.6227   64.6196 O   0  0  0  0  0  0
   -1.4315   68.5080   64.9830 C   0  0  0  0  0  0
   -2.3816   68.9080   64.3107 O   0  0  0  0  0  0
   -3.7827   60.1031   74.2430 H   0  0  0  0  0  0
   -2.2203   59.9008   75.0398 H   0  0  0  0  0  0
   -2.4600   59.3027   73.3925 H   0  0  0  0  0  0
   -2.9353   62.1819   73.6056 H   0  0  0  0  0  0
    1.8114   59.5363   74.3539 H   0  0  0  0  0  0
    4.1847   59.6410   73.6883 H   0  0  0  0  0  0
    4.8451   60.8466   71.6351 H   0  0  0  0  0  0
    0.7288   61.7449   70.8424 H   0  0  0  0  0  0
    3.9792   61.5886   69.3337 H   0  0  0  0  0  0
    2.3832   62.2964   69.1861 H   0  0  0  0  0  0
    5.1247   64.9065   69.5006 H   0  0  0  0  0  0
    5.1431   63.3448   68.6904 H   0  0  0  0  0  0
    3.8487   64.4606   68.3547 H   0  0  0  0  0  0
    2.4754   63.9875   71.7947 H   0  0  0  0  0  0
    3.3633   65.3176   71.1679 H   0  0  0  0  0  0
    1.8761   64.8852   68.9350 H   0  0  0  0  0  0
    0.8978   63.9679   70.0387 H   0  0  0  0  0  0
    0.7411   65.9821   71.5537 H   0  0  0  0  0  0
    1.4282   66.9526   70.2798 H   0  0  0  0  0  0
   -2.8113   66.7028   69.1005 H   0  0  0  0  0  0
   -3.4556   67.7751   66.9876 H   0  0  0  0  0  0
    1.3298   66.7792   67.9413 H   0  0  0  0  0  0
   -0.1724   69.4231   62.7302 H   0  0  0  0  0  0
    2.7628   68.7135   65.1103 H   0  0  0  0  0  0
    1.5340   69.4919   61.0468 H   0  0  0  0  0  0
    4.8048   69.3083   59.8339 H   0  0  0  0  0  0
    6.0914   68.7113   61.0235 H   0  0  0  0  0  0
    6.1275   68.9081   64.2763 H   0  0  0  0  0  0
  1  2  1  0  0  0
  1 39  1  0  0  0
  1 40  1  0  0  0
  1 41  1  0  0  0
  2  3  1  0  0  0
  2 42  1  0  0  0
  3  4  2  0  0  0
  3  5  1  0  0  0
  5  6  1  0  0  0
  6 11  1  0  0  0
  6  7  2  0  0  0
  7  8  1  0  0  0
  7 43  1  0  0  0
  8  9  2  0  0  0
  8 44  1  0  0  0
  9 10  1  0  0  0
  9 45  1  0  0  0
 10 11  2  0  0  0
 10 12  1  0  0  0
 11 46  1  0  0  0
 12 13  1  0  0  0
 12 47  1  0  0  0
 12 48  1  0  0  0
 13 14  1  0  0  0
 13 15  1  0  0  0
 14 49  1  0  0  0
 14 50  1  0  0  0
 14 51  1  0  0  0
 15 16  1  0  0  0
 15 52  1  0  0  0
 15 53  1  0  0  0
 16 17  1  0  0  0
 16 54  1  0  0  0
 16 55  1  0  0  0
 17 18  1  0  0  0
 17 56  1  0  0  0
 17 57  1  0  0  0
 18 19  1  0  0  0
 19 24  1  0  0  0
 19 20  2  0  0  0
 20 21  1  0  0  0
 20 58  1  0  0  0
 21 22  2  0  0  0
 21 59  1  0  0  0
 22 37  1  0  0  0
 22 23  1  0  0  0
 23 24  2  0  0  0
 23 25  1  0  0  0
 24 60  1  0  0  0
 25 26  1  0  0  0
 26 27  2  0  0  0
 26 37  1  0  0  0
 27 28  1  0  0  0
 27 61  1  0  0  0
 28 33  1  0  0  0
 28 29  2  0  0  0
 29 30  1  0  0  0
 29 62  1  0  0  0
 30 31  2  0  0  0
 30 36  1  0  0  0
 31 32  1  0  0  0
 31 35  1  0  0  0
 32 33  2  0  0  0
 32 34  1  0  0  0
 33 63  1  0  0  0
 34 64  1  0  0  0
 35 65  1  0  0  0
 36 66  1  0  0  0
 37 38  2  0  0  0
M  END
> <s_m_entry_id>
9761

> <s_m_entry_name>
ligand_docking-pose.203

> <s_m_Source_Path>
/home/csk/Desktop/cluster/DUD-E-result/aces

> <s_m_Source_File>
ligand_docking-pose.sdf

> <i_m_Source_File_Index>
203

> <i_lp_mmshare_version>
53161

> <r_lp_tautomer_probability>
1

> <s_lp_Force_Field>
OPLS_2005

> <r_lp_Energy>
45.587133

> <b_lp_Chiralities_Consistent>
1

> <s_lp_Variant>
630327-1

> <s_i_glide_gridfile>
glide-grid_1e66

> <i_i_glide_lignum>
1888

> <i_i_glide_rotatable_bonds>
14

> <r_i_docking_score>
-7.50093619698325

> <r_i_glide_ligand_efficiency>
-0.197393057815349

> <r_i_glide_ligand_efficiency_sa>
-0.663630605043377

> <r_i_glide_ligand_efficiency_ln>
-1.61742249925677

> <r_i_glide_gscore>
-7.50093619698325

> <r_i_glide_lipo>
-4.59488435858405

> <r_i_glide_hbond>
-0.10981345585412

> <r_i_glide_metal>
0

> <r_i_glide_rewards>
0.592432195519073

> <r_i_glide_evdw>
-40.4655151367188

> <r_i_glide_ecoul>
-14.15931224823

> <r_i_glide_erotb>
0.758502016006285

> <r_i_glide_esite>
0

> <r_i_glide_emodel>
-64.4959984254111

> <r_i_glide_energy>
-54.6248273849487

> <r_i_glide_einternal>
15.3372869491577

> <i_i_glide_confnum>
51

> <i_i_glide_posenum>
164

> <r_i_glide_eff_state_penalty>
0

> <i_f3d_flags>
0

> <s_user_duplicate_titles>
630327

> <s_m_subgroup_title>
dock_pv

> <s_m_subgroupid>
dock_pv1

> <b_m_subgroup_collapsed>
1

$$$$
199355
                    3D
 Schrodinger Suite 2021-1.
 53 55  0  0  1  0            999 V2000
    5.6639   68.5113   65.5681 C   0  0  0  0  0  0
    5.6278   69.5839   64.5040 C   0  0  0  0  0  0
    5.2083   69.4084   63.2286 C   0  0  0  0  0  0
    4.5978   68.1663   62.5665 C   0  0  0  0  0  0
    3.8345   67.2573   63.4578 N   0  0  0  0  0  0
    4.3430   65.9782   63.5729 C   0  0  0  0  0  0
    5.0805   65.4102   62.7680 O   0  0  0  0  0  0
    3.9180   65.2637   64.7620 C   0  0  0  0  0  0
    2.9124   65.7048   65.5355 C   0  0  0  0  0  0
    2.1553   66.8917   65.1871 C   0  0  0  0  0  0
    2.6658   67.6278   64.1491 C   0  0  0  0  0  0
    1.9072   68.8622   63.6404 C   0  0  0  0  0  0
    0.3943   68.7210   63.8983 C   0  0  0  0  0  0
    0.1348   68.4622   65.3888 C   0  0  0  0  0  0
    0.8235   67.1809   65.9050 C   0  0  2  0  0  0
    0.9995   67.1600   67.3594 N   0  0  2  0  0  0
   -0.1804   66.7002   68.0899 C   0  0  0  0  0  0
    0.0970   66.5884   69.6068 C   0  0  0  0  0  0
    0.9512   65.3988   70.0467 C   0  0  0  0  0  0
    2.3023   65.5799   70.3512 C   0  0  0  0  0  0
    3.0947   64.5022   70.7439 C   0  0  0  0  0  0
    2.5359   63.2347   70.8859 C   0  0  0  0  0  0
    1.1724   63.0491   70.6207 C   0  0  0  0  0  0
    0.3900   64.1257   70.1898 C   0  0  0  0  0  0
    0.4332   61.5047   70.8345 Cl  0  0  0  0  0  0
    3.5520   61.9317   71.3979 Cl  0  0  0  0  0  0
    6.1591   70.9065   65.0136 C   0  0  0  0  0  0
    6.4544   68.7044   66.2959 H   0  0  0  0  0  0
    5.8632   67.5230   65.1648 H   0  0  0  0  0  0
    4.7148   68.5080   66.1034 H   0  0  0  0  0  0
    5.2899   70.2549   62.5606 H   0  0  0  0  0  0
    3.9336   68.5102   61.7749 H   0  0  0  0  0  0
    5.4086   67.6758   62.0240 H   0  0  0  0  0  0
    4.4934   64.4015   65.0621 H   0  0  0  0  0  0
    2.7431   65.2389   66.4876 H   0  0  0  0  0  0
    2.3386   69.7856   64.0310 H   0  0  0  0  0  0
    1.9889   68.9351   62.5554 H   0  0  0  0  0  0
   -0.1360   69.6117   63.5582 H   0  0  0  0  0  0
   -0.0114   67.8945   63.3117 H   0  0  0  0  0  0
    0.5001   69.3091   65.9656 H   0  0  0  0  0  0
   -0.9378   68.4082   65.5783 H   0  0  0  0  0  0
    0.1927   66.3338   65.6300 H   0  0  0  0  0  0
    1.2902   68.0716   67.6851 H   0  0  0  0  0  0
   -1.0445   67.3428   67.9107 H   0  0  0  0  0  0
   -0.4528   65.7114   67.7225 H   0  0  0  0  0  0
    0.5386   67.5167   69.9697 H   0  0  0  0  0  0
   -0.8562   66.5139   70.1292 H   0  0  0  0  0  0
    2.7443   66.5616   70.2717 H   0  0  0  0  0  0
    4.1405   64.6612   70.9609 H   0  0  0  0  0  0
   -0.6563   63.9667   69.9718 H   0  0  0  0  0  0
    7.0881   70.7837   65.5685 H   0  0  0  0  0  0
    6.3474   71.6280   64.2195 H   0  0  0  0  0  0
    5.4320   71.3068   65.7159 H   0  0  0  0  0  0
  1  2  1  0  0  0
  1 28  1  0  0  0
  1 29  1  0  0  0
  1 30  1  0  0  0
  2  3  2  3  0  0
  2 27  1  0  0  0
  3  4  1  0  0  0
  3 31  1  0  0  0
  4  5  1  0  0  0
  4 32  1  0  0  0
  4 33  1  0  0  0
  5 11  1  0  0  0
  5  6  1  0  0  0
  6  7  2  0  0  0
  6  8  1  0  0  0
  8  9  2  0  0  0
  8 34  1  0  0  0
  9 10  1  0  0  0
  9 35  1  0  0  0
 10 15  1  0  0  0
 10 11  2  0  0  0
 11 12  1  0  0  0
 12 13  1  0  0  0
 12 36  1  0  0  0
 12 37  1  0  0  0
 13 14  1  0  0  0
 13 38  1  0  0  0
 13 39  1  0  0  0
 14 15  1  0  0  0
 14 40  1  0  0  0
 14 41  1  0  0  0
 15 16  1  0  0  0
 15 42  1  0  0  0
 16 17  1  0  0  0
 16 43  1  0  0  0
 17 18  1  0  0  0
 17 44  1  0  0  0
 17 45  1  0  0  0
 18 19  1  0  0  0
 18 46  1  0  0  0
 18 47  1  0  0  0
 19 24  1  0  0  0
 19 20  2  0  0  0
 20 21  1  0  0  0
 20 48  1  0  0  0
 21 22  2  0  0  0
 21 49  1  0  0  0
 22 23  1  0  0  0
 22 26  1  0  0  0
 23 24  2  0  0  0
 23 25  1  0  0  0
 24 50  1  0  0  0
 27 51  1  0  0  0
 27 52  1  0  0  0
 27 53  1  0  0  0
M  END
> <s_m_entry_id>
9762

> <s_m_entry_name>
ligand_docking-pose.204

> <s_m_Source_Path>
/home/csk/Desktop/cluster/DUD-E-result/aces

> <s_m_Source_File>
ligand_docking-pose.sdf

> <i_m_Source_File_Index>
204

> <i_lp_mmshare_version>
53161

> <r_lp_tautomer_probability>
1

> <s_lp_Force_Field>
OPLS_2005

> <r_lp_Energy>
33.931116

> <b_lp_Chiralities_Consistent>
1

> <s_lp_Variant>
199355-2

> <s_i_glide_gridfile>
glide-grid_1e66

> <i_i_glide_lignum>
1096

> <i_i_glide_rotatable_bonds>
6

> <r_i_docking_score>
-7.49580807686194

> <r_i_glide_ligand_efficiency>
-0.277622521365257

> <r_i_glide_ligand_efficiency_sa>
-0.832867563180773

> <r_i_glide_ligand_efficiency_ln>
-1.74490054223916

> <r_i_glide_gscore>
-7.49580807686194

> <r_i_glide_lipo>
-3.44550342864868

> <r_i_glide_hbond>
-0.341746386971668

> <r_i_glide_metal>
0

> <r_i_glide_rewards>
-1.60112112331427

> <r_i_glide_evdw>
-31.8485431671143

> <r_i_glide_ecoul>
-7.42000293731689

> <r_i_glide_erotb>
0.597990461025929

> <r_i_glide_esite>
0

> <r_i_glide_emodel>
-53.0307537142907

> <r_i_glide_energy>
-39.2685461044312

> <r_i_glide_einternal>
5.62863826751709

> <i_i_glide_confnum>
32

> <i_i_glide_posenum>
377

> <r_i_glide_eff_state_penalty>
0

> <i_f3d_flags>
0

> <s_user_duplicate_titles>
199355

> <s_m_subgroup_title>
dock_pv

> <s_m_subgroupid>
dock_pv1

> <b_m_subgroup_collapsed>
1

$$$$
591765
                    3D
 Schrodinger Suite 2021-1.
 49 51  0  0  1  0            999 V2000
   -0.0397   68.2868   62.5399 C   0  0  0  0  0  0
    1.2088   68.4918   63.1915 O   0  0  0  0  0  0
    1.2597   68.4843   64.5752 C   0  0  0  0  0  0
    0.1906   68.0774   65.3893 C   0  0  0  0  0  0
    0.2891   68.0750   66.7875 C   0  0  0  0  0  0
    1.4307   68.6468   67.3775 C   0  0  0  0  0  0
    2.5014   69.0298   66.5753 C   0  0  0  0  0  0
    2.4494   68.9123   65.1780 C   0  0  0  0  0  0
    3.5000   69.2539   64.3450 O   0  0  0  0  0  0
    4.7349   69.6860   64.9083 C   0  0  0  0  0  0
    1.5831   68.8192   68.7347 O   0  0  0  0  0  0
   -0.8442   67.4733   67.5682 C   0  0  0  0  0  0
   -2.0105   67.6719   67.2275 O   0  0  0  0  0  0
   -0.6041   66.4781   68.6328 C   0  0  0  0  0  0
    0.6000   65.9439   68.9378 C   0  0  0  0  0  0
    0.9060   64.8645   69.9015 C   0  0  0  0  0  0
   -0.0309   63.8858   70.2454 C   0  0  0  0  0  0
    0.3419   62.8093   71.0461 C   0  0  0  0  0  0
    1.6586   62.6805   71.5082 C   0  0  0  0  0  0
    2.5858   63.6729   71.1679 C   0  0  0  0  0  0
    2.2147   64.7537   70.3734 C   0  0  0  0  0  0
    2.0485   61.5649   72.2716 N   0  0  0  0  0  0
    1.2030   60.4252   72.6407 C   0  0  0  0  0  0
    2.1122   59.3191   73.1761 C   0  0  0  0  0  0
    3.2823   60.0936   73.7426 C   0  0  0  0  0  0
    3.3918   61.2739   72.7817 C   0  0  0  0  0  0
    0.1078   68.3402   61.4616 H   0  0  0  0  0  0
   -0.7668   69.0524   62.8162 H   0  0  0  0  0  0
   -0.4573   67.3086   62.7680 H   0  0  0  0  0  0
   -0.7175   67.7081   64.9345 H   0  0  0  0  0  0
    3.3831   69.4171   67.0633 H   0  0  0  0  0  0
    5.4387   69.9138   64.1076 H   0  0  0  0  0  0
    4.6138   70.5902   65.5049 H   0  0  0  0  0  0
    5.1814   68.9093   65.5310 H   0  0  0  0  0  0
    0.8113   69.0907   69.2519 H   0  0  0  0  0  0
   -1.4852   66.1567   69.1650 H   0  0  0  0  0  0
    1.4681   66.2702   68.3884 H   0  0  0  0  0  0
   -1.0299   63.9191   69.8417 H   0  0  0  0  0  0
   -0.3991   62.0589   71.2756 H   0  0  0  0  0  0
    3.6099   63.6075   71.5034 H   0  0  0  0  0  0
    2.9596   65.4926   70.1115 H   0  0  0  0  0  0
    0.4503   60.7100   73.3783 H   0  0  0  0  0  0
    0.7013   60.0501   71.7472 H   0  0  0  0  0  0
    1.6163   58.7114   73.9330 H   0  0  0  0  0  0
    2.4229   58.6479   72.3733 H   0  0  0  0  0  0
    4.1979   59.5007   73.7730 H   0  0  0  0  0  0
    3.0875   60.4436   74.7584 H   0  0  0  0  0  0
    4.0883   61.0664   71.9682 H   0  0  0  0  0  0
    3.7588   62.1354   73.3376 H   0  0  0  0  0  0
  1  2  1  0  0  0
  1 27  1  0  0  0
  1 28  1  0  0  0
  1 29  1  0  0  0
  2  3  1  0  0  0
  3  8  1  0  0  0
  3  4  2  0  0  0
  4  5  1  0  0  0
  4 30  1  0  0  0
  5  6  2  0  0  0
  5 12  1  0  0  0
  6  7  1  0  0  0
  6 11  1  0  0  0
  7  8  2  0  0  0
  7 31  1  0  0  0
  8  9  1  0  0  0
  9 10  1  0  0  0
 10 32  1  0  0  0
 10 33  1  0  0  0
 10 34  1  0  0  0
 11 35  1  0  0  0
 12 13  2  0  0  0
 12 14  1  0  0  0
 14 15  2  0  0  0
 14 36  1  0  0  0
 15 16  1  0  0  0
 15 37  1  0  0  0
 16 21  1  0  0  0
 16 17  2  0  0  0
 17 18  1  0  0  0
 17 38  1  0  0  0
 18 19  2  0  0  0
 18 39  1  0  0  0
 19 20  1  0  0  0
 19 22  1  0  0  0
 20 21  2  0  0  0
 20 40  1  0  0  0
 21 41  1  0  0  0
 22 26  1  0  0  0
 22 23  1  0  0  0
 23 24  1  0  0  0
 23 42  1  0  0  0
 23 43  1  0  0  0
 24 25  1  0  0  0
 24 44  1  0  0  0
 24 45  1  0  0  0
 25 26  1  0  0  0
 25 46  1  0  0  0
 25 47  1  0  0  0
 26 48  1  0  0  0
 26 49  1  0  0  0
M  END
> <s_m_entry_id>
9763

> <s_m_entry_name>
ligand_docking-pose.205

> <s_m_Source_Path>
/home/csk/Desktop/cluster/DUD-E-result/aces

> <s_m_Source_File>
ligand_docking-pose.sdf

> <i_m_Source_File_Index>
205

> <i_lp_mmshare_version>
53161

> <r_lp_tautomer_probability>
1

> <s_lp_Force_Field>
OPLS_2005

> <r_lp_Energy>
50.381388

> <b_lp_Chiralities_Consistent>
1

> <s_lp_Variant>
591765-1

> <s_i_glide_gridfile>
glide-grid_1e66

> <i_i_glide_lignum>
2146

> <i_i_glide_rotatable_bonds>
7

> <r_i_docking_score>
-7.49036800799376

> <r_i_glide_ligand_efficiency>
-0.288091077230529

> <r_i_glide_ligand_efficiency_sa>
-0.853468682711793

> <r_i_glide_ligand_efficiency_ln>
-1.75908834877524

> <r_i_glide_gscore>
-7.49036800799376

> <r_i_glide_lipo>
-3.5413966119503

> <r_i_glide_hbond>
-0.127150025604461

> <r_i_glide_metal>
0

> <r_i_glide_rewards>
-2.08661056663583

> <r_i_glide_evdw>
-37.7097320556641

> <r_i_glide_ecoul>
-3.075355052948

> <r_i_glide_erotb>
0.611579056922231

> <r_i_glide_esite>
0

> <r_i_glide_emodel>
-55.7651161244152

> <r_i_glide_energy>
-40.7850871086121

> <r_i_glide_einternal>
5.45512676239014

> <i_i_glide_confnum>
24

> <i_i_glide_posenum>
196

> <r_i_glide_eff_state_penalty>
0

> <i_f3d_flags>
0

> <s_user_duplicate_titles>
591765

> <s_m_subgroup_title>
dock_pv

> <s_m_subgroupid>
dock_pv1

> <b_m_subgroup_collapsed>
1

$$$$
55408
                    3D
 Schrodinger Suite 2021-1.
 40 43  0  0  1  0            999 V2000
   -0.1192   70.1976   61.1715 C   0  0  0  0  0  0
    0.8286   68.9928   61.3124 C   0  0  0  0  0  0
    1.2389   68.6402   62.7288 C   0  0  0  0  0  0
    2.4398   68.3499   63.2647 C   0  0  0  0  0  0
    3.8644   68.2515   62.7221 C   0  0  1  0  0  0
    4.7734   69.2471   63.4890 C   0  0  0  0  0  0
    4.4230   69.3920   64.9767 C   0  0  0  0  0  0
    3.2622   68.9015   65.5128 C   0  0  0  0  0  0
    2.9804   69.3286   66.8858 C   0  0  0  0  0  0
    3.8588   70.1053   67.5666 C   0  0  0  0  0  0
    5.1574   70.4626   67.0237 C   0  0  0  0  0  0
    5.3210   70.1221   65.7180 N   0  0  0  0  0  0
    6.0468   70.9957   67.6773 O   0  0  0  0  0  0
    2.3099   67.9748   64.7279 C   0  0  2  0  0  0
    2.7478   66.4771   64.9052 C   0  0  0  0  0  0
    3.8820   66.0194   63.9681 C   0  0  0  0  0  0
    4.3494   66.8259   62.9895 C   0  0  0  0  0  0
    4.3870   64.5968   64.1446 C   0  0  0  0  0  0
    0.9059   68.1463   65.0623 N   0  0  1  0  0  0
    0.2164   68.4891   63.8321 C   0  0  0  0  0  0
   -0.4456   70.3071   60.1365 H   0  0  0  0  0  0
   -1.0113   70.1070   61.7919 H   0  0  0  0  0  0
    0.3432   71.1349   61.4549 H   0  0  0  0  0  0
    0.3165   68.1145   60.9259 H   0  0  0  0  0  0
    1.7161   69.1334   60.6972 H   0  0  0  0  0  0
    3.9010   68.4469   61.6498 H   0  0  0  0  0  0
    5.8180   68.9435   63.3894 H   0  0  0  0  0  0
    4.7474   70.2391   63.0354 H   0  0  0  0  0  0
    2.0363   69.0728   67.3446 H   0  0  0  0  0  0
    3.6244   70.4408   68.5651 H   0  0  0  0  0  0
    6.1946   70.4296   65.3188 H   0  0  0  0  0  0
    3.0210   66.2781   65.9414 H   0  0  0  0  0  0
    1.9042   65.8039   64.7428 H   0  0  0  0  0  0
    5.1425   66.4560   62.3586 H   0  0  0  0  0  0
    4.7199   64.4183   65.1671 H   0  0  0  0  0  0
    3.5866   63.8876   63.9253 H   0  0  0  0  0  0
    5.2225   64.3753   63.4786 H   0  0  0  0  0  0
    0.5276   67.2842   65.4305 H   0  0  0  0  0  0
   -0.3660   69.3998   63.9718 H   0  0  0  0  0  0
   -0.5002   67.7083   63.5826 H   0  0  0  0  0  0
  1  2  1  0  0  0
  1 21  1  0  0  0
  1 22  1  0  0  0
  1 23  1  0  0  0
  2  3  1  0  0  0
  2 24  1  0  0  0
  2 25  1  0  0  0
  3 20  1  0  0  0
  3  4  2  0  0  0
  4 14  1  0  0  0
  4  5  1  0  0  0
  5 17  1  0  0  0
  5  6  1  0  0  0
  5 26  1  0  0  0
  6 27  1  0  0  0
  6 28  1  0  0  0
  6  7  1  0  0  0
  7 12  1  0  0  0
  7  8  2  0  0  0
  8 14  1  0  0  0
  8  9  1  0  0  0
  9 29  1  0  0  0
  9 10  2  0  0  0
 10 11  1  0  0  0
 10 30  1  0  0  0
 11 13  2  0  0  0
 11 12  1  0  0  0
 12 31  1  0  0  0
 14 15  1  0  0  0
 14 19  1  0  0  0
 15 16  1  0  0  0
 15 32  1  0  0  0
 15 33  1  0  0  0
 16 17  2  0  0  0
 16 18  1  0  0  0
 17 34  1  0  0  0
 18 35  1  0  0  0
 18 36  1  0  0  0
 18 37  1  0  0  0
 19 20  1  0  0  0
 19 38  1  0  0  0
 20 39  1  0  0  0
 20 40  1  0  0  0
M  END
> <s_m_entry_id>
9765

> <s_m_entry_name>
ligand_docking-pose.207

> <s_m_Source_Path>
/home/csk/Desktop/cluster/DUD-E-result/aces

> <s_m_Source_File>
ligand_docking-pose.sdf

> <i_m_Source_File_Index>
207

> <i_lp_mmshare_version>
53161

> <r_lp_tautomer_probability>
0.999

> <s_lp_Force_Field>
OPLS_2005

> <r_lp_Energy>
36.66439

> <b_lp_Chiralities_Consistent>
1

> <s_lp_Variant>
55408-1

> <s_i_glide_gridfile>
glide-grid_1e66

> <i_i_glide_lignum>
842

> <i_i_glide_rotatable_bonds>
1

> <r_i_docking_score>
-7.48163098777162

> <r_i_glide_ligand_efficiency>
-0.374081549388581

> <r_i_glide_ligand_efficiency_sa>
-1.01541354668951

> <r_i_glide_ligand_efficiency_ln>
-1.8724054755343

> <r_i_glide_gscore>
-7.48163098777162

> <r_i_glide_lipo>
-3.64791051002009

> <r_i_glide_hbond>
0

> <r_i_glide_metal>
0

> <r_i_glide_rewards>
-1.76274128787879

> <r_i_glide_evdw>
-34.264461517334

> <r_i_glide_ecoul>
-2.38504076004028

> <r_i_glide_erotb>
0

> <r_i_glide_esite>
0

> <r_i_glide_emodel>
-51.5656111374698

> <r_i_glide_energy>
-36.6495022773743

> <r_i_glide_einternal>
0.521582067012787

> <i_i_glide_confnum>
1

> <i_i_glide_posenum>
79

> <r_i_glide_eff_state_penalty>
0

> <i_f3d_flags>
0

> <s_user_duplicate_titles>
55408

> <s_m_subgroup_title>
dock_pv

> <s_m_subgroupid>
dock_pv1

> <b_m_subgroup_collapsed>
1

$$$$
233521
                    3D
 Schrodinger Suite 2021-1.
 54 57  0  0  1  0            999 V2000
    2.8515   61.7074   69.8438 C   0  0  0  0  0  0
    3.7180   62.7760   69.6238 C   0  0  0  0  0  0
    3.2649   64.0783   69.8091 C   0  0  0  0  0  0
    1.9518   64.3111   70.2285 C   0  0  0  0  0  0
    1.0791   63.2373   70.4226 C   0  0  0  0  0  0
    1.5351   61.9334   70.2415 C   0  0  0  0  0  0
    1.4661   65.7435   70.3963 C   0  0  0  0  0  0
    1.0092   66.3424   69.1365 N   0  0  1  0  0  0
   -0.3851   65.9930   68.8271 C   0  0  0  0  0  0
   -0.8936   66.6111   67.5010 C   0  0  0  0  0  0
   -0.5348   68.1025   67.2750 C   0  0  0  0  0  0
    0.8183   68.4926   67.9000 C   0  0  0  0  0  0
    1.1137   67.7947   69.2259 C   0  0  0  0  0  0
   -0.8128   68.6539   65.8524 C   0  0  0  0  0  0
   -0.1692   67.8958   64.6646 C   0  0  0  0  0  0
    1.0005   68.4865   63.9949 N   0  0  0  0  0  0
    2.1920   68.6991   64.8297 C   0  0  0  0  0  0
    3.5110   68.8258   64.1128 C   0  0  0  0  0  0
    4.7077   68.6621   64.8104 C   0  0  0  0  0  0
    5.9219   68.6761   64.1403 C   0  0  0  0  0  0
    5.9428   68.9012   62.7685 C   0  0  0  0  0  0
    4.7560   69.1153   62.0774 C   0  0  0  0  0  0
    3.5346   69.0476   62.7365 C   0  0  0  0  0  0
    2.2384   69.2300   61.9914 C   0  0  0  0  0  0
    0.9418   68.7586   62.6566 C   0  0  0  0  0  0
   -0.0570   68.6036   61.9679 O   0  0  0  0  0  0
    3.1993   60.6946   69.7029 H   0  0  0  0  0  0
    4.7375   62.6030   69.3134 H   0  0  0  0  0  0
    3.9361   64.9064   69.6353 H   0  0  0  0  0  0
    0.0555   63.4107   70.7218 H   0  0  0  0  0  0
    0.8654   61.1019   70.4066 H   0  0  0  0  0  0
    2.3205   66.3104   70.7679 H   0  0  0  0  0  0
    0.6857   65.7996   71.1580 H   0  0  0  0  0  0
   -1.0374   66.2939   69.6464 H   0  0  0  0  0  0
   -0.4569   64.9076   68.7681 H   0  0  0  0  0  0
   -1.9675   66.4625   67.3819 H   0  0  0  0  0  0
   -0.4558   66.0012   66.7160 H   0  0  0  0  0  0
   -1.2356   68.6154   67.9371 H   0  0  0  0  0  0
    1.6402   68.2131   67.2605 H   0  0  0  0  0  0
    0.8961   69.5757   68.0047 H   0  0  0  0  0  0
    0.3969   68.1079   69.9681 H   0  0  0  0  0  0
    2.1051   68.0996   69.5637 H   0  0  0  0  0  0
   -0.5581   69.7080   65.8215 H   0  0  0  0  0  0
   -1.8936   68.6289   65.7041 H   0  0  0  0  0  0
   -0.9620   67.7128   63.9389 H   0  0  0  0  0  0
    0.1391   66.9080   64.9899 H   0  0  0  0  0  0
    2.2976   67.7995   65.4336 H   0  0  0  0  0  0
    2.0420   69.5430   65.5038 H   0  0  0  0  0  0
    4.6944   68.4965   65.8777 H   0  0  0  0  0  0
    6.8365   68.5082   64.6879 H   0  0  0  0  0  0
    6.8809   68.9080   62.2336 H   0  0  0  0  0  0
    4.7715   69.3085   61.0158 H   0  0  0  0  0  0
    2.1084   70.2598   61.6776 H   0  0  0  0  0  0
    2.3052   68.6603   61.0639 H   0  0  0  0  0  0
  1  6  1  0  0  0
  1  2  2  0  0  0
  1 27  1  0  0  0
  2  3  1  0  0  0
  2 28  1  0  0  0
  3  4  2  0  0  0
  3 29  1  0  0  0
  4  5  1  0  0  0
  4  7  1  0  0  0
  5  6  2  0  0  0
  5 30  1  0  0  0
  6 31  1  0  0  0
  7  8  1  0  0  0
  7 32  1  0  0  0
  7 33  1  0  0  0
  8 13  1  0  0  0
  8  9  1  0  0  0
  9 10  1  0  0  0
  9 34  1  0  0  0
  9 35  1  0  0  0
 10 11  1  0  0  0
 10 36  1  0  0  0
 10 37  1  0  0  0
 11 12  1  0  0  0
 11 14  1  0  0  0
 11 38  1  0  0  0
 12 13  1  0  0  0
 12 39  1  0  0  0
 12 40  1  0  0  0
 13 41  1  0  0  0
 13 42  1  0  0  0
 14 15  1  0  0  0
 14 43  1  0  0  0
 14 44  1  0  0  0
 15 16  1  0  0  0
 15 45  1  0  0  0
 15 46  1  0  0  0
 16 25  1  0  0  0
 16 17  1  0  0  0
 17 18  1  0  0  0
 17 47  1  0  0  0
 17 48  1  0  0  0
 18 23  2  0  0  0
 18 19  1  0  0  0
 19 20  2  0  0  0
 19 49  1  0  0  0
 20 21  1  0  0  0
 20 50  1  0  0  0
 21 22  2  0  0  0
 21 51  1  0  0  0
 22 23  1  0  0  0
 22 52  1  0  0  0
 23 24  1  0  0  0
 24 25  1  0  0  0
 24 53  1  0  0  0
 24 54  1  0  0  0
 25 26  2  0  0  0
M  END
> <s_m_entry_id>
9766

> <s_m_entry_name>
ligand_docking-pose.208

> <s_m_Source_Path>
/home/csk/Desktop/cluster/DUD-E-result/aces

> <s_m_Source_File>
ligand_docking-pose.sdf

> <i_m_Source_File_Index>
208

> <i_lp_mmshare_version>
53161

> <r_lp_tautomer_probability>
1

> <s_lp_Force_Field>
OPLS_2005

> <r_lp_Energy>
32.15241

> <b_lp_Chiralities_Consistent>
1

> <s_lp_Variant>
233521-1

> <s_i_glide_gridfile>
glide-grid_1e66

> <i_i_glide_lignum>
378

> <i_i_glide_rotatable_bonds>
5

> <r_i_docking_score>
-7.48135875065538

> <r_i_glide_ligand_efficiency>
-0.287744567332899

> <r_i_glide_ligand_efficiency_sa>
-0.852442148503515

> <r_i_glide_ligand_efficiency_ln>
-1.7569725542511

> <r_i_glide_gscore>
-7.48135875065538

> <r_i_glide_lipo>
-3.58577905329621

> <r_i_glide_hbond>
0

> <r_i_glide_metal>
0

> <r_i_glide_rewards>
-2.51255338864148

> <r_i_glide_evdw>
-39.5164413452148

> <r_i_glide_ecoul>
-1.27344810962677

> <r_i_glide_erotb>
0.783812974987061

> <r_i_glide_esite>
0

> <r_i_glide_emodel>
-52.7453495615099

> <r_i_glide_energy>
-40.7898894548416

> <r_i_glide_einternal>
8.47656059265137

> <i_i_glide_confnum>
117

> <i_i_glide_posenum>
50

> <r_i_glide_eff_state_penalty>
0

> <i_f3d_flags>
0

> <s_user_duplicate_titles>
233521

> <s_m_subgroup_title>
dock_pv

> <s_m_subgroupid>
dock_pv1

> <b_m_subgroup_collapsed>
1

$$$$
374489
                    3D
 Schrodinger Suite 2021-1.
 68 72  0  0  1  0            999 V2000
    1.5361   59.1360   72.0943 C   0  0  0  0  0  0
    2.6578   58.5278   72.6505 C   0  0  0  0  0  0
    3.8887   59.1792   72.7234 C   0  0  0  0  0  0
    3.9567   60.4746   72.1992 C   0  0  0  0  0  0
    2.8182   61.1284   71.6278 C   0  0  0  0  0  0
    1.5977   60.4326   71.5861 C   0  0  0  0  0  0
    3.2336   62.4370   71.1912 C   0  0  0  0  0  0
    4.5812   62.5083   71.4945 C   0  0  0  0  0  0
    5.0108   61.3562   72.1000 N   0  0  0  0  0  0
    2.3605   63.4928   70.5211 C   0  0  0  0  0  0
    3.0441   64.3106   69.3886 C   0  0  0  0  0  0
    3.5445   63.4861   68.1883 C   0  0  0  0  0  0
    3.9430   62.3414   68.3680 O   0  0  0  0  0  0
    3.5431   64.1080   66.9808 N   0  0  0  0  0  0
    3.9430   63.6248   65.6450 C   0  0  0  0  0  0
    3.5040   64.4909   64.4321 C   0  0  0  0  0  0
    4.2286   65.8593   64.3681 C   0  0  0  0  0  0
    4.4388   66.5384   63.0028 C   0  0  0  0  0  0
    4.9451   67.9893   63.1571 C   0  0  0  0  0  0
    3.9048   68.9408   63.5503 N   0  0  0  0  0  0
    3.5945   69.1682   64.9099 C   0  0  0  0  0  0
    4.5347   69.7063   65.8507 C   0  0  0  0  0  0
    5.8920   70.0162   65.5577 C   0  0  0  0  0  0
    6.7377   70.5077   66.5463 C   0  0  0  0  0  0
    6.2633   70.7915   67.8199 C   0  0  0  0  0  0
    4.9324   70.5516   68.1329 C   0  0  0  0  0  0
    4.0652   69.9877   67.1680 C   0  0  0  0  0  0
    2.8009   69.7084   67.5592 N   0  0  0  0  0  0
    1.9427   69.1307   66.6917 C   0  0  0  0  0  0
    2.2742   68.9022   65.3365 C   0  0  0  0  0  0
    1.1859   68.4417   64.3508 C   0  0  0  0  0  0
   -0.0573   67.8535   65.0328 C   0  0  0  0  0  0
   -0.5291   68.7094   66.2109 C   0  0  0  0  0  0
    0.5769   68.7616   67.2720 C   0  0  0  0  0  0
    5.9662   61.2202   72.4040 H   0  0  0  0  0  0
    0.6010   58.5948   72.0589 H   0  0  0  0  0  0
    2.5742   57.5220   73.0384 H   0  0  0  0  0  0
    4.7419   58.6857   73.1634 H   0  0  0  0  0  0
    0.7183   60.8884   71.1558 H   0  0  0  0  0  0
    5.2773   63.3126   71.3134 H   0  0  0  0  0  0
    1.4473   63.0489   70.1205 H   0  0  0  0  0  0
    2.0138   64.1895   71.2853 H   0  0  0  0  0  0
    2.3578   65.0864   69.0452 H   0  0  0  0  0  0
    3.9124   64.8286   69.7964 H   0  0  0  0  0  0
    3.3250   65.0951   67.0140 H   0  0  0  0  0  0
    5.0256   63.7080   65.5680 H   0  0  0  0  0  0
    3.6836   62.5756   65.4994 H   0  0  0  0  0  0
    3.7300   63.9298   63.5248 H   0  0  0  0  0  0
    2.4211   64.6243   64.4290 H   0  0  0  0  0  0
    3.6987   66.5266   65.0461 H   0  0  0  0  0  0
    5.2390   65.7586   64.7677 H   0  0  0  0  0  0
    5.1767   65.9743   62.4335 H   0  0  0  0  0  0
    3.5429   66.5284   62.3956 H   0  0  0  0  0  0
    5.7536   67.9900   63.8850 H   0  0  0  0  0  0
    5.4003   68.3339   62.2269 H   0  0  0  0  0  0
    3.0970   68.9059   62.9460 H   0  0  0  0  0  0
    6.2874   69.8788   64.5639 H   0  0  0  0  0  0
    7.7692   70.7060   66.3032 H   0  0  0  0  0  0
    6.9298   71.1970   68.5674 H   0  0  0  0  0  0
    4.5593   70.7607   69.1255 H   0  0  0  0  0  0
    0.8843   69.3016   63.7503 H   0  0  0  0  0  0
    1.5793   67.7075   63.6477 H   0  0  0  0  0  0
   -0.8559   67.7567   64.2991 H   0  0  0  0  0  0
    0.1677   66.8473   65.3878 H   0  0  0  0  0  0
   -0.7996   69.7086   65.8747 H   0  0  0  0  0  0
   -1.4357   68.2831   66.6428 H   0  0  0  0  0  0
    0.2974   69.4413   68.0804 H   0  0  0  0  0  0
    0.6675   67.7766   67.7307 H   0  0  0  0  0  0
  1  6  1  0  0  0
  1  2  2  0  0  0
  1 36  1  0  0  0
  2  3  1  0  0  0
  2 37  1  0  0  0
  3  4  2  0  0  0
  3 38  1  0  0  0
  4  9  1  0  0  0
  4  5  1  0  0  0
  5  6  2  0  0  0
  5  7  1  0  0  0
  6 39  1  0  0  0
  7  8  2  0  0  0
  7 10  1  0  0  0
  8  9  1  0  0  0
  8 40  1  0  0  0
  9 35  1  0  0  0
 10 11  1  0  0  0
 10 41  1  0  0  0
 10 42  1  0  0  0
 11 12  1  0  0  0
 11 43  1  0  0  0
 11 44  1  0  0  0
 12 13  2  0  0  0
 12 14  1  0  0  0
 14 15  1  0  0  0
 14 45  1  0  0  0
 15 16  1  0  0  0
 15 46  1  0  0  0
 15 47  1  0  0  0
 16 17  1  0  0  0
 16 48  1  0  0  0
 16 49  1  0  0  0
 17 18  1  0  0  0
 17 50  1  0  0  0
 17 51  1  0  0  0
 18 19  1  0  0  0
 18 52  1  0  0  0
 18 53  1  0  0  0
 19 20  1  0  0  0
 19 54  1  0  0  0
 19 55  1  0  0  0
 20 21  1  0  0  0
 20 56  1  0  0  0
 21 30  1  0  0  0
 21 22  2  0  0  0
 22 27  1  0  0  0
 22 23  1  0  0  0
 23 24  2  0  0  0
 23 57  1  0  0  0
 24 25  1  0  0  0
 24 58  1  0  0  0
 25 26  2  0  0  0
 25 59  1  0  0  0
 26 27  1  0  0  0
 26 60  1  0  0  0
 27 28  2  0  0  0
 28 29  1  0  0  0
 29 34  1  0  0  0
 29 30  2  0  0  0
 30 31  1  0  0  0
 31 32  1  0  0  0
 31 61  1  0  0  0
 31 62  1  0  0  0
 32 33  1  0  0  0
 32 63  1  0  0  0
 32 64  1  0  0  0
 33 34  1  0  0  0
 33 65  1  0  0  0
 33 66  1  0  0  0
 34 67  1  0  0  0
 34 68  1  0  0  0
M  END
> <s_m_entry_id>
9767

> <s_m_entry_name>
ligand_docking-pose.209

> <s_m_Source_Path>
/home/csk/Desktop/cluster/DUD-E-result/aces

> <s_m_Source_File>
ligand_docking-pose.sdf

> <i_m_Source_File_Index>
209

> <i_lp_mmshare_version>
53161

> <r_lp_tautomer_probability>
1

> <s_lp_Force_Field>
OPLS_2005

> <r_lp_Energy>
24.427902

> <b_lp_Chiralities_Consistent>
1

> <s_lp_Variant>
374489-1

> <s_i_glide_gridfile>
glide-grid_1e66

> <i_i_glide_lignum>
270

> <i_i_glide_rotatable_bonds>
11

> <r_i_docking_score>
-7.48094384601852

> <r_i_glide_ligand_efficiency>
-0.220027760177015

> <r_i_glide_ligand_efficiency_sa>
-0.712804527640242

> <r_i_glide_ligand_efficiency_ln>
-1.65275032895284

> <r_i_glide_gscore>
-7.48094384601852

> <r_i_glide_lipo>
-4.62324012979724

> <r_i_glide_hbond>
0

> <r_i_glide_metal>
0

> <r_i_glide_rewards>
-1.20949448530329

> <r_i_glide_evdw>
-34.7410049438477

> <r_i_glide_ecoul>
-4.31863594055176

> <r_i_glide_erotb>
0.874556893000607

> <r_i_glide_esite>
-0.13792048564345

> <r_i_glide_emodel>
-49.9734443293515

> <r_i_glide_energy>
-39.0596408843994

> <r_i_glide_einternal>
6.69052457809448

> <i_i_glide_confnum>
20

> <i_i_glide_posenum>
128

> <r_i_glide_eff_state_penalty>
0

> <i_f3d_flags>
0

> <s_user_duplicate_titles>
374489

> <s_m_subgroup_title>
dock_pv

> <s_m_subgroupid>
dock_pv1

> <b_m_subgroup_collapsed>
1

$$$$
547754
                    3D
 Schrodinger Suite 2021-1.
 49 52  0  0  1  0            999 V2000
    3.6693   62.0018   69.6481 C   0  0  0  0  0  0
    2.3036   61.7360   69.6204 C   0  0  0  0  0  0
    1.4035   62.7386   69.9671 C   0  0  0  0  0  0
    1.8738   63.9946   70.3630 C   0  0  0  0  0  0
    3.2451   64.2605   70.3682 C   0  0  0  0  0  0
    4.1464   63.2604   70.0146 C   0  0  0  0  0  0
    0.8796   65.0994   70.6834 C   0  0  0  0  0  0
    0.6847   65.9680   69.5147 N   0  0  1  0  0  0
   -0.7134   66.0331   69.0900 C   0  0  0  0  0  0
   -0.8768   66.7357   67.7271 C   0  0  0  0  0  0
   -0.1650   68.0993   67.6211 C   0  0  0  0  0  0
    1.0832   68.2548   68.5204 C   0  0  0  0  0  0
    1.2149   67.3084   69.7429 C   0  0  0  0  0  0
   -0.0669   68.7237   66.2124 C   0  0  0  0  0  0
    0.7653   67.9450   65.1514 C   0  0  2  0  0  0
    2.2902   67.9531   65.3514 C   0  0  0  0  0  0
    2.8701   68.2162   63.9946 C   0  0  0  0  0  0
    4.2103   68.2389   63.6046 C   0  0  0  0  0  0
    4.5444   68.5802   62.2940 C   0  0  0  0  0  0
    3.5427   68.9096   61.3797 C   0  0  0  0  0  0
    2.2029   68.9077   61.7722 C   0  0  0  0  0  0
    1.8736   68.5547   63.0832 C   0  0  0  0  0  0
    0.5442   68.4914   63.7269 C   0  0  0  0  0  0
   -0.5288   68.8067   63.2142 O   0  0  0  0  0  0
    4.3631   61.2219   69.3764 H   0  0  0  0  0  0
    1.9425   60.7599   69.3274 H   0  0  0  0  0  0
    0.3430   62.5405   69.9238 H   0  0  0  0  0  0
    3.6113   65.2403   70.6390 H   0  0  0  0  0  0
    5.2063   63.4656   70.0170 H   0  0  0  0  0  0
    1.2151   65.6518   71.5629 H   0  0  0  0  0  0
   -0.0586   64.6255   70.9744 H   0  0  0  0  0  0
   -1.3160   66.5079   69.8638 H   0  0  0  0  0  0
   -1.0756   65.0114   68.9920 H   0  0  0  0  0  0
   -1.9274   66.8275   67.4481 H   0  0  0  0  0  0
   -0.4569   66.0622   66.9825 H   0  0  0  0  0  0
   -0.8579   68.7550   68.1422 H   0  0  0  0  0  0
    1.9423   68.0070   67.9186 H   0  0  0  0  0  0
    1.2545   69.3023   68.7684 H   0  0  0  0  0  0
    0.7427   67.7079   70.6342 H   0  0  0  0  0  0
    2.2723   67.2143   69.9946 H   0  0  0  0  0  0
    0.3662   69.7077   66.3666 H   0  0  0  0  0  0
   -1.0827   68.8948   65.8469 H   0  0  0  0  0  0
    0.4109   66.9143   65.1153 H   0  0  0  0  0  0
    2.6258   67.0095   65.7794 H   0  0  0  0  0  0
    2.5925   68.7647   66.0127 H   0  0  0  0  0  0
    4.9959   68.0087   64.3099 H   0  0  0  0  0  0
    5.5799   68.5954   61.9819 H   0  0  0  0  0  0
    3.8131   69.1696   60.3672 H   0  0  0  0  0  0
    1.4365   69.1726   61.0548 H   0  0  0  0  0  0
  1  6  1  0  0  0
  1  2  2  0  0  0
  1 25  1  0  0  0
  2  3  1  0  0  0
  2 26  1  0  0  0
  3  4  2  0  0  0
  3 27  1  0  0  0
  4  5  1  0  0  0
  4  7  1  0  0  0
  5  6  2  0  0  0
  5 28  1  0  0  0
  6 29  1  0  0  0
  7  8  1  0  0  0
  7 30  1  0  0  0
  7 31  1  0  0  0
  8 13  1  0  0  0
  8  9  1  0  0  0
  9 10  1  0  0  0
  9 32  1  0  0  0
  9 33  1  0  0  0
 10 11  1  0  0  0
 10 34  1  0  0  0
 10 35  1  0  0  0
 11 12  1  0  0  0
 11 14  1  0  0  0
 11 36  1  0  0  0
 12 13  1  0  0  0
 12 37  1  0  0  0
 12 38  1  0  0  0
 13 39  1  0  0  0
 13 40  1  0  0  0
 14 15  1  0  0  0
 14 41  1  0  0  0
 14 42  1  0  0  0
 15 23  1  0  0  0
 15 16  1  0  0  0
 15 43  1  0  0  0
 16 17  1  0  0  0
 16 44  1  0  0  0
 16 45  1  0  0  0
 17 22  2  0  0  0
 17 18  1  0  0  0
 18 19  2  0  0  0
 18 46  1  0  0  0
 19 20  1  0  0  0
 19 47  1  0  0  0
 20 21  2  0  0  0
 20 48  1  0  0  0
 21 22  1  0  0  0
 21 49  1  0  0  0
 22 23  1  0  0  0
 23 24  2  0  0  0
M  END
> <s_m_entry_id>
9768

> <s_m_entry_name>
ligand_docking-pose.210

> <s_m_Source_Path>
/home/csk/Desktop/cluster/DUD-E-result/aces

> <s_m_Source_File>
ligand_docking-pose.sdf

> <i_m_Source_File_Index>
210

> <i_lp_mmshare_version>
53161

> <r_lp_tautomer_probability>
0.99995

> <s_lp_Force_Field>
OPLS_2005

> <r_lp_Energy>
42.895802

> <b_lp_Chiralities_Consistent>
1

> <s_lp_Variant>
547754-1

> <s_i_glide_gridfile>
glide-grid_1e66

> <i_i_glide_lignum>
327

> <i_i_glide_rotatable_bonds>
4

> <r_i_docking_score>
-7.47764505291326

> <r_i_glide_ligand_efficiency>
-0.311568543871386

> <r_i_glide_ligand_efficiency_sa>
-0.898719196087563

> <r_i_glide_ligand_efficiency_ln>
-1.78974358793518

> <r_i_glide_gscore>
-7.47764505291326

> <r_i_glide_lipo>
-3.89675692960453

> <r_i_glide_hbond>
0

> <r_i_glide_metal>
0

> <r_i_glide_rewards>
-2.40936253861377

> <r_i_glide_evdw>
-41.5446510314941

> <r_i_glide_ecoul>
1.1619119644165

> <r_i_glide_erotb>
0.731420172217268

> <r_i_glide_esite>
0

> <r_i_glide_emodel>
-52.3026953564815

> <r_i_glide_energy>
-40.3827390670776

> <r_i_glide_einternal>
6.59302568435669

> <i_i_glide_confnum>
57

> <i_i_glide_posenum>
198

> <r_i_glide_eff_state_penalty>
0

> <i_f3d_flags>
0

> <s_user_duplicate_titles>
547754

> <s_m_subgroup_title>
dock_pv

> <s_m_subgroupid>
dock_pv1

> <b_m_subgroup_collapsed>
1

$$$$
233592
                    3D
 Schrodinger Suite 2021-1.
 49 52  0  0  1  0            999 V2000
    3.2556   62.5176   69.5278 C   0  0  0  0  0  0
    1.8950   62.2224   69.5681 C   0  0  0  0  0  0
    0.9893   63.1862   70.0092 C   0  0  0  0  0  0
    1.4470   64.4390   70.4312 C   0  0  0  0  0  0
    2.8162   64.7254   70.3784 C   0  0  0  0  0  0
    3.7208   63.7672   69.9290 C   0  0  0  0  0  0
    0.4451   65.5015   70.9055 C   0  0  0  0  0  0
    0.0424   66.5080   69.9081 N   0  0  1  0  0  0
    1.1392   67.4118   69.5267 C   0  0  0  0  0  0
    0.7600   68.4328   68.4330 C   0  0  0  0  0  0
    0.1276   67.7647   67.2191 C   0  0  0  0  0  0
   -1.1162   67.0127   67.7043 C   0  0  0  0  0  0
   -0.7488   65.9751   68.7913 C   0  0  0  0  0  0
   -0.1450   68.8178   66.1205 C   0  0  0  0  0  0
   -0.0406   68.3001   64.6707 C   0  0  0  0  0  0
    1.2979   68.3348   64.0417 N   0  0  0  0  0  0
    1.5159   69.0978   62.9357 C   0  0  0  0  0  0
    0.6825   69.7079   62.2657 O   0  0  0  0  0  0
    2.9787   69.0579   62.7254 C   0  0  0  0  0  0
    3.8093   69.7054   61.8174 C   0  0  0  0  0  0
    5.1870   69.5337   61.9680 C   0  0  0  0  0  0
    5.6672   68.6680   62.9595 C   0  0  0  0  0  0
    4.8481   67.9959   63.8147 N   0  0  0  0  0  0
    3.5206   68.2395   63.6694 C   0  0  0  0  0  0
    2.4224   67.7081   64.5024 C   0  0  0  0  0  0
    2.5347   66.8804   65.4022 O   0  0  0  0  0  0
    3.9549   61.7717   69.1810 H   0  0  0  0  0  0
    1.5432   61.2516   69.2521 H   0  0  0  0  0  0
   -0.0664   62.9574   70.0268 H   0  0  0  0  0  0
    3.1847   65.6897   70.6990 H   0  0  0  0  0  0
    4.7765   63.9952   69.8932 H   0  0  0  0  0  0
    0.8522   66.0257   71.7671 H   0  0  0  0  0  0
   -0.4434   64.9894   71.2700 H   0  0  0  0  0  0
    1.9430   66.7933   69.1499 H   0  0  0  0  0  0
    1.5428   67.9188   70.4011 H   0  0  0  0  0  0
    1.6631   68.9694   68.1396 H   0  0  0  0  0  0
    0.0962   69.2263   68.7681 H   0  0  0  0  0  0
    0.8043   66.9912   66.8839 H   0  0  0  0  0  0
   -1.8911   67.6921   68.0591 H   0  0  0  0  0  0
   -1.5913   66.5114   66.8594 H   0  0  0  0  0  0
   -0.1705   65.1654   68.3679 H   0  0  0  0  0  0
   -1.6569   65.5314   69.1680 H   0  0  0  0  0  0
    0.5010   69.6841   66.2749 H   0  0  0  0  0  0
   -1.1547   69.2050   66.2689 H   0  0  0  0  0  0
   -0.7410   68.8880   64.0734 H   0  0  0  0  0  0
   -0.4481   67.3080   64.6242 H   0  0  0  0  0  0
    3.4166   70.3603   61.0560 H   0  0  0  0  0  0
    5.8709   70.0305   61.2950 H   0  0  0  0  0  0
    6.7304   68.5088   63.0701 H   0  0  0  0  0  0
  1  6  1  0  0  0
  1  2  2  0  0  0
  1 27  1  0  0  0
  2  3  1  0  0  0
  2 28  1  0  0  0
  3  4  2  0  0  0
  3 29  1  0  0  0
  4  5  1  0  0  0
  4  7  1  0  0  0
  5  6  2  0  0  0
  5 30  1  0  0  0
  6 31  1  0  0  0
  7  8  1  0  0  0
  7 32  1  0  0  0
  7 33  1  0  0  0
  8 13  1  0  0  0
  8  9  1  0  0  0
  9 10  1  0  0  0
  9 34  1  0  0  0
  9 35  1  0  0  0
 10 11  1  0  0  0
 10 36  1  0  0  0
 10 37  1  0  0  0
 11 12  1  0  0  0
 11 14  1  0  0  0
 11 38  1  0  0  0
 12 13  1  0  0  0
 12 39  1  0  0  0
 12 40  1  0  0  0
 13 41  1  0  0  0
 13 42  1  0  0  0
 14 15  1  0  0  0
 14 43  1  0  0  0
 14 44  1  0  0  0
 15 16  1  0  0  0
 15 45  1  0  0  0
 15 46  1  0  0  0
 16 25  1  0  0  0
 16 17  1  0  0  0
 17 18  2  0  0  0
 17 19  1  0  0  0
 19 24  2  0  0  0
 19 20  1  0  0  0
 20 21  2  0  0  0
 20 47  1  0  0  0
 21 22  1  0  0  0
 21 48  1  0  0  0
 22 23  2  0  0  0
 22 49  1  0  0  0
 23 24  1  0  0  0
 24 25  1  0  0  0
 25 26  2  0  0  0
M  END
> <s_m_entry_id>
9769

> <s_m_entry_name>
ligand_docking-pose.211

> <s_m_Source_Path>
/home/csk/Desktop/cluster/DUD-E-result/aces

> <s_m_Source_File>
ligand_docking-pose.sdf

> <i_m_Source_File_Index>
211

> <i_lp_mmshare_version>
53161

> <r_lp_tautomer_probability>
1

> <s_lp_Force_Field>
OPLS_2005

> <r_lp_Energy>
48.245747

> <b_lp_Chiralities_Consistent>
1

> <s_lp_Variant>
233592-1

> <s_i_glide_gridfile>
glide-grid_1e66

> <i_i_glide_lignum>
394

> <i_i_glide_rotatable_bonds>
5

> <r_i_docking_score>
-7.46805731090087

> <r_i_glide_ligand_efficiency>
-0.287232973496187

> <r_i_glide_ligand_efficiency_sa>
-0.85092655377528

> <r_i_glide_ligand_efficiency_ln>
-1.75384875477034

> <r_i_glide_gscore>
-7.46805731090087

> <r_i_glide_lipo>
-3.11518882841744

> <r_i_glide_hbond>
0

> <r_i_glide_metal>
0

> <r_i_glide_rewards>
-2.8746906636825

> <r_i_glide_evdw>
-39.4493980407715

> <r_i_glide_ecoul>
-1.9050498008728

> <r_i_glide_erotb>
0.780049553368573

> <r_i_glide_esite>
0

> <r_i_glide_emodel>
-51.0204986916854

> <r_i_glide_energy>
-41.3544478416443

> <r_i_glide_einternal>
8.93129825592041

> <i_i_glide_confnum>
161

> <i_i_glide_posenum>
306

> <r_i_glide_eff_state_penalty>
0

> <i_f3d_flags>
0

> <s_user_duplicate_titles>
233592

> <s_m_subgroup_title>
dock_pv

> <s_m_subgroupid>
dock_pv1

> <b_m_subgroup_collapsed>
1

$$$$
175136
                    3D
 Schrodinger Suite 2021-1.
 58 60  0  0  1  0            999 V2000
    0.0640   67.9816   64.0242 C   0  0  0  0  0  0
    1.1315   67.3704   64.9628 C   0  0  0  0  0  0
    1.8309   68.3265   65.8387 N   0  0  2  0  0  0
    0.9422   68.9429   66.8359 C   0  0  0  0  0  0
    0.8917   68.1940   68.1803 C   0  0  0  0  0  0
    0.4285   66.7251   68.1619 C   0  0  0  0  0  0
    0.0842   66.1641   69.5539 C   0  0  0  0  0  0
    1.3081   65.8164   70.4323 C   0  0  0  0  0  0
    1.4959   64.3741   70.6575 N   0  0  0  0  0  0
    0.7854   63.6846   71.5884 C   0  0  0  0  0  0
   -0.0571   64.1327   72.3662 O   0  0  0  0  0  0
    1.2517   62.2806   71.4683 C   0  0  0  0  0  0
    0.8702   61.1295   72.1545 C   0  0  0  0  0  0
    1.4895   59.9194   71.8272 C   0  0  0  0  0  0
    2.4788   59.8567   70.8248 C   0  0  0  0  0  0
    2.8416   61.0413   70.1546 C   0  0  0  0  0  0
    2.2123   62.2383   70.4965 C   0  0  0  0  0  0
    2.3873   63.6157   69.9682 C   0  0  0  0  0  0
    3.1682   63.9851   69.0907 O   0  0  0  0  0  0
    3.1207   58.5656   70.4790 N   0  3  0  0  0  0
    3.9429   58.5492   69.5678 O   0  5  0  0  0  0
    2.8125   57.5648   71.1178 O   0  0  0  0  0  0
    2.5664   69.3729   65.1114 C   0  0  0  0  0  0
    3.6406   68.8831   64.1706 C   0  0  0  0  0  0
    3.2868   68.5095   62.8669 C   0  0  0  0  0  0
    4.2574   68.0878   61.9721 C   0  0  0  0  0  0
    5.5860   68.0830   62.3680 C   0  0  0  0  0  0
    5.9431   68.5079   63.6438 C   0  0  0  0  0  0
    4.9786   68.8987   64.5757 C   0  0  0  0  0  0
    5.2644   69.3096   65.8663 O   0  0  0  0  0  0
    6.6124   69.5131   66.2726 C   0  0  0  0  0  0
   -0.0967   67.3148   63.1753 H   0  0  0  0  0  0
   -0.8894   68.1099   64.5372 H   0  0  0  0  0  0
    0.3331   68.9474   63.6031 H   0  0  0  0  0  0
    1.8859   66.8577   64.3683 H   0  0  0  0  0  0
    0.6785   66.5720   65.5462 H   0  0  0  0  0  0
   -0.0647   69.0760   66.4395 H   0  0  0  0  0  0
    1.2850   69.9508   67.0772 H   0  0  0  0  0  0
    0.1723   68.7580   68.7693 H   0  0  0  0  0  0
    1.8336   68.3146   68.7161 H   0  0  0  0  0  0
    1.2029   66.1082   67.7082 H   0  0  0  0  0  0
   -0.4549   66.6396   67.5271 H   0  0  0  0  0  0
   -0.5469   65.2834   69.4212 H   0  0  0  0  0  0
   -0.5359   66.8803   70.0918 H   0  0  0  0  0  0
    1.1436   66.2697   71.4092 H   0  0  0  0  0  0
    2.2157   66.2838   70.0464 H   0  0  0  0  0  0
    0.1112   61.1588   72.9240 H   0  0  0  0  0  0
    1.1904   59.0250   72.3556 H   0  0  0  0  0  0
    3.5965   61.0269   69.3809 H   0  0  0  0  0  0
    1.9430   69.9898   64.4828 H   0  0  0  0  0  0
    3.0167   70.0673   65.8207 H   0  0  0  0  0  0
    2.2603   68.5426   62.5375 H   0  0  0  0  0  0
    3.9925   67.7943   60.9670 H   0  0  0  0  0  0
    6.3436   67.7698   61.6674 H   0  0  0  0  0  0
    6.9885   68.5079   63.8926 H   0  0  0  0  0  0
    6.6316   69.7064   67.3447 H   0  0  0  0  0  0
    7.2446   68.6439   66.0902 H   0  0  0  0  0  0
    7.0360   70.3873   65.7780 H   0  0  0  0  0  0
  1  2  1  0  0  0
  1 32  1  0  0  0
  1 33  1  0  0  0
  1 34  1  0  0  0
  2  3  1  0  0  0
  2 35  1  0  0  0
  2 36  1  0  0  0
  3  4  1  0  0  0
  3 23  1  0  0  0
  4  5  1  0  0  0
  4 37  1  0  0  0
  4 38  1  0  0  0
  5  6  1  0  0  0
  5 39  1  0  0  0
  5 40  1  0  0  0
  6  7  1  0  0  0
  6 41  1  0  0  0
  6 42  1  0  0  0
  7  8  1  0  0  0
  7 43  1  0  0  0
  7 44  1  0  0  0
  8  9  1  0  0  0
  8 45  1  0  0  0
  8 46  1  0  0  0
  9 18  1  0  0  0
  9 10  1  0  0  0
 10 11  2  0  0  0
 10 12  1  0  0  0
 12 17  2  0  0  0
 12 13  1  0  0  0
 13 14  2  0  0  0
 13 47  1  0  0  0
 14 15  1  0  0  0
 14 48  1  0  0  0
 15 16  2  0  0  0
 15 20  1  0  0  0
 16 17  1  0  0  0
 16 49  1  0  0  0
 17 18  1  0  0  0
 18 19  2  0  0  0
 20 21  1  0  0  0
 20 22  2  0  0  0
 23 24  1  0  0  0
 23 50  1  0  0  0
 23 51  1  0  0  0
 24 29  1  0  0  0
 24 25  2  0  0  0
 25 26  1  0  0  0
 25 52  1  0  0  0
 26 27  2  0  0  0
 26 53  1  0  0  0
 27 28  1  0  0  0
 27 54  1  0  0  0
 28 29  2  0  0  0
 28 55  1  0  0  0
 29 30  1  0  0  0
 30 31  1  0  0  0
 31 56  1  0  0  0
 31 57  1  0  0  0
 31 58  1  0  0  0
M  CHG  2  20   1  21  -1
M  END
> <s_m_entry_id>
9770

> <s_m_entry_name>
ligand_docking-pose.212

> <s_m_Source_Path>
/home/csk/Desktop/cluster/DUD-E-result/aces

> <s_m_Source_File>
ligand_docking-pose.sdf

> <i_m_Source_File_Index>
212

> <i_lp_mmshare_version>
53161

> <r_lp_tautomer_probability>
1

> <s_lp_Force_Field>
OPLS_2005

> <r_lp_Energy>
48.864013

> <b_lp_Chiralities_Consistent>
1

> <s_lp_Variant>
175136-1

> <s_i_glide_gridfile>
glide-grid_1e66

> <i_i_glide_lignum>
1326

> <i_i_glide_rotatable_bonds>
11

> <r_i_docking_score>
-7.46667648695259

> <r_i_glide_ligand_efficiency>
-0.24086053183718

> <r_i_glide_ligand_efficiency_sa>
-0.756634613771928

> <r_i_glide_ligand_efficiency_ln>
-1.68396437396115

> <r_i_glide_gscore>
-7.46667648695259

> <r_i_glide_lipo>
-2.84416273691184

> <r_i_glide_hbond>
0

> <r_i_glide_metal>
0

> <r_i_glide_rewards>
-2.34279884429279

> <r_i_glide_evdw>
-47.8114585876465

> <r_i_glide_ecoul>
-4.71592092514038

> <r_i_glide_erotb>
0.876647905973015

> <r_i_glide_esite>
-0.0584017435675932

> <r_i_glide_emodel>
-69.3622501017431

> <r_i_glide_energy>
-52.5273795127869

> <r_i_glide_einternal>
13.6924715042114

> <i_i_glide_confnum>
13

> <i_i_glide_posenum>
381

> <r_i_glide_eff_state_penalty>
0

> <i_f3d_flags>
0

> <s_user_duplicate_titles>
175136

> <s_m_subgroup_title>
dock_pv

> <s_m_subgroupid>
dock_pv1

> <b_m_subgroup_collapsed>
1

$$$$
138915
                    3D
 Schrodinger Suite 2021-1.
 62 65  0  0  1  0            999 V2000
    1.8279   64.0563   71.5357 C   0  0  0  0  0  0
    1.6082   64.1494   70.0068 N   0  3  2  0  0  0
    2.4731   65.3171   69.4173 C   0  0  0  0  0  0
    1.8848   66.7401   69.7090 C   0  0  0  0  0  0
    0.4394   66.8979   69.2783 C   0  0  2  0  0  0
   -0.2591   65.8963   70.1685 C   0  0  0  0  0  0
    0.0823   64.4271   69.8098 C   0  0  0  0  0  0
    0.0278   66.9051   67.7550 C   0  0  2  0  0  0
    0.3246   68.2492   67.0011 C   0  0  1  0  0  0
    1.7675   68.3746   66.4715 C   0  0  0  0  0  0
    1.6590   68.5082   64.9763 C   0  0  0  0  0  0
    2.6637   68.6866   64.0229 C   0  0  0  0  0  0
    2.3347   68.9019   62.6706 C   0  0  0  0  0  0
    0.9835   68.8823   62.2894 C   0  0  0  0  0  0
   -0.0154   68.6589   63.2395 C   0  0  0  0  0  0
    0.3312   68.5076   64.5782 C   0  0  0  0  0  0
   -0.5564   68.4382   65.7455 C   0  0  0  0  0  0
   -1.7854   68.5087   65.7309 O   0  0  0  0  0  0
    0.6328   69.0882   60.9791 O   0  0  0  0  0  0
   -0.0457   70.3121   60.7266 C   0  0  0  0  0  0
    3.2661   69.1658   61.6832 O   0  0  0  0  0  0
    4.6279   69.3766   62.0445 C   0  0  0  0  0  0
   -1.3586   66.5840   67.6834 O   0  0  0  0  0  0
    2.0168   62.7907   69.3221 C   0  0  0  0  0  0
    2.8935   61.8206   70.1182 C   0  0  0  0  0  0
    4.2298   62.1309   70.3929 C   0  0  0  0  0  0
    4.9929   61.2743   71.1841 C   0  0  0  0  0  0
    4.4254   60.0972   71.6720 C   0  0  0  0  0  0
    3.1088   59.7627   71.3686 C   0  0  0  0  0  0
    2.3431   60.6242   70.5896 C   0  0  0  0  0  0
    0.5392   66.1082   67.2305 H   0  0  0  0  0  0
    0.0964   69.0856   67.6633 H   0  0  0  0  0  0
    2.8967   64.0606   71.7463 H   0  0  0  0  0  0
    1.3467   64.9114   71.9681 H   0  0  0  0  0  0
    1.3491   63.1454   71.8982 H   0  0  0  0  0  0
    3.4910   65.2037   69.7923 H   0  0  0  0  0  0
    2.4886   65.1792   68.3455 H   0  0  0  0  0  0
    2.3430   67.5895   69.2215 H   0  0  0  0  0  0
    2.0012   66.9496   70.7682 H   0  0  0  0  0  0
    0.1665   67.8774   69.6480 H   0  0  0  0  0  0
   -0.1461   66.1346   71.2264 H   0  0  0  0  0  0
   -1.2741   66.1079   69.9675 H   0  0  0  0  0  0
   -0.4690   63.7056   70.4151 H   0  0  0  0  0  0
   -0.1532   64.2374   68.7680 H   0  0  0  0  0  0
    2.3422   67.4919   66.7211 H   0  0  0  0  0  0
    2.2497   69.2442   66.9212 H   0  0  0  0  0  0
    3.6920   68.7059   64.3509 H   0  0  0  0  0  0
   -1.0527   68.6597   62.9371 H   0  0  0  0  0  0
   -0.4642   70.2818   59.7212 H   0  0  0  0  0  0
    0.6508   71.1505   60.7684 H   0  0  0  0  0  0
   -0.8648   70.5063   61.4203 H   0  0  0  0  0  0
    5.1859   69.7070   61.1694 H   0  0  0  0  0  0
    4.7284   70.1588   62.7979 H   0  0  0  0  0  0
    5.0918   68.4601   62.4090 H   0  0  0  0  0  0
   -1.7412   67.0090   66.9057 H   0  0  0  0  0  0
    1.0767   62.2981   69.0646 H   0  0  0  0  0  0
    2.5214   63.0098   68.3834 H   0  0  0  0  0  0
    4.6679   63.0495   70.0270 H   0  0  0  0  0  0
    6.0164   61.5216   71.4284 H   0  0  0  0  0  0
    5.0117   59.4339   72.2946 H   0  0  0  0  0  0
    2.6802   58.8442   71.7463 H   0  0  0  0  0  0
    1.3157   60.3683   70.3703 H   0  0  0  0  0  0
  1  2  1  0  0  0
  1 33  1  0  0  0
  1 34  1  0  0  0
  1 35  1  0  0  0
  2  7  1  0  0  0
  2  3  1  0  0  0
  2 24  1  0  0  0
  3  4  1  0  0  0
  3 36  1  0  0  0
  3 37  1  0  0  0
  4  5  1  0  0  0
  4 38  1  0  0  0
  4 39  1  0  0  0
  5  6  1  0  0  0
  5  8  1  0  0  0
  5 40  1  0  0  0
  6  7  1  0  0  0
  6 41  1  0  0  0
  6 42  1  0  0  0
  7 43  1  0  0  0
  7 44  1  0  0  0
  8 31  1  0  0  0
  8  9  1  0  0  0
  8 23  1  0  0  0
  9 32  1  0  0  0
  9 17  1  0  0  0
  9 10  1  0  0  0
 10 11  1  0  0  0
 10 45  1  0  0  0
 10 46  1  0  0  0
 11 16  2  0  0  0
 11 12  1  0  0  0
 12 13  2  0  0  0
 12 47  1  0  0  0
 13 14  1  0  0  0
 13 21  1  0  0  0
 14 15  2  0  0  0
 14 19  1  0  0  0
 15 16  1  0  0  0
 15 48  1  0  0  0
 16 17  1  0  0  0
 17 18  2  0  0  0
 19 20  1  0  0  0
 20 49  1  0  0  0
 20 50  1  0  0  0
 20 51  1  0  0  0
 21 22  1  0  0  0
 22 52  1  0  0  0
 22 53  1  0  0  0
 22 54  1  0  0  0
 23 55  1  0  0  0
 24 25  1  0  0  0
 24 56  1  0  0  0
 24 57  1  0  0  0
 25 30  1  0  0  0
 25 26  2  0  0  0
 26 27  1  0  0  0
 26 58  1  0  0  0
 27 28  2  0  0  0
 27 59  1  0  0  0
 28 29  1  0  0  0
 28 60  1  0  0  0
 29 30  2  0  0  0
 29 61  1  0  0  0
 30 62  1  0  0  0
M  CHG  1   2   1
M  END
> <s_m_entry_id>
9771

> <s_m_entry_name>
ligand_docking-pose.213

> <s_m_Source_Path>
/home/csk/Desktop/cluster/DUD-E-result/aces

> <s_m_Source_File>
ligand_docking-pose.sdf

> <i_m_Source_File_Index>
213

> <i_lp_mmshare_version>
53161

> <r_lp_tautomer_probability>
0.99995

> <s_lp_Force_Field>
OPLS_2005

> <r_lp_Energy>
58.4278

> <b_lp_Chiralities_Consistent>
1

> <s_lp_Variant>
138915-2

> <s_i_glide_gridfile>
glide-grid_1e66

> <i_i_glide_lignum>
1610

> <i_i_glide_rotatable_bonds>
7

> <r_i_docking_score>
-7.45701051242426

> <r_i_glide_ligand_efficiency>
-0.248567017080809

> <r_i_glide_ligand_efficiency_sa>
-0.772355514505833

> <r_i_glide_ligand_efficiency_ln>
-1.69431403905999

> <r_i_glide_gscore>
-7.45701051242426

> <r_i_glide_lipo>
-3.83578603629709

> <r_i_glide_hbond>
0

> <r_i_glide_metal>
0

> <r_i_glide_rewards>
-1.96484911748026

> <r_i_glide_evdw>
-35.5509452819824

> <r_i_glide_ecoul>
-2.30947232246399

> <r_i_glide_erotb>
0.467592753821807

> <r_i_glide_esite>
0

> <r_i_glide_emodel>
-68.2008135644504

> <r_i_glide_energy>
-37.8604176044464

> <r_i_glide_einternal>
13.4469127655029

> <i_i_glide_confnum>
44

> <i_i_glide_posenum>
252

> <r_i_glide_eff_state_penalty>
0

> <i_f3d_flags>
0

> <s_user_duplicate_titles>
138915

> <s_m_subgroup_title>
dock_pv

> <s_m_subgroupid>
dock_pv1

> <b_m_subgroup_collapsed>
1

$$$$
569628
                    3D
 Schrodinger Suite 2021-1.
 36 39  0  0  1  0            999 V2000
   -0.0591   69.6681   61.9723 C   0  0  0  0  0  0
    0.4505   68.8593   63.1463 C   0  0  0  0  0  0
   -0.3143   68.5726   64.2271 C   0  0  0  0  0  0
    0.1624   67.7345   65.4153 C   0  0  2  0  0  0
    0.7411   68.5999   66.5584 C   0  0  0  0  0  0
    2.2144   68.9889   66.3829 C   0  0  0  0  0  0
    2.9897   68.5261   65.2959 C   0  0  0  0  0  0
    4.3366   68.9262   65.2194 C   0  0  0  0  0  0
    4.8992   69.6890   66.2783 C   0  0  0  0  0  0
    6.2818   69.9798   66.4052 C   0  0  0  0  0  0
    6.7433   70.5841   67.5676 C   0  0  0  0  0  0
    5.8283   70.9800   68.5315 C   0  0  0  0  0  0
    4.4930   70.7800   68.4280 N   0  0  0  0  0  0
    4.0410   70.1077   67.3340 C   0  0  0  0  0  0
    2.7308   69.7615   67.3675 N   0  0  0  0  0  0
    5.1244   68.5357   64.1291 N   0  0  0  0  0  0
    2.3539   67.5726   64.2734 C   0  0  1  0  0  0
    1.2113   66.7395   64.8970 C   0  0  0  0  0  0
    1.8801   68.3391   63.0075 C   0  0  0  0  0  0
   -0.0565   69.0487   61.0750 H   0  0  0  0  0  0
    0.6038   70.5079   61.7872 H   0  0  0  0  0  0
   -1.0665   70.0520   62.1387 H   0  0  0  0  0  0
   -1.3214   68.9635   64.2551 H   0  0  0  0  0  0
   -0.6969   67.1840   65.7958 H   0  0  0  0  0  0
    0.1290   69.4892   66.7217 H   0  0  0  0  0  0
    0.6748   68.0280   67.4861 H   0  0  0  0  0  0
    6.9799   69.6585   65.6482 H   0  0  0  0  0  0
    7.7979   70.7425   67.7132 H   0  0  0  0  0  0
    6.1744   71.4487   69.4374 H   0  0  0  0  0  0
    6.0247   68.9818   64.0209 H   0  0  0  0  0  0
    4.6470   68.1838   63.3115 H   0  0  0  0  0  0
    3.1366   66.8748   63.9740 H   0  0  0  0  0  0
    1.5891   66.1268   65.7171 H   0  0  0  0  0  0
    0.7431   66.0527   64.1970 H   0  0  0  0  0  0
    1.8824   67.7080   62.1238 H   0  0  0  0  0  0
    2.5567   69.1554   62.7507 H   0  0  0  0  0  0
  1  2  1  0  0  0
  1 20  1  0  0  0
  1 21  1  0  0  0
  1 22  1  0  0  0
  2 19  1  0  0  0
  2  3  2  0  0  0
  3  4  1  0  0  0
  3 23  1  0  0  0
  4 18  1  0  0  0
  4  5  1  0  0  0
  4 24  1  0  0  0
  5  6  1  0  0  0
  5 25  1  0  0  0
  5 26  1  0  0  0
  6 15  2  0  0  0
  6  7  1  0  0  0
  7  8  2  0  0  0
  7 17  1  0  0  0
  8  9  1  0  0  0
  8 16  1  0  0  0
  9 14  2  0  0  0
  9 10  1  0  0  0
 10 11  2  0  0  0
 10 27  1  0  0  0
 11 12  1  0  0  0
 11 28  1  0  0  0
 12 13  2  0  0  0
 12 29  1  0  0  0
 13 14  1  0  0  0
 14 15  1  0  0  0
 16 30  1  0  0  0
 16 31  1  0  0  0
 17 18  1  0  0  0
 17 19  1  0  0  0
 17 32  1  0  0  0
 18 33  1  0  0  0
 18 34  1  0  0  0
 19 35  1  0  0  0
 19 36  1  0  0  0
M  END
> <s_m_entry_id>
9774

> <s_m_entry_name>
ligand_docking-pose.216

> <s_m_Source_Path>
/home/csk/Desktop/cluster/DUD-E-result/aces

> <s_m_Source_File>
ligand_docking-pose.sdf

> <i_m_Source_File_Index>
216

> <i_lp_mmshare_version>
53161

> <r_lp_tautomer_probability>
1

> <s_lp_Force_Field>
OPLS_2005

> <r_lp_Energy>
23.606059

> <b_lp_Chiralities_Consistent>
1

> <s_lp_Variant>
569628-2

> <s_i_glide_gridfile>
glide-grid_1e66

> <i_i_glide_lignum>
623

> <i_i_glide_rotatable_bonds>
0

> <r_i_docking_score>
-7.43289337947758

> <r_i_glide_ligand_efficiency>
-0.391204914709347

> <r_i_glide_ligand_efficiency_sa>
-1.04389183837399

> <r_i_glide_ligand_efficiency_ln>
-1.88439811560942

> <r_i_glide_gscore>
-7.43289337947758

> <r_i_glide_lipo>
-3.14661516140821

> <r_i_glide_hbond>
0

> <r_i_glide_metal>
0

> <r_i_glide_rewards>
-2.63025010828048

> <r_i_glide_evdw>
-29.5288772583008

> <r_i_glide_ecoul>
-1.19722831249237

> <r_i_glide_erotb>
0

> <r_i_glide_esite>
0

> <r_i_glide_emodel>
-39.8976107925518

> <r_i_glide_energy>
-30.7261055707932

> <r_i_glide_einternal>
0

> <i_i_glide_confnum>
1

> <i_i_glide_posenum>
271

> <r_i_glide_eff_state_penalty>
0

> <i_f3d_flags>
0

> <s_user_duplicate_titles>
569628

> <s_m_subgroup_title>
dock_pv

> <s_m_subgroupid>
dock_pv1

> <b_m_subgroup_collapsed>
1

$$$$
191946
                    3D
 Schrodinger Suite 2021-1.
 62 65  0  0  1  0            999 V2000
    4.2565   59.9934   71.4862 C   0  0  0  0  0  0
    3.4391   60.0687   70.3610 C   0  0  0  0  0  0
    3.3778   61.2535   69.6304 C   0  0  0  0  0  0
    4.1374   62.3663   70.0178 C   0  0  0  0  0  0
    4.9327   62.2789   71.1635 C   0  0  0  0  0  0
    5.0036   61.0954   71.8924 C   0  0  0  0  0  0
    4.1564   63.5790   69.3004 N   0  0  0  0  0  0
    3.2484   63.8792   68.1961 C   0  0  0  0  0  0
    3.8423   63.7207   66.7545 C   0  0  0  0  0  0
    3.2087   64.4897   65.5383 C   0  0  0  0  0  0
    4.0178   64.4202   64.2228 C   0  0  0  0  0  0
    5.1430   65.4471   64.0031 C   0  0  0  0  0  0
    4.8200   66.9578   64.1210 C   0  0  0  0  0  0
    3.4206   67.4285   63.7005 C   0  0  0  0  0  0
    3.1904   68.8239   64.0516 N   0  0  0  0  0  0
    2.9259   69.0954   65.4106 C   0  0  0  0  0  0
    3.9433   69.7080   66.2153 C   0  0  0  0  0  0
    5.2796   69.9451   65.7734 C   0  0  0  0  0  0
    6.2224   70.5080   66.6272 C   0  0  0  0  0  0
    5.8680   70.9083   67.9109 C   0  0  0  0  0  0
    4.5657   70.7283   68.3681 C   0  0  0  0  0  0
    3.5993   70.1064   67.5402 C   0  0  0  0  0  0
    2.3641   69.8841   68.0463 N   0  0  0  0  0  0
    1.4324   69.2383   67.3038 C   0  0  0  0  0  0
    1.6531   68.8368   65.9683 C   0  0  0  0  0  0
    0.4916   68.2569   65.1265 C   0  0  0  0  0  0
   -0.8519   68.0853   65.8694 C   0  0  0  0  0  0
   -1.0744   69.1338   66.9598 C   0  0  0  0  0  0
    0.0756   69.0455   67.9684 C   0  0  0  0  0  0
    4.3024   59.0763   72.0566 H   0  0  0  0  0  0
    2.8507   59.2142   70.0587 H   0  0  0  0  0  0
    2.7349   61.2837   68.7679 H   0  0  0  0  0  0
    5.5122   63.1283   71.4905 H   0  0  0  0  0  0
    5.6336   61.0361   72.7680 H   0  0  0  0  0  0
    4.8830   64.2515   69.5062 H   0  0  0  0  0  0
    2.3430   63.3063   68.3680 H   0  0  0  0  0  0
    2.9314   64.9080   68.3416 H   0  0  0  0  0  0
    4.8506   64.1080   66.8352 H   0  0  0  0  0  0
    3.9424   62.6659   66.5113 H   0  0  0  0  0  0
    2.2553   64.1078   65.1681 H   0  0  0  0  0  0
    3.0211   65.5215   65.8340 H   0  0  0  0  0  0
    4.4309   63.4155   64.1173 H   0  0  0  0  0  0
    3.3315   64.5125   63.3809 H   0  0  0  0  0  0
    5.9429   65.2166   64.7049 H   0  0  0  0  0  0
    5.5430   65.2709   63.0065 H   0  0  0  0  0  0
    4.9997   67.2938   65.1428 H   0  0  0  0  0  0
    5.5430   67.5205   63.5309 H   0  0  0  0  0  0
    3.2549   67.2765   62.6336 H   0  0  0  0  0  0
    2.6806   66.8016   64.1825 H   0  0  0  0  0  0
    3.8972   69.4273   63.6558 H   0  0  0  0  0  0
    5.5817   69.6674   64.7749 H   0  0  0  0  0  0
    7.2355   70.6456   66.2776 H   0  0  0  0  0  0
    6.6072   71.3587   68.5576 H   0  0  0  0  0  0
    4.2908   71.0244   69.3702 H   0  0  0  0  0  0
    0.3327   68.9081   64.2674 H   0  0  0  0  0  0
    0.7524   67.2872   64.7098 H   0  0  0  0  0  0
   -1.6741   68.1078   65.1531 H   0  0  0  0  0  0
   -0.8850   67.0927   66.3234 H   0  0  0  0  0  0
   -1.1330   70.1279   66.5208 H   0  0  0  0  0  0
   -2.0280   68.9629   67.4616 H   0  0  0  0  0  0
   -0.0659   69.7823   68.7610 H   0  0  0  0  0  0
    0.0655   68.0699   68.4557 H   0  0  0  0  0  0
  1  6  1  0  0  0
  1  2  2  0  0  0
  1 30  1  0  0  0
  2  3  1  0  0  0
  2 31  1  0  0  0
  3  4  2  0  0  0
  3 32  1  0  0  0
  4  5  1  0  0  0
  4  7  1  0  0  0
  5  6  2  0  0  0
  5 33  1  0  0  0
  6 34  1  0  0  0
  7  8  1  0  0  0
  7 35  1  0  0  0
  8  9  1  0  0  0
  8 36  1  0  0  0
  8 37  1  0  0  0
  9 10  1  0  0  0
  9 38  1  0  0  0
  9 39  1  0  0  0
 10 11  1  0  0  0
 10 40  1  0  0  0
 10 41  1  0  0  0
 11 12  1  0  0  0
 11 42  1  0  0  0
 11 43  1  0  0  0
 12 13  1  0  0  0
 12 44  1  0  0  0
 12 45  1  0  0  0
 13 14  1  0  0  0
 13 46  1  0  0  0
 13 47  1  0  0  0
 14 15  1  0  0  0
 14 48  1  0  0  0
 14 49  1  0  0  0
 15 16  1  0  0  0
 15 50  1  0  0  0
 16 25  1  0  0  0
 16 17  2  0  0  0
 17 22  1  0  0  0
 17 18  1  0  0  0
 18 19  2  0  0  0
 18 51  1  0  0  0
 19 20  1  0  0  0
 19 52  1  0  0  0
 20 21  2  0  0  0
 20 53  1  0  0  0
 21 22  1  0  0  0
 21 54  1  0  0  0
 22 23  2  0  0  0
 23 24  1  0  0  0
 24 29  1  0  0  0
 24 25  2  0  0  0
 25 26  1  0  0  0
 26 27  1  0  0  0
 26 55  1  0  0  0
 26 56  1  0  0  0
 27 28  1  0  0  0
 27 57  1  0  0  0
 27 58  1  0  0  0
 28 29  1  0  0  0
 28 59  1  0  0  0
 28 60  1  0  0  0
 29 61  1  0  0  0
 29 62  1  0  0  0
M  END
> <s_m_entry_id>
9775

> <s_m_entry_name>
ligand_docking-pose.217

> <s_m_Source_Path>
/home/csk/Desktop/cluster/DUD-E-result/aces

> <s_m_Source_File>
ligand_docking-pose.sdf

> <i_m_Source_File_Index>
217

> <i_lp_mmshare_version>
53161

> <r_lp_tautomer_probability>
1

> <s_lp_Force_Field>
OPLS_2005

> <r_lp_Energy>
25.946568

> <b_lp_Chiralities_Consistent>
1

> <s_lp_Variant>
191946-1

> <s_i_glide_gridfile>
glide-grid_1e66

> <i_i_glide_lignum>
486

> <i_i_glide_rotatable_bonds>
10

> <r_i_docking_score>
-7.42403903625125

> <r_i_glide_ligand_efficiency>
-0.256001346077629

> <r_i_glide_ligand_efficiency_sa>
-0.786517242069714

> <r_i_glide_ligand_efficiency_ln>
-1.69991668191487

> <r_i_glide_gscore>
-7.42403903625125

> <r_i_glide_lipo>
-4.67405720975831

> <r_i_glide_hbond>
0

> <r_i_glide_metal>
0

> <r_i_glide_rewards>
-1.66660461954689

> <r_i_glide_evdw>
-39.1130027770996

> <r_i_glide_ecoul>
-1.09992623329163

> <r_i_glide_erotb>
1.03726186690268

> <r_i_glide_esite>
0

> <r_i_glide_emodel>
-43.8518343853202

> <r_i_glide_energy>
-40.2129290103912

> <r_i_glide_einternal>
10.5926704406738

> <i_i_glide_confnum>
32

> <i_i_glide_posenum>
51

> <r_i_glide_eff_state_penalty>
0

> <i_f3d_flags>
0

> <s_user_duplicate_titles>
191946

> <s_m_subgroup_title>
dock_pv

> <s_m_subgroupid>
dock_pv1

> <b_m_subgroup_collapsed>
1

$$$$
219227
                    3D
 Schrodinger Suite 2021-1.
 33 35  0  0  1  0            999 V2000
    6.3399   70.9551   68.5910 C   0  0  0  0  0  0
    5.0094   70.6422   68.1879 O   0  0  0  0  0  0
    4.7840   70.1079   66.9296 C   0  0  0  0  0  0
    5.7875   70.0634   65.9475 C   0  0  0  0  0  0
    5.5595   69.5032   64.6992 C   0  0  0  0  0  0
    4.3374   68.9378   64.3920 C   0  0  0  0  0  0
    3.2937   68.9694   65.3347 C   0  0  0  0  0  0
    3.4810   69.5794   66.6117 C   0  0  0  0  0  0
    2.3409   69.5916   67.4887 C   0  0  0  0  0  0
    1.1124   69.0489   67.0644 C   0  0  0  0  0  0
    1.0485   68.5112   65.7641 C   0  0  0  0  0  0
    2.1202   68.4240   64.9503 N   0  0  0  0  0  0
   -0.2698   68.1133   65.1234 C   0  0  0  0  0  0
   -1.3598   67.7717   66.1485 C   0  0  0  0  0  0
   -1.4564   68.8986   67.1819 C   0  0  0  0  0  0
   -0.1370   69.0332   67.9638 C   0  0  0  0  0  0
    2.4200   70.1498   68.7678 N   0  0  0  0  0  0
    6.3483   71.2088   69.6489 H   0  0  0  0  0  0
    6.7252   71.8127   68.0437 H   0  0  0  0  0  0
    7.0157   70.1101   68.4561 H   0  0  0  0  0  0
    6.7680   70.4743   66.1300 H   0  0  0  0  0  0
    6.3431   69.5004   63.9598 H   0  0  0  0  0  0
    4.1696   68.4919   63.4208 H   0  0  0  0  0  0
   -0.6171   68.9546   64.5215 H   0  0  0  0  0  0
   -0.0713   67.3080   64.4209 H   0  0  0  0  0  0
   -1.1418   66.8201   66.6345 H   0  0  0  0  0  0
   -2.3184   67.6597   65.6438 H   0  0  0  0  0  0
   -2.2805   68.7123   67.8711 H   0  0  0  0  0  0
   -1.6900   69.8421   66.6856 H   0  0  0  0  0  0
   -0.0543   68.1916   68.6536 H   0  0  0  0  0  0
   -0.1858   69.9355   68.5757 H   0  0  0  0  0  0
    1.6333   70.0995   69.4132 H   0  0  0  0  0  0
    3.3222   70.5064   69.0610 H   0  0  0  0  0  0
  1  2  1  0  0  0
  1 18  1  0  0  0
  1 19  1  0  0  0
  1 20  1  0  0  0
  2  3  1  0  0  0
  3  8  1  0  0  0
  3  4  2  0  0  0
  4  5  1  0  0  0
  4 21  1  0  0  0
  5  6  2  0  0  0
  5 22  1  0  0  0
  6  7  1  0  0  0
  6 23  1  0  0  0
  7 12  2  0  0  0
  7  8  1  0  0  0
  8  9  2  0  0  0
  9 10  1  0  0  0
  9 17  1  0  0  0
 10 16  1  0  0  0
 10 11  2  0  0  0
 11 12  1  0  0  0
 11 13  1  0  0  0
 13 14  1  0  0  0
 13 24  1  0  0  0
 13 25  1  0  0  0
 14 15  1  0  0  0
 14 26  1  0  0  0
 14 27  1  0  0  0
 15 16  1  0  0  0
 15 28  1  0  0  0
 15 29  1  0  0  0
 16 30  1  0  0  0
 16 31  1  0  0  0
 17 32  1  0  0  0
 17 33  1  0  0  0
M  END
> <s_m_entry_id>
9776

> <s_m_entry_name>
ligand_docking-pose.218

> <s_m_Source_Path>
/home/csk/Desktop/cluster/DUD-E-result/aces

> <s_m_Source_File>
ligand_docking-pose.sdf

> <i_m_Source_File_Index>
218

> <i_lp_mmshare_version>
53161

> <r_lp_tautomer_probability>
1

> <s_lp_Force_Field>
OPLS_2005

> <r_lp_Energy>
24.981586

> <b_lp_Chiralities_Consistent>
1

> <s_lp_Variant>
219227-1

> <s_i_glide_gridfile>
glide-grid_1e66

> <i_i_glide_lignum>
2099

> <i_i_glide_rotatable_bonds>
1

> <r_i_docking_score>
-7.41922512076534

> <r_i_glide_ligand_efficiency>
-0.436425007103843

> <r_i_glide_ligand_efficiency_sa>
-1.12217158540922

> <r_i_glide_ligand_efficiency_ln>
-1.93551061598739

> <r_i_glide_gscore>
-7.41922512076534

> <r_i_glide_lipo>
-3.01345602383929

> <r_i_glide_hbond>
-0.16

> <r_i_glide_metal>
0

> <r_i_glide_rewards>
-2.29291387946923

> <r_i_glide_evdw>
-29.5580253601074

> <r_i_glide_ecoul>
-3.16635966300964

> <r_i_glide_erotb>
0

> <r_i_glide_esite>
0

> <r_i_glide_emodel>
-46.2683752334267

> <r_i_glide_energy>
-32.7243850231171

> <r_i_glide_einternal>
0.0748198106884956

> <i_i_glide_confnum>
1

> <i_i_glide_posenum>
399

> <r_i_glide_eff_state_penalty>
0

> <i_f3d_flags>
0

> <s_user_duplicate_titles>
219227

> <s_m_subgroup_title>
dock_pv

> <s_m_subgroupid>
dock_pv1

> <b_m_subgroup_collapsed>
1

$$$$
165026
                    3D
 Schrodinger Suite 2021-1.
 53 54  0  0  1  0            999 V2000
   -1.1175   62.1121   71.7275 C   0  0  0  0  0  0
    0.3150   62.4045   71.7036 N   0  0  2  0  0  0
    0.5767   63.8478   71.5753 C   0  0  0  0  0  0
    0.2310   64.4781   70.2000 C   0  0  0  0  0  0
   -0.0569   65.8613   70.3636 O   0  0  0  0  0  0
    1.0009   66.7627   70.0701 C   0  0  0  0  0  0
    1.1116   67.0367   68.5653 C   0  0  0  0  0  0
   -0.1650   67.4447   67.9676 N   0  0  0  0  0  0
   -0.2874   67.9922   66.7274 C   0  0  0  0  0  0
   -1.8168   68.5066   66.2967 S   0  0  0  0  0  0
    0.8745   68.0893   66.0049 N   0  0  0  0  0  0
    1.1531   68.4878   64.7387 C   0  0  0  0  0  0
    0.3485   68.5083   63.8049 O   0  0  0  0  0  0
    2.6084   68.8378   64.5136 C   0  0  0  0  0  0
    3.1751   68.7171   63.2365 C   0  0  0  0  0  0
    4.5189   69.0303   63.0246 C   0  0  0  0  0  0
    5.3067   69.4793   64.0853 C   0  0  0  0  0  0
    4.7615   69.6278   65.3696 C   0  0  0  0  0  0
    3.4120   69.3082   65.5650 C   0  0  0  0  0  0
    5.5844   70.1254   66.4969 N   0  3  0  0  0  0
    6.8028   70.1277   66.3699 O   0  5  0  0  0  0
    5.0183   70.5084   67.5176 O   0  0  0  0  0  0
    1.0060   61.5629   70.7170 C   0  0  0  0  0  0
    2.5032   61.4573   70.9838 C   0  0  0  0  0  0
    2.9876   60.4469   71.8255 C   0  0  0  0  0  0
    4.3464   60.3761   72.1170 C   0  0  0  0  0  0
    5.2193   61.3252   71.5836 C   0  0  0  0  0  0
    4.7372   62.3511   70.7687 C   0  0  0  0  0  0
    3.3803   62.4159   70.4648 C   0  0  0  0  0  0
   -1.2971   61.0582   71.9515 H   0  0  0  0  0  0
   -1.6110   62.6895   72.5085 H   0  0  0  0  0  0
   -1.6027   62.3429   70.7807 H   0  0  0  0  0  0
    1.6257   64.0388   71.8065 H   0  0  0  0  0  0
    0.0321   64.3697   72.3643 H   0  0  0  0  0  0
   -0.6612   64.0271   69.7681 H   0  0  0  0  0  0
    1.0294   64.3055   69.4796 H   0  0  0  0  0  0
    1.9496   66.4195   70.4843 H   0  0  0  0  0  0
    0.7737   67.7016   70.5703 H   0  0  0  0  0  0
    1.4820   66.1510   68.0477 H   0  0  0  0  0  0
    1.8270   67.8515   68.4501 H   0  0  0  0  0  0
   -1.0041   67.2907   68.5067 H   0  0  0  0  0  0
    1.7048   67.9847   66.5653 H   0  0  0  0  0  0
    2.5798   68.3728   62.4000 H   0  0  0  0  0  0
    4.9506   68.9323   62.0371 H   0  0  0  0  0  0
    6.3408   69.7293   63.8968 H   0  0  0  0  0  0
    2.9962   69.4498   66.5532 H   0  0  0  0  0  0
    0.6034   60.5494   70.7768 H   0  0  0  0  0  0
    0.8167   61.9157   69.7028 H   0  0  0  0  0  0
    2.3103   59.7211   72.2550 H   0  0  0  0  0  0
    4.7224   59.5959   72.7664 H   0  0  0  0  0  0
    6.2730   61.2778   71.8208 H   0  0  0  0  0  0
    5.4126   63.0947   70.3699 H   0  0  0  0  0  0
    3.0160   63.2144   69.8359 H   0  0  0  0  0  0
  1  2  1  0  0  0
  1 30  1  0  0  0
  1 31  1  0  0  0
  1 32  1  0  0  0
  2  3  1  0  0  0
  2 23  1  0  0  0
  3  4  1  0  0  0
  3 33  1  0  0  0
  3 34  1  0  0  0
  4  5  1  0  0  0
  4 35  1  0  0  0
  4 36  1  0  0  0
  5  6  1  0  0  0
  6  7  1  0  0  0
  6 37  1  0  0  0
  6 38  1  0  0  0
  7  8  1  0  0  0
  7 39  1  0  0  0
  7 40  1  0  0  0
  8  9  1  0  0  0
  8 41  1  0  0  0
  9 10  2  0  0  0
  9 11  1  0  0  0
 11 12  1  0  0  0
 11 42  1  0  0  0
 12 13  2  0  0  0
 12 14  1  0  0  0
 14 19  1  0  0  0
 14 15  2  0  0  0
 15 16  1  0  0  0
 15 43  1  0  0  0
 16 17  2  0  0  0
 16 44  1  0  0  0
 17 18  1  0  0  0
 17 45  1  0  0  0
 18 19  2  0  0  0
 18 20  1  0  0  0
 19 46  1  0  0  0
 20 21  1  0  0  0
 20 22  2  0  0  0
 23 24  1  0  0  0
 23 47  1  0  0  0
 23 48  1  0  0  0
 24 29  1  0  0  0
 24 25  2  0  0  0
 25 26  1  0  0  0
 25 49  1  0  0  0
 26 27  2  0  0  0
 26 50  1  0  0  0
 27 28  1  0  0  0
 27 51  1  0  0  0
 28 29  2  0  0  0
 28 52  1  0  0  0
 29 53  1  0  0  0
M  CHG  2  20   1  21  -1
M  END
> <s_m_entry_id>
9777

> <s_m_entry_name>
ligand_docking-pose.219

> <s_m_Source_Path>
/home/csk/Desktop/cluster/DUD-E-result/aces

> <s_m_Source_File>
ligand_docking-pose.sdf

> <i_m_Source_File_Index>
219

> <i_lp_mmshare_version>
53161

> <r_lp_tautomer_probability>
1

> <s_lp_Force_Field>
OPLS_2005

> <r_lp_Energy>
28.886447

> <b_lp_Chiralities_Consistent>
1

> <s_lp_Variant>
165026-1

> <s_i_glide_gridfile>
glide-grid_1e66

> <i_i_glide_lignum>
1826

> <i_i_glide_rotatable_bonds>
13

> <r_i_docking_score>
-7.41634747190614

> <r_i_glide_ligand_efficiency>
-0.255736119720901

> <r_i_glide_ligand_efficiency_sa>
-0.785702382672238

> <r_i_glide_ligand_efficiency_ln>
-1.69815550872108

> <r_i_glide_gscore>
-7.41634747190614

> <r_i_glide_lipo>
-3.41063017980512

> <r_i_glide_hbond>
0

> <r_i_glide_metal>
0

> <r_i_glide_rewards>
-2.53558903747411

> <r_i_glide_evdw>
-55.8215637207031

> <r_i_glide_ecoul>
0.454310059547424

> <r_i_glide_erotb>
1.25280342247613

> <r_i_glide_esite>
0

> <r_i_glide_emodel>
-72.0921218151521

> <r_i_glide_energy>
-55.3672536611557

> <r_i_glide_einternal>
15.9910154342651

> <i_i_glide_confnum>
177

> <i_i_glide_posenum>
26

> <r_i_glide_eff_state_penalty>
0

> <i_f3d_flags>
0

> <s_user_duplicate_titles>
165026

> <s_m_subgroup_title>
dock_pv

> <s_m_subgroupid>
dock_pv1

> <b_m_subgroup_collapsed>
1

$$$$
76620
                    3D
 Schrodinger Suite 2021-1.
 29 31  0  0  1  0            999 V2000
    4.5494   70.5081   68.1362 C   0  0  0  0  0  0
    5.8494   70.6977   67.6960 C   0  0  0  0  0  0
    6.2120   70.3034   66.4169 C   0  0  0  0  0  0
    5.3050   69.6983   65.5483 C   0  0  0  0  0  0
    3.9451   69.4736   65.9731 C   0  0  0  0  0  0
    3.5978   69.8866   67.2975 C   0  0  0  0  0  0
    2.3636   69.7078   67.8188 N   0  0  0  0  0  0
    1.3830   69.1800   67.0592 C   0  0  0  0  0  0
    1.6016   68.7235   65.7457 C   0  0  0  0  0  0
    2.8917   68.8700   65.1984 C   0  0  0  0  0  0
    3.0993   68.4122   63.8928 N   0  0  0  0  0  0
    0.4477   68.0753   64.9598 C   0  0  0  0  0  0
   -0.9452   68.3532   65.5557 C   0  0  0  0  0  0
   -0.9420   68.1222   67.0643 C   0  0  0  0  0  0
    0.0038   69.1355   67.7097 C   0  0  0  0  0  0
    5.9247   69.2388   63.9957 Cl  0  0  0  0  0  0
    7.0168   71.3927   68.7596 Cl  0  0  0  0  0  0
    4.2632   70.8101   69.1344 H   0  0  0  0  0  0
    7.2245   70.4719   66.0930 H   0  0  0  0  0  0
    2.2993   68.1344   63.3453 H   0  0  0  0  0  0
    3.9800   68.6329   63.4484 H   0  0  0  0  0  0
    0.4512   68.3917   63.9170 H   0  0  0  0  0  0
    0.6139   66.9972   64.9543 H   0  0  0  0  0  0
   -1.2542   69.3761   65.3352 H   0  0  0  0  0  0
   -1.6860   67.7086   65.0852 H   0  0  0  0  0  0
   -1.9493   68.2347   67.4710 H   0  0  0  0  0  0
   -0.6271   67.1016   67.2914 H   0  0  0  0  0  0
    0.1066   68.9152   68.7682 H   0  0  0  0  0  0
   -0.4428   70.1289   67.6477 H   0  0  0  0  0  0
  1  6  1  0  0  0
  1  2  2  0  0  0
  1 18  1  0  0  0
  2  3  1  0  0  0
  2 17  1  0  0  0
  3  4  2  0  0  0
  3 19  1  0  0  0
  4  5  1  0  0  0
  4 16  1  0  0  0
  5 10  2  0  0  0
  5  6  1  0  0  0
  6  7  2  0  0  0
  7  8  1  0  0  0
  8 15  1  0  0  0
  8  9  2  0  0  0
  9 10  1  0  0  0
  9 12  1  0  0  0
 10 11  1  0  0  0
 11 20  1  0  0  0
 11 21  1  0  0  0
 12 13  1  0  0  0
 12 22  1  0  0  0
 12 23  1  0  0  0
 13 14  1  0  0  0
 13 24  1  0  0  0
 13 25  1  0  0  0
 14 15  1  0  0  0
 14 26  1  0  0  0
 14 27  1  0  0  0
 15 28  1  0  0  0
 15 29  1  0  0  0
M  END
> <s_m_entry_id>
9778

> <s_m_entry_name>
ligand_docking-pose.220

> <s_m_Source_Path>
/home/csk/Desktop/cluster/DUD-E-result/aces

> <s_m_Source_File>
ligand_docking-pose.sdf

> <i_m_Source_File_Index>
220

> <i_lp_mmshare_version>
53161

> <r_lp_tautomer_probability>
1

> <s_lp_Force_Field>
OPLS_2005

> <r_lp_Energy>
21.333397

> <b_lp_Chiralities_Consistent>
1

> <s_lp_Variant>
76620-1

> <s_i_glide_gridfile>
glide-grid_1e66

> <i_i_glide_lignum>
309

> <i_i_glide_rotatable_bonds>
0

> <r_i_docking_score>
-7.41601739604571

> <r_i_glide_ligand_efficiency>
-0.436236317414454

> <r_i_glide_ligand_efficiency_sa>
-1.121686411085

> <r_i_glide_ligand_efficiency_ln>
-1.93467379204056

> <r_i_glide_gscore>
-7.41601739604571

> <r_i_glide_lipo>
-3.37207727014943

> <r_i_glide_hbond>
0

> <r_i_glide_metal>
0

> <r_i_glide_rewards>
-2.36247041721518

> <r_i_glide_evdw>
-30.3914604187012

> <r_i_glide_ecoul>
-1.07931125164032

> <r_i_glide_erotb>
0

> <r_i_glide_esite>
0

> <r_i_glide_emodel>
-45.2179757176292

> <r_i_glide_energy>
-31.4707716703415

> <r_i_glide_einternal>
0

> <i_i_glide_confnum>
2

> <i_i_glide_posenum>
183

> <r_i_glide_eff_state_penalty>
0

> <i_f3d_flags>
0

> <s_user_duplicate_titles>
76620

> <s_m_subgroup_title>
dock_pv

> <s_m_subgroupid>
dock_pv1

> <b_m_subgroup_collapsed>
1

$$$$
180752
                    3D
 Schrodinger Suite 2021-1.
 44 48  0  0  1  0            999 V2000
    1.4579   63.4837   70.9170 C   0  0  0  0  0  0
    0.2029   63.5689   70.3309 C   0  0  0  0  0  0
   -0.1287   64.6871   69.5685 C   0  0  0  0  0  0
    0.7691   65.7472   69.3681 C   0  0  0  0  0  0
    2.0128   65.6448   70.0139 C   0  0  0  0  0  0
    2.3650   64.5228   70.7625 C   0  0  0  0  0  0
    0.4416   66.9264   68.4823 C   0  0  0  0  0  0
   -0.7165   67.0143   67.7720 C   0  0  0  0  0  0
   -1.1901   68.2772   67.0232 C   0  0  2  0  0  0
   -0.8214   68.2412   65.5365 C   0  0  0  0  0  0
    0.6719   68.4100   65.2350 C   0  0  0  0  0  0
    1.5435   68.9258   66.2101 C   0  0  0  0  0  0
    2.8872   69.1529   65.8569 C   0  0  0  0  0  0
    3.3325   68.8612   64.5378 C   0  0  0  0  0  0
    4.6697   69.0646   64.0845 C   0  0  0  0  0  0
    5.0172   68.7860   62.7667 C   0  0  0  0  0  0
    4.0615   68.3201   61.8725 C   0  0  0  0  0  0
    2.7501   68.1080   62.2805 C   0  0  0  0  0  0
    2.3702   68.3525   63.6191 C   0  0  0  0  0  0
    1.0841   68.1080   63.9790 N   0  0  0  0  0  0
    3.7653   69.7081   66.7944 N   0  0  0  0  0  0
    0.9827   69.3029   67.5892 C   0  0  1  0  0  0
   -0.5361   69.5315   67.5983 C   0  0  0  0  0  0
    1.2804   68.2007   68.6232 C   0  0  0  0  0  0
    1.7217   62.6179   71.5064 H   0  0  0  0  0  0
   -0.5145   62.7723   70.4653 H   0  0  0  0  0  0
   -1.1250   64.7095   69.1680 H   0  0  0  0  0  0
    2.7429   66.4330   69.9680 H   0  0  0  0  0  0
    3.3348   64.4736   71.2354 H   0  0  0  0  0  0
   -1.3683   66.1595   67.7116 H   0  0  0  0  0  0
   -2.2727   68.3556   67.1395 H   0  0  0  0  0  0
   -1.3683   69.0224   65.0064 H   0  0  0  0  0  0
   -1.1866   67.3080   65.1680 H   0  0  0  0  0  0
    5.4221   69.4454   64.7592 H   0  0  0  0  0  0
    6.0316   68.9456   62.4270 H   0  0  0  0  0  0
    4.3429   68.1263   60.8475 H   0  0  0  0  0  0
    2.0140   67.7527   61.5735 H   0  0  0  0  0  0
    3.4080   69.9790   67.6983 H   0  0  0  0  0  0
    4.6909   69.9838   66.5030 H   0  0  0  0  0  0
    1.4469   70.2346   67.9169 H   0  0  0  0  0  0
   -0.8570   69.7543   68.6071 H   0  0  0  0  0  0
   -0.8569   70.4017   67.0233 H   0  0  0  0  0  0
    2.3430   68.1080   68.7680 H   0  0  0  0  0  0
    0.9231   68.5080   69.5680 H   0  0  0  0  0  0
  1  6  1  0  0  0
  1  2  2  0  0  0
  1 25  1  0  0  0
  2  3  1  0  0  0
  2 26  1  0  0  0
  3  4  2  0  0  0
  3 27  1  0  0  0
  4  5  1  0  0  0
  4  7  1  0  0  0
  5  6  2  0  0  0
  5 28  1  0  0  0
  6 29  1  0  0  0
  7 24  1  0  0  0
  7  8  2  0  0  0
  8  9  1  0  0  0
  8 30  1  0  0  0
  9 23  1  0  0  0
  9 10  1  0  0  0
  9 31  1  0  0  0
 10 11  1  0  0  0
 10 32  1  0  0  0
 10 33  1  0  0  0
 11 20  2  0  0  0
 11 12  1  0  0  0
 12 13  2  0  0  0
 12 22  1  0  0  0
 13 14  1  0  0  0
 13 21  1  0  0  0
 14 19  2  0  0  0
 14 15  1  0  0  0
 15 16  2  0  0  0
 15 34  1  0  0  0
 16 17  1  0  0  0
 16 35  1  0  0  0
 17 18  2  0  0  0
 17 36  1  0  0  0
 18 19  1  0  0  0
 18 37  1  0  0  0
 19 20  1  0  0  0
 21 38  1  0  0  0
 21 39  1  0  0  0
 22 23  1  0  0  0
 22 24  1  0  0  0
 22 40  1  0  0  0
 23 41  1  0  0  0
 23 42  1  0  0  0
 24 43  1  0  0  0
 24 44  1  0  0  0
M  END
> <s_m_entry_id>
9780

> <s_m_entry_name>
ligand_docking-pose.222

> <s_m_Source_Path>
/home/csk/Desktop/cluster/DUD-E-result/aces

> <s_m_Source_File>
ligand_docking-pose.sdf

> <i_m_Source_File_Index>
222

> <i_lp_mmshare_version>
53161

> <r_lp_tautomer_probability>
1

> <s_lp_Force_Field>
OPLS_2005

> <r_lp_Energy>
30.214173

> <b_lp_Chiralities_Consistent>
1

> <s_lp_Variant>
180752-2

> <s_i_glide_gridfile>
glide-grid_1e66

> <i_i_glide_lignum>
311

> <i_i_glide_rotatable_bonds>
1

> <r_i_docking_score>
-7.41182888230868

> <r_i_glide_ligand_efficiency>
-0.308826203429528

> <r_i_glide_ligand_efficiency_sa>
-0.890808917448132

> <r_i_glide_ligand_efficiency_ln>
-1.77399075820223

> <r_i_glide_gscore>
-7.41182888230868

> <r_i_glide_lipo>
-3.78976108599386

> <r_i_glide_hbond>
0

> <r_i_glide_metal>
0

> <r_i_glide_rewards>
-2.05993310057395

> <r_i_glide_evdw>
-28.2602424621582

> <r_i_glide_ecoul>
-2.26187992095947

> <r_i_glide_erotb>
0.190159415510959

> <r_i_glide_esite>
0

> <r_i_glide_emodel>
-37.0421098886843

> <r_i_glide_energy>
-30.5221223831177

> <r_i_glide_einternal>
1.14050590991974

> <i_i_glide_confnum>
1

> <i_i_glide_posenum>
165

> <r_i_glide_eff_state_penalty>
0

> <i_f3d_flags>
0

> <s_user_duplicate_titles>
180752

> <s_m_subgroup_title>
dock_pv

> <s_m_subgroupid>
dock_pv1

> <b_m_subgroup_collapsed>
1

$$$$
427367
                    3D
 Schrodinger Suite 2021-1.
 40 42  0  0  1  0            999 V2000
    6.3433   70.3302   66.7774 C   0  0  0  0  0  0
    5.9308   70.9230   67.9648 C   0  0  0  0  0  0
    4.6011   70.8362   68.3679 C   0  0  0  0  0  0
    3.6677   70.1082   67.5857 C   0  0  0  0  0  0
    4.0746   69.4924   66.3682 C   0  0  0  0  0  0
    5.4388   69.6296   65.9860 C   0  0  0  0  0  0
    3.0879   68.7654   65.6273 C   0  0  0  0  0  0
    1.7678   68.6667   66.1291 C   0  0  0  0  0  0
    1.4824   69.3068   67.3544 C   0  0  0  0  0  0
    2.3970   70.0346   68.0364 N   0  0  0  0  0  0
    0.0978   69.2381   67.9971 C   0  0  0  0  0  0
   -1.0171   68.8799   67.0091 C   0  0  0  0  0  0
   -0.6016   67.6368   66.2174 C   0  0  0  0  0  0
    0.6454   67.9311   65.3687 C   0  0  0  0  0  0
    3.4412   68.1193   64.4280 N   0  0  0  0  0  0
    2.9103   68.7102   63.2097 C   0  0  0  0  0  0
    3.8743   69.7079   62.5493 C   0  0  0  0  0  0
    5.0755   69.0730   61.8484 C   0  0  0  0  0  0
    6.0606   68.5081   62.7504 N   0  0  0  0  0  0
    7.3744   70.4059   66.4673 H   0  0  0  0  0  0
    6.6419   71.4670   68.5692 H   0  0  0  0  0  0
    4.2724   71.3057   69.2830 H   0  0  0  0  0  0
    5.7933   69.1619   65.0899 H   0  0  0  0  0  0
   -0.1379   70.1733   68.5102 H   0  0  0  0  0  0
    0.1457   68.4700   68.7675 H   0  0  0  0  0  0
   -1.2138   69.7148   66.3345 H   0  0  0  0  0  0
   -1.9477   68.6980   67.5481 H   0  0  0  0  0  0
   -1.4191   67.3246   65.5695 H   0  0  0  0  0  0
   -0.4089   66.8040   66.8956 H   0  0  0  0  0  0
    0.3183   68.5595   64.5406 H   0  0  0  0  0  0
    1.0142   67.0021   64.9316 H   0  0  0  0  0  0
    4.4348   67.9564   64.3218 H   0  0  0  0  0  0
    1.9468   69.1955   63.3597 H   0  0  0  0  0  0
    2.7158   67.8879   62.5182 H   0  0  0  0  0  0
    4.2021   70.4660   63.2620 H   0  0  0  0  0  0
    3.3056   70.2357   61.7854 H   0  0  0  0  0  0
    5.5652   69.8215   61.2244 H   0  0  0  0  0  0
    4.7240   68.2913   61.1721 H   0  0  0  0  0  0
    6.7824   68.1145   62.1536 H   0  0  0  0  0  0
    6.5173   69.2662   63.2419 H   0  0  0  0  0  0
  1  6  1  0  0  0
  1  2  2  0  0  0
  1 20  1  0  0  0
  2  3  1  0  0  0
  2 21  1  0  0  0
  3  4  2  0  0  0
  3 22  1  0  0  0
  4 10  1  0  0  0
  4  5  1  0  0  0
  5  6  2  0  0  0
  5  7  1  0  0  0
  6 23  1  0  0  0
  7  8  2  0  0  0
  7 15  1  0  0  0
  8 14  1  0  0  0
  8  9  1  0  0  0
  9 10  2  0  0  0
  9 11  1  0  0  0
 11 12  1  0  0  0
 11 24  1  0  0  0
 11 25  1  0  0  0
 12 13  1  0  0  0
 12 26  1  0  0  0
 12 27  1  0  0  0
 13 14  1  0  0  0
 13 28  1  0  0  0
 13 29  1  0  0  0
 14 30  1  0  0  0
 14 31  1  0  0  0
 15 16  1  0  0  0
 15 32  1  0  0  0
 16 17  1  0  0  0
 16 33  1  0  0  0
 16 34  1  0  0  0
 17 18  1  0  0  0
 17 35  1  0  0  0
 17 36  1  0  0  0
 18 19  1  0  0  0
 18 37  1  0  0  0
 18 38  1  0  0  0
 19 39  1  0  0  0
 19 40  1  0  0  0
M  END
> <s_m_entry_id>
9781

> <s_m_entry_name>
ligand_docking-pose.223

> <s_m_Source_Path>
/home/csk/Desktop/cluster/DUD-E-result/aces

> <s_m_Source_File>
ligand_docking-pose.sdf

> <i_m_Source_File_Index>
223

> <i_lp_mmshare_version>
53161

> <r_lp_tautomer_probability>
1

> <s_lp_Force_Field>
OPLS_2005

> <r_lp_Energy>
24.915175

> <b_lp_Chiralities_Consistent>
1

> <s_lp_Variant>
427367-1

> <s_i_glide_gridfile>
glide-grid_1e66

> <i_i_glide_lignum>
214

> <i_i_glide_rotatable_bonds>
4

> <r_i_docking_score>
-7.40373458106291

> <r_i_glide_ligand_efficiency>
-0.389670241108574

> <r_i_glide_ligand_efficiency_sa>
-1.03979671281146

> <r_i_glide_ligand_efficiency_ln>
-1.87700573393773

> <r_i_glide_gscore>
-7.40373458106291

> <r_i_glide_lipo>
-3.39891034165007

> <r_i_glide_hbond>
-0.0777460487559815

> <r_i_glide_metal>
0

> <r_i_glide_rewards>
-2.33468003030303

> <r_i_glide_evdw>
-31.7290496826172

> <r_i_glide_ecoul>
-3.63952708244324

> <r_i_glide_erotb>
0.539983386143525

> <r_i_glide_esite>
0

> <r_i_glide_emodel>
-49.9368046565499

> <r_i_glide_energy>
-35.3685767650604

> <r_i_glide_einternal>
2.94615983963013

> <i_i_glide_confnum>
22

> <i_i_glide_posenum>
68

> <r_i_glide_eff_state_penalty>
0

> <i_f3d_flags>
0

> <s_user_duplicate_titles>
427367

> <s_m_subgroup_title>
dock_pv

> <s_m_subgroupid>
dock_pv1

> <b_m_subgroup_collapsed>
1

$$$$
323332
                    3D
 Schrodinger Suite 2021-1.
 63 66  0  0  1  0            999 V2000
    6.3758   70.5080   66.1220 C   0  0  0  0  0  0
    5.6233   70.2262   64.9891 C   0  0  0  0  0  0
    4.2724   69.8148   65.1086 C   0  0  0  0  0  0
    3.7222   69.7080   66.4189 C   0  0  0  0  0  0
    4.4798   70.1080   67.5424 C   0  0  0  0  0  0
    5.8045   70.4888   67.3859 C   0  0  0  0  0  0
    6.7431   70.9080   68.7680 Cl  0  0  0  0  0  0
    2.4768   69.2351   66.6387 N   0  0  0  0  0  0
    1.7216   68.8396   65.5918 C   0  0  0  0  0  0
    2.1059   69.0566   64.2482 C   0  0  0  0  0  0
    3.4101   69.5297   64.0009 C   0  0  0  0  0  0
    3.8207   69.6155   62.6576 N   0  0  0  0  0  0
    4.8158   68.6544   62.1960 C   0  0  0  0  0  0
    4.3511   67.1896   62.3195 C   0  0  0  0  0  0
    4.5081   66.6895   63.7666 C   0  0  0  0  0  0
    3.7782   65.5196   64.1513 N   0  0  0  0  0  0
    4.3593   64.3336   64.2417 C   0  0  0  0  0  0
    5.3337   63.9989   63.5680 O   0  0  0  0  0  0
    3.7344   63.4165   65.2694 C   0  0  0  0  0  0
    3.7610   63.9012   66.7483 C   0  0  0  0  0  0
    3.3133   62.9080   67.8502 C   0  0  0  0  0  0
    3.1430   63.5991   69.2255 C   0  0  0  0  0  0
    2.8976   62.6662   70.4381 C   0  0  1  0  0  0
    1.6080   61.8143   70.3878 C   0  0  0  0  0  0
    1.9079   60.4226   70.9573 C   0  0  0  0  0  0
    3.4286   59.8985   70.1414 S   0  0  0  0  0  0
    4.3430   61.6040   70.7680 S   0  0  0  0  0  0
    1.0810   68.8617   63.1151 C   0  0  0  0  0  0
   -0.0570   67.9202   63.5051 C   0  0  0  0  0  0
   -0.6606   68.3242   64.8574 C   0  0  0  0  0  0
    0.3969   68.1711   65.9540 C   0  0  0  0  0  0
    7.4089   70.8004   66.0039 H   0  0  0  0  0  0
    6.0779   70.3495   64.0184 H   0  0  0  0  0  0
    4.0354   70.0718   68.5267 H   0  0  0  0  0  0
    3.0296   69.6393   62.0316 H   0  0  0  0  0  0
    5.7462   68.7544   62.7512 H   0  0  0  0  0  0
    5.0625   68.9079   61.1680 H   0  0  0  0  0  0
    4.9498   66.5652   61.6570 H   0  0  0  0  0  0
    3.3233   67.0869   61.9776 H   0  0  0  0  0  0
    4.1473   67.3614   64.5207 H   0  0  0  0  0  0
    5.5430   66.6474   64.0472 H   0  0  0  0  0  0
    2.9116   65.6766   64.6453 H   0  0  0  0  0  0
    4.2821   62.5080   65.1680 H   0  0  0  0  0  0
    2.7430   63.3080   64.8779 H   0  0  0  0  0  0
    3.2102   64.8418   66.8439 H   0  0  0  0  0  0
    4.7904   64.1080   67.0101 H   0  0  0  0  0  0
    4.0556   62.1178   67.9680 H   0  0  0  0  0  0
    2.3891   62.4055   67.5703 H   0  0  0  0  0  0
    2.3223   64.3160   69.1680 H   0  0  0  0  0  0
    4.0326   64.1977   69.4326 H   0  0  0  0  0  0
    2.8381   63.2948   71.3287 H   0  0  0  0  0  0
    1.2383   61.7080   69.3684 H   0  0  0  0  0  0
    0.8110   62.2894   70.9616 H   0  0  0  0  0  0
    1.1067   59.7089   70.7680 H   0  0  0  0  0  0
    2.0796   60.4537   72.0350 H   0  0  0  0  0  0
    0.6589   69.8372   62.8684 H   0  0  0  0  0  0
    1.5380   68.4932   62.1977 H   0  0  0  0  0  0
   -0.8269   67.9088   62.7323 H   0  0  0  0  0  0
    0.3430   66.9081   63.5681 H   0  0  0  0  0  0
   -1.0261   69.3472   64.8187 H   0  0  0  0  0  0
   -1.5267   67.7080   65.0998 H   0  0  0  0  0  0
    0.0137   68.5470   66.9047 H   0  0  0  0  0  0
    0.5894   67.1080   66.1070 H   0  0  0  0  0  0
  1  6  1  0  0  0
  1  2  2  0  0  0
  1 32  1  0  0  0
  2  3  1  0  0  0
  2 33  1  0  0  0
  3 11  2  0  0  0
  3  4  1  0  0  0
  4  5  1  0  0  0
  4  8  2  0  0  0
  5  6  2  0  0  0
  5 34  1  0  0  0
  6  7  1  0  0  0
  8  9  1  0  0  0
  9 31  1  0  0  0
  9 10  2  0  0  0
 10 11  1  0  0  0
 10 28  1  0  0  0
 11 12  1  0  0  0
 12 13  1  0  0  0
 12 35  1  0  0  0
 13 14  1  0  0  0
 13 36  1  0  0  0
 13 37  1  0  0  0
 14 15  1  0  0  0
 14 38  1  0  0  0
 14 39  1  0  0  0
 15 16  1  0  0  0
 15 40  1  0  0  0
 15 41  1  0  0  0
 16 17  1  0  0  0
 16 42  1  0  0  0
 17 18  2  0  0  0
 17 19  1  0  0  0
 19 20  1  0  0  0
 19 43  1  0  0  0
 19 44  1  0  0  0
 20 21  1  0  0  0
 20 45  1  0  0  0
 20 46  1  0  0  0
 21 22  1  0  0  0
 21 47  1  0  0  0
 21 48  1  0  0  0
 22 23  1  0  0  0
 22 49  1  0  0  0
 22 50  1  0  0  0
 23 27  1  0  0  0
 23 24  1  0  0  0
 23 51  1  0  0  0
 24 25  1  0  0  0
 24 52  1  0  0  0
 24 53  1  0  0  0
 25 26  1  0  0  0
 25 54  1  0  0  0
 25 55  1  0  0  0
 26 27  1  0  0  0
 28 29  1  0  0  0
 28 56  1  0  0  0
 28 57  1  0  0  0
 29 30  1  0  0  0
 29 58  1  0  0  0
 29 59  1  0  0  0
 30 31  1  0  0  0
 30 60  1  0  0  0
 30 61  1  0  0  0
 31 62  1  0  0  0
 31 63  1  0  0  0
M  END
> <s_m_entry_id>
9782

> <s_m_entry_name>
ligand_docking-pose.224

> <s_m_Source_Path>
/home/csk/Desktop/cluster/DUD-E-result/aces

> <s_m_Source_File>
ligand_docking-pose.sdf

> <i_m_Source_File_Index>
224

> <i_lp_mmshare_version>
53161

> <r_lp_tautomer_probability>
1

> <s_lp_Force_Field>
OPLS_2005

> <r_lp_Energy>
24.996927

> <b_lp_Chiralities_Consistent>
1

> <s_lp_Variant>
323332-2

> <s_i_glide_gridfile>
glide-grid_1e66

> <i_i_glide_lignum>
33

> <i_i_glide_rotatable_bonds>
11

> <r_i_docking_score>
-7.40015857698786

> <r_i_glide_ligand_efficiency>
-0.23871479280606

> <r_i_glide_ligand_efficiency_sa>
-0.749894030702202

> <r_i_glide_ligand_efficiency_ln>
-1.66896254673498

> <r_i_glide_gscore>
-7.40015857698786

> <r_i_glide_lipo>
-3.90171729040038

> <r_i_glide_hbond>
-0.115345172306421

> <r_i_glide_metal>
0

> <r_i_glide_rewards>
-1.22919465911308

> <r_i_glide_evdw>
-40.1699409484863

> <r_i_glide_ecoul>
-6.2876353263855

> <r_i_glide_erotb>
0.797740891214162

> <r_i_glide_esite>
0

> <r_i_glide_emodel>
-51.0004971829738

> <r_i_glide_energy>
-46.4575762748718

> <r_i_glide_einternal>
16.3896064758301

> <i_i_glide_confnum>
77

> <i_i_glide_posenum>
27

> <r_i_glide_eff_state_penalty>
0

> <i_f3d_flags>
0

> <s_user_duplicate_titles>
323332

> <s_m_subgroup_title>
dock_pv

> <s_m_subgroupid>
dock_pv1

> <b_m_subgroup_collapsed>
1

$$$$
85957
                    3D
 Schrodinger Suite 2021-1.
 52 54  0  0  1  0            999 V2000
    3.5418   69.2640   60.9123 C   0  0  0  0  0  0
    2.3062   69.0496   61.5144 C   0  0  0  0  0  0
    2.2086   69.0923   62.8990 C   0  0  0  0  0  0
    3.3614   69.2608   63.6817 C   0  0  0  0  0  0
    4.5905   69.4986   63.0624 C   0  0  0  0  0  0
    4.6739   69.5227   61.6770 C   0  0  0  0  0  0
    3.3312   69.2927   65.2082 C   0  0  0  0  0  0
    2.0676   68.8997   65.8420 N   0  0  1  0  0  0
    1.7190   67.4836   65.6072 C   0  0  0  0  0  0
    0.4190   67.1162   66.3432 C   0  0  0  0  0  0
    0.6552   67.2614   67.8461 C   0  0  0  0  0  0
    0.9183   68.7618   68.0798 C   0  0  0  0  0  0
    2.1185   69.2805   67.2661 C   0  0  0  0  0  0
   -0.4637   66.6862   68.7264 C   0  0  0  0  0  0
   -0.0259   66.5402   70.2069 C   0  0  0  0  0  0
    0.9116   65.4533   70.4586 N   0  0  0  0  0  0
    0.6313   64.1465   70.3326 C   0  0  0  0  0  0
   -0.4570   63.7096   69.9665 O   0  0  0  0  0  0
    1.7362   63.2011   70.6943 C   0  0  0  0  0  0
    1.4132   61.9663   71.2677 C   0  0  0  0  0  0
    2.4150   61.0588   71.5807 C   0  0  0  0  0  0
    3.7428   61.3815   71.3035 C   0  0  0  0  0  0
    4.0749   62.6148   70.7345 C   0  0  0  0  0  0
    3.0736   63.5265   70.4356 C   0  0  0  0  0  0
    4.7892   60.3808   71.5618 C   0  0  0  0  0  0
    5.9442   60.5083   71.1705 O   0  0  0  0  0  0
    3.6321   69.2402   59.8369 H   0  0  0  0  0  0
    1.4258   68.8831   60.9102 H   0  0  0  0  0  0
    1.2346   68.9821   63.3522 H   0  0  0  0  0  0
    5.4794   69.6796   63.6502 H   0  0  0  0  0  0
    5.6159   69.7135   61.1819 H   0  0  0  0  0  0
    3.5442   70.3262   65.4873 H   0  0  0  0  0  0
    4.1533   68.6894   65.5982 H   0  0  0  0  0  0
    2.5427   66.8606   65.9604 H   0  0  0  0  0  0
    1.6153   67.2448   64.5512 H   0  0  0  0  0  0
    0.1584   66.0912   66.1059 H   0  0  0  0  0  0
   -0.4452   67.6866   65.9985 H   0  0  0  0  0  0
    1.5429   66.6874   68.0839 H   0  0  0  0  0  0
    0.0303   69.3691   67.8962 H   0  0  0  0  0  0
    1.1441   68.9348   69.1282 H   0  0  0  0  0  0
    3.0387   68.9076   67.7159 H   0  0  0  0  0  0
    2.1772   70.3676   67.3395 H   0  0  0  0  0  0
   -0.7691   65.7112   68.3497 H   0  0  0  0  0  0
   -1.3577   67.2968   68.6183 H   0  0  0  0  0  0
   -0.8570   66.5106   70.8999 H   0  0  0  0  0  0
    0.5112   67.4311   70.5171 H   0  0  0  0  0  0
    1.8258   65.7155   70.7928 H   0  0  0  0  0  0
    0.3833   61.6994   71.4663 H   0  0  0  0  0  0
    2.1423   60.1058   72.0143 H   0  0  0  0  0  0
    5.1013   62.8736   70.5132 H   0  0  0  0  0  0
    3.3468   64.4687   69.9800 H   0  0  0  0  0  0
    4.4708   59.4994   72.1183 H   0  0  0  0  0  0
  1  6  1  0  0  0
  1  2  2  0  0  0
  1 27  1  0  0  0
  2  3  1  0  0  0
  2 28  1  0  0  0
  3  4  2  0  0  0
  3 29  1  0  0  0
  4  5  1  0  0  0
  4  7  1  0  0  0
  5  6  2  0  0  0
  5 30  1  0  0  0
  6 31  1  0  0  0
  7  8  1  0  0  0
  7 32  1  0  0  0
  7 33  1  0  0  0
  8 13  1  0  0  0
  8  9  1  0  0  0
  9 10  1  0  0  0
  9 34  1  0  0  0
  9 35  1  0  0  0
 10 11  1  0  0  0
 10 36  1  0  0  0
 10 37  1  0  0  0
 11 12  1  0  0  0
 11 14  1  0  0  0
 11 38  1  0  0  0
 12 13  1  0  0  0
 12 39  1  0  0  0
 12 40  1  0  0  0
 13 41  1  0  0  0
 13 42  1  0  0  0
 14 15  1  0  0  0
 14 43  1  0  0  0
 14 44  1  0  0  0
 15 16  1  0  0  0
 15 45  1  0  0  0
 15 46  1  0  0  0
 16 17  1  0  0  0
 16 47  1  0  0  0
 17 18  2  0  0  0
 17 19  1  0  0  0
 19 24  1  0  0  0
 19 20  2  0  0  0
 20 21  1  0  0  0
 20 48  1  0  0  0
 21 22  2  0  0  0
 21 49  1  0  0  0
 22 23  1  0  0  0
 22 25  1  0  0  0
 23 24  2  0  0  0
 23 50  1  0  0  0
 24 51  1  0  0  0
 25 26  2  0  0  0
 25 52  1  0  0  0
M  END
> <s_m_entry_id>
9783

> <s_m_entry_name>
ligand_docking-pose.225

> <s_m_Source_Path>
/home/csk/Desktop/cluster/DUD-E-result/aces

> <s_m_Source_File>
ligand_docking-pose.sdf

> <i_m_Source_File_Index>
225

> <i_lp_mmshare_version>
53161

> <r_lp_tautomer_probability>
1

> <s_lp_Force_Field>
OPLS_2005

> <r_lp_Energy>
27.402678

> <b_lp_Chiralities_Consistent>
1

> <s_lp_Variant>
85957-1

> <s_i_glide_gridfile>
glide-grid_1e66

> <i_i_glide_lignum>
426

> <i_i_glide_rotatable_bonds>
8

> <r_i_docking_score>
-7.38903265142909

> <r_i_glide_ligand_efficiency>
-0.284193563516503

> <r_i_glide_ligand_efficiency_sa>
-0.841922313669967

> <r_i_glide_ligand_efficiency_ln>
-1.73529007279445

> <r_i_glide_gscore>
-7.38903265142909

> <r_i_glide_lipo>
-3.52683688858369

> <r_i_glide_hbond>
-0.159379318450041

> <r_i_glide_metal>
0

> <r_i_glide_rewards>
-2.25669761994185

> <r_i_glide_evdw>
-41.8620300292969

> <r_i_glide_ecoul>
-2.92932891845703

> <r_i_glide_erotb>
1.08638201477989

> <r_i_glide_esite>
0

> <r_i_glide_emodel>
-59.2955325301203

> <r_i_glide_energy>
-44.7913589477539

> <r_i_glide_einternal>
4.16245317459106

> <i_i_glide_confnum>
42

> <i_i_glide_posenum>
81

> <r_i_glide_eff_state_penalty>
0

> <i_f3d_flags>
0

> <s_user_duplicate_titles>
85957

> <s_m_subgroup_title>
dock_pv

> <s_m_subgroupid>
dock_pv1

> <b_m_subgroup_collapsed>
1

$$$$
256805
                    3D
 Schrodinger Suite 2021-1.
 55 57  0  0  1  0            999 V2000
    4.1967   60.6998   72.8555 C   0  0  0  0  0  0
    3.7651   61.2171   71.4743 C   0  0  0  0  0  0
    2.4056   61.9383   71.4987 C   0  0  0  0  0  0
    2.0083   62.4056   70.0769 C   0  0  0  0  0  0
    3.0118   63.2922   69.4495 N   0  0  2  0  0  0
    4.3429   62.6619   69.4573 C   0  0  0  0  0  0
    4.7951   62.1799   70.8597 C   0  0  0  0  0  0
    3.0883   64.6170   70.0884 C   0  0  0  0  0  0
    1.7986   65.4061   70.0089 C   0  0  0  0  0  0
    0.8090   65.6751   70.9324 C   0  0  0  0  0  0
   -0.0892   66.5058   70.3022 C   0  0  0  0  0  0
    0.2160   66.5128   68.9575 C   0  0  0  0  0  0
    1.4374   65.9351   68.8054 O   0  0  0  0  0  0
   -0.5747   66.9215   67.7215 C   0  0  0  0  0  0
   -0.0825   68.1202   67.0565 N   0  0  1  0  0  0
    1.0544   67.8834   66.1770 C   0  0  0  0  0  0
    2.0908   68.9533   66.5151 C   0  0  0  0  0  0
    3.3168   68.9074   65.7244 N   0  0  0  0  0  0
    3.2764   69.0757   64.2862 C   0  0  0  0  0  0
    4.6925   68.6694   63.9562 C   0  0  0  0  0  0
    5.3823   69.1797   65.1216 N   0  0  0  0  0  0
    4.5081   69.4874   66.1506 C   0  0  0  0  0  0
    4.7957   70.1673   67.2826 C   0  0  0  0  0  0
    3.8620   70.5073   68.3011 C   0  0  0  0  0  0
    3.1441   70.7642   69.1680 N   0  0  0  0  0  0
    6.1038   70.5884   67.6033 C   0  0  0  0  0  0
    7.1430   70.9078   67.9774 N   0  0  0  0  0  0
    4.3238   61.5166   73.5674 H   0  0  0  0  0  0
    3.4597   60.0105   73.2681 H   0  0  0  0  0  0
    5.1433   60.1633   72.7915 H   0  0  0  0  0  0
    3.6673   60.3643   70.7987 H   0  0  0  0  0  0
    2.4068   62.7758   72.1971 H   0  0  0  0  0  0
    1.6424   61.2683   71.8960 H   0  0  0  0  0  0
    1.0303   62.8879   70.0935 H   0  0  0  0  0  0
    1.8835   61.5387   69.4259 H   0  0  0  0  0  0
    4.3117   61.8162   68.7693 H   0  0  0  0  0  0
    5.0746   63.3540   69.0387 H   0  0  0  0  0  0
    5.7604   61.6785   70.7904 H   0  0  0  0  0  0
    4.9944   63.0283   71.5159 H   0  0  0  0  0  0
    3.8883   65.1884   69.6211 H   0  0  0  0  0  0
    3.3840   64.5255   71.1334 H   0  0  0  0  0  0
    0.7429   65.3508   71.9606 H   0  0  0  0  0  0
   -0.9597   66.9080   70.7808 H   0  0  0  0  0  0
   -1.6140   67.0953   68.0017 H   0  0  0  0  0  0
   -0.5924   66.1082   66.9949 H   0  0  0  0  0  0
   -0.8407   68.5560   66.5481 H   0  0  0  0  0  0
    0.7251   67.9455   65.1390 H   0  0  0  0  0  0
    1.4859   66.8898   66.3169 H   0  0  0  0  0  0
    2.3427   68.7865   67.5612 H   0  0  0  0  0  0
    1.6621   69.9525   66.4538 H   0  0  0  0  0  0
    3.0687   70.1084   64.0090 H   0  0  0  0  0  0
    2.5439   68.4308   63.8003 H   0  0  0  0  0  0
    4.7994   67.5850   63.8969 H   0  0  0  0  0  0
    5.0523   69.1133   63.0264 H   0  0  0  0  0  0
    6.2192   69.7234   64.9526 H   0  0  0  0  0  0
  1  2  1  0  0  0
  1 28  1  0  0  0
  1 29  1  0  0  0
  1 30  1  0  0  0
  2  7  1  0  0  0
  2  3  1  0  0  0
  2 31  1  0  0  0
  3  4  1  0  0  0
  3 32  1  0  0  0
  3 33  1  0  0  0
  4  5  1  0  0  0
  4 34  1  0  0  0
  4 35  1  0  0  0
  5  6  1  0  0  0
  5  8  1  0  0  0
  6  7  1  0  0  0
  6 36  1  0  0  0
  6 37  1  0  0  0
  7 38  1  0  0  0
  7 39  1  0  0  0
  8  9  1  0  0  0
  8 40  1  0  0  0
  8 41  1  0  0  0
  9 13  1  0  0  0
  9 10  2  0  0  0
 10 11  1  0  0  0
 10 42  1  0  0  0
 11 12  2  0  0  0
 11 43  1  0  0  0
 12 13  1  0  0  0
 12 14  1  0  0  0
 14 15  1  0  0  0
 14 44  1  0  0  0
 14 45  1  0  0  0
 15 16  1  0  0  0
 15 46  1  0  0  0
 16 17  1  0  0  0
 16 47  1  0  0  0
 16 48  1  0  0  0
 17 18  1  0  0  0
 17 49  1  0  0  0
 17 50  1  0  0  0
 18 22  1  0  0  0
 18 19  1  0  0  0
 19 20  1  0  0  0
 19 51  1  0  0  0
 19 52  1  0  0  0
 20 21  1  0  0  0
 20 53  1  0  0  0
 20 54  1  0  0  0
 21 22  1  0  0  0
 21 55  1  0  0  0
 22 23  2  3  0  0
 23 24  1  0  0  0
 23 26  1  0  0  0
 24 25  3  0  0  0
 26 27  3  0  0  0
M  END
> <s_m_entry_id>
9784

> <s_m_entry_name>
ligand_docking-pose.226

> <s_m_Source_Path>
/home/csk/Desktop/cluster/DUD-E-result/aces

> <s_m_Source_File>
ligand_docking-pose.sdf

> <i_m_Source_File_Index>
226

> <i_lp_mmshare_version>
53161

> <r_lp_tautomer_probability>
0.5

> <s_lp_Force_Field>
OPLS_2005

> <r_lp_Energy>
42.280314

> <b_lp_Chiralities_Consistent>
1

> <s_lp_Variant>
256805-1

> <s_i_glide_gridfile>
glide-grid_1e66

> <i_i_glide_lignum>
826

> <i_i_glide_rotatable_bonds>
7

> <r_i_docking_score>
-7.3793599622076

> <r_i_glide_ligand_efficiency>
-0.273309628229911

> <r_i_glide_ligand_efficiency_sa>
-0.81992888378895

> <r_i_glide_ligand_efficiency_ln>
-1.71779334094484

> <r_i_glide_gscore>
-7.3793599622076

> <r_i_glide_lipo>
-3.5187729893483

> <r_i_glide_hbond>
0

> <r_i_glide_metal>
0

> <r_i_glide_rewards>
-3.00239206389831

> <r_i_glide_evdw>
-32.7660942077637

> <r_i_glide_ecoul>
-1.42259931564331

> <r_i_glide_erotb>
0.993499698773686

> <r_i_glide_esite>
0

> <r_i_glide_emodel>
-36.4278731805123

> <r_i_glide_energy>
-34.188693523407

> <r_i_glide_einternal>
4.78619623184204

> <i_i_glide_confnum>
107

> <i_i_glide_posenum>
154

> <r_i_glide_eff_state_penalty>
0

> <i_f3d_flags>
0

> <s_user_duplicate_titles>
256805

> <s_m_subgroup_title>
dock_pv

> <s_m_subgroupid>
dock_pv1

> <b_m_subgroup_collapsed>
1

$$$$
487436
                    3D
 Schrodinger Suite 2021-1.
 68 71  0  0  1  0            999 V2000
    1.9138   64.9795   70.6094 C   0  0  0  0  0  0
    1.9430   66.2619   70.0604 C   0  0  0  0  0  0
    0.9328   66.7287   69.2141 C   0  0  0  0  0  0
   -0.1698   65.8816   69.0099 C   0  0  0  0  0  0
   -0.2128   64.6019   69.5680 C   0  0  0  0  0  0
    0.8319   64.1450   70.3613 C   0  0  0  0  0  0
    0.7821   62.5556   71.0307 Cl  0  0  0  0  0  0
   -1.2570   66.2448   68.2149 N   0  0  0  0  0  0
   -1.2056   67.3328   67.5680 C   0  0  0  0  0  0
   -0.2046   68.2952   67.7286 N   0  0  0  0  0  0
    0.9493   68.0747   68.5289 C   0  0  0  0  0  0
    1.9429   68.8523   68.7681 N   0  0  0  0  0  0
    2.0922   70.2178   68.3384 C   0  0  0  0  0  0
    3.5775   70.5898   68.4513 C   0  0  0  0  0  0
    4.3552   70.1077   67.2230 C   0  0  0  0  0  0
    5.7912   70.6350   67.1712 C   0  0  0  0  0  0
    6.5559   70.1159   65.9492 C   0  0  0  0  0  0
    5.9432   70.5089   64.5713 C   0  0  0  0  0  0
    5.9430   69.4652   63.5447 N   0  0  0  0  0  0
    5.4284   68.2348   63.6566 C   0  0  0  0  0  0
    4.9119   67.7947   64.6810 O   0  0  0  0  0  0
    5.4909   67.3466   62.4142 C   0  0  0  0  0  0
    4.0989   67.1441   61.7941 C   0  0  0  0  0  0
    3.6116   68.3397   60.9486 C   0  0  0  0  0  0
    2.0853   68.5783   60.9700 C   0  0  0  0  0  0
    1.6528   69.6450   61.9577 C   0  0  1  0  0  0
    0.1409   69.8634   62.0809 C   0  0  0  0  0  0
   -0.4718   68.7437   62.9365 C   0  0  0  0  0  0
    0.7429   68.0273   64.0796 S   0  0  0  0  0  0
    2.2437   69.3079   63.6313 S   0  0  0  0  0  0
   -0.5472   69.5151   67.0106 C   0  0  0  0  0  0
   -1.9619   69.2630   66.5037 C   0  0  0  0  0  0
   -2.1772   67.7698   66.5152 C   0  0  0  0  0  0
    2.7253   64.6456   71.2389 H   0  0  0  0  0  0
    2.7619   66.9080   70.3148 H   0  0  0  0  0  0
   -1.0525   63.9514   69.3754 H   0  0  0  0  0  0
    1.5178   70.8671   69.0012 H   0  0  0  0  0  0
    1.7621   70.3982   67.3211 H   0  0  0  0  0  0
    4.0166   70.1912   69.3679 H   0  0  0  0  0  0
    3.6802   71.6699   68.5474 H   0  0  0  0  0  0
    3.8104   70.4295   66.3386 H   0  0  0  0  0  0
    4.3566   69.0222   67.1664 H   0  0  0  0  0  0
    6.3188   70.3336   68.0774 H   0  0  0  0  0  0
    5.7866   71.7239   67.1704 H   0  0  0  0  0  0
    6.6761   69.0367   66.0427 H   0  0  0  0  0  0
    7.5670   70.5081   66.0060 H   0  0  0  0  0  0
    6.5360   71.3233   64.1561 H   0  0  0  0  0  0
    4.9287   70.8931   64.6412 H   0  0  0  0  0  0
    6.3829   69.7084   62.6697 H   0  0  0  0  0  0
    5.8751   66.3805   62.7325 H   0  0  0  0  0  0
    6.2038   67.7258   61.6825 H   0  0  0  0  0  0
    3.3839   66.9090   62.5823 H   0  0  0  0  0  0
    4.1360   66.2583   61.1680 H   0  0  0  0  0  0
    3.9429   68.1861   59.9298 H   0  0  0  0  0  0
    4.1268   69.2545   61.2476 H   0  0  0  0  0  0
    1.5176   67.7080   61.2312 H   0  0  0  0  0  0
    1.7455   68.8604   59.9728 H   0  0  0  0  0  0
    2.1575   70.5080   61.5682 H   0  0  0  0  0  0
   -0.3211   69.9043   61.0945 H   0  0  0  0  0  0
   -0.0574   70.8329   62.5415 H   0  0  0  0  0  0
   -0.7882   67.9086   62.3114 H   0  0  0  0  0  0
   -1.3526   69.0814   63.4794 H   0  0  0  0  0  0
   -0.5399   70.3798   67.6767 H   0  0  0  0  0  0
    0.1307   69.7036   66.1867 H   0  0  0  0  0  0
   -2.6818   69.7080   67.1680 H   0  0  0  0  0  0
   -2.1394   69.7080   65.5330 H   0  0  0  0  0  0
   -1.9105   67.3095   65.5680 H   0  0  0  0  0  0
   -3.2044   67.5013   66.7656 H   0  0  0  0  0  0
  1  6  1  0  0  0
  1  2  2  0  0  0
  1 34  1  0  0  0
  2  3  1  0  0  0
  2 35  1  0  0  0
  3 11  1  0  0  0
  3  4  2  0  0  0
  4  5  1  0  0  0
  4  8  1  0  0  0
  5  6  2  0  0  0
  5 36  1  0  0  0
  6  7  1  0  0  0
  8  9  2  0  0  0
  9 33  1  0  0  0
  9 10  1  0  0  0
 10 11  1  0  0  0
 10 31  1  0  0  0
 11 12  2  0  0  0
 12 13  1  0  0  0
 13 14  1  0  0  0
 13 37  1  0  0  0
 13 38  1  0  0  0
 14 15  1  0  0  0
 14 39  1  0  0  0
 14 40  1  0  0  0
 15 16  1  0  0  0
 15 41  1  0  0  0
 15 42  1  0  0  0
 16 17  1  0  0  0
 16 43  1  0  0  0
 16 44  1  0  0  0
 17 18  1  0  0  0
 17 45  1  0  0  0
 17 46  1  0  0  0
 18 19  1  0  0  0
 18 47  1  0  0  0
 18 48  1  0  0  0
 19 20  1  0  0  0
 19 49  1  0  0  0
 20 21  2  0  0  0
 20 22  1  0  0  0
 22 23  1  0  0  0
 22 50  1  0  0  0
 22 51  1  0  0  0
 23 24  1  0  0  0
 23 52  1  0  0  0
 23 53  1  0  0  0
 24 25  1  0  0  0
 24 54  1  0  0  0
 24 55  1  0  0  0
 25 26  1  0  0  0
 25 56  1  0  0  0
 25 57  1  0  0  0
 26 30  1  0  0  0
 26 27  1  0  0  0
 26 58  1  0  0  0
 27 28  1  0  0  0
 27 59  1  0  0  0
 27 60  1  0  0  0
 28 29  1  0  0  0
 28 61  1  0  0  0
 28 62  1  0  0  0
 29 30  1  0  0  0
 31 32  1  0  0  0
 31 63  1  0  0  0
 31 64  1  0  0  0
 32 33  1  0  0  0
 32 65  1  0  0  0
 32 66  1  0  0  0
 33 67  1  0  0  0
 33 68  1  0  0  0
M  END
> <s_m_entry_id>
9787

> <s_m_entry_name>
ligand_docking-pose.229

> <s_m_Source_Path>
/home/csk/Desktop/cluster/DUD-E-result/aces

> <s_m_Source_File>
ligand_docking-pose.sdf

> <i_m_Source_File_Index>
229

> <i_lp_mmshare_version>
53161

> <r_lp_tautomer_probability>
0.5

> <s_lp_Force_Field>
OPLS_2005

> <r_lp_Energy>
44.947593

> <b_lp_Chiralities_Consistent>
1

> <s_lp_Variant>
487436-2

> <s_i_glide_gridfile>
glide-grid_1e66

> <i_i_glide_lignum>
42

> <i_i_glide_rotatable_bonds>
13

> <r_i_docking_score>
-7.37595196644407

> <r_i_glide_ligand_efficiency>
-0.223513695952851

> <r_i_glide_ligand_efficiency_sa>
-0.716927852157436

> <r_i_glide_ligand_efficiency_ln>
-1.6403735267018

> <r_i_glide_gscore>
-7.37595196644407

> <r_i_glide_lipo>
-4.58621432508312

> <r_i_glide_hbond>
0

> <r_i_glide_metal>
0

> <r_i_glide_rewards>
-1.69722775818965

> <r_i_glide_evdw>
-36.0285758972168

> <r_i_glide_ecoul>
-1.63909864425659

> <r_i_glide_erotb>
0.954783708328041

> <r_i_glide_esite>
0

> <r_i_glide_emodel>
-38.9966238995475

> <r_i_glide_energy>
-37.6676745414734

> <r_i_glide_einternal>
12.5280351638794

> <i_i_glide_confnum>
74

> <i_i_glide_posenum>
318

> <r_i_glide_eff_state_penalty>
0

> <i_f3d_flags>
0

> <s_user_duplicate_titles>
487436

> <s_m_subgroup_title>
dock_pv

> <s_m_subgroupid>
dock_pv1

> <b_m_subgroup_collapsed>
1

$$$$
508889
                    3D
 Schrodinger Suite 2021-1.
 78 83  0  0  1  0            999 V2000
    6.2924   70.4877   66.3150 C   0  0  0  0  0  0
    6.0044   70.7672   67.6453 C   0  0  0  0  0  0
    4.7387   70.5121   68.1579 C   0  0  0  0  0  0
    3.7348   69.9636   67.3291 C   0  0  0  0  0  0
    4.0057   69.6904   65.9564 C   0  0  0  0  0  0
    5.3164   69.9649   65.4669 C   0  0  0  0  0  0
    2.9385   69.1543   65.1649 C   0  0  0  0  0  0
    1.6802   68.9058   65.7677 C   0  0  0  0  0  0
    1.5279   69.2059   67.1390 C   0  0  0  0  0  0
    2.5325   69.7070   67.8921 N   0  0  0  0  0  0
    0.1958   69.0341   67.8711 C   0  0  0  0  0  0
   -0.8373   68.2011   67.0973 C   0  0  0  0  0  0
   -0.8781   68.6451   65.6345 C   0  0  0  0  0  0
    0.4777   68.3573   64.9708 C   0  0  0  0  0  0
    3.1058   68.9147   63.7819 N   0  0  0  0  0  0
    3.7759   67.6881   63.3344 C   0  0  0  0  0  0
    3.4800   66.4564   64.2010 C   0  0  0  0  0  0
    4.0029   65.0966   63.7014 C   0  0  0  0  0  0
    3.3948   63.8908   64.4615 C   0  0  0  0  0  0
    3.5440   64.0987   65.8941 N   0  0  2  0  0  0
    3.3531   62.9104   66.7297 C   0  0  0  0  0  0
    3.6832   63.2273   68.1891 C   0  0  0  0  0  0
    3.1132   62.1834   69.1712 C   0  0  0  0  0  0
    3.7565   62.3741   70.8554 S   0  0  0  0  0  0
    2.3629   62.4460   71.9704 C   0  0  0  0  0  0
    1.4900   63.5776   71.8405 C   0  0  0  0  0  0
    1.5266   64.5607   70.8043 C   0  0  0  0  0  0
    0.7458   65.7085   70.8649 C   0  0  0  0  0  0
   -0.0571   65.9420   71.9692 C   0  0  0  0  0  0
   -0.1960   64.9710   72.9623 C   0  0  0  0  0  0
    0.5475   63.7662   72.8940 C   0  0  0  0  0  0
    0.3939   62.8661   73.8977 N   0  0  0  0  0  0
    1.1791   61.7615   73.9439 C   0  0  0  0  0  0
    2.2369   61.5416   73.0372 C   0  0  0  0  0  0
    3.2633   60.4213   73.2747 C   0  0  0  0  0  0
    2.8578   59.4002   74.3595 C   0  0  0  0  0  0
    2.1840   60.0847   75.5584 C   0  0  0  0  0  0
    0.9039   60.7856   75.0869 C   0  0  0  0  0  0
    7.2840   70.6861   65.9392 H   0  0  0  0  0  0
    6.7715   71.1782   68.2846 H   0  0  0  0  0  0
    4.5153   70.7176   69.1963 H   0  0  0  0  0  0
    5.5623   69.7686   64.4319 H   0  0  0  0  0  0
    0.3709   68.5765   68.8429 H   0  0  0  0  0  0
   -0.2153   70.0253   68.0710 H   0  0  0  0  0  0
   -1.8189   68.3170   67.5603 H   0  0  0  0  0  0
   -0.5894   67.1389   67.1619 H   0  0  0  0  0  0
   -1.1231   69.7071   65.5765 H   0  0  0  0  0  0
   -1.6698   68.1138   65.1025 H   0  0  0  0  0  0
    0.4722   68.7567   63.9553 H   0  0  0  0  0  0
    0.5617   67.2762   64.8794 H   0  0  0  0  0  0
    3.4116   69.7261   63.2604 H   0  0  0  0  0  0
    3.4479   67.4820   62.3149 H   0  0  0  0  0  0
    4.8549   67.8368   63.2776 H   0  0  0  0  0  0
    3.9176   66.6584   65.1678 H   0  0  0  0  0  0
    2.4098   66.3703   64.3684 H   0  0  0  0  0  0
    3.7909   64.9813   62.6399 H   0  0  0  0  0  0
    5.0889   65.0737   63.7910 H   0  0  0  0  0  0
    2.3345   63.7826   64.2376 H   0  0  0  0  0  0
    3.9044   62.9783   64.1474 H   0  0  0  0  0  0
    3.1308   64.9629   66.2242 H   0  0  0  0  0  0
    2.3443   62.5078   66.7685 H   0  0  0  0  0  0
    3.9430   62.1268   66.2986 H   0  0  0  0  0  0
    4.7433   63.3087   68.3696 H   0  0  0  0  0  0
    3.3124   64.2225   68.4025 H   0  0  0  0  0  0
    2.0201   62.2126   69.1739 H   0  0  0  0  0  0
    3.3882   61.1799   68.8499 H   0  0  0  0  0  0
    2.2191   64.4793   70.0038 H   0  0  0  0  0  0
    0.8314   66.4593   70.0925 H   0  0  0  0  0  0
   -0.5797   66.8925   72.0399 H   0  0  0  0  0  0
   -0.8329   65.1502   73.8167 H   0  0  0  0  0  0
    3.4901   59.9004   72.3412 H   0  0  0  0  0  0
    4.1938   60.8976   73.5835 H   0  0  0  0  0  0
    2.1712   58.6643   73.9320 H   0  0  0  0  0  0
    3.7390   58.8441   74.6856 H   0  0  0  0  0  0
    1.9458   59.3571   76.3358 H   0  0  0  0  0  0
    2.8581   60.8059   76.0203 H   0  0  0  0  0  0
    0.1894   60.0417   74.7333 H   0  0  0  0  0  0
    0.4231   61.2961   75.9228 H   0  0  0  0  0  0
  1  6  1  0  0  0
  1  2  2  0  0  0
  1 39  1  0  0  0
  2  3  1  0  0  0
  2 40  1  0  0  0
  3  4  2  0  0  0
  3 41  1  0  0  0
  4 10  1  0  0  0
  4  5  1  0  0  0
  5  6  2  0  0  0
  5  7  1  0  0  0
  6 42  1  0  0  0
  7  8  2  0  0  0
  7 15  1  0  0  0
  8 14  1  0  0  0
  8  9  1  0  0  0
  9 10  2  0  0  0
  9 11  1  0  0  0
 11 12  1  0  0  0
 11 43  1  0  0  0
 11 44  1  0  0  0
 12 13  1  0  0  0
 12 45  1  0  0  0
 12 46  1  0  0  0
 13 14  1  0  0  0
 13 47  1  0  0  0
 13 48  1  0  0  0
 14 49  1  0  0  0
 14 50  1  0  0  0
 15 16  1  0  0  0
 15 51  1  0  0  0
 16 17  1  0  0  0
 16 52  1  0  0  0
 16 53  1  0  0  0
 17 18  1  0  0  0
 17 54  1  0  0  0
 17 55  1  0  0  0
 18 19  1  0  0  0
 18 56  1  0  0  0
 18 57  1  0  0  0
 19 20  1  0  0  0
 19 58  1  0  0  0
 19 59  1  0  0  0
 20 21  1  0  0  0
 20 60  1  0  0  0
 21 22  1  0  0  0
 21 61  1  0  0  0
 21 62  1  0  0  0
 22 23  1  0  0  0
 22 63  1  0  0  0
 22 64  1  0  0  0
 23 24  1  0  0  0
 23 65  1  0  0  0
 23 66  1  0  0  0
 24 25  1  0  0  0
 25 34  1  0  0  0
 25 26  2  0  0  0
 26 31  1  0  0  0
 26 27  1  0  0  0
 27 28  2  0  0  0
 27 67  1  0  0  0
 28 29  1  0  0  0
 28 68  1  0  0  0
 29 30  2  0  0  0
 29 69  1  0  0  0
 30 31  1  0  0  0
 30 70  1  0  0  0
 31 32  2  0  0  0
 32 33  1  0  0  0
 33 38  1  0  0  0
 33 34  2  0  0  0
 34 35  1  0  0  0
 35 36  1  0  0  0
 35 71  1  0  0  0
 35 72  1  0  0  0
 36 37  1  0  0  0
 36 73  1  0  0  0
 36 74  1  0  0  0
 37 38  1  0  0  0
 37 75  1  0  0  0
 37 76  1  0  0  0
 38 77  1  0  0  0
 38 78  1  0  0  0
M  END
> <s_m_entry_id>
9788

> <s_m_entry_name>
ligand_docking-pose.230

> <s_m_Source_Path>
/home/csk/Desktop/cluster/DUD-E-result/aces

> <s_m_Source_File>
ligand_docking-pose.sdf

> <i_m_Source_File_Index>
230

> <i_lp_mmshare_version>
53161

> <r_lp_tautomer_probability>
1

> <s_lp_Force_Field>
OPLS_2005

> <r_lp_Energy>
42.607955

> <b_lp_Chiralities_Consistent>
1

> <s_lp_Variant>
508889-1

> <s_i_glide_gridfile>
glide-grid_1e66

> <i_i_glide_lignum>
205

> <i_i_glide_rotatable_bonds>
11

> <r_i_docking_score>
-7.37448226227588

> <r_i_glide_ligand_efficiency>
-0.194065322691471

> <r_i_glide_ligand_efficiency_sa>
-0.652442841410123

> <r_i_glide_ligand_efficiency_ln>
-1.59015531103598

> <r_i_glide_gscore>
-7.37448226227588

> <r_i_glide_lipo>
-4.91230036923122

> <r_i_glide_hbond>
-0.32

> <r_i_glide_metal>
0

> <r_i_glide_rewards>
-0.9

> <r_i_glide_evdw>
-35.1130867004395

> <r_i_glide_ecoul>
-1.06056606769562

> <r_i_glide_erotb>
0.672557352131658

> <r_i_glide_esite>
0

> <r_i_glide_emodel>
-31.4823322293075

> <r_i_glide_energy>
-36.1736527681351

> <r_i_glide_einternal>
13.7400665283203

> <i_i_glide_confnum>
15

> <i_i_glide_posenum>
9

> <r_i_glide_eff_state_penalty>
0

> <i_f3d_flags>
0

> <s_user_duplicate_titles>
508889

> <s_m_subgroup_title>
dock_pv

> <s_m_subgroupid>
dock_pv1

> <b_m_subgroup_collapsed>
1

$$$$
240196
                    3D
 Schrodinger Suite 2021-1.
 63 66  0  0  1  0            999 V2000
    5.8795   68.6826   62.5628 C   0  0  0  0  0  0
    5.3577   67.7080   63.4600 O   0  0  0  0  0  0
    4.4348   68.1706   64.3673 C   0  0  0  0  0  0
    3.1399   67.6480   64.2981 C   0  0  0  0  0  0
    2.1578   68.0653   65.1947 C   0  0  0  0  0  0
    2.4874   68.9954   66.1706 C   0  0  0  0  0  0
    3.7757   69.5070   66.2714 C   0  0  0  0  0  0
    4.7744   69.0819   65.3847 C   0  0  0  0  0  0
    6.0915   69.4785   65.4920 O   0  0  0  0  0  0
    6.4793   70.3479   66.5475 C   0  0  0  0  0  0
    1.3308   69.3059   67.0176 C   0  0  0  0  0  0
    1.3161   70.0754   67.9730 O   0  0  0  0  0  0
    0.1492   68.4951   66.4675 C   0  0  1  0  0  0
    0.7166   67.6367   65.3197 C   0  0  0  0  0  0
   -0.5615   67.7397   67.6187 C   0  0  0  0  0  0
    0.2581   66.5987   68.2631 C   0  0  0  0  0  0
    0.0746   66.3921   69.7825 C   0  0  0  0  0  0
    0.9598   65.3207   70.4735 C   0  0  0  0  0  0
    0.5353   63.8619   70.2231 C   0  0  0  0  0  0
    1.4258   62.8581   70.9913 C   0  0  0  0  0  0
    2.8635   63.0417   70.7055 N   0  0  1  0  0  0
    3.3128   64.4233   70.9034 C   0  0  0  0  0  0
    2.4519   65.4319   70.1275 C   0  0  0  0  0  0
    3.6892   62.1498   71.5284 C   0  0  0  0  0  0
    3.5903   60.6883   71.1151 C   0  0  0  0  0  0
    3.5931   59.6965   72.0984 C   0  0  0  0  0  0
    3.5428   58.3578   71.7276 C   0  0  0  0  0  0
    3.5408   58.0167   70.3775 C   0  0  0  0  0  0
    3.5584   58.9980   69.3936 C   0  0  0  0  0  0
    3.6046   60.3361   69.7628 C   0  0  0  0  0  0
    6.6662   68.2227   61.9680 H   0  0  0  0  0  0
    5.1073   69.0412   61.8807 H   0  0  0  0  0  0
    6.3253   69.5394   63.0649 H   0  0  0  0  0  0
    2.9177   66.9117   63.5460 H   0  0  0  0  0  0
    3.9961   70.2154   67.0559 H   0  0  0  0  0  0
    7.5450   70.5487   66.4635 H   0  0  0  0  0  0
    6.3050   69.8914   67.5240 H   0  0  0  0  0  0
    5.9517   71.3023   66.4928 H   0  0  0  0  0  0
   -0.5513   69.2206   66.0542 H   0  0  0  0  0  0
    0.1513   67.8237   64.4055 H   0  0  0  0  0  0
    0.6349   66.5720   65.5447 H   0  0  0  0  0  0
   -0.8404   68.4743   68.3664 H   0  0  0  0  0  0
   -1.5133   67.3441   67.2570 H   0  0  0  0  0  0
   -0.0572   65.7081   67.7476 H   0  0  0  0  0  0
    1.3128   66.7296   68.0383 H   0  0  0  0  0  0
    0.2598   67.3378   70.2874 H   0  0  0  0  0  0
   -0.9626   66.1407   69.9650 H   0  0  0  0  0  0
    0.8749   65.4776   71.5509 H   0  0  0  0  0  0
   -0.5024   63.7275   70.5281 H   0  0  0  0  0  0
    0.5257   63.6129   69.1680 H   0  0  0  0  0  0
    1.2559   62.9663   72.0646 H   0  0  0  0  0  0
    1.1314   61.8379   70.7378 H   0  0  0  0  0  0
    3.2568   64.6217   71.9678 H   0  0  0  0  0  0
    4.3600   64.5285   70.6163 H   0  0  0  0  0  0
    2.6315   65.3071   69.0618 H   0  0  0  0  0  0
    2.7904   66.4433   70.3567 H   0  0  0  0  0  0
    4.7431   62.4217   71.4404 H   0  0  0  0  0  0
    3.4463   62.2632   72.5870 H   0  0  0  0  0  0
    3.6175   59.9575   73.1474 H   0  0  0  0  0  0
    3.5324   57.5870   72.4848 H   0  0  0  0  0  0
    3.5060   56.9773   70.0920 H   0  0  0  0  0  0
    3.5397   58.7218   68.3508 H   0  0  0  0  0  0
    3.6335   61.1040   69.0038 H   0  0  0  0  0  0
  1  2  1  0  0  0
  1 31  1  0  0  0
  1 32  1  0  0  0
  1 33  1  0  0  0
  2  3  1  0  0  0
  3  8  1  0  0  0
  3  4  2  0  0  0
  4  5  1  0  0  0
  4 34  1  0  0  0
  5 14  1  0  0  0
  5  6  2  0  0  0
  6  7  1  0  0  0
  6 11  1  0  0  0
  7  8  2  0  0  0
  7 35  1  0  0  0
  8  9  1  0  0  0
  9 10  1  0  0  0
 10 36  1  0  0  0
 10 37  1  0  0  0
 10 38  1  0  0  0
 11 12  2  0  0  0
 11 13  1  0  0  0
 13 14  1  0  0  0
 13 15  1  0  0  0
 13 39  1  0  0  0
 14 40  1  0  0  0
 14 41  1  0  0  0
 15 16  1  0  0  0
 15 42  1  0  0  0
 15 43  1  0  0  0
 16 17  1  0  0  0
 16 44  1  0  0  0
 16 45  1  0  0  0
 17 18  1  0  0  0
 17 46  1  0  0  0
 17 47  1  0  0  0
 18 23  1  0  0  0
 18 19  1  0  0  0
 18 48  1  0  0  0
 19 20  1  0  0  0
 19 49  1  0  0  0
 19 50  1  0  0  0
 20 21  1  0  0  0
 20 51  1  0  0  0
 20 52  1  0  0  0
 21 22  1  0  0  0
 21 24  1  0  0  0
 22 23  1  0  0  0
 22 53  1  0  0  0
 22 54  1  0  0  0
 23 55  1  0  0  0
 23 56  1  0  0  0
 24 25  1  0  0  0
 24 57  1  0  0  0
 24 58  1  0  0  0
 25 30  1  0  0  0
 25 26  2  0  0  0
 26 27  1  0  0  0
 26 59  1  0  0  0
 27 28  2  0  0  0
 27 60  1  0  0  0
 28 29  1  0  0  0
 28 61  1  0  0  0
 29 30  2  0  0  0
 29 62  1  0  0  0
 30 63  1  0  0  0
M  END
> <s_m_entry_id>
9789

> <s_m_entry_name>
ligand_docking-pose.231

> <s_m_Source_Path>
/home/csk/Desktop/cluster/DUD-E-result/aces

> <s_m_Source_File>
ligand_docking-pose.sdf

> <i_m_Source_File_Index>
231

> <i_lp_mmshare_version>
53161

> <r_lp_tautomer_probability>
0.99995

> <s_lp_Force_Field>
OPLS_2005

> <r_lp_Energy>
51.101681

> <b_lp_Chiralities_Consistent>
1

> <s_lp_Variant>
240196-1

> <s_i_glide_gridfile>
glide-grid_1e66

> <i_i_glide_lignum>
1946

> <i_i_glide_rotatable_bonds>
8

> <r_i_docking_score>
-7.36940596023379

> <r_i_glide_ligand_efficiency>
-0.245646865341126

> <r_i_glide_ligand_efficiency_sa>
-0.763281924108261

> <r_i_glide_ligand_efficiency_ln>
-1.67440933027427

> <r_i_glide_gscore>
-7.36940596023379

> <r_i_glide_lipo>
-4.32120374806613

> <r_i_glide_hbond>
0

> <r_i_glide_metal>
0

> <r_i_glide_rewards>
-1.41242746852042

> <r_i_glide_evdw>
-41.9580993652344

> <r_i_glide_ecoul>
-1.65692090988159

> <r_i_glide_erotb>
0.710668361096711

> <r_i_glide_esite>
0

> <r_i_glide_emodel>
-54.8928147669536

> <r_i_glide_energy>
-43.615020275116

> <r_i_glide_einternal>
17.3332481384277

> <i_i_glide_confnum>
18

> <i_i_glide_posenum>
190

> <r_i_glide_eff_state_penalty>
0

> <i_f3d_flags>
0

> <s_user_duplicate_titles>
240196

> <s_m_subgroup_title>
dock_pv

> <s_m_subgroupid>
dock_pv1

> <b_m_subgroup_collapsed>
1

$$$$
403251
                    3D
 Schrodinger Suite 2021-1.
 24 26  0  0  1  0            999 V2000
    0.6864   68.1865   65.1932 C   0  0  0  0  0  0
    1.1643   68.0985   63.8850 C   0  0  0  0  0  0
    2.4785   68.4682   63.5437 C   0  0  0  0  0  0
    3.3583   68.9927   64.5493 C   0  0  0  0  0  0
    4.7301   69.4020   64.4073 C   0  0  0  0  0  0
    5.4095   69.9570   65.5033 C   0  0  0  0  0  0
    4.8017   70.1080   66.7480 C   0  0  0  0  0  0
    3.4847   69.7024   66.9156 C   0  0  0  0  0  0
    2.7980   69.1362   65.8410 C   0  0  0  0  0  0
    1.5020   68.7301   66.1787 C   0  0  0  0  0  0
    1.2880   69.0082   67.6070 C   0  0  0  0  0  0
    0.3433   68.7861   68.3614 O   0  0  0  0  0  0
    2.5861   69.7133   68.0751 C   0  0  0  0  0  0
    2.7431   70.1467   69.2116 O   0  0  0  0  0  0
    5.4727   69.2361   63.1561 N   0  3  0  0  0  0
    5.5390   70.1935   62.4002 O   0  5  0  0  0  0
    5.9819   68.1420   62.9538 O   0  0  0  0  0  0
    2.9082   68.2955   62.1555 N   0  3  0  0  0  0
    3.5897   67.3096   61.9067 O   0  5  0  0  0  0
    2.5362   69.1219   61.3315 O   0  0  0  0  0  0
   -0.3242   67.8704   65.4156 H   0  0  0  0  0  0
    0.4985   67.7090   63.1275 H   0  0  0  0  0  0
    6.4300   70.2854   65.3920 H   0  0  0  0  0  0
    5.3595   70.5409   67.5659 H   0  0  0  0  0  0
  1 10  1  0  0  0
  1  2  2  0  0  0
  1 21  1  0  0  0
  2  3  1  0  0  0
  2 22  1  0  0  0
  3  4  2  0  0  0
  3 18  1  0  0  0
  4  9  1  0  0  0
  4  5  1  0  0  0
  5  6  2  0  0  0
  5 15  1  0  0  0
  6  7  1  0  0  0
  6 23  1  0  0  0
  7  8  2  0  0  0
  7 24  1  0  0  0
  8 13  1  0  0  0
  8  9  1  0  0  0
  9 10  2  0  0  0
 10 11  1  0  0  0
 11 12  2  0  0  0
 11 13  1  0  0  0
 13 14  2  0  0  0
 15 16  1  0  0  0
 15 17  2  0  0  0
 18 19  1  0  0  0
 18 20  2  0  0  0
M  CHG  4  15   1  16  -1  18   1  19  -1
M  END
> <s_m_entry_id>
9791

> <s_m_entry_name>
ligand_docking-pose.233

> <s_m_Source_Path>
/home/csk/Desktop/cluster/DUD-E-result/aces

> <s_m_Source_File>
ligand_docking-pose.sdf

> <i_m_Source_File_Index>
233

> <i_lp_mmshare_version>
53161

> <r_lp_tautomer_probability>
1

> <s_lp_Force_Field>
OPLS_2005

> <r_lp_Energy>
91.278358

> <b_lp_Chiralities_Consistent>
1

> <s_lp_Variant>
403251-1

> <s_i_glide_gridfile>
glide-grid_1e66

> <i_i_glide_lignum>
307

> <i_i_glide_rotatable_bonds>
2

> <r_i_docking_score>
-7.36272346618258

> <r_i_glide_ligand_efficiency>
-0.368136173309129

> <r_i_glide_ligand_efficiency_sa>
-0.999275313138281

> <r_i_glide_ligand_efficiency_ln>
-1.8426468447131

> <r_i_glide_gscore>
-7.36272346618258

> <r_i_glide_lipo>
-2.49808222564566

> <r_i_glide_hbond>
0

> <r_i_glide_metal>
0

> <r_i_glide_rewards>
-2.58141645574331

> <r_i_glide_evdw>
-33.108715057373

> <r_i_glide_ecoul>
-3.54654145240784

> <r_i_glide_erotb>
0

> <r_i_glide_esite>
-0.0958078140637769

> <r_i_glide_emodel>
-50.8405886470201

> <r_i_glide_energy>
-36.6552565097809

> <r_i_glide_einternal>
1.39463841915131

> <i_i_glide_confnum>
1

> <i_i_glide_posenum>
157

> <r_i_glide_eff_state_penalty>
0

> <i_f3d_flags>
0

> <s_user_duplicate_titles>
403251

> <s_m_subgroup_title>
dock_pv

> <s_m_subgroupid>
dock_pv1

> <b_m_subgroup_collapsed>
1

$$$$
427317
                    3D
 Schrodinger Suite 2021-1.
 61 64  0  0  1  0            999 V2000
    3.7937   59.4979   69.4445 C   0  0  0  0  0  0
    4.2859   60.5282   70.2957 O   0  0  0  0  0  0
    3.8579   61.8124   70.0221 C   0  0  0  0  0  0
    3.9427   62.3500   68.7341 C   0  0  0  0  0  0
    3.5234   63.6499   68.4205 C   0  0  0  0  0  0
    3.0066   64.4185   69.4739 C   0  0  0  0  0  0
    2.9174   63.9067   70.7697 C   0  0  0  0  0  0
    3.3433   62.6079   71.0487 C   0  0  0  0  0  0
    3.2306   62.1080   72.3226 O   0  0  0  0  0  0
    3.5430   64.2210   67.0289 C   0  0  0  0  0  0
    3.8165   63.5695   65.8693 C   0  0  0  0  0  0
    4.0318   64.1043   64.5273 C   0  0  0  0  0  0
    4.3433   63.3451   63.6102 O   0  0  0  0  0  0
    4.0510   65.4404   64.3572 N   0  0  0  0  0  0
    4.7423   66.1488   63.2544 C   0  0  0  0  0  0
    4.0067   67.2858   62.4939 C   0  0  0  0  0  0
    3.6119   68.5045   63.3454 C   0  0  0  0  0  0
    2.9442   68.0515   64.5491 N   0  0  0  0  0  0
    2.7998   68.7913   65.7261 C   0  0  0  0  0  0
    3.8710   69.4650   66.4103 C   0  0  0  0  0  0
    5.2410   69.4965   66.0029 C   0  0  0  0  0  0
    6.1939   70.1984   66.7383 C   0  0  0  0  0  0
    5.8407   70.8702   67.9027 C   0  0  0  0  0  0
    4.5312   70.8186   68.3678 C   0  0  0  0  0  0
    3.5426   70.1081   67.6397 C   0  0  0  0  0  0
    2.2905   70.0883   68.1517 N   0  0  0  0  0  0
    1.3126   69.4019   67.5166 C   0  0  0  0  0  0
    1.5130   68.7429   66.2927 C   0  0  0  0  0  0
    0.3263   68.0694   65.5572 C   0  0  0  0  0  0
   -0.9839   67.9933   66.3591 C   0  0  0  0  0  0
   -1.2074   69.2696   67.1689 C   0  0  0  0  0  0
   -0.0564   69.4206   68.1706 C   0  0  0  0  0  0
    3.9295   58.5327   69.9328 H   0  0  0  0  0  0
    2.7291   59.6100   69.2295 H   0  0  0  0  0  0
    4.3417   59.4669   68.5024 H   0  0  0  0  0  0
    4.3440   61.7193   67.9680 H   0  0  0  0  0  0
    2.6425   65.4182   69.2926 H   0  0  0  0  0  0
    2.5066   64.5218   71.5556 H   0  0  0  0  0  0
    2.7737   62.6927   72.9303 H   0  0  0  0  0  0
    3.3173   65.2755   66.9754 H   0  0  0  0  0  0
    3.9427   62.5078   65.8954 H   0  0  0  0  0  0
    3.6868   66.0389   65.0854 H   0  0  0  0  0  0
    5.5430   66.6607   63.7758 H   0  0  0  0  0  0
    5.2368   65.4805   62.5531 H   0  0  0  0  0  0
    4.6634   67.6380   61.6958 H   0  0  0  0  0  0
    3.1430   66.9081   61.9683 H   0  0  0  0  0  0
    4.4833   69.1152   63.5491 H   0  0  0  0  0  0
    2.9242   69.1595   62.8086 H   0  0  0  0  0  0
    2.1195   67.5109   64.3313 H   0  0  0  0  0  0
    5.5838   68.9407   65.1491 H   0  0  0  0  0  0
    7.2217   70.2104   66.4034 H   0  0  0  0  0  0
    6.5907   71.4088   68.4634 H   0  0  0  0  0  0
    4.2572   71.3070   69.2906 H   0  0  0  0  0  0
    0.1330   68.6404   64.6475 H   0  0  0  0  0  0
    0.5895   67.0608   65.2349 H   0  0  0  0  0  0
   -1.8229   67.8181   65.6841 H   0  0  0  0  0  0
   -0.9550   67.1320   67.0293 H   0  0  0  0  0  0
   -1.2614   70.1333   66.5069 H   0  0  0  0  0  0
   -2.1599   69.2197   67.6958 H   0  0  0  0  0  0
   -0.1918   70.3234   68.7678 H   0  0  0  0  0  0
   -0.0567   68.5694   68.8457 H   0  0  0  0  0  0
  1  2  1  0  0  0
  1 33  1  0  0  0
  1 34  1  0  0  0
  1 35  1  0  0  0
  2  3  1  0  0  0
  3  8  1  0  0  0
  3  4  2  0  0  0
  4  5  1  0  0  0
  4 36  1  0  0  0
  5  6  2  0  0  0
  5 10  1  0  0  0
  6  7  1  0  0  0
  6 37  1  0  0  0
  7  8  2  0  0  0
  7 38  1  0  0  0
  8  9  1  0  0  0
  9 39  1  0  0  0
 10 11  2  0  0  0
 10 40  1  0  0  0
 11 12  1  0  0  0
 11 41  1  0  0  0
 12 13  2  0  0  0
 12 14  1  0  0  0
 14 15  1  0  0  0
 14 42  1  0  0  0
 15 16  1  0  0  0
 15 43  1  0  0  0
 15 44  1  0  0  0
 16 17  1  0  0  0
 16 45  1  0  0  0
 16 46  1  0  0  0
 17 18  1  0  0  0
 17 47  1  0  0  0
 17 48  1  0  0  0
 18 19  1  0  0  0
 18 49  1  0  0  0
 19 28  1  0  0  0
 19 20  2  0  0  0
 20 25  1  0  0  0
 20 21  1  0  0  0
 21 22  2  0  0  0
 21 50  1  0  0  0
 22 23  1  0  0  0
 22 51  1  0  0  0
 23 24  2  0  0  0
 23 52  1  0  0  0
 24 25  1  0  0  0
 24 53  1  0  0  0
 25 26  2  0  0  0
 26 27  1  0  0  0
 27 32  1  0  0  0
 27 28  2  0  0  0
 28 29  1  0  0  0
 29 30  1  0  0  0
 29 54  1  0  0  0
 29 55  1  0  0  0
 30 31  1  0  0  0
 30 56  1  0  0  0
 30 57  1  0  0  0
 31 32  1  0  0  0
 31 58  1  0  0  0
 31 59  1  0  0  0
 32 60  1  0  0  0
 32 61  1  0  0  0
M  END
> <s_m_entry_id>
9793

> <s_m_entry_name>
ligand_docking-pose.235

> <s_m_Source_Path>
/home/csk/Desktop/cluster/DUD-E-result/aces

> <s_m_Source_File>
ligand_docking-pose.sdf

> <i_m_Source_File_Index>
235

> <i_lp_mmshare_version>
53161

> <r_lp_tautomer_probability>
1

> <s_lp_Force_Field>
OPLS_2005

> <r_lp_Energy>
29.534301

> <b_lp_Chiralities_Consistent>
1

> <s_lp_Variant>
427317-1

> <s_i_glide_gridfile>
glide-grid_1e66

> <i_i_glide_lignum>
2125

> <i_i_glide_rotatable_bonds>
10

> <r_i_docking_score>
-7.35715441838487

> <r_i_glide_ligand_efficiency>
-0.229911075574527

> <r_i_glide_ligand_efficiency_sa>
-0.72992216560905

> <r_i_glide_ligand_efficiency_ln>
-1.64746742273147

> <r_i_glide_gscore>
-7.35715441838487

> <r_i_glide_lipo>
-3.98384988042385

> <r_i_glide_hbond>
0

> <r_i_glide_metal>
0

> <r_i_glide_rewards>
-1.78566280341052

> <r_i_glide_evdw>
-43.5573463439941

> <r_i_glide_ecoul>
-1.04987394809723

> <r_i_glide_erotb>
0.7477066748638

> <r_i_glide_esite>
0

> <r_i_glide_emodel>
-45.4720082398772

> <r_i_glide_energy>
-44.6072202920914

> <r_i_glide_einternal>
6.83936738967896

> <i_i_glide_confnum>
8

> <i_i_glide_posenum>
328

> <r_i_glide_eff_state_penalty>
0

> <i_f3d_flags>
0

> <s_user_duplicate_titles>
427317

> <s_m_subgroup_title>
dock_pv

> <s_m_subgroupid>
dock_pv1

> <b_m_subgroup_collapsed>
1

$$$$
175368
                    3D
 Schrodinger Suite 2021-1.
 63 66  0  0  1  0            999 V2000
    3.5434   58.2069   70.3785 C   0  0  0  0  0  0
    3.2409   58.3931   71.7256 C   0  0  0  0  0  0
    3.3252   59.6662   72.2810 C   0  0  0  0  0  0
    3.7160   60.7463   71.4865 C   0  0  0  0  0  0
    4.0260   60.5512   70.1358 C   0  0  0  0  0  0
    3.9403   59.2786   69.5793 C   0  0  0  0  0  0
    3.7543   62.1479   72.0750 C   0  0  0  0  0  0
    2.7212   62.9805   71.4554 N   0  0  1  0  0  0
    1.5372   63.2109   72.2952 C   0  0  0  0  0  0
    0.4247   63.9820   71.5383 C   0  0  0  0  0  0
    0.9123   65.2499   70.7874 C   0  0  0  0  0  0
    2.1553   64.8461   69.9704 C   0  0  0  0  0  0
    3.2516   64.1846   70.8157 C   0  0  0  0  0  0
   -0.2364   65.9040   69.9666 C   0  0  0  0  0  0
    0.1065   66.8463   68.8010 C   0  0  0  0  0  0
   -1.1125   66.9998   67.8617 C   0  0  0  0  0  0
   -1.1450   68.2287   66.9446 C   0  0  0  0  0  0
   -2.1681   68.9088   66.9370 O   0  0  0  0  0  0
   -0.1000   68.3337   65.8958 C   0  0  0  0  0  0
   -0.4931   68.5079   64.5669 C   0  0  0  0  0  0
    0.4640   68.6341   63.5671 C   0  0  0  0  0  0
    1.8252   68.6523   63.8890 C   0  0  0  0  0  0
    2.2108   68.5078   65.2259 C   0  0  0  0  0  0
    1.2578   68.3653   66.2248 C   0  0  0  0  0  0
    2.7905   68.8302   62.8914 N   0  0  0  0  0  0
    2.5362   69.0987   61.4771 C   0  0  0  0  0  0
    3.8653   68.9312   60.7684 C   0  0  0  0  0  0
    4.8579   69.4221   61.8021 C   0  0  0  0  0  0
    4.2354   68.9591   63.1091 C   0  0  0  0  0  0
    3.4621   57.2140   69.9678 H   0  0  0  0  0  0
    2.9387   57.5551   72.3365 H   0  0  0  0  0  0
    3.0748   59.8091   73.3228 H   0  0  0  0  0  0
    4.3029   61.3923   69.5162 H   0  0  0  0  0  0
    4.1503   59.1266   68.5315 H   0  0  0  0  0  0
    4.7577   62.5490   71.9196 H   0  0  0  0  0  0
    3.6138   62.1036   73.1566 H   0  0  0  0  0  0
    1.8213   63.7096   73.2224 H   0  0  0  0  0  0
    1.1507   62.2344   72.5950 H   0  0  0  0  0  0
   -0.3820   64.2451   72.2247 H   0  0  0  0  0  0
   -0.0402   63.2801   70.8416 H   0  0  0  0  0  0
    1.2415   65.9649   71.5397 H   0  0  0  0  0  0
    1.8693   64.1689   69.1678 H   0  0  0  0  0  0
    2.5795   65.7106   69.4773 H   0  0  0  0  0  0
    3.6620   64.8618   71.5671 H   0  0  0  0  0  0
    4.0797   63.9125   70.1577 H   0  0  0  0  0  0
   -0.8570   66.5062   70.6410 H   0  0  0  0  0  0
   -0.8565   65.1002   69.5647 H   0  0  0  0  0  0
    0.9234   66.4303   68.2132 H   0  0  0  0  0  0
    0.4386   67.8076   69.1992 H   0  0  0  0  0  0
   -2.0270   67.0295   68.4544 H   0  0  0  0  0  0
   -1.1961   66.1130   67.2340 H   0  0  0  0  0  0
   -1.5412   68.5251   64.2958 H   0  0  0  0  0  0
    0.1317   68.7485   62.5470 H   0  0  0  0  0  0
    3.2523   68.5344   65.5087 H   0  0  0  0  0  0
    1.5995   68.3165   67.2460 H   0  0  0  0  0  0
    2.1066   70.0918   61.3368 H   0  0  0  0  0  0
    1.8238   68.3668   61.0972 H   0  0  0  0  0  0
    3.9379   69.4930   59.8380 H   0  0  0  0  0  0
    4.0085   67.8798   60.5189 H   0  0  0  0  0  0
    5.8546   69.0067   61.6517 H   0  0  0  0  0  0
    4.9567   70.5074   61.7816 H   0  0  0  0  0  0
    4.6783   68.0202   63.4463 H   0  0  0  0  0  0
    4.4134   69.7317   63.8603 H   0  0  0  0  0  0
  1  6  1  0  0  0
  1  2  2  0  0  0
  1 30  1  0  0  0
  2  3  1  0  0  0
  2 31  1  0  0  0
  3  4  2  0  0  0
  3 32  1  0  0  0
  4  5  1  0  0  0
  4  7  1  0  0  0
  5  6  2  0  0  0
  5 33  1  0  0  0
  6 34  1  0  0  0
  7  8  1  0  0  0
  7 35  1  0  0  0
  7 36  1  0  0  0
  8 13  1  0  0  0
  8  9  1  0  0  0
  9 10  1  0  0  0
  9 37  1  0  0  0
  9 38  1  0  0  0
 10 11  1  0  0  0
 10 39  1  0  0  0
 10 40  1  0  0  0
 11 12  1  0  0  0
 11 14  1  0  0  0
 11 41  1  0  0  0
 12 13  1  0  0  0
 12 42  1  0  0  0
 12 43  1  0  0  0
 13 44  1  0  0  0
 13 45  1  0  0  0
 14 15  1  0  0  0
 14 46  1  0  0  0
 14 47  1  0  0  0
 15 16  1  0  0  0
 15 48  1  0  0  0
 15 49  1  0  0  0
 16 17  1  0  0  0
 16 50  1  0  0  0
 16 51  1  0  0  0
 17 18  2  0  0  0
 17 19  1  0  0  0
 19 24  1  0  0  0
 19 20  2  0  0  0
 20 21  1  0  0  0
 20 52  1  0  0  0
 21 22  2  0  0  0
 21 53  1  0  0  0
 22 23  1  0  0  0
 22 25  1  0  0  0
 23 24  2  0  0  0
 23 54  1  0  0  0
 24 55  1  0  0  0
 25 29  1  0  0  0
 25 26  1  0  0  0
 26 27  1  0  0  0
 26 56  1  0  0  0
 26 57  1  0  0  0
 27 28  1  0  0  0
 27 58  1  0  0  0
 27 59  1  0  0  0
 28 29  1  0  0  0
 28 60  1  0  0  0
 28 61  1  0  0  0
 29 62  1  0  0  0
 29 63  1  0  0  0
M  END
> <s_m_entry_id>
9794

> <s_m_entry_name>
ligand_docking-pose.236

> <s_m_Source_Path>
/home/csk/Desktop/cluster/DUD-E-result/aces

> <s_m_Source_File>
ligand_docking-pose.sdf

> <i_m_Source_File_Index>
236

> <i_lp_mmshare_version>
53161

> <r_lp_tautomer_probability>
0.99990000499975

> <s_lp_Force_Field>
OPLS_2005

> <r_lp_Energy>
55.816613

> <b_lp_Chiralities_Consistent>
1

> <s_lp_Variant>
175368-1

> <s_i_glide_gridfile>
glide-grid_1e66

> <i_i_glide_lignum>
354

> <i_i_glide_rotatable_bonds>
8

> <r_i_docking_score>
-7.35605566852376

> <r_i_glide_ligand_efficiency>
-0.253657092018061

> <r_i_glide_ligand_efficiency_sa>
-0.779314950886903

> <r_i_glide_ligand_efficiency_ln>
-1.68435021461474

> <r_i_glide_gscore>
-7.35605566852376

> <r_i_glide_lipo>
-3.99115604528303

> <r_i_glide_hbond>
0

> <r_i_glide_metal>
0

> <r_i_glide_rewards>
-2.10829507866766

> <r_i_glide_evdw>
-48.8480529785156

> <r_i_glide_ecoul>
1.08534228801727

> <r_i_glide_erotb>
1.02299676115012

> <r_i_glide_esite>
0

> <r_i_glide_emodel>
-47.8491001497393

> <r_i_glide_energy>
-47.7627106904984

> <r_i_glide_einternal>
18.2848472595215

> <i_i_glide_confnum>
6

> <i_i_glide_posenum>
247

> <r_i_glide_eff_state_penalty>
0

> <i_f3d_flags>
0

> <s_user_duplicate_titles>
175368

> <s_m_subgroup_title>
dock_pv

> <s_m_subgroupid>
dock_pv1

> <b_m_subgroup_collapsed>
1

$$$$
689406
                    3D
 Schrodinger Suite 2021-1.
 47 50  0  0  1  0            999 V2000
    3.7104   58.8104   71.0702 C   0  0  0  0  0  0
    4.6535   60.0090   71.2603 C   0  0  0  0  0  0
    4.3431   61.0473   70.3348 O   0  0  0  0  0  0
    3.3727   61.9805   70.6439 C   0  0  0  0  0  0
    2.5623   61.9382   71.7991 C   0  0  0  0  0  0
    1.6367   62.9508   72.0657 C   0  0  0  0  0  0
    1.5308   64.0096   71.1683 C   0  0  0  0  0  0
    2.2941   64.0376   70.0286 C   0  0  0  0  0  0
    3.2183   63.0388   69.7403 C   0  0  0  0  0  0
    2.0487   65.1446   69.2722 O   0  0  0  0  0  0
    1.1436   65.9061   69.9375 C   0  0  0  0  0  0
    0.7295   67.1137   69.5118 C   0  0  0  0  0  0
    1.0214   67.6945   68.2043 C   0  0  0  0  0  0
    0.6175   67.0101   67.0559 C   0  0  0  0  0  0
    0.9820   67.4844   65.8006 C   0  0  0  0  0  0
    1.7511   68.5929   65.7037 N   0  3  0  0  0  0
    2.1211   69.3080   66.7986 C   0  0  0  0  0  0
    1.7188   68.9003   68.0725 C   0  0  0  0  0  0
    2.1528   69.0588   64.3606 C   0  0  0  0  0  0
    3.3947   68.4247   63.7629 C   0  0  0  0  0  0
    4.2711   69.2452   63.0469 C   0  0  0  0  0  0
    5.3478   68.6930   62.3680 C   0  0  0  0  0  0
    5.5405   67.3169   62.3715 C   0  0  0  0  0  0
    4.7066   66.4944   63.1270 C   0  0  0  0  0  0
    3.6373   67.0478   63.8289 C   0  0  0  0  0  0
    4.9215   65.1596   63.1679 F   0  0  0  0  0  0
    0.7430   65.2345   71.1680 C   0  0  0  0  0  0
   -0.0570   65.6564   72.0024 O   0  0  0  0  0  0
    3.9428   58.0083   71.7720 H   0  0  0  0  0  0
    3.7882   58.4043   70.0614 H   0  0  0  0  0  0
    2.6691   59.0896   71.2303 H   0  0  0  0  0  0
    4.6678   60.3572   72.2946 H   0  0  0  0  0  0
    5.6793   59.7080   71.0567 H   0  0  0  0  0  0
    2.6394   61.1331   72.5127 H   0  0  0  0  0  0
    1.0395   62.9115   72.9664 H   0  0  0  0  0  0
    3.8310   63.0853   68.8533 H   0  0  0  0  0  0
    0.0975   67.7040   70.1507 H   0  0  0  0  0  0
    0.0299   66.1080   67.1388 H   0  0  0  0  0  0
    0.6937   66.9955   64.8790 H   0  0  0  0  0  0
    2.7299   70.1846   66.6304 H   0  0  0  0  0  0
    2.0106   69.4583   68.9528 H   0  0  0  0  0  0
    1.2936   68.9357   63.6975 H   0  0  0  0  0  0
    2.3430   70.1193   64.4441 H   0  0  0  0  0  0
    4.1102   70.3120   62.9842 H   0  0  0  0  0  0
    6.0059   69.3190   61.7843 H   0  0  0  0  0  0
    6.3555   66.9082   61.7989 H   0  0  0  0  0  0
    2.9852   66.3898   64.3811 H   0  0  0  0  0  0
  1  2  1  0  0  0
  1 29  1  0  0  0
  1 30  1  0  0  0
  1 31  1  0  0  0
  2  3  1  0  0  0
  2 32  1  0  0  0
  2 33  1  0  0  0
  3  4  1  0  0  0
  4  9  1  0  0  0
  4  5  2  0  0  0
  5  6  1  0  0  0
  5 34  1  0  0  0
  6  7  2  0  0  0
  6 35  1  0  0  0
  7 27  1  0  0  0
  7  8  1  0  0  0
  8  9  2  0  0  0
  8 10  1  0  0  0
  9 36  1  0  0  0
 10 11  1  0  0  0
 11 12  2  0  0  0
 11 27  1  0  0  0
 12 13  1  0  0  0
 12 37  1  0  0  0
 13 18  1  0  0  0
 13 14  2  0  0  0
 14 15  1  0  0  0
 14 38  1  0  0  0
 15 16  2  0  0  0
 15 39  1  0  0  0
 16 17  1  0  0  0
 16 19  1  0  0  0
 17 18  2  0  0  0
 17 40  1  0  0  0
 18 41  1  0  0  0
 19 20  1  0  0  0
 19 42  1  0  0  0
 19 43  1  0  0  0
 20 25  1  0  0  0
 20 21  2  0  0  0
 21 22  1  0  0  0
 21 44  1  0  0  0
 22 23  2  0  0  0
 22 45  1  0  0  0
 23 24  1  0  0  0
 23 46  1  0  0  0
 24 25  2  0  0  0
 24 26  1  0  0  0
 25 47  1  0  0  0
 27 28  2  0  0  0
M  CHG  1  16   1
M  END
> <s_m_entry_id>
9795

> <s_m_entry_name>
ligand_docking-pose.237

> <s_m_Source_Path>
/home/csk/Desktop/cluster/DUD-E-result/aces

> <s_m_Source_File>
ligand_docking-pose.sdf

> <i_m_Source_File_Index>
237

> <i_lp_mmshare_version>
53161

> <r_lp_tautomer_probability>
1

> <s_lp_Force_Field>
OPLS_2005

> <r_lp_Energy>
40.916946

> <b_lp_Chiralities_Consistent>
1

> <s_lp_Variant>
689406-1

> <s_i_glide_gridfile>
glide-grid_1e66

> <i_i_glide_lignum>
1391

> <i_i_glide_rotatable_bonds>
5

> <r_i_docking_score>
-7.3549513254801

> <r_i_glide_ligand_efficiency>
-0.262676833052861

> <r_i_glide_ligand_efficiency_sa>
-0.797641573529573

> <r_i_glide_ligand_efficiency_ln>
-1.69773871667537

> <r_i_glide_gscore>
-7.3549513254801

> <r_i_glide_lipo>
-2.63325128725087

> <r_i_glide_hbond>
0

> <r_i_glide_metal>
0

> <r_i_glide_rewards>
-2.24958566449386

> <r_i_glide_evdw>
-36.6128158569336

> <r_i_glide_ecoul>
-7.39211702346802

> <r_i_glide_erotb>
0.546517615642679

> <r_i_glide_esite>
-0.0791736430111686

> <r_i_glide_emodel>
-58.0836148637015

> <r_i_glide_energy>
-44.0049328804016

> <r_i_glide_einternal>
12.2309713363647

> <i_i_glide_confnum>
2

> <i_i_glide_posenum>
178

> <r_i_glide_eff_state_penalty>
0

> <i_f3d_flags>
0

> <s_user_duplicate_titles>
689406

> <s_m_subgroup_title>
dock_pv

> <s_m_subgroupid>
dock_pv1

> <b_m_subgroup_collapsed>
1

$$$$
593431
                    3D
 Schrodinger Suite 2021-1.
 52 55  0  0  1  0            999 V2000
    2.4005   69.2981   60.7954 C   0  0  0  0  0  0
    2.2427   68.9251   62.2400 C   0  0  0  0  0  0
    3.2511   68.6702   63.1020 C   0  0  0  0  0  0
    4.7284   68.7501   62.6996 C   0  0  2  0  0  0
    5.2414   67.3097   62.5245 C   0  0  0  0  0  0
    4.6608   66.3272   63.5563 C   0  0  0  0  0  0
    3.6639   66.6605   64.4362 C   0  0  0  0  0  0
    3.1205   65.5290   65.2028 C   0  0  0  0  0  0
    3.5433   64.2631   64.9850 C   0  0  0  0  0  0
    4.5255   63.9528   63.9682 C   0  0  0  0  0  0
    4.8180   62.8359   63.5683 O   0  0  0  0  0  0
    5.0995   65.0381   63.4111 N   0  0  0  0  0  0
    3.0716   68.0943   64.5278 C   0  0  1  0  0  0
    3.8516   69.0036   65.5543 C   0  0  0  0  0  0
    5.1774   69.5629   65.0647 C   0  0  0  0  0  0
    5.5259   69.4739   63.7715 C   0  0  0  0  0  0
    6.0169   70.3260   66.0737 C   0  0  0  0  0  0
    1.6414   68.0300   64.8387 N   0  0  0  0  0  0
    1.1274   68.1503   66.0011 C   0  0  0  0  0  0
   -0.3206   68.2453   66.1425 C   0  0  0  0  0  0
   -0.9784   67.8442   67.3097 C   0  0  0  0  0  0
   -2.3687   67.9392   67.4002 C   0  0  0  0  0  0
   -3.0991   68.4607   66.3332 C   0  0  0  0  0  0
   -2.4700   68.8650   65.1684 C   0  0  0  0  0  0
   -1.0826   68.7623   65.0873 C   0  0  0  0  0  0
   -3.2720   69.3080   64.1351 O   0  0  0  0  0  0
   -2.7790   69.3023   62.8020 C   0  0  0  0  0  0
   -4.4573   68.5080   66.3680 O   0  0  0  0  0  0
    4.8761   69.3114   61.7771 H   0  0  0  0  0  0
    5.8320   64.8062   62.7725 H   0  0  0  0  0  0
    1.5558   68.9084   60.2235 H   0  0  0  0  0  0
    3.3118   68.9067   60.3438 H   0  0  0  0  0  0
    2.4249   70.3838   60.7680 H   0  0  0  0  0  0
    1.2138   68.8306   62.5554 H   0  0  0  0  0  0
    4.9848   66.9442   61.5294 H   0  0  0  0  0  0
    6.3306   67.3077   62.5079 H   0  0  0  0  0  0
    2.3861   65.7086   65.9729 H   0  0  0  0  0  0
    3.1570   63.4385   65.5594 H   0  0  0  0  0  0
    3.9950   68.5080   66.5078 H   0  0  0  0  0  0
    3.2552   69.8858   65.7964 H   0  0  0  0  0  0
    6.4516   69.9332   63.4691 H   0  0  0  0  0  0
    6.4465   69.6359   66.8009 H   0  0  0  0  0  0
    6.8360   70.8638   65.5951 H   0  0  0  0  0  0
    5.4073   71.0538   66.6079 H   0  0  0  0  0  0
    1.7100   68.1746   66.9182 H   0  0  0  0  0  0
   -0.4221   67.4451   68.1466 H   0  0  0  0  0  0
   -2.8747   67.6104   68.2961 H   0  0  0  0  0  0
   -0.5930   69.0983   64.1854 H   0  0  0  0  0  0
   -3.6408   69.2767   62.1376 H   0  0  0  0  0  0
   -2.1584   70.1080   62.4086 H   0  0  0  0  0  0
   -2.1767   68.3977   62.7680 H   0  0  0  0  0  0
   -4.8166   67.6737   66.7347 H   0  0  0  0  0  0
  1  2  1  0  0  0
  1 31  1  0  0  0
  1 32  1  0  0  0
  1 33  1  0  0  0
  2  3  2  0  0  0
  2 34  1  0  0  0
  3 13  1  0  0  0
  3  4  1  0  0  0
  4 29  1  0  0  0
  4 16  1  0  0  0
  4  5  1  0  0  0
  5  6  1  0  0  0
  5 35  1  0  0  0
  5 36  1  0  0  0
  6 12  1  0  0  0
  6  7  2  0  0  0
  7  8  1  0  0  0
  7 13  1  0  0  0
  8  9  2  0  0  0
  8 37  1  0  0  0
  9 10  1  0  0  0
  9 38  1  0  0  0
 10 11  2  0  0  0
 10 12  1  0  0  0
 12 30  1  0  0  0
 13 14  1  0  0  0
 13 18  1  0  0  0
 14 15  1  0  0  0
 14 39  1  0  0  0
 14 40  1  0  0  0
 15 16  2  0  0  0
 15 17  1  0  0  0
 16 41  1  0  0  0
 17 42  1  0  0  0
 17 43  1  0  0  0
 17 44  1  0  0  0
 18 19  2  0  0  0
 19 20  1  0  0  0
 19 45  1  0  0  0
 20 25  1  0  0  0
 20 21  2  0  0  0
 21 22  1  0  0  0
 21 46  1  0  0  0
 22 23  2  0  0  0
 22 47  1  0  0  0
 23 24  1  0  0  0
 23 28  1  0  0  0
 24 25  2  0  0  0
 24 26  1  0  0  0
 25 48  1  0  0  0
 26 27  1  0  0  0
 27 49  1  0  0  0
 27 50  1  0  0  0
 27 51  1  0  0  0
 28 52  1  0  0  0
M  END
> <s_m_entry_id>
9798

> <s_m_entry_name>
ligand_docking-pose.240

> <s_m_Source_Path>
/home/csk/Desktop/cluster/DUD-E-result/aces

> <s_m_Source_File>
ligand_docking-pose.sdf

> <i_m_Source_File_Index>
240

> <i_lp_mmshare_version>
53161

> <r_lp_tautomer_probability>
0.999

> <s_lp_Force_Field>
OPLS_2005

> <r_lp_Energy>
33.13013

> <b_lp_Chiralities_Consistent>
1

> <s_lp_Variant>
593431-1

> <s_i_glide_gridfile>
glide-grid_1e66

> <i_i_glide_lignum>
940

> <i_i_glide_rotatable_bonds>
4

> <r_i_docking_score>
-7.3280767401562

> <r_i_glide_ligand_efficiency>
-0.26171702643415

> <r_i_glide_ligand_efficiency_sa>
-0.7947270353393

> <r_i_glide_ligand_efficiency_ln>
-1.6915352733105

> <r_i_glide_gscore>
-7.3280767401562

> <r_i_glide_lipo>
-4.19937811787133

> <r_i_glide_hbond>
-0.118958514388035

> <r_i_glide_metal>
0

> <r_i_glide_rewards>
-1.74114561951956

> <r_i_glide_evdw>
-29.2844715118408

> <r_i_glide_ecoul>
-0.0985705852508545

> <r_i_glide_erotb>
0.273196443080104

> <r_i_glide_esite>
-0.062781768077707

> <r_i_glide_emodel>
-32.5539876479728

> <r_i_glide_energy>
-29.3830420970917

> <r_i_glide_einternal>
11.4143733978271

> <i_i_glide_confnum>
1

> <i_i_glide_posenum>
180

> <r_i_glide_eff_state_penalty>
0

> <i_f3d_flags>
0

> <s_user_duplicate_titles>
593431

> <s_m_subgroup_title>
dock_pv

> <s_m_subgroupid>
dock_pv1

> <b_m_subgroup_collapsed>
1

$$$$
245994
                    3D
 Schrodinger Suite 2021-1.
 35 36  0  0  1  0            999 V2000
    4.6076   69.6969   61.5786 C   0  0  0  0  0  0
    4.5480   68.8191   62.8414 N   0  3  0  0  0  0
    5.4542   69.4901   63.8928 C   0  0  0  0  0  0
    5.1743   68.9208   65.2850 C   0  0  0  0  0  0
    3.7856   68.9273   65.6272 O   0  0  0  0  0  0
    2.9062   68.2418   64.7695 C   0  0  2  0  0  0
    3.0734   68.7675   63.3238 C   0  0  0  0  0  0
    1.4598   68.4485   65.3083 C   0  0  0  0  0  0
    0.3524   68.3280   64.4560 C   0  0  0  0  0  0
   -0.9379   68.5073   64.9430 C   0  0  0  0  0  0
   -1.1436   68.7782   66.2903 C   0  0  0  0  0  0
   -0.0588   68.9068   67.1544 C   0  0  0  0  0  0
    1.2364   68.7388   66.6652 C   0  0  0  0  0  0
   -2.4468   68.9083   66.7608 N   0  0  0  0  0  0
    3.1429   66.8933   64.7691 O   0  0  0  0  0  0
    5.0835   67.4175   62.4550 C   0  0  0  0  0  0
    3.9561   69.2579   60.8217 H   0  0  0  0  0  0
    4.2886   70.6885   61.8502 H   0  0  0  0  0  0
    5.6401   69.7253   61.2277 H   0  0  0  0  0  0
    5.2308   70.5585   63.8903 H   0  0  0  0  0  0
    6.4830   69.3485   63.5682 H   0  0  0  0  0  0
    5.6952   69.5261   66.0286 H   0  0  0  0  0  0
    5.5929   67.9227   65.3981 H   0  0  0  0  0  0
    2.6994   69.7921   63.2965 H   0  0  0  0  0  0
    2.5182   68.1624   62.6065 H   0  0  0  0  0  0
    0.4693   68.0834   63.4119 H   0  0  0  0  0  0
   -1.7763   68.4058   64.2702 H   0  0  0  0  0  0
   -0.2109   69.1268   68.2018 H   0  0  0  0  0  0
    2.0633   68.8377   67.3533 H   0  0  0  0  0  0
   -2.6126   69.4974   67.5691 H   0  0  0  0  0  0
   -3.1928   68.7971   66.0904 H   0  0  0  0  0  0
    3.0121   66.5982   65.6730 H   0  0  0  0  0  0
    4.3916   66.9909   61.7287 H   0  0  0  0  0  0
    6.0704   67.5498   62.0035 H   0  0  0  0  0  0
    5.1490   66.7999   63.3466 H   0  0  0  0  0  0
  1  2  1  0  0  0
  1 17  1  0  0  0
  1 18  1  0  0  0
  1 19  1  0  0  0
  2  7  1  0  0  0
  2  3  1  0  0  0
  2 16  1  0  0  0
  3  4  1  0  0  0
  3 20  1  0  0  0
  3 21  1  0  0  0
  4  5  1  0  0  0
  4 22  1  0  0  0
  4 23  1  0  0  0
  5  6  1  0  0  0
  6  7  1  0  0  0
  6  8  1  0  0  0
  6 15  1  0  0  0
  7 24  1  0  0  0
  7 25  1  0  0  0
  8 13  1  0  0  0
  8  9  2  0  0  0
  9 10  1  0  0  0
  9 26  1  0  0  0
 10 11  2  0  0  0
 10 27  1  0  0  0
 11 12  1  0  0  0
 11 14  1  0  0  0
 12 13  2  0  0  0
 12 28  1  0  0  0
 13 29  1  0  0  0
 14 30  1  0  0  0
 14 31  1  0  0  0
 15 32  1  0  0  0
 16 33  1  0  0  0
 16 34  1  0  0  0
 16 35  1  0  0  0
M  CHG  1   2   1
M  END
> <s_m_entry_id>
9800

> <s_m_entry_name>
ligand_docking-pose.242

> <s_m_Source_Path>
/home/csk/Desktop/cluster/DUD-E-result/aces

> <s_m_Source_File>
ligand_docking-pose.sdf

> <i_m_Source_File_Index>
242

> <i_lp_mmshare_version>
53161

> <r_lp_tautomer_probability>
1

> <s_lp_Force_Field>
OPLS_2005

> <r_lp_Energy>
28.231329

> <b_lp_Chiralities_Consistent>
1

> <s_lp_Variant>
245994-1

> <s_i_glide_gridfile>
glide-grid_1e66

> <i_i_glide_lignum>
1681

> <i_i_glide_rotatable_bonds>
2

> <r_i_docking_score>
-7.31809228324106

> <r_i_glide_ligand_efficiency>
-0.457380767702566

> <r_i_glide_ligand_efficiency_sa>
-1.15252731302592

> <r_i_glide_ligand_efficiency_ln>
-1.93980654188467

> <r_i_glide_gscore>
-7.31809228324106

> <r_i_glide_lipo>
-1.89760959964339

> <r_i_glide_hbond>
-0.279583728480724

> <r_i_glide_metal>
0

> <r_i_glide_rewards>
-3.35454954360351

> <r_i_glide_evdw>
-28.2367210388184

> <r_i_glide_ecoul>
-4.75935935974121

> <r_i_glide_erotb>
0.339390544388663

> <r_i_glide_esite>
0

> <r_i_glide_emodel>
-51.6150538917837

> <r_i_glide_energy>
-32.9960803985596

> <r_i_glide_einternal>
0.921575009822845

> <i_i_glide_confnum>
3

> <i_i_glide_posenum>
377

> <r_i_glide_eff_state_penalty>
0

> <i_f3d_flags>
0

> <s_user_duplicate_titles>
245994

> <s_m_subgroup_title>
dock_pv

> <s_m_subgroupid>
dock_pv1

> <b_m_subgroup_collapsed>
1

$$$$
118203
                    3D
 Schrodinger Suite 2021-1.
 56 59  0  0  1  0            999 V2000
    0.6486   63.2244   70.2253 C   0  0  0  0  0  0
    0.1763   64.5079   69.9680 C   0  0  0  0  0  0
    1.0252   65.6176   70.0385 C   0  0  0  0  0  0
    2.3804   65.4046   70.3223 C   0  0  0  0  0  0
    2.8893   64.1070   70.5182 C   0  0  0  0  0  0
    1.9984   63.0249   70.4965 C   0  0  0  0  0  0
    4.3399   63.8697   70.7072 N   0  3  0  0  0  0
    4.7027   62.7897   71.1668 O   0  5  0  0  0  0
    5.1264   64.7459   70.3679 O   0  0  0  0  0  0
    0.4691   67.0124   69.6751 C   0  0  0  0  0  0
    0.8005   67.5635   68.3311 N   0  0  1  0  0  0
    0.7780   66.5080   67.3490 C   0  0  0  0  0  0
    1.1595   66.8107   65.9062 C   0  0  0  0  0  0
    0.5687   68.1046   65.3318 C   0  0  0  0  0  0
    0.1221   69.1181   66.4342 C   0  0  0  0  0  0
   -0.1378   68.5972   67.8819 C   0  0  0  0  0  0
    1.2641   68.6579   64.0247 C   0  0  0  0  0  0
    2.5233   67.9029   63.4848 C   0  0  0  0  0  0
    3.8987   68.6182   63.5299 C   0  0  0  0  0  0
    4.5520   68.6189   62.4873 O   0  0  0  0  0  0
    4.4209   69.2421   64.7954 C   0  0  0  0  0  0
    5.7056   69.8053   64.8390 C   0  0  0  0  0  0
    6.1921   70.4101   66.0057 C   0  0  0  0  0  0
    5.3663   70.5086   67.1255 C   0  0  0  0  0  0
    4.0950   69.9768   67.0867 C   0  0  0  0  0  0
    3.6586   69.3080   65.9604 C   0  0  0  0  0  0
    3.3817   70.2190   68.3767 C   0  0  0  0  0  0
    4.3623   71.1004   69.1415 C   0  0  0  0  0  0
    5.5981   71.1270   68.3556 N   0  0  0  0  0  0
   -0.0252   62.3812   70.1765 H   0  0  0  0  0  0
   -0.8569   64.6318   69.6843 H   0  0  0  0  0  0
    3.0470   66.2541   70.3612 H   0  0  0  0  0  0
    2.3526   62.0165   70.6575 H   0  0  0  0  0  0
    0.7886   67.7080   70.4448 H   0  0  0  0  0  0
   -0.6135   66.9080   69.7546 H   0  0  0  0  0  0
   -0.1695   65.9683   67.3912 H   0  0  0  0  0  0
    1.5747   65.8641   67.7135 H   0  0  0  0  0  0
    0.9457   65.9672   65.2477 H   0  0  0  0  0  0
    2.2457   66.8485   65.9509 H   0  0  0  0  0  0
   -0.4070   67.7392   65.0026 H   0  0  0  0  0  0
    0.9435   69.8029   66.6042 H   0  0  0  0  0  0
   -0.7071   69.7307   66.0821 H   0  0  0  0  0  0
   -1.1638   68.2329   67.9627 H   0  0  0  0  0  0
   -0.0642   69.4309   68.5824 H   0  0  0  0  0  0
    1.5430   69.7073   64.1045 H   0  0  0  0  0  0
    0.5140   68.6538   63.2315 H   0  0  0  0  0  0
    2.3358   67.7124   62.4271 H   0  0  0  0  0  0
    2.6410   66.9121   63.9145 H   0  0  0  0  0  0
    6.3430   69.7813   63.9660 H   0  0  0  0  0  0
    7.1867   70.8286   66.0054 H   0  0  0  0  0  0
    2.7030   68.8684   66.0281 H   0  0  0  0  0  0
    3.1430   69.3081   68.9218 H   0  0  0  0  0  0
    2.4439   70.7573   68.2378 H   0  0  0  0  0  0
    3.9437   72.1077   69.1680 H   0  0  0  0  0  0
    4.5280   70.7486   70.1610 H   0  0  0  0  0  0
    6.4269   71.0882   68.9304 H   0  0  0  0  0  0
  1  6  1  0  0  0
  1  2  2  0  0  0
  1 30  1  0  0  0
  2  3  1  0  0  0
  2 31  1  0  0  0
  3  4  2  0  0  0
  3 10  1  0  0  0
  4  5  1  0  0  0
  4 32  1  0  0  0
  5  6  2  0  0  0
  5  7  1  0  0  0
  6 33  1  0  0  0
  7  8  1  0  0  0
  7  9  2  0  0  0
 10 11  1  0  0  0
 10 34  1  0  0  0
 10 35  1  0  0  0
 11 16  1  0  0  0
 11 12  1  0  0  0
 12 13  1  0  0  0
 12 36  1  0  0  0
 12 37  1  0  0  0
 13 14  1  0  0  0
 13 38  1  0  0  0
 13 39  1  0  0  0
 14 15  1  0  0  0
 14 17  1  0  0  0
 14 40  1  0  0  0
 15 16  1  0  0  0
 15 41  1  0  0  0
 15 42  1  0  0  0
 16 43  1  0  0  0
 16 44  1  0  0  0
 17 18  1  0  0  0
 17 45  1  0  0  0
 17 46  1  0  0  0
 18 19  1  0  0  0
 18 47  1  0  0  0
 18 48  1  0  0  0
 19 20  2  0  0  0
 19 21  1  0  0  0
 21 26  1  0  0  0
 21 22  2  0  0  0
 22 23  1  0  0  0
 22 49  1  0  0  0
 23 24  2  0  0  0
 23 50  1  0  0  0
 24 29  1  0  0  0
 24 25  1  0  0  0
 25 26  2  0  0  0
 25 27  1  0  0  0
 26 51  1  0  0  0
 27 28  1  0  0  0
 27 52  1  0  0  0
 27 53  1  0  0  0
 28 29  1  0  0  0
 28 54  1  0  0  0
 28 55  1  0  0  0
 29 56  1  0  0  0
M  CHG  2   7   1   8  -1
M  END
> <s_m_entry_id>
9801

> <s_m_entry_name>
ligand_docking-pose.243

> <s_m_Source_Path>
/home/csk/Desktop/cluster/DUD-E-result/aces

> <s_m_Source_File>
ligand_docking-pose.sdf

> <i_m_Source_File_Index>
243

> <i_lp_mmshare_version>
53161

> <r_lp_tautomer_probability>
0.99990000499975

> <s_lp_Force_Field>
OPLS_2005

> <r_lp_Energy>
47.168383

> <b_lp_Chiralities_Consistent>
1

> <s_lp_Variant>
118203-1

> <s_i_glide_gridfile>
glide-grid_1e66

> <i_i_glide_lignum>
490

> <i_i_glide_rotatable_bonds>
7

> <r_i_docking_score>
-7.31766333456414

> <r_i_glide_ligand_efficiency>
-0.252333218433246

> <r_i_glide_ligand_efficiency_sa>
-0.775247591801762

> <r_i_glide_ligand_efficiency_ln>
-1.67555934368357

> <r_i_glide_gscore>
-7.31766333456414

> <r_i_glide_lipo>
-3.70708241836208

> <r_i_glide_hbond>
0

> <r_i_glide_metal>
0

> <r_i_glide_rewards>
-2.26657512053024

> <r_i_glide_evdw>
-38.5858306884766

> <r_i_glide_ecoul>
-0.30395719408989

> <r_i_glide_erotb>
0.630879317865498

> <r_i_glide_esite>
0

> <r_i_glide_emodel>
-47.7526201742822

> <r_i_glide_energy>
-38.8897878825665

> <r_i_glide_einternal>
14.0411319732666

> <i_i_glide_confnum>
5

> <i_i_glide_posenum>
45

> <r_i_glide_eff_state_penalty>
0

> <i_f3d_flags>
0

> <s_user_duplicate_titles>
118203

> <s_m_subgroup_title>
dock_pv

> <s_m_subgroupid>
dock_pv1

> <b_m_subgroup_collapsed>
1

$$$$
245893
                    3D
 Schrodinger Suite 2021-1.
 34 35  0  0  1  0            999 V2000
    5.3233   67.5074   62.5546 C   0  0  0  0  0  0
    4.6565   68.8682   62.8532 N   0  3  0  0  0  0
    5.3977   69.6347   63.9678 C   0  0  0  0  0  0
    5.0358   69.0846   65.3517 C   0  0  0  0  0  0
    3.6244   69.0001   65.5523 O   0  0  0  0  0  0
    2.8992   68.2157   64.6378 C   0  0  2  0  0  0
    3.1610   68.7042   63.1961 C   0  0  0  0  0  0
    1.4053   68.3341   65.0204 C   0  0  0  0  0  0
    0.4048   68.4192   64.0416 C   0  0  0  0  0  0
   -0.9251   68.5112   64.4117 C   0  0  0  0  0  0
   -1.2719   68.5057   65.7602 C   0  0  0  0  0  0
   -0.2932   68.4372   66.7502 C   0  0  0  0  0  0
    1.0440   68.3510   66.3768 C   0  0  0  0  0  0
   -2.6742   68.5096   66.1095 C   0  0  0  0  0  0
   -3.7949   68.5091   66.3682 N   0  0  0  0  0  0
    3.2345   66.8914   64.7228 O   0  0  0  0  0  0
    4.7442   69.7080   61.5676 C   0  0  0  0  0  0
    6.3437   67.7045   62.2133 H   0  0  0  0  0  0
    5.3339   66.9089   63.4603 H   0  0  0  0  0  0
    4.7535   67.0210   61.7626 H   0  0  0  0  0  0
    6.4547   69.5807   63.7387 H   0  0  0  0  0  0
    5.0858   70.6762   63.9075 H   0  0  0  0  0  0
    5.5133   68.1269   65.5640 H   0  0  0  0  0  0
    5.4268   69.7599   66.1141 H   0  0  0  0  0  0
    2.7286   68.0297   62.4577 H   0  0  0  0  0  0
    2.7176   69.6964   63.0941 H   0  0  0  0  0  0
    0.6253   68.3979   62.9854 H   0  0  0  0  0  0
   -1.6837   68.5517   63.6408 H   0  0  0  0  0  0
   -0.5551   68.4342   67.8002 H   0  0  0  0  0  0
    1.8012   68.2975   67.1466 H   0  0  0  0  0  0
    3.0641   66.6271   65.6302 H   0  0  0  0  0  0
    5.7956   69.7903   61.2851 H   0  0  0  0  0  0
    4.1809   69.2001   60.7819 H   0  0  0  0  0  0
    4.3411   70.6866   61.7720 H   0  0  0  0  0  0
  1  2  1  0  0  0
  1 18  1  0  0  0
  1 19  1  0  0  0
  1 20  1  0  0  0
  2  7  1  0  0  0
  2  3  1  0  0  0
  2 17  1  0  0  0
  3  4  1  0  0  0
  3 21  1  0  0  0
  3 22  1  0  0  0
  4  5  1  0  0  0
  4 23  1  0  0  0
  4 24  1  0  0  0
  5  6  1  0  0  0
  6  7  1  0  0  0
  6  8  1  0  0  0
  6 16  1  0  0  0
  7 25  1  0  0  0
  7 26  1  0  0  0
  8 13  1  0  0  0
  8  9  2  0  0  0
  9 10  1  0  0  0
  9 27  1  0  0  0
 10 11  2  0  0  0
 10 28  1  0  0  0
 11 12  1  0  0  0
 11 14  1  0  0  0
 12 13  2  0  0  0
 12 29  1  0  0  0
 13 30  1  0  0  0
 14 15  3  0  0  0
 16 31  1  0  0  0
 17 32  1  0  0  0
 17 33  1  0  0  0
 17 34  1  0  0  0
M  CHG  1   2   1
M  END
> <s_m_entry_id>
9807

> <s_m_entry_name>
ligand_docking-pose.249

> <s_m_Source_Path>
/home/csk/Desktop/cluster/DUD-E-result/aces

> <s_m_Source_File>
ligand_docking-pose.sdf

> <i_m_Source_File_Index>
249

> <i_lp_mmshare_version>
53161

> <r_lp_tautomer_probability>
1

> <s_lp_Force_Field>
OPLS_2005

> <r_lp_Energy>
28.492324

> <b_lp_Chiralities_Consistent>
1

> <s_lp_Variant>
245893-1

> <s_i_glide_gridfile>
glide-grid_1e66

> <i_i_glide_lignum>
1680

> <i_i_glide_rotatable_bonds>
2

> <r_i_docking_score>
-7.2896033952665

> <r_i_glide_ligand_efficiency>
-0.428800199721559

> <r_i_glide_ligand_efficiency_sa>
-1.10256605857335

> <r_i_glide_ligand_efficiency_ln>
-1.90169519433865

> <r_i_glide_gscore>
-7.2896033952665

> <r_i_glide_lipo>
-1.99698300395428

> <r_i_glide_hbond>
0

> <r_i_glide_metal>
0

> <r_i_glide_rewards>
-3.80280786453179

> <r_i_glide_evdw>
-29.490083694458

> <r_i_glide_ecoul>
-2.20277571678162

> <r_i_glide_erotb>
0.315108015459711

> <r_i_glide_esite>
0

> <r_i_glide_emodel>
-50.0424569425616

> <r_i_glide_energy>
-31.6928594112396

> <r_i_glide_einternal>
0.82778799533844

> <i_i_glide_confnum>
1

> <i_i_glide_posenum>
140

> <r_i_glide_eff_state_penalty>
0

> <i_f3d_flags>
0

> <s_user_duplicate_titles>
245893

> <s_m_subgroup_title>
dock_pv

> <s_m_subgroupid>
dock_pv1

> <b_m_subgroup_collapsed>
1

$$$$
547745
                    3D
 Schrodinger Suite 2021-1.
 57 60  0  0  1  0            999 V2000
    5.4324   67.5155   62.0352 C   0  0  0  0  0  0
    4.0537   67.8094   62.1372 O   0  0  0  0  0  0
    3.5930   68.2615   63.3503 C   0  0  0  0  0  0
    4.4247   68.7474   64.3759 C   0  0  0  0  0  0
    3.8858   69.1185   65.6053 C   0  0  0  0  0  0
    2.5168   68.9691   65.8193 C   0  0  0  0  0  0
    1.6875   68.4989   64.8085 C   0  0  0  0  0  0
    2.2135   68.1887   63.5689 C   0  0  0  0  0  0
    1.2998   67.8083   62.6177 O   0  0  0  0  0  0
    1.1869   68.7146   61.5223 C   0  0  0  0  0  0
    0.2692   68.3564   65.2566 C   0  0  0  0  0  0
    0.2605   68.9907   66.6366 C   0  0  2  0  0  0
    1.7181   69.3064   67.0066 C   0  0  0  0  0  0
    2.1316   69.8060   68.0502 O   0  0  0  0  0  0
   -0.5230   68.1969   67.6831 C   0  0  0  0  0  0
    0.1116   66.9378   68.3632 C   0  0  0  0  0  0
    0.9571   67.2078   69.6278 C   0  0  0  0  0  0
    1.5291   65.9195   70.2500 C   0  0  0  0  0  0
    0.4458   64.9941   70.5969 N   0  0  1  0  0  0
   -0.4472   64.6773   69.4805 C   0  0  0  0  0  0
   -0.9971   65.9868   68.8451 C   0  0  0  0  0  0
    0.8127   63.8700   71.4692 C   0  0  0  0  0  0
    1.8918   62.9333   70.9277 C   0  0  0  0  0  0
    3.2382   63.3131   70.9714 C   0  0  0  0  0  0
    4.2233   62.4572   70.4912 C   0  0  0  0  0  0
    3.8587   61.2180   69.9704 C   0  0  0  0  0  0
    2.5200   60.8322   69.9189 C   0  0  0  0  0  0
    1.5342   61.6964   70.3869 C   0  0  0  0  0  0
    5.5430   66.9087   61.1552 H   0  0  0  0  0  0
    5.7779   66.9050   62.8644 H   0  0  0  0  0  0
    6.0470   68.4140   61.9634 H   0  0  0  0  0  0
    5.4892   68.8538   64.2334 H   0  0  0  0  0  0
    4.5357   69.5034   66.3793 H   0  0  0  0  0  0
    0.1873   68.6438   61.0976 H   0  0  0  0  0  0
    1.3615   69.7540   61.8057 H   0  0  0  0  0  0
    1.9055   68.4813   60.7380 H   0  0  0  0  0  0
   -0.4341   68.8636   64.5936 H   0  0  0  0  0  0
   -0.0194   67.3047   65.2988 H   0  0  0  0  0  0
   -0.2487   69.9487   66.5392 H   0  0  0  0  0  0
   -0.8150   68.9699   68.3681 H   0  0  0  0  0  0
   -1.4682   67.9090   67.2190 H   0  0  0  0  0  0
    0.7295   66.4109   67.6347 H   0  0  0  0  0  0
    1.7720   67.8964   69.4337 H   0  0  0  0  0  0
    0.3500   67.7079   70.3763 H   0  0  0  0  0  0
    2.2407   65.4306   69.5833 H   0  0  0  0  0  0
    2.0677   66.1675   71.1614 H   0  0  0  0  0  0
    0.0483   64.0299   68.7692 H   0  0  0  0  0  0
   -1.2549   64.0573   69.8493 H   0  0  0  0  0  0
   -1.6603   66.5030   69.5426 H   0  0  0  0  0  0
   -1.6437   65.7685   68.0017 H   0  0  0  0  0  0
    1.1448   64.2613   72.4303 H   0  0  0  0  0  0
   -0.0908   63.2950   71.6836 H   0  0  0  0  0  0
    3.5204   64.2686   71.3865 H   0  0  0  0  0  0
    5.2599   62.7549   70.5272 H   0  0  0  0  0  0
    4.6229   60.5445   69.6088 H   0  0  0  0  0  0
    2.2473   59.8633   69.5322 H   0  0  0  0  0  0
    0.4960   61.3941   70.3609 H   0  0  0  0  0  0
  1  2  1  0  0  0
  1 29  1  0  0  0
  1 30  1  0  0  0
  1 31  1  0  0  0
  2  3  1  0  0  0
  3  8  1  0  0  0
  3  4  2  0  0  0
  4  5  1  0  0  0
  4 32  1  0  0  0
  5  6  2  0  0  0
  5 33  1  0  0  0
  6 13  1  0  0  0
  6  7  1  0  0  0
  7  8  2  0  0  0
  7 11  1  0  0  0
  8  9  1  0  0  0
  9 10  1  0  0  0
 10 34  1  0  0  0
 10 35  1  0  0  0
 10 36  1  0  0  0
 11 12  1  0  0  0
 11 37  1  0  0  0
 11 38  1  0  0  0
 12 13  1  0  0  0
 12 15  1  0  0  0
 12 39  1  0  0  0
 13 14  2  0  0  0
 15 16  1  0  0  0
 15 40  1  0  0  0
 15 41  1  0  0  0
 16 21  1  0  0  0
 16 17  1  0  0  0
 16 42  1  0  0  0
 17 18  1  0  0  0
 17 43  1  0  0  0
 17 44  1  0  0  0
 18 19  1  0  0  0
 18 45  1  0  0  0
 18 46  1  0  0  0
 19 20  1  0  0  0
 19 22  1  0  0  0
 20 21  1  0  0  0
 20 47  1  0  0  0
 20 48  1  0  0  0
 21 49  1  0  0  0
 21 50  1  0  0  0
 22 23  1  0  0  0
 22 51  1  0  0  0
 22 52  1  0  0  0
 23 28  1  0  0  0
 23 24  2  0  0  0
 24 25  1  0  0  0
 24 53  1  0  0  0
 25 26  2  0  0  0
 25 54  1  0  0  0
 26 27  1  0  0  0
 26 55  1  0  0  0
 27 28  2  0  0  0
 27 56  1  0  0  0
 28 57  1  0  0  0
M  END
> <s_m_entry_id>
9809

> <s_m_entry_name>
ligand_docking-pose.251

> <s_m_Source_Path>
/home/csk/Desktop/cluster/DUD-E-result/aces

> <s_m_Source_File>
ligand_docking-pose.sdf

> <i_m_Source_File_Index>
251

> <i_lp_mmshare_version>
53161

> <r_lp_tautomer_probability>
0.99995

> <s_lp_Force_Field>
OPLS_2005

> <r_lp_Energy>
52.985715

> <b_lp_Chiralities_Consistent>
1

> <s_lp_Variant>
547745-2

> <s_i_glide_gridfile>
glide-grid_1e66

> <i_i_glide_lignum>
2069

> <i_i_glide_rotatable_bonds>
6

> <r_i_docking_score>
-7.28282748632

> <r_i_glide_ligand_efficiency>
-0.260100981654286

> <r_i_glide_ligand_efficiency_sa>
-0.789819771588158

> <r_i_glide_ligand_efficiency_ln>
-1.68109041694928

> <r_i_glide_gscore>
-7.28282748632

> <r_i_glide_lipo>
-4.01445395364673

> <r_i_glide_hbond>
0

> <r_i_glide_metal>
0

> <r_i_glide_rewards>
-1.99607778371048

> <r_i_glide_evdw>
-30.2574825286865

> <r_i_glide_ecoul>
-1.98661088943481

> <r_i_glide_erotb>
0.538570010886759

> <r_i_glide_esite>
0

> <r_i_glide_emodel>
-47.4389723111389

> <r_i_glide_energy>
-32.2440934181213

> <r_i_glide_einternal>
16.4046802520752

> <i_i_glide_confnum>
29

> <i_i_glide_posenum>
394

> <r_i_glide_eff_state_penalty>
0

> <i_f3d_flags>
0

> <s_user_duplicate_titles>
547745

> <s_m_subgroup_title>
dock_pv

> <s_m_subgroupid>
dock_pv1

> <b_m_subgroup_collapsed>
1

$$$$
593325
                    3D
 Schrodinger Suite 2021-1.
 55 58  0  0  1  0            999 V2000
    1.3142   69.3094   60.9674 C   0  0  0  0  0  0
    1.6545   69.1358   62.4240 C   0  0  0  0  0  0
    2.8839   68.9886   62.9780 C   0  0  0  0  0  0
    4.2073   69.0276   62.1968 C   0  0  2  0  0  0
    4.8186   67.6036   62.1244 C   0  0  0  0  0  0
    4.4281   66.6914   63.2956 C   0  0  0  0  0  0
    3.6107   67.0850   64.3123 C   0  0  0  0  0  0
    3.1454   65.9784   65.1782 C   0  0  0  0  0  0
    3.5407   64.7025   64.9743 C   0  0  0  0  0  0
    4.4855   64.3546   63.9410 C   0  0  0  0  0  0
    4.9285   63.2317   63.7352 O   0  0  0  0  0  0
    4.8659   65.4039   63.1745 N   0  0  0  0  0  0
    3.1201   68.5566   64.4437 C   0  0  1  0  0  0
    4.2095   69.4599   65.1584 C   0  0  0  0  0  0
    5.2569   70.0827   64.2542 C   0  0  0  0  0  0
    5.1931   69.9298   62.9205 C   0  0  0  0  0  0
    6.3353   70.9143   64.9327 C   0  0  0  0  0  0
    1.8567   68.5010   65.1604 N   0  0  0  0  0  0
    1.7170   68.7519   66.3944 C   0  0  0  0  0  0
    0.4871   68.3340   67.0018 C   0  0  0  0  0  0
   -0.7475   68.4463   66.3582 C   0  0  0  0  0  0
   -1.8712   67.7826   66.8596 C   0  0  0  0  0  0
   -1.7195   66.9727   67.9759 C   0  0  0  0  0  0
   -0.4988   66.8763   68.6492 C   0  0  0  0  0  0
    0.5927   67.5886   68.1659 C   0  0  0  0  0  0
   -0.4571   66.1083   69.7902 O   0  0  0  0  0  0
    0.7315   66.0808   70.5704 C   0  0  0  0  0  0
   -3.1357   67.8737   66.3253 O   0  0  0  0  0  0
   -3.3573   68.8126   65.2890 C   0  0  0  0  0  0
    4.0729   69.4323   61.1936 H   0  0  0  0  0  0
    5.5630   65.2021   62.4896 H   0  0  0  0  0  0
    0.4077   68.7511   60.7359 H   0  0  0  0  0  0
    2.1018   68.9308   60.3170 H   0  0  0  0  0  0
    1.1242   70.3618   60.7686 H   0  0  0  0  0  0
    0.7754   69.0811   63.0490 H   0  0  0  0  0  0
    4.4726   67.1256   61.2077 H   0  0  0  0  0  0
    5.9033   67.6291   61.9892 H   0  0  0  0  0  0
    2.4439   66.1591   65.9788 H   0  0  0  0  0  0
    3.1768   63.9019   65.5940 H   0  0  0  0  0  0
    4.6901   68.9360   65.9869 H   0  0  0  0  0  0
    3.7407   70.3280   65.6224 H   0  0  0  0  0  0
    5.9361   70.4220   62.3177 H   0  0  0  0  0  0
    6.9558   70.2851   65.5709 H   0  0  0  0  0  0
    6.9739   71.4156   64.2043 H   0  0  0  0  0  0
    5.9225   71.6895   65.5702 H   0  0  0  0  0  0
    2.4806   69.1654   67.0472 H   0  0  0  0  0  0
   -0.8078   69.0137   65.4413 H   0  0  0  0  0  0
   -2.6000   66.5087   68.3828 H   0  0  0  0  0  0
    1.5434   67.5083   68.6621 H   0  0  0  0  0  0
    0.5291   65.5974   71.5273 H   0  0  0  0  0  0
    1.5181   65.5167   70.0665 H   0  0  0  0  0  0
    1.0951   67.0892   70.7756 H   0  0  0  0  0  0
   -4.4313   68.9524   65.1626 H   0  0  0  0  0  0
   -2.8781   69.7437   65.5647 H   0  0  0  0  0  0
   -2.9308   68.5079   64.3347 H   0  0  0  0  0  0
  1  2  1  0  0  0
  1 32  1  0  0  0
  1 33  1  0  0  0
  1 34  1  0  0  0
  2  3  2  0  0  0
  2 35  1  0  0  0
  3 13  1  0  0  0
  3  4  1  0  0  0
  4 30  1  0  0  0
  4 16  1  0  0  0
  4  5  1  0  0  0
  5  6  1  0  0  0
  5 36  1  0  0  0
  5 37  1  0  0  0
  6 12  1  0  0  0
  6  7  2  0  0  0
  7  8  1  0  0  0
  7 13  1  0  0  0
  8  9  2  0  0  0
  8 38  1  0  0  0
  9 10  1  0  0  0
  9 39  1  0  0  0
 10 11  2  0  0  0
 10 12  1  0  0  0
 12 31  1  0  0  0
 13 14  1  0  0  0
 13 18  1  0  0  0
 14 15  1  0  0  0
 14 40  1  0  0  0
 14 41  1  0  0  0
 15 16  2  0  0  0
 15 17  1  0  0  0
 16 42  1  0  0  0
 17 43  1  0  0  0
 17 44  1  0  0  0
 17 45  1  0  0  0
 18 19  2  0  0  0
 19 20  1  0  0  0
 19 46  1  0  0  0
 20 25  1  0  0  0
 20 21  2  0  0  0
 21 22  1  0  0  0
 21 47  1  0  0  0
 22 23  2  0  0  0
 22 28  1  0  0  0
 23 24  1  0  0  0
 23 48  1  0  0  0
 24 25  2  0  0  0
 24 26  1  0  0  0
 25 49  1  0  0  0
 26 27  1  0  0  0
 27 50  1  0  0  0
 27 51  1  0  0  0
 27 52  1  0  0  0
 28 29  1  0  0  0
 29 53  1  0  0  0
 29 54  1  0  0  0
 29 55  1  0  0  0
M  END
> <s_m_entry_id>
9812

> <s_m_entry_name>
ligand_docking-pose.254

> <s_m_Source_Path>
/home/csk/Desktop/cluster/DUD-E-result/aces

> <s_m_Source_File>
ligand_docking-pose.sdf

> <i_m_Source_File_Index>
254

> <i_lp_mmshare_version>
53161

> <r_lp_tautomer_probability>
0.999

> <s_lp_Force_Field>
OPLS_2005

> <r_lp_Energy>
36.265149

> <b_lp_Chiralities_Consistent>
1

> <s_lp_Variant>
593325-1

> <s_i_glide_gridfile>
glide-grid_1e66

> <i_i_glide_lignum>
941

> <i_i_glide_rotatable_bonds>
4

> <r_i_docking_score>
-7.26742540019024

> <r_i_glide_ligand_efficiency>
-0.250600875868629

> <r_i_glide_ligand_efficiency_sa>
-0.769925286598611

> <r_i_glide_ligand_efficiency_ln>
-1.66405613063605

> <r_i_glide_gscore>
-7.26742540019024

> <r_i_glide_lipo>
-4.51735021556369

> <r_i_glide_hbond>
-0.182830829594856

> <r_i_glide_metal>
0

> <r_i_glide_rewards>
-1.24079363115352

> <r_i_glide_evdw>
-46.7790184020996

> <r_i_glide_ecoul>
5.58121061325073

> <r_i_glide_erotb>
0.255850511891117

> <r_i_glide_esite>
-0.0805319076519247

> <r_i_glide_emodel>
-46.4623852566004

> <r_i_glide_energy>
-41.1978077888489

> <r_i_glide_einternal>
4.99547147750854

> <i_i_glide_confnum>
4

> <i_i_glide_posenum>
30

> <r_i_glide_eff_state_penalty>
0

> <i_f3d_flags>
0

> <s_user_duplicate_titles>
593325

> <s_m_subgroup_title>
dock_pv

> <s_m_subgroupid>
dock_pv1

> <b_m_subgroup_collapsed>
1

$$$$
374505
                    3D
 Schrodinger Suite 2021-1.
 75 79  0  0  1  0            999 V2000
    5.1648   60.9379   72.1234 C   0  0  0  0  0  0
    4.3219   60.0764   72.8193 C   0  0  0  0  0  0
    2.9431   60.0408   72.5918 C   0  0  0  0  0  0
    2.4375   60.9118   71.6235 C   0  0  0  0  0  0
    3.2840   61.7909   70.8824 C   0  0  0  0  0  0
    4.6623   61.8009   71.1517 C   0  0  0  0  0  0
    2.4418   62.4967   69.9641 C   0  0  0  0  0  0
    1.1453   62.1066   70.2141 C   0  0  0  0  0  0
    1.1467   61.1356   71.1859 N   0  0  0  0  0  0
    2.8364   63.4238   69.0465 O   0  0  0  0  0  0
    3.1852   62.8501   67.7904 C   0  0  0  0  0  0
    3.7142   63.9983   66.9112 C   0  0  0  0  0  0
    3.5782   64.0576   65.3618 C   0  0  0  0  0  0
    2.5301   64.3027   64.7681 O   0  0  0  0  0  0
    4.7420   64.1131   64.7193 N   0  0  0  0  0  0
    4.9102   64.7894   63.4415 C   0  0  0  0  0  0
    4.6237   66.3206   63.4812 C   0  0  0  0  0  0
    5.4061   67.1227   62.4260 C   0  0  0  0  0  0
    4.8656   68.4867   61.9959 C   0  0  0  0  0  0
    3.6345   68.3872   61.0766 C   0  0  0  0  0  0
    2.3371   69.0783   61.5745 C   0  0  0  0  0  0
    1.7874   68.7749   62.9907 C   0  0  0  0  0  0
    2.7131   69.1331   64.0557 N   0  0  0  0  0  0
    2.5620   69.1332   65.4580 C   0  0  0  0  0  0
    3.6624   69.6786   66.2091 C   0  0  0  0  0  0
    4.9434   70.0046   65.6648 C   0  0  0  0  0  0
    5.9628   70.5081   66.4620 C   0  0  0  0  0  0
    5.7362   70.7791   67.8043 C   0  0  0  0  0  0
    4.4984   70.5087   68.3717 C   0  0  0  0  0  0
    3.4737   69.9133   67.5976 C   0  0  0  0  0  0
    2.3432   69.5403   68.2285 N   0  0  0  0  0  0
    1.3665   68.9074   67.5425 C   0  0  0  0  0  0
    1.4105   68.6761   66.1499 C   0  0  0  0  0  0
    0.2523   67.9018   65.4789 C   0  0  0  0  0  0
   -0.9660   67.6486   66.3881 C   0  0  0  0  0  0
   -0.5309   67.2347   67.7862 C   0  0  0  0  0  0
    0.2156   68.4151   68.4011 C   0  0  0  0  0  0
    7.0155   71.4128   68.7709 Cl  0  0  0  0  0  0
    0.3023   60.6800   71.5041 H   0  0  0  0  0  0
    6.2217   60.9426   72.3540 H   0  0  0  0  0  0
    4.7429   59.4243   73.5702 H   0  0  0  0  0  0
    2.3038   59.3723   73.1519 H   0  0  0  0  0  0
    5.3167   62.4775   70.6220 H   0  0  0  0  0  0
    0.2231   62.4212   69.7518 H   0  0  0  0  0  0
    3.9681   62.1093   67.9668 H   0  0  0  0  0  0
    2.3431   62.3218   67.3538 H   0  0  0  0  0  0
    3.1974   64.9073   67.2269 H   0  0  0  0  0  0
    4.7435   64.1078   67.2325 H   0  0  0  0  0  0
    5.5759   63.8905   65.2396 H   0  0  0  0  0  0
    5.9427   64.6079   63.1673 H   0  0  0  0  0  0
    4.2994   64.3064   62.6795 H   0  0  0  0  0  0
    3.5526   66.4748   63.3496 H   0  0  0  0  0  0
    4.8493   66.7359   64.4636 H   0  0  0  0  0  0
    6.3985   67.3308   62.7681 H   0  0  0  0  0  0
    5.5413   66.5065   61.5599 H   0  0  0  0  0  0
    4.7104   69.1328   62.8320 H   0  0  0  0  0  0
    5.6773   69.0427   61.5388 H   0  0  0  0  0  0
    3.8970   68.8621   60.1305 H   0  0  0  0  0  0
    3.5017   67.3415   60.7991 H   0  0  0  0  0  0
    2.5046   70.1515   61.5105 H   0  0  0  0  0  0
    1.5463   68.8742   60.8505 H   0  0  0  0  0  0
    0.8655   69.3446   63.1092 H   0  0  0  0  0  0
    1.5455   67.7193   63.0901 H   0  0  0  0  0  0
    3.5260   69.6346   63.7235 H   0  0  0  0  0  0
    5.1648   69.8486   64.6308 H   0  0  0  0  0  0
    6.9292   70.7088   66.0206 H   0  0  0  0  0  0
    4.3309   70.6888   69.4254 H   0  0  0  0  0  0
   -0.1420   68.4201   64.6121 H   0  0  0  0  0  0
    0.6393   66.9398   65.1386 H   0  0  0  0  0  0
   -1.5712   68.5546   66.4459 H   0  0  0  0  0  0
   -1.6223   66.8917   65.9675 H   0  0  0  0  0  0
   -1.3939   66.9700   68.3982 H   0  0  0  0  0  0
    0.1039   66.3470   67.7512 H   0  0  0  0  0  0
   -0.4543   69.2681   68.5174 H   0  0  0  0  0  0
    0.5687   68.1178   69.3892 H   0  0  0  0  0  0
  1  6  1  0  0  0
  1  2  2  0  0  0
  1 40  1  0  0  0
  2  3  1  0  0  0
  2 41  1  0  0  0
  3  4  2  0  0  0
  3 42  1  0  0  0
  4  9  1  0  0  0
  4  5  1  0  0  0
  5  6  2  0  0  0
  5  7  1  0  0  0
  6 43  1  0  0  0
  7  8  2  0  0  0
  7 10  1  0  0  0
  8  9  1  0  0  0
  8 44  1  0  0  0
  9 39  1  0  0  0
 10 11  1  0  0  0
 11 12  1  0  0  0
 11 45  1  0  0  0
 11 46  1  0  0  0
 12 13  1  0  0  0
 12 47  1  0  0  0
 12 48  1  0  0  0
 13 14  2  0  0  0
 13 15  1  0  0  0
 15 16  1  0  0  0
 15 49  1  0  0  0
 16 17  1  0  0  0
 16 50  1  0  0  0
 16 51  1  0  0  0
 17 18  1  0  0  0
 17 52  1  0  0  0
 17 53  1  0  0  0
 18 19  1  0  0  0
 18 54  1  0  0  0
 18 55  1  0  0  0
 19 20  1  0  0  0
 19 56  1  0  0  0
 19 57  1  0  0  0
 20 21  1  0  0  0
 20 58  1  0  0  0
 20 59  1  0  0  0
 21 22  1  0  0  0
 21 60  1  0  0  0
 21 61  1  0  0  0
 22 23  1  0  0  0
 22 62  1  0  0  0
 22 63  1  0  0  0
 23 24  1  0  0  0
 23 64  1  0  0  0
 24 33  1  0  0  0
 24 25  2  0  0  0
 25 30  1  0  0  0
 25 26  1  0  0  0
 26 27  2  0  0  0
 26 65  1  0  0  0
 27 28  1  0  0  0
 27 66  1  0  0  0
 28 29  2  0  0  0
 28 38  1  0  0  0
 29 30  1  0  0  0
 29 67  1  0  0  0
 30 31  2  0  0  0
 31 32  1  0  0  0
 32 37  1  0  0  0
 32 33  2  0  0  0
 33 34  1  0  0  0
 34 35  1  0  0  0
 34 68  1  0  0  0
 34 69  1  0  0  0
 35 36  1  0  0  0
 35 70  1  0  0  0
 35 71  1  0  0  0
 36 37  1  0  0  0
 36 72  1  0  0  0
 36 73  1  0  0  0
 37 74  1  0  0  0
 37 75  1  0  0  0
M  END
> <s_m_entry_id>
9815

> <s_m_entry_name>
ligand_docking-pose.257

> <s_m_Source_Path>
/home/csk/Desktop/cluster/DUD-E-result/aces

> <s_m_Source_File>
ligand_docking-pose.sdf

> <i_m_Source_File_Index>
257

> <i_lp_mmshare_version>
53161

> <r_lp_tautomer_probability>
1

> <s_lp_Force_Field>
OPLS_2005

> <r_lp_Energy>
20.562733

> <b_lp_Chiralities_Consistent>
1

> <s_lp_Variant>
374505-1

> <s_i_glide_gridfile>
glide-grid_1e66

> <i_i_glide_lignum>
288

> <i_i_glide_rotatable_bonds>
14

> <r_i_docking_score>
-7.26259141591207

> <r_i_glide_ligand_efficiency>
-0.191120826734528

> <r_i_glide_ligand_efficiency_sa>
-0.642543518429467

> <r_i_glide_ligand_efficiency_ln>
-1.56602835306472

> <r_i_glide_gscore>
-7.26259141591207

> <r_i_glide_lipo>
-5.09953672997661

> <r_i_glide_hbond>
-0.0881662714423454

> <r_i_glide_metal>
0

> <r_i_glide_rewards>
-1.03267286228294

> <r_i_glide_evdw>
-44.1327743530273

> <r_i_glide_ecoul>
1.95558607578278

> <r_i_glide_erotb>
0.871085254073784

> <r_i_glide_esite>
0

> <r_i_glide_emodel>
-28.4680981856382

> <r_i_glide_energy>
-42.1771882772446

> <r_i_glide_einternal>
29.5209369659424

> <i_i_glide_confnum>
13

> <i_i_glide_posenum>
119

> <r_i_glide_eff_state_penalty>
0

> <i_f3d_flags>
0

> <s_user_duplicate_titles>
374505

> <s_m_subgroup_title>
dock_pv

> <s_m_subgroupid>
dock_pv1

> <b_m_subgroup_collapsed>
1

$$$$
569630
                    3D
 Schrodinger Suite 2021-1.
 39 42  0  0  1  0            999 V2000
    0.2715   69.5544   60.9030 C   0  0  0  0  0  0
   -0.2037   69.8382   62.3408 C   0  0  0  0  0  0
    0.3462   68.9067   63.4168 C   0  0  0  0  0  0
   -0.4114   68.5182   64.4725 C   0  0  0  0  0  0
    0.0784   67.6235   65.6123 C   0  0  2  0  0  0
    0.6231   68.4579   66.7935 C   0  0  0  0  0  0
    2.0753   68.9200   66.6241 C   0  0  0  0  0  0
    2.8748   68.5229   65.5280 C   0  0  0  0  0  0
    4.2080   68.9807   65.4701 C   0  0  0  0  0  0
    4.7310   69.7595   66.5424 C   0  0  0  0  0  0
    6.0899   70.1878   66.6494 C   0  0  0  0  0  0
    6.4815   70.9080   67.7772 C   0  0  0  0  0  0
    5.6370   71.2688   68.7678 N   0  0  0  0  0  0
    4.3469   70.8827   68.6623 C   0  0  0  0  0  0
    3.8379   70.1080   67.5954 C   0  0  0  0  0  0
    2.5454   69.7094   67.6172 N   0  0  0  0  0  0
    5.0126   68.6529   64.3680 N   0  0  0  0  0  0
    2.2794   67.5834   64.4700 C   0  0  1  0  0  0
    1.1716   66.6942   65.0687 C   0  0  0  0  0  0
    1.7705   68.3672   63.2294 C   0  0  0  0  0  0
   -0.2275   70.2137   60.1922 H   0  0  0  0  0  0
    0.0517   68.5276   60.6145 H   0  0  0  0  0  0
    1.3433   69.7080   60.7811 H   0  0  0  0  0  0
    0.0702   70.8574   62.6109 H   0  0  0  0  0  0
   -1.2940   69.8121   62.3680 H   0  0  0  0  0  0
   -1.4152   68.9134   64.5450 H   0  0  0  0  0  0
   -0.7633   67.0215   65.9639 H   0  0  0  0  0  0
   -0.0257   69.3099   66.9989 H   0  0  0  0  0  0
    0.5900   67.8393   67.6918 H   0  0  0  0  0  0
    6.8103   69.9313   65.8881 H   0  0  0  0  0  0
    7.5083   71.2128   67.9073 H   0  0  0  0  0  0
    3.6932   71.1576   69.4769 H   0  0  0  0  0  0
    5.8881   69.1494   64.2701 H   0  0  0  0  0  0
    4.5592   68.2832   63.5468 H   0  0  0  0  0  0
    3.0860   66.9223   64.1499 H   0  0  0  0  0  0
    1.5851   66.1079   65.8876 H   0  0  0  0  0  0
    0.7501   65.9792   64.3675 H   0  0  0  0  0  0
    1.7274   67.7080   62.3648 H   0  0  0  0  0  0
    2.4485   69.1730   62.9466 H   0  0  0  0  0  0
  1  2  1  0  0  0
  1 21  1  0  0  0
  1 22  1  0  0  0
  1 23  1  0  0  0
  2  3  1  0  0  0
  2 24  1  0  0  0
  2 25  1  0  0  0
  3 20  1  0  0  0
  3  4  2  0  0  0
  4  5  1  0  0  0
  4 26  1  0  0  0
  5 19  1  0  0  0
  5  6  1  0  0  0
  5 27  1  0  0  0
  6  7  1  0  0  0
  6 28  1  0  0  0
  6 29  1  0  0  0
  7 16  2  0  0  0
  7  8  1  0  0  0
  8  9  2  0  0  0
  8 18  1  0  0  0
  9 10  1  0  0  0
  9 17  1  0  0  0
 10 15  2  0  0  0
 10 11  1  0  0  0
 11 12  2  0  0  0
 11 30  1  0  0  0
 12 13  1  0  0  0
 12 31  1  0  0  0
 13 14  2  0  0  0
 14 15  1  0  0  0
 14 32  1  0  0  0
 15 16  1  0  0  0
 17 33  1  0  0  0
 17 34  1  0  0  0
 18 19  1  0  0  0
 18 20  1  0  0  0
 18 35  1  0  0  0
 19 36  1  0  0  0
 19 37  1  0  0  0
 20 38  1  0  0  0
 20 39  1  0  0  0
M  END
> <s_m_entry_id>
9816

> <s_m_entry_name>
ligand_docking-pose.258

> <s_m_Source_Path>
/home/csk/Desktop/cluster/DUD-E-result/aces

> <s_m_Source_File>
ligand_docking-pose.sdf

> <i_m_Source_File_Index>
258

> <i_lp_mmshare_version>
53161

> <r_lp_tautomer_probability>
1

> <s_lp_Force_Field>
OPLS_2005

> <r_lp_Energy>
23.0665

> <b_lp_Chiralities_Consistent>
1

> <s_lp_Variant>
569630-1

> <s_i_glide_gridfile>
glide-grid_1e66

> <i_i_glide_lignum>
879

> <i_i_glide_rotatable_bonds>
1

> <r_i_docking_score>
-7.26117604480425

> <r_i_glide_ligand_efficiency>
-0.363058802240212

> <r_i_glide_ligand_efficiency_sa>
-0.985493207676587

> <r_i_glide_ligand_efficiency_ln>
-1.81723287440022

> <r_i_glide_gscore>
-7.26117604480425

> <r_i_glide_lipo>
-3.30035117910636

> <r_i_glide_hbond>
0

> <r_i_glide_metal>
0

> <r_i_glide_rewards>
-2.22824966967013

> <r_i_glide_evdw>
-32.3338432312012

> <r_i_glide_ecoul>
-0.772553563117981

> <r_i_glide_erotb>
0

> <r_i_glide_esite>
0

> <r_i_glide_emodel>
-44.2036311747758

> <r_i_glide_energy>
-33.1063967943192

> <r_i_glide_einternal>
1.49788689613342

> <i_i_glide_confnum>
1

> <i_i_glide_posenum>
95

> <r_i_glide_eff_state_penalty>
0

> <i_f3d_flags>
0

> <s_user_duplicate_titles>
569630

> <s_m_subgroup_title>
dock_pv

> <s_m_subgroupid>
dock_pv1

> <b_m_subgroup_collapsed>
1

$$$$
678249
                    3D
 Schrodinger Suite 2021-1.
 65 68  0  0  1  0            999 V2000
   -2.4179   69.2709   66.8738 C   0  0  0  0  0  0
   -1.7862   68.0741   66.1682 C   0  0  0  0  0  0
   -2.2409   66.7280   66.7475 C   0  0  0  0  0  0
   -0.2663   68.2257   66.0529 C   0  0  0  0  0  0
    0.2828   68.4213   64.7893 C   0  0  0  0  0  0
    1.6633   68.6151   64.6582 C   0  0  0  0  0  0
    2.4498   68.6992   65.7654 N   0  0  0  0  0  0
    1.9340   68.5078   66.9843 N   0  0  0  0  0  0
    0.6234   68.1849   67.1377 C   0  0  0  0  0  0
    0.1947   67.6744   68.3683 N   0  0  0  0  0  0
    1.1111   67.1793   69.3914 C   0  0  0  0  0  0
    0.4231   66.1652   70.3409 C   0  0  0  0  0  0
    1.2204   64.8820   70.7427 C   0  0  0  0  0  0
    0.5545   63.5767   70.2370 C   0  0  0  0  0  0
    1.3673   62.2887   70.5108 C   0  0  0  0  0  0
    2.7786   62.4343   70.1224 N   0  0  1  0  0  0
    3.4348   63.5616   70.7866 C   0  0  0  0  0  0
    2.7253   64.8559   70.3616 C   0  0  0  0  0  0
    3.5688   61.1974   70.0781 C   0  0  0  0  0  0
    3.3915   60.2456   71.2573 C   0  0  0  0  0  0
    2.8566   58.9734   71.0311 C   0  0  0  0  0  0
    2.6698   58.0998   72.0957 C   0  0  0  0  0  0
    3.0154   58.5003   73.3849 C   0  0  0  0  0  0
    3.5546   59.7616   73.6168 C   0  0  0  0  0  0
    3.7592   60.6312   72.5511 C   0  0  0  0  0  0
    2.3323   68.8009   63.3346 C   0  0  0  0  0  0
    1.5832   68.7364   62.1519 C   0  0  0  0  0  0
    2.1844   68.9080   60.9210 C   0  0  0  0  0  0
    3.5429   69.1633   60.8488 C   0  0  0  0  0  0
    4.3184   69.2296   61.9991 C   0  0  0  0  0  0
    3.7133   69.0472   63.2362 C   0  0  0  0  0  0
   -2.0609   70.2068   66.4483 H   0  0  0  0  0  0
   -3.5024   69.2501   66.7671 H   0  0  0  0  0  0
   -2.1734   69.2923   67.9365 H   0  0  0  0  0  0
   -2.1862   68.1150   65.1544 H   0  0  0  0  0  0
   -1.5996   65.9361   66.3678 H   0  0  0  0  0  0
   -2.2290   66.7008   67.8356 H   0  0  0  0  0  0
   -3.2563   66.5066   66.4223 H   0  0  0  0  0  0
   -0.3811   68.4105   63.9410 H   0  0  0  0  0  0
   -0.7846   67.4601   68.4683 H   0  0  0  0  0  0
    1.9402   66.7118   68.8727 H   0  0  0  0  0  0
    1.5215   68.0203   69.9520 H   0  0  0  0  0  0
    0.1126   66.7026   71.2387 H   0  0  0  0  0  0
   -0.5168   65.8458   69.8885 H   0  0  0  0  0  0
    1.1732   64.7984   71.8280 H   0  0  0  0  0  0
   -0.4486   63.4847   70.6550 H   0  0  0  0  0  0
    0.3786   63.6360   69.1682 H   0  0  0  0  0  0
    1.2818   61.9740   71.5526 H   0  0  0  0  0  0
    0.9393   61.4850   69.9105 H   0  0  0  0  0  0
    3.4370   63.4238   71.8670 H   0  0  0  0  0  0
    4.4751   63.6315   70.4655 H   0  0  0  0  0  0
    2.8608   64.9491   69.2844 H   0  0  0  0  0  0
    3.2332   65.7267   70.7709 H   0  0  0  0  0  0
    3.2775   60.6763   69.1662 H   0  0  0  0  0  0
    4.6309   61.4128   69.9525 H   0  0  0  0  0  0
    2.5746   58.6599   70.0357 H   0  0  0  0  0  0
    2.2491   57.1216   71.9234 H   0  0  0  0  0  0
    2.8689   57.8237   74.2137 H   0  0  0  0  0  0
    3.8223   60.0627   74.6215 H   0  0  0  0  0  0
    4.1918   61.6029   72.7391 H   0  0  0  0  0  0
    0.5224   68.5521   62.1436 H   0  0  0  0  0  0
    1.5848   68.8809   60.0233 H   0  0  0  0  0  0
    4.0001   69.3123   59.8833 H   0  0  0  0  0  0
    5.3792   69.4221   61.9231 H   0  0  0  0  0  0
    4.3337   69.1119   64.1183 H   0  0  0  0  0  0
  1  2  1  0  0  0
  1 32  1  0  0  0
  1 33  1  0  0  0
  1 34  1  0  0  0
  2  3  1  0  0  0
  2  4  1  0  0  0
  2 35  1  0  0  0
  3 36  1  0  0  0
  3 37  1  0  0  0
  3 38  1  0  0  0
  4  9  1  0  0  0
  4  5  2  0  0  0
  5  6  1  0  0  0
  5 39  1  0  0  0
  6  7  2  0  0  0
  6 26  1  0  0  0
  7  8  1  0  0  0
  8  9  2  0  0  0
  9 10  1  0  0  0
 10 11  1  0  0  0
 10 40  1  0  0  0
 11 12  1  0  0  0
 11 41  1  0  0  0
 11 42  1  0  0  0
 12 13  1  0  0  0
 12 43  1  0  0  0
 12 44  1  0  0  0
 13 18  1  0  0  0
 13 14  1  0  0  0
 13 45  1  0  0  0
 14 15  1  0  0  0
 14 46  1  0  0  0
 14 47  1  0  0  0
 15 16  1  0  0  0
 15 48  1  0  0  0
 15 49  1  0  0  0
 16 17  1  0  0  0
 16 19  1  0  0  0
 17 18  1  0  0  0
 17 50  1  0  0  0
 17 51  1  0  0  0
 18 52  1  0  0  0
 18 53  1  0  0  0
 19 20  1  0  0  0
 19 54  1  0  0  0
 19 55  1  0  0  0
 20 25  1  0  0  0
 20 21  2  0  0  0
 21 22  1  0  0  0
 21 56  1  0  0  0
 22 23  2  0  0  0
 22 57  1  0  0  0
 23 24  1  0  0  0
 23 58  1  0  0  0
 24 25  2  0  0  0
 24 59  1  0  0  0
 25 60  1  0  0  0
 26 31  1  0  0  0
 26 27  2  0  0  0
 27 28  1  0  0  0
 27 61  1  0  0  0
 28 29  2  0  0  0
 28 62  1  0  0  0
 29 30  1  0  0  0
 29 63  1  0  0  0
 30 31  2  0  0  0
 30 64  1  0  0  0
 31 65  1  0  0  0
M  END
> <s_m_entry_id>
9817

> <s_m_entry_name>
ligand_docking-pose.259

> <s_m_Source_Path>
/home/csk/Desktop/cluster/DUD-E-result/aces

> <s_m_Source_File>
ligand_docking-pose.sdf

> <i_m_Source_File_Index>
259

> <i_lp_mmshare_version>
53161

> <r_lp_tautomer_probability>
0.999978240473126

> <s_lp_Force_Field>
OPLS_2005

> <r_lp_Energy>
37.955764

> <b_lp_Chiralities_Consistent>
1

> <s_lp_Variant>
678249-1

> <s_i_glide_gridfile>
glide-grid_1e66

> <i_i_glide_lignum>
969

> <i_i_glide_rotatable_bonds>
8

> <r_i_docking_score>
-7.25940165954051

> <r_i_glide_ligand_efficiency>
-0.234174247081952

> <r_i_glide_ligand_efficiency_sa>
-0.735630448229517

> <r_i_glide_ligand_efficiency_ln>
-1.63721754816914

> <r_i_glide_gscore>
-7.25940165954051

> <r_i_glide_lipo>
-4.78733258903866

> <r_i_glide_hbond>
0

> <r_i_glide_metal>
0

> <r_i_glide_rewards>
-1.0460744759888

> <r_i_glide_evdw>
-44.7009239196777

> <r_i_glide_ecoul>
0.0344656854867935

> <r_i_glide_erotb>
0.803881748647819

> <r_i_glide_esite>
0

> <r_i_glide_emodel>
-49.7382151128316

> <r_i_glide_energy>
-44.6664582341909

> <r_i_glide_einternal>
21.1126766204834

> <i_i_glide_confnum>
12

> <i_i_glide_posenum>
239

> <r_i_glide_eff_state_penalty>
0

> <i_f3d_flags>
0

> <s_user_duplicate_titles>
678249

> <s_m_subgroup_title>
dock_pv

> <s_m_subgroupid>
dock_pv1

> <b_m_subgroup_collapsed>
1

$$$$
427316
                    3D
 Schrodinger Suite 2021-1.
 58 61  0  0  1  0            999 V2000
    0.9931   65.6790   70.7472 C   0  0  0  0  0  0
    1.6041   64.5121   71.2933 O   0  0  0  0  0  0
    2.4414   63.7418   70.5083 C   0  0  0  0  0  0
    2.7430   64.0426   69.1695 C   0  0  0  0  0  0
    3.4240   63.1372   68.3495 C   0  0  0  0  0  0
    3.9430   61.9856   68.9471 C   0  0  0  0  0  0
    3.7396   61.7112   70.2964 C   0  0  0  0  0  0
    2.9709   62.5739   71.0714 C   0  0  0  0  0  0
    2.7276   62.2466   72.3813 O   0  0  0  0  0  0
    3.5492   63.3525   66.8741 C   0  0  0  0  0  0
    3.3395   64.4957   66.1819 C   0  0  0  0  0  0
    3.5946   64.6625   64.7677 C   0  0  0  0  0  0
    3.9432   63.7610   64.0056 O   0  0  0  0  0  0
    3.5428   65.9600   64.4212 N   0  0  0  0  0  0
    3.9886   66.6153   63.1968 C   0  0  0  0  0  0
    4.6211   67.9691   63.5346 C   0  0  0  0  0  0
    3.6252   68.9557   63.9556 N   0  0  0  0  0  0
    3.3623   69.1760   65.3233 C   0  0  0  0  0  0
    4.3496   69.7413   66.1957 C   0  0  0  0  0  0
    5.7008   69.9902   65.8280 C   0  0  0  0  0  0
    6.6028   70.5079   66.7483 C   0  0  0  0  0  0
    6.1847   70.9045   68.0126 C   0  0  0  0  0  0
    4.8616   70.7224   68.3975 C   0  0  0  0  0  0
    3.9425   70.1078   67.5139 C   0  0  0  0  0  0
    2.6907   69.8619   67.9676 N   0  0  0  0  0  0
    1.7729   69.2965   67.1475 C   0  0  0  0  0  0
    2.0641   68.9128   65.8175 C   0  0  0  0  0  0
    0.9773   68.2353   64.9543 C   0  0  0  0  0  0
   -0.4505   68.3793   65.5157 C   0  0  0  0  0  0
   -0.4682   68.0721   67.0146 C   0  0  0  0  0  0
    0.3799   69.1153   67.7520 C   0  0  0  0  0  0
    0.3598   66.1413   71.5040 H   0  0  0  0  0  0
    1.7369   66.4174   70.4440 H   0  0  0  0  0  0
    0.3588   65.4372   69.8929 H   0  0  0  0  0  0
    2.3434   64.9460   68.7425 H   0  0  0  0  0  0
    4.5002   61.2685   68.3680 H   0  0  0  0  0  0
    4.1482   60.8083   70.7259 H   0  0  0  0  0  0
    3.1035   61.4062   72.6498 H   0  0  0  0  0  0
    3.8774   62.5080   66.2947 H   0  0  0  0  0  0
    3.0009   65.3767   66.7031 H   0  0  0  0  0  0
    3.1683   66.5987   65.1101 H   0  0  0  0  0  0
    4.6840   65.9999   62.6245 H   0  0  0  0  0  0
    3.1432   66.8405   62.5457 H   0  0  0  0  0  0
    5.4224   67.8371   64.2614 H   0  0  0  0  0  0
    5.0923   68.3780   62.6391 H   0  0  0  0  0  0
    2.8036   68.9621   63.3681 H   0  0  0  0  0  0
    6.0533   69.7713   64.8313 H   0  0  0  0  0  0
    7.6308   70.6450   66.4516 H   0  0  0  0  0  0
    6.8925   71.3403   68.7024 H   0  0  0  0  0  0
    4.5373   70.9987   69.3903 H   0  0  0  0  0  0
    0.9939   68.6096   63.9309 H   0  0  0  0  0  0
    1.2032   67.1715   64.8954 H   0  0  0  0  0  0
   -0.8403   69.3815   65.3373 H   0  0  0  0  0  0
   -1.1268   67.7086   64.9893 H   0  0  0  0  0  0
   -1.4918   68.0888   67.3926 H   0  0  0  0  0  0
   -0.0865   67.0659   67.2005 H   0  0  0  0  0  0
   -0.1339   70.0774   67.7314 H   0  0  0  0  0  0
    0.4621   68.8397   68.8008 H   0  0  0  0  0  0
  1  2  1  0  0  0
  1 32  1  0  0  0
  1 33  1  0  0  0
  1 34  1  0  0  0
  2  3  1  0  0  0
  3  8  1  0  0  0
  3  4  2  0  0  0
  4  5  1  0  0  0
  4 35  1  0  0  0
  5  6  2  0  0  0
  5 10  1  0  0  0
  6  7  1  0  0  0
  6 36  1  0  0  0
  7  8  2  0  0  0
  7 37  1  0  0  0
  8  9  1  0  0  0
  9 38  1  0  0  0
 10 11  2  0  0  0
 10 39  1  0  0  0
 11 12  1  0  0  0
 11 40  1  0  0  0
 12 13  2  0  0  0
 12 14  1  0  0  0
 14 15  1  0  0  0
 14 41  1  0  0  0
 15 16  1  0  0  0
 15 42  1  0  0  0
 15 43  1  0  0  0
 16 17  1  0  0  0
 16 44  1  0  0  0
 16 45  1  0  0  0
 17 18  1  0  0  0
 17 46  1  0  0  0
 18 27  1  0  0  0
 18 19  2  0  0  0
 19 24  1  0  0  0
 19 20  1  0  0  0
 20 21  2  0  0  0
 20 47  1  0  0  0
 21 22  1  0  0  0
 21 48  1  0  0  0
 22 23  2  0  0  0
 22 49  1  0  0  0
 23 24  1  0  0  0
 23 50  1  0  0  0
 24 25  2  0  0  0
 25 26  1  0  0  0
 26 31  1  0  0  0
 26 27  2  0  0  0
 27 28  1  0  0  0
 28 29  1  0  0  0
 28 51  1  0  0  0
 28 52  1  0  0  0
 29 30  1  0  0  0
 29 53  1  0  0  0
 29 54  1  0  0  0
 30 31  1  0  0  0
 30 55  1  0  0  0
 30 56  1  0  0  0
 31 57  1  0  0  0
 31 58  1  0  0  0
M  END
> <s_m_entry_id>
9818

> <s_m_entry_name>
ligand_docking-pose.260

> <s_m_Source_Path>
/home/csk/Desktop/cluster/DUD-E-result/aces

> <s_m_Source_File>
ligand_docking-pose.sdf

> <i_m_Source_File_Index>
260

> <i_lp_mmshare_version>
53161

> <r_lp_tautomer_probability>
1

> <s_lp_Force_Field>
OPLS_2005

> <r_lp_Energy>
28.150114

> <b_lp_Chiralities_Consistent>
1

> <s_lp_Variant>
427316-1

> <s_i_glide_gridfile>
glide-grid_1e66

> <i_i_glide_lignum>
2126

> <i_i_glide_rotatable_bonds>
9

> <r_i_docking_score>
-7.25321804002154

> <r_i_glide_ligand_efficiency>
-0.233974775484566

> <r_i_glide_ligand_efficiency_sa>
-0.735003832013504

> <r_i_glide_ligand_efficiency_ln>
-1.63582295246243

> <r_i_glide_gscore>
-7.25321804002154

> <r_i_glide_lipo>
-4.0506471270148

> <r_i_glide_hbond>
0

> <r_i_glide_metal>
0

> <r_i_glide_rewards>
-1.81809459973335

> <r_i_glide_evdw>
-35.1589965820312

> <r_i_glide_ecoul>
-2.04602885246277

> <r_i_glide_erotb>
0.680377843697587

> <r_i_glide_esite>
0

> <r_i_glide_emodel>
-47.1117709758259

> <r_i_glide_energy>
-37.205025434494

> <r_i_glide_einternal>
5.4733419418335

> <i_i_glide_confnum>
24

> <i_i_glide_posenum>
234

> <r_i_glide_eff_state_penalty>
0

> <i_f3d_flags>
0

> <s_user_duplicate_titles>
427316

> <s_m_subgroup_title>
dock_pv

> <s_m_subgroupid>
dock_pv1

> <b_m_subgroup_collapsed>
1

$$$$
76652
                    3D
 Schrodinger Suite 2021-1.
 67 72  0  0  1  0            999 V2000
    3.9442   59.5011   69.8342 C   0  0  0  0  0  0
    3.1204   59.1039   70.8750 C   0  0  0  0  0  0
    2.2713   60.0252   71.4729 C   0  0  0  0  0  0
    2.2126   61.3543   70.9910 C   0  0  0  0  0  0
    3.0310   61.7783   69.9012 C   0  0  0  0  0  0
    3.9430   60.8173   69.3805 C   0  0  0  0  0  0
    2.8653   63.1338   69.4258 C   0  0  0  0  0  0
    1.9265   63.9735   70.0620 C   0  0  0  0  0  0
    1.1725   63.4353   71.1257 C   0  0  0  0  0  0
    1.3373   62.1816   71.5915 N   0  0  0  0  0  0
    0.0451   64.2008   71.7952 C   0  0  0  0  0  0
    0.0662   65.7003   71.4808 C   0  0  0  0  0  0
    0.3003   65.9608   69.9987 C   0  0  0  0  0  0
    1.6994   65.4428   69.6327 C   0  0  0  0  0  0
    3.5432   63.6998   68.3213 N   0  0  0  0  0  0
    3.4233   63.0175   67.0364 C   0  0  0  0  0  0
    3.9116   63.8198   65.7904 C   0  0  0  0  0  0
    3.1408   65.1064   65.3782 C   0  0  0  0  0  0
    3.9084   66.0044   64.3680 C   0  0  0  0  0  0
    3.1430   67.5850   63.8775 S   0  0  0  0  0  0
    2.7455   68.4913   65.3569 C   0  0  0  0  0  0
    3.8204   69.2073   65.9786 C   0  0  0  0  0  0
    5.1573   69.3203   65.4911 C   0  0  0  0  0  0
    6.1272   69.9939   66.2326 C   0  0  0  0  0  0
    5.8172   70.5782   67.4544 C   0  0  0  0  0  0
    4.5233   70.5080   67.9567 C   0  0  0  0  0  0
    3.5151   69.8253   67.2297 C   0  0  0  0  0  0
    2.2702   69.8028   67.7668 N   0  0  0  0  0  0
    1.2550   69.2068   67.0952 C   0  0  0  0  0  0
    1.4518   68.4809   65.9052 C   0  0  0  0  0  0
    0.2998   67.6683   65.2907 C   0  0  0  0  0  0
   -1.0981   68.0712   65.8099 C   0  0  0  0  0  0
   -1.0893   68.2339   67.3257 C   0  0  0  0  0  0
   -0.1377   69.3713   67.6966 C   0  0  0  0  0  0
    4.5947   58.7785   69.3729 H   0  0  0  0  0  0
    3.1423   58.0805   71.2242 H   0  0  0  0  0  0
    1.6307   59.7268   72.2911 H   0  0  0  0  0  0
    4.6435   61.0820   68.6092 H   0  0  0  0  0  0
   -0.8581   63.7345   71.4200 H   0  0  0  0  0  0
    0.0547   64.0399   72.8754 H   0  0  0  0  0  0
    0.9280   66.1079   71.9684 H   0  0  0  0  0  0
   -0.7956   66.2337   71.8848 H   0  0  0  0  0  0
    0.2450   67.0327   69.8058 H   0  0  0  0  0  0
   -0.4658   65.4781   69.3889 H   0  0  0  0  0  0
    2.4497   66.0577   70.1346 H   0  0  0  0  0  0
    1.8492   65.6126   68.5684 H   0  0  0  0  0  0
    3.3686   64.6920   68.2534 H   0  0  0  0  0  0
    3.9430   62.1095   67.0943 H   0  0  0  0  0  0
    2.4453   62.5463   66.9372 H   0  0  0  0  0  0
    4.9465   64.1078   65.9639 H   0  0  0  0  0  0
    3.9409   63.1456   64.9335 H   0  0  0  0  0  0
    2.1806   64.8325   64.9391 H   0  0  0  0  0  0
    2.9054   65.7027   66.2607 H   0  0  0  0  0  0
    4.8850   66.2727   64.7668 H   0  0  0  0  0  0
    4.1011   65.4409   63.4556 H   0  0  0  0  0  0
    5.4357   68.8765   64.5475 H   0  0  0  0  0  0
    7.1389   70.0597   65.8646 H   0  0  0  0  0  0
    6.5842   71.0943   68.0142 H   0  0  0  0  0  0
    4.2768   70.9690   68.9021 H   0  0  0  0  0  0
    0.3114   67.7254   64.2019 H   0  0  0  0  0  0
    0.4656   66.6191   65.5407 H   0  0  0  0  0  0
   -1.4302   68.9955   65.3316 H   0  0  0  0  0  0
   -1.8358   67.3086   65.5681 H   0  0  0  0  0  0
   -2.0955   68.4485   67.6887 H   0  0  0  0  0  0
   -0.7843   67.2997   67.7940 H   0  0  0  0  0  0
   -0.5806   70.3062   67.3599 H   0  0  0  0  0  0
   -0.0570   69.4652   68.7680 H   0  0  0  0  0  0
  1  6  1  0  0  0
  1  2  2  0  0  0
  1 35  1  0  0  0
  2  3  1  0  0  0
  2 36  1  0  0  0
  3  4  2  0  0  0
  3 37  1  0  0  0
  4 10  1  0  0  0
  4  5  1  0  0  0
  5  6  2  0  0  0
  5  7  1  0  0  0
  6 38  1  0  0  0
  7  8  2  0  0  0
  7 15  1  0  0  0
  8 14  1  0  0  0
  8  9  1  0  0  0
  9 10  2  0  0  0
  9 11  1  0  0  0
 11 12  1  0  0  0
 11 39  1  0  0  0
 11 40  1  0  0  0
 12 13  1  0  0  0
 12 41  1  0  0  0
 12 42  1  0  0  0
 13 14  1  0  0  0
 13 43  1  0  0  0
 13 44  1  0  0  0
 14 45  1  0  0  0
 14 46  1  0  0  0
 15 16  1  0  0  0
 15 47  1  0  0  0
 16 17  1  0  0  0
 16 48  1  0  0  0
 16 49  1  0  0  0
 17 18  1  0  0  0
 17 50  1  0  0  0
 17 51  1  0  0  0
 18 19  1  0  0  0
 18 52  1  0  0  0
 18 53  1  0  0  0
 19 20  1  0  0  0
 19 54  1  0  0  0
 19 55  1  0  0  0
 20 21  1  0  0  0
 21 30  1  0  0  0
 21 22  2  0  0  0
 22 27  1  0  0  0
 22 23  1  0  0  0
 23 24  2  0  0  0
 23 56  1  0  0  0
 24 25  1  0  0  0
 24 57  1  0  0  0
 25 26  2  0  0  0
 25 58  1  0  0  0
 26 27  1  0  0  0
 26 59  1  0  0  0
 27 28  2  0  0  0
 28 29  1  0  0  0
 29 34  1  0  0  0
 29 30  2  0  0  0
 30 31  1  0  0  0
 31 32  1  0  0  0
 31 60  1  0  0  0
 31 61  1  0  0  0
 32 33  1  0  0  0
 32 62  1  0  0  0
 32 63  1  0  0  0
 33 34  1  0  0  0
 33 64  1  0  0  0
 33 65  1  0  0  0
 34 66  1  0  0  0
 34 67  1  0  0  0
M  END
> <s_m_entry_id>
9819

> <s_m_entry_name>
ligand_docking-pose.261

> <s_m_Source_Path>
/home/csk/Desktop/cluster/DUD-E-result/aces

> <s_m_Source_File>
ligand_docking-pose.sdf

> <i_m_Source_File_Index>
261

> <i_lp_mmshare_version>
53161

> <r_lp_tautomer_probability>
1

> <s_lp_Force_Field>
OPLS_2005

> <r_lp_Energy>
35.211702

> <b_lp_Chiralities_Consistent>
1

> <s_lp_Variant>
76652-1

> <s_i_glide_gridfile>
glide-grid_1e66

> <i_i_glide_lignum>
213

> <i_i_glide_rotatable_bonds>
7

> <r_i_docking_score>
-7.24432399696635

> <r_i_glide_ligand_efficiency>
-0.213068352851951

> <r_i_glide_ligand_efficiency_sa>
-0.690258749566569

> <r_i_glide_ligand_efficiency_ln>
-1.60047436733526

> <r_i_glide_gscore>
-7.24432399696635

> <r_i_glide_lipo>
-4.95792433815769

> <r_i_glide_hbond>
0

> <r_i_glide_metal>
0

> <r_i_glide_rewards>
-1.12043781818182

> <r_i_glide_evdw>
-34.9930686950684

> <r_i_glide_ecoul>
1.09328651428223

> <r_i_glide_erotb>
0.461426065737547

> <r_i_glide_esite>
-0.0417274487533011

> <r_i_glide_emodel>
-35.6852586242846

> <r_i_glide_energy>
-33.8997821807861

> <r_i_glide_einternal>
2.80824112892151

> <i_i_glide_confnum>
186

> <i_i_glide_posenum>
286

> <r_i_glide_eff_state_penalty>
0

> <i_f3d_flags>
0

> <s_user_duplicate_titles>
76652

> <s_m_subgroup_title>
dock_pv

> <s_m_subgroupid>
dock_pv1

> <b_m_subgroup_collapsed>
1

$$$$
175199
                    3D
 Schrodinger Suite 2021-1.
 63 65  0  0  1  0            999 V2000
    2.6466   65.4839   64.9018 C   0  0  0  0  0  0
    1.3812   66.3210   65.1687 C   0  0  0  0  0  0
    1.6633   67.5242   65.9674 N   0  0  2  0  0  0
    0.4891   68.1263   66.6197 C   0  0  0  0  0  0
   -0.2183   67.1717   67.6136 C   0  0  0  0  0  0
    0.7083   66.5668   68.6923 C   0  0  0  0  0  0
    0.0328   65.4868   69.5549 C   0  0  0  0  0  0
    0.8837   64.8680   70.7073 C   0  0  1  0  0  0
    0.1296   63.7887   71.5086 C   0  0  0  0  0  0
    0.9509   62.5339   71.3913 C   0  0  0  0  0  0
    0.7012   61.2636   71.9110 C   0  0  0  0  0  0
    1.6009   60.2052   71.6785 C   0  0  0  0  0  0
    2.7585   60.4523   70.9159 C   0  0  0  0  0  0
    3.0126   61.7319   70.4183 C   0  0  0  0  0  0
    2.1010   62.7607   70.6508 C   0  0  0  0  0  0
    2.1628   64.1655   70.2100 C   0  0  0  0  0  0
    3.0824   64.6666   69.5689 O   0  0  0  0  0  0
    3.6829   59.4668   70.6630 O   0  0  0  0  0  0
    3.2673   58.5075   69.6990 C   0  0  0  0  0  0
    1.4144   58.9222   72.1624 O   0  0  0  0  0  0
    0.2523   58.6236   72.9296 C   0  0  0  0  0  0
    2.5740   68.5047   65.3466 C   0  0  0  0  0  0
    2.3991   68.7038   63.8352 C   0  0  0  0  0  0
    1.1211   68.9101   63.2965 C   0  0  0  0  0  0
    0.9343   69.0045   61.9276 C   0  0  0  0  0  0
    2.0306   68.9079   61.0845 C   0  0  0  0  0  0
    3.3131   68.7561   61.5964 C   0  0  0  0  0  0
    3.5169   68.6577   62.9813 C   0  0  0  0  0  0
    4.7677   68.4832   63.5457 O   0  0  0  0  0  0
    5.9197   68.5522   62.7132 C   0  0  0  0  0  0
    2.3943   64.5628   64.3767 H   0  0  0  0  0  0
    3.3705   66.0234   64.2921 H   0  0  0  0  0  0
    3.1403   65.2122   65.8348 H   0  0  0  0  0  0
    0.6500   65.7081   65.6765 H   0  0  0  0  0  0
    0.8814   66.5764   64.2382 H   0  0  0  0  0  0
   -0.2340   68.4627   65.8802 H   0  0  0  0  0  0
    0.8091   69.0096   67.1756 H   0  0  0  0  0  0
   -0.7621   66.3966   67.0734 H   0  0  0  0  0  0
   -1.0085   67.7347   68.1054 H   0  0  0  0  0  0
    1.1198   67.3578   69.3215 H   0  0  0  0  0  0
    1.5433   66.1080   68.1778 H   0  0  0  0  0  0
   -0.3352   64.6906   68.9070 H   0  0  0  0  0  0
   -0.8567   65.9565   69.9682 H   0  0  0  0  0  0
    1.1891   65.6703   71.3772 H   0  0  0  0  0  0
   -0.8573   63.6147   71.0867 H   0  0  0  0  0  0
    0.0128   64.1069   72.5464 H   0  0  0  0  0  0
   -0.1970   61.1071   72.4866 H   0  0  0  0  0  0
    3.9127   61.9082   69.8477 H   0  0  0  0  0  0
    4.0307   57.7361   69.6136 H   0  0  0  0  0  0
    3.1364   58.9628   68.7155 H   0  0  0  0  0  0
    2.3358   58.0131   69.9760 H   0  0  0  0  0  0
    0.2573   57.5670   73.1946 H   0  0  0  0  0  0
    0.2290   59.1985   73.8559 H   0  0  0  0  0  0
   -0.6632   58.8154   72.3684 H   0  0  0  0  0  0
    2.5190   69.4675   65.8574 H   0  0  0  0  0  0
    3.5769   68.1248   65.5413 H   0  0  0  0  0  0
    0.2521   68.9645   63.9319 H   0  0  0  0  0  0
   -0.0572   69.1264   61.5186 H   0  0  0  0  0  0
    1.8769   68.9084   60.0154 H   0  0  0  0  0  0
    4.1344   68.6916   60.8991 H   0  0  0  0  0  0
    6.8128   68.5077   63.3331 H   0  0  0  0  0  0
    5.9588   67.7189   62.0119 H   0  0  0  0  0  0
    5.9432   69.4885   62.1555 H   0  0  0  0  0  0
  1  2  1  0  0  0
  1 31  1  0  0  0
  1 32  1  0  0  0
  1 33  1  0  0  0
  2  3  1  0  0  0
  2 34  1  0  0  0
  2 35  1  0  0  0
  3  4  1  0  0  0
  3 22  1  0  0  0
  4  5  1  0  0  0
  4 36  1  0  0  0
  4 37  1  0  0  0
  5  6  1  0  0  0
  5 38  1  0  0  0
  5 39  1  0  0  0
  6  7  1  0  0  0
  6 40  1  0  0  0
  6 41  1  0  0  0
  7  8  1  0  0  0
  7 42  1  0  0  0
  7 43  1  0  0  0
  8 16  1  0  0  0
  8  9  1  0  0  0
  8 44  1  0  0  0
  9 10  1  0  0  0
  9 45  1  0  0  0
  9 46  1  0  0  0
 10 15  2  0  0  0
 10 11  1  0  0  0
 11 12  2  0  0  0
 11 47  1  0  0  0
 12 13  1  0  0  0
 12 20  1  0  0  0
 13 14  2  0  0  0
 13 18  1  0  0  0
 14 15  1  0  0  0
 14 48  1  0  0  0
 15 16  1  0  0  0
 16 17  2  0  0  0
 18 19  1  0  0  0
 19 49  1  0  0  0
 19 50  1  0  0  0
 19 51  1  0  0  0
 20 21  1  0  0  0
 21 52  1  0  0  0
 21 53  1  0  0  0
 21 54  1  0  0  0
 22 23  1  0  0  0
 22 55  1  0  0  0
 22 56  1  0  0  0
 23 28  1  0  0  0
 23 24  2  0  0  0
 24 25  1  0  0  0
 24 57  1  0  0  0
 25 26  2  0  0  0
 25 58  1  0  0  0
 26 27  1  0  0  0
 26 59  1  0  0  0
 27 28  2  0  0  0
 27 60  1  0  0  0
 28 29  1  0  0  0
 29 30  1  0  0  0
 30 61  1  0  0  0
 30 62  1  0  0  0
 30 63  1  0  0  0
M  END
> <s_m_entry_id>
9820

> <s_m_entry_name>
ligand_docking-pose.262

> <s_m_Source_Path>
/home/csk/Desktop/cluster/DUD-E-result/aces

> <s_m_Source_File>
ligand_docking-pose.sdf

> <i_m_Source_File_Index>
262

> <i_lp_mmshare_version>
53161

> <r_lp_tautomer_probability>
0.99995

> <s_lp_Force_Field>
OPLS_2005

> <r_lp_Energy>
49.536018

> <b_lp_Chiralities_Consistent>
1

> <s_lp_Variant>
175199-2

> <s_i_glide_gridfile>
glide-grid_1e66

> <i_i_glide_lignum>
1290

> <i_i_glide_rotatable_bonds>
11

> <r_i_docking_score>
-7.23145942069303

> <r_i_glide_ligand_efficiency>
-0.241048647356434

> <r_i_glide_ligand_efficiency_sa>
-0.748994191732962

> <r_i_glide_ligand_efficiency_ln>
-1.64306637344267

> <r_i_glide_gscore>
-7.23145942069303

> <r_i_glide_lipo>
-3.8748838236126

> <r_i_glide_hbond>
0

> <r_i_glide_metal>
0

> <r_i_glide_rewards>
-1.56855524043196

> <r_i_glide_evdw>
-46.7206039428711

> <r_i_glide_ecoul>
-1.7777658700943

> <r_i_glide_erotb>
0.814674721009228

> <r_i_glide_esite>
0

> <r_i_glide_emodel>
-62.8938558239399

> <r_i_glide_energy>
-48.4983698129654

> <r_i_glide_einternal>
12.8131093978882

> <i_i_glide_confnum>
10

> <i_i_glide_posenum>
265

> <r_i_glide_eff_state_penalty>
0

> <i_f3d_flags>
0

> <s_user_duplicate_titles>
175199

> <s_m_subgroup_title>
dock_pv

> <s_m_subgroupid>
dock_pv1

> <b_m_subgroup_collapsed>
1

$$$$
118423
                    3D
 Schrodinger Suite 2021-1.
 60 63  0  0  1  0            999 V2000
    4.3382   63.7265   70.2251 C   0  0  0  0  0  0
    3.3199   64.6611   70.4008 C   0  0  0  0  0  0
    1.9823   64.2555   70.4577 C   0  0  0  0  0  0
    1.6703   62.8997   70.2908 C   0  0  0  0  0  0
    2.6918   61.9624   70.1275 C   0  0  0  0  0  0
    4.0182   62.3767   70.1002 C   0  0  0  0  0  0
    2.3439   60.2818   69.9708 Cl  0  0  0  0  0  0
    0.8722   65.2813   70.6456 C   0  0  0  0  0  0
    0.5775   65.9948   69.3964 N   0  0  1  0  0  0
   -0.8655   66.0959   69.1706 C   0  0  0  0  0  0
   -1.2513   66.8260   67.8679 C   0  0  0  0  0  0
   -0.5143   68.1720   67.6493 C   0  0  0  0  0  0
    0.9905   67.9617   67.9423 C   0  0  0  0  0  0
    1.2228   67.3088   69.3290 C   0  0  0  0  0  0
   -0.8699   68.8981   66.3478 C   0  0  0  0  0  0
   -0.9400   67.9435   65.1635 C   0  0  0  0  0  0
   -0.7501   68.5871   63.7998 C   0  0  0  0  0  0
   -1.7501   68.9073   63.1677 O   0  0  0  0  0  0
    0.6480   68.7001   63.3032 C   0  0  0  0  0  0
    0.9379   68.8956   61.9561 C   0  0  0  0  0  0
    2.2593   69.0709   61.5573 C   0  0  0  0  0  0
    3.3119   69.1126   62.4817 C   0  0  0  0  0  0
    3.0179   68.9244   63.8528 C   0  0  0  0  0  0
    1.7013   68.6988   64.2157 C   0  0  0  0  0  0
    3.9324   69.0522   64.9058 N   0  0  0  0  0  0
    5.1971   68.3557   64.9605 C   0  0  0  0  0  0
    6.2049   68.8271   63.9374 C   0  0  0  0  0  0
    5.8536   68.5852   62.4753 C   0  0  0  0  0  0
    4.7065   69.4611   61.9783 C   0  0  0  0  0  0
    5.3679   64.0514   70.1939 H   0  0  0  0  0  0
    3.5760   65.7034   70.5155 H   0  0  0  0  0  0
    0.6411   62.5706   70.3037 H   0  0  0  0  0  0
    4.7898   61.6365   69.9802 H   0  0  0  0  0  0
    1.1367   65.9709   71.4479 H   0  0  0  0  0  0
   -0.0098   64.7398   70.9930 H   0  0  0  0  0  0
   -1.3231   66.5787   70.0270 H   0  0  0  0  0  0
   -1.2565   65.0789   69.1588 H   0  0  0  0  0  0
   -2.3299   66.9877   67.8393 H   0  0  0  0  0  0
   -1.0601   66.1391   67.0447 H   0  0  0  0  0  0
   -0.8543   68.8908   68.3678 H   0  0  0  0  0  0
    1.4563   67.3543   67.1663 H   0  0  0  0  0  0
    1.5079   68.9208   67.9055 H   0  0  0  0  0  0
    0.8103   67.9170   70.1250 H   0  0  0  0  0  0
    2.2835   67.2290   69.5660 H   0  0  0  0  0  0
   -0.1598   69.7077   66.2018 H   0  0  0  0  0  0
   -1.8409   69.3888   66.4514 H   0  0  0  0  0  0
   -1.9074   67.4473   65.1718 H   0  0  0  0  0  0
   -0.1886   67.1596   65.2566 H   0  0  0  0  0  0
    0.1528   68.9119   61.2136 H   0  0  0  0  0  0
    2.4600   69.2210   60.5072 H   0  0  0  0  0  0
    1.5121   68.5821   65.2689 H   0  0  0  0  0  0
    3.4734   69.0325   65.8046 H   0  0  0  0  0  0
    4.9728   67.3039   64.7786 H   0  0  0  0  0  0
    5.6141   68.4407   65.9649 H   0  0  0  0  0  0
    7.1428   68.3344   64.1668 H   0  0  0  0  0  0
    6.3428   69.8981   64.0922 H   0  0  0  0  0  0
    5.6450   67.5315   62.2874 H   0  0  0  0  0  0
    6.7418   68.8218   61.8940 H   0  0  0  0  0  0
    4.9007   70.5061   62.2174 H   0  0  0  0  0  0
    4.7092   69.4332   60.8886 H   0  0  0  0  0  0
  1  6  1  0  0  0
  1  2  2  0  0  0
  1 30  1  0  0  0
  2  3  1  0  0  0
  2 31  1  0  0  0
  3  4  2  0  0  0
  3  8  1  0  0  0
  4  5  1  0  0  0
  4 32  1  0  0  0
  5  6  2  0  0  0
  5  7  1  0  0  0
  6 33  1  0  0  0
  8  9  1  0  0  0
  8 34  1  0  0  0
  8 35  1  0  0  0
  9 14  1  0  0  0
  9 10  1  0  0  0
 10 11  1  0  0  0
 10 36  1  0  0  0
 10 37  1  0  0  0
 11 12  1  0  0  0
 11 38  1  0  0  0
 11 39  1  0  0  0
 12 13  1  0  0  0
 12 15  1  0  0  0
 12 40  1  0  0  0
 13 14  1  0  0  0
 13 41  1  0  0  0
 13 42  1  0  0  0
 14 43  1  0  0  0
 14 44  1  0  0  0
 15 16  1  0  0  0
 15 45  1  0  0  0
 15 46  1  0  0  0
 16 17  1  0  0  0
 16 47  1  0  0  0
 16 48  1  0  0  0
 17 18  2  0  0  0
 17 19  1  0  0  0
 19 24  1  0  0  0
 19 20  2  0  0  0
 20 21  1  0  0  0
 20 49  1  0  0  0
 21 22  2  0  0  0
 21 50  1  0  0  0
 22 29  1  0  0  0
 22 23  1  0  0  0
 23 24  2  0  0  0
 23 25  1  0  0  0
 24 51  1  0  0  0
 25 26  1  0  0  0
 25 52  1  0  0  0
 26 27  1  0  0  0
 26 53  1  0  0  0
 26 54  1  0  0  0
 27 28  1  0  0  0
 27 55  1  0  0  0
 27 56  1  0  0  0
 28 29  1  0  0  0
 28 57  1  0  0  0
 28 58  1  0  0  0
 29 59  1  0  0  0
 29 60  1  0  0  0
M  END
> <s_m_entry_id>
9822

> <s_m_entry_name>
ligand_docking-pose.264

> <s_m_Source_Path>
/home/csk/Desktop/cluster/DUD-E-result/aces

> <s_m_Source_File>
ligand_docking-pose.sdf

> <i_m_Source_File_Index>
264

> <i_lp_mmshare_version>
53161

> <r_lp_tautomer_probability>
0.99990000499975

> <s_lp_Force_Field>
OPLS_2005

> <r_lp_Energy>
39.555639

> <b_lp_Chiralities_Consistent>
1

> <s_lp_Variant>
118423-1

> <s_i_glide_gridfile>
glide-grid_1e66

> <i_i_glide_lignum>
323

> <i_i_glide_rotatable_bonds>
6

> <r_i_docking_score>
-7.22075937067052

> <r_i_glide_ligand_efficiency>
-0.248991702436914

> <r_i_glide_ligand_efficiency_sa>
-0.764981395994456

> <r_i_glide_ligand_efficiency_ln>
-1.65337079322444

> <r_i_glide_gscore>
-7.22075937067052

> <r_i_glide_lipo>
-4.6622471503627

> <r_i_glide_hbond>
0

> <r_i_glide_metal>
0

> <r_i_glide_rewards>
-1.37559399727551

> <r_i_glide_evdw>
-38.9384002685547

> <r_i_glide_ecoul>
1.20448911190033

> <r_i_glide_erotb>
0.58332842361038

> <r_i_glide_esite>
0

> <r_i_glide_emodel>
-45.1066830838153

> <r_i_glide_energy>
-37.7339111566544

> <r_i_glide_einternal>
10.4821681976318

> <i_i_glide_confnum>
7

> <i_i_glide_posenum>
27

> <r_i_glide_eff_state_penalty>
0

> <i_f3d_flags>
0

> <s_user_duplicate_titles>
118423

> <s_m_subgroup_title>
dock_pv

> <s_m_subgroupid>
dock_pv1

> <b_m_subgroup_collapsed>
1

$$$$
199499
                    3D
 Schrodinger Suite 2021-1.
 53 55  0  0  1  0            999 V2000
    4.0581   68.2368   62.0080 C   0  0  0  0  0  0
    4.7406   67.5986   63.2061 C   0  0  0  0  0  0
    4.9664   68.2238   64.3809 C   0  0  0  0  0  0
    4.5251   69.6279   64.7678 C   0  0  0  0  0  0
    3.6559   69.6315   65.9682 N   0  0  0  0  0  0
    4.2648   70.1080   67.1195 C   0  0  0  0  0  0
    5.4452   70.4506   67.2350 O   0  0  0  0  0  0
    3.3967   70.1735   68.2788 C   0  0  0  0  0  0
    2.1575   69.6496   68.2894 C   0  0  0  0  0  0
    1.5904   69.0163   67.1117 C   0  0  0  0  0  0
    2.3499   69.0968   65.9772 C   0  0  0  0  0  0
    1.8129   68.5081   64.6565 C   0  0  0  0  0  0
    0.2929   68.2851   64.6480 C   0  0  0  0  0  0
   -0.1163   67.5151   65.8986 C   0  0  0  0  0  0
    0.2271   68.2867   67.1861 C   0  0  1  0  0  0
    0.0315   67.4439   68.3680 N   0  0  2  0  0  0
    1.1380   66.5646   68.7278 C   0  0  0  0  0  0
    0.7280   65.4829   69.7523 C   0  0  0  0  0  0
    1.8419   64.4745   70.0459 C   0  0  0  0  0  0
    3.1327   64.9081   70.3677 C   0  0  0  0  0  0
    4.1711   63.9973   70.5506 C   0  0  0  0  0  0
    3.9219   62.6312   70.4401 C   0  0  0  0  0  0
    2.6348   62.1806   70.1488 C   0  0  0  0  0  0
    1.5955   63.0972   69.9680 C   0  0  0  0  0  0
    2.3433   60.4905   69.9774 Cl  0  0  0  0  0  0
    5.1427   66.1549   62.9773 C   0  0  0  0  0  0
    4.7424   68.1897   61.1682 H   0  0  0  0  0  0
    3.8043   69.2857   62.1398 H   0  0  0  0  0  0
    3.1427   67.7067   61.7498 H   0  0  0  0  0  0
    5.4886   67.7008   65.1677 H   0  0  0  0  0  0
    5.4344   70.2154   64.9094 H   0  0  0  0  0  0
    3.9981   70.1349   63.9648 H   0  0  0  0  0  0
    3.7807   70.6545   69.1655 H   0  0  0  0  0  0
    1.5427   69.7333   69.1678 H   0  0  0  0  0  0
    2.0226   69.1947   63.8373 H   0  0  0  0  0  0
    2.3445   67.5926   64.4026 H   0  0  0  0  0  0
   -0.2499   69.2306   64.6035 H   0  0  0  0  0  0
    0.0023   67.7312   63.7537 H   0  0  0  0  0  0
   -1.1865   67.3087   65.8729 H   0  0  0  0  0  0
    0.3771   66.5417   65.8888 H   0  0  0  0  0  0
   -0.5151   69.0820   67.2726 H   0  0  0  0  0  0
   -0.8322   66.9290   68.2872 H   0  0  0  0  0  0
    1.5432   66.1080   67.8288 H   0  0  0  0  0  0
    1.9427   67.1535   69.1677 H   0  0  0  0  0  0
    0.4233   65.9538   70.6893 H   0  0  0  0  0  0
   -0.1469   64.9535   69.3747 H   0  0  0  0  0  0
    3.3450   65.9634   70.4593 H   0  0  0  0  0  0
    5.1664   64.3545   70.7714 H   0  0  0  0  0  0
    4.7263   61.9239   70.5783 H   0  0  0  0  0  0
    0.6063   62.7374   69.7237 H   0  0  0  0  0  0
    5.8975   66.1084   62.1953 H   0  0  0  0  0  0
    5.5411   65.6874   63.8785 H   0  0  0  0  0  0
    4.2750   65.5715   62.6678 H   0  0  0  0  0  0
  1  2  1  0  0  0
  1 27  1  0  0  0
  1 28  1  0  0  0
  1 29  1  0  0  0
  2  3  2  3  0  0
  2 26  1  0  0  0
  3  4  1  0  0  0
  3 30  1  0  0  0
  4  5  1  0  0  0
  4 31  1  0  0  0
  4 32  1  0  0  0
  5 11  1  0  0  0
  5  6  1  0  0  0
  6  7  2  0  0  0
  6  8  1  0  0  0
  8  9  2  0  0  0
  8 33  1  0  0  0
  9 10  1  0  0  0
  9 34  1  0  0  0
 10 15  1  0  0  0
 10 11  2  0  0  0
 11 12  1  0  0  0
 12 13  1  0  0  0
 12 35  1  0  0  0
 12 36  1  0  0  0
 13 14  1  0  0  0
 13 37  1  0  0  0
 13 38  1  0  0  0
 14 15  1  0  0  0
 14 39  1  0  0  0
 14 40  1  0  0  0
 15 16  1  0  0  0
 15 41  1  0  0  0
 16 17  1  0  0  0
 16 42  1  0  0  0
 17 18  1  0  0  0
 17 43  1  0  0  0
 17 44  1  0  0  0
 18 19  1  0  0  0
 18 45  1  0  0  0
 18 46  1  0  0  0
 19 24  1  0  0  0
 19 20  2  0  0  0
 20 21  1  0  0  0
 20 47  1  0  0  0
 21 22  2  0  0  0
 21 48  1  0  0  0
 22 23  1  0  0  0
 22 49  1  0  0  0
 23 24  2  0  0  0
 23 25  1  0  0  0
 24 50  1  0  0  0
 26 51  1  0  0  0
 26 52  1  0  0  0
 26 53  1  0  0  0
M  END
> <s_m_entry_id>
9826

> <s_m_entry_name>
ligand_docking-pose.268

> <s_m_Source_Path>
/home/csk/Desktop/cluster/DUD-E-result/aces

> <s_m_Source_File>
ligand_docking-pose.sdf

> <i_m_Source_File_Index>
268

> <i_lp_mmshare_version>
53161

> <r_lp_tautomer_probability>
1

> <s_lp_Force_Field>
OPLS_2005

> <r_lp_Energy>
33.90167

> <b_lp_Chiralities_Consistent>
1

> <s_lp_Variant>
199499-1

> <s_i_glide_gridfile>
glide-grid_1e66

> <i_i_glide_lignum>
1089

> <i_i_glide_rotatable_bonds>
6

> <r_i_docking_score>
-7.21232262777574

> <r_i_glide_ligand_efficiency>
-0.277397024145221

> <r_i_glide_ligand_efficiency_sa>
-0.821787592525633

> <r_i_glide_ligand_efficiency_ln>
-1.69379030357234

> <r_i_glide_gscore>
-7.21232262777574

> <r_i_glide_lipo>
-3.84668070856674

> <r_i_glide_hbond>
0

> <r_i_glide_metal>
0

> <r_i_glide_rewards>
-2.03392531150447

> <r_i_glide_evdw>
-39.7077560424805

> <r_i_glide_ecoul>
-0.317684084177017

> <r_i_glide_erotb>
0.701323807046045

> <r_i_glide_esite>
0

> <r_i_glide_emodel>
-48.5118724906931

> <r_i_glide_energy>
-40.0254401266575

> <r_i_glide_einternal>
10.4972677230835

> <i_i_glide_confnum>
56

> <i_i_glide_posenum>
175

> <r_i_glide_eff_state_penalty>
0

> <i_f3d_flags>
0

> <s_user_duplicate_titles>
199499

> <s_m_subgroup_title>
dock_pv

> <s_m_subgroupid>
dock_pv1

> <b_m_subgroup_collapsed>
1

$$$$
343374
                    3D
 Schrodinger Suite 2021-1.
 54 55  0  0  1  0            999 V2000
    3.0898   59.4790   69.5707 C   0  0  0  0  0  0
    3.8646   60.7821   69.8672 C   0  0  0  0  0  0
    4.8331   60.5798   71.0502 C   0  0  0  0  0  0
    2.9907   62.0343   70.0610 C   0  0  0  0  0  0
    1.5980   61.9561   70.1921 C   0  0  0  0  0  0
    0.8374   63.1090   70.3686 C   0  0  0  0  0  0
    1.4560   64.3562   70.4253 C   0  0  0  0  0  0
    2.8482   64.4432   70.3038 C   0  0  0  0  0  0
    3.6074   63.2919   70.1090 C   0  0  0  0  0  0
    0.6159   65.6053   70.6926 C   0  0  0  0  0  0
    0.9270   66.8258   69.7929 C   0  0  0  0  0  0
    0.1176   66.9081   68.4883 C   0  0  0  0  0  0
   -0.9647   66.3400   68.3668 O   0  0  0  0  0  0
    0.7080   67.7416   67.3474 C   0  0  0  0  0  0
    0.3570   67.1882   65.9464 C   0  0  0  0  0  0
    1.1946   67.8006   64.8282 C   0  0  0  0  0  0
    2.5893   67.7398   64.8854 C   0  0  0  0  0  0
    3.3561   68.2953   63.8670 C   0  0  0  0  0  0
    2.7338   68.9065   62.7712 C   0  0  0  0  0  0
    1.3364   68.9431   62.7072 C   0  0  0  0  0  0
    0.5686   68.3967   63.7305 C   0  0  0  0  0  0
    3.5426   69.5405   61.6337 C   0  0  0  0  0  0
    3.4594   68.6840   60.3667 C   0  0  0  0  0  0
    5.0073   69.8913   61.9770 C   0  0  0  0  0  0
    2.3901   59.6073   68.7465 H   0  0  0  0  0  0
    3.7676   58.6737   69.2936 H   0  0  0  0  0  0
    2.5177   59.1447   70.4365 H   0  0  0  0  0  0
    4.4631   60.9782   68.9761 H   0  0  0  0  0  0
    5.4898   61.4392   71.1876 H   0  0  0  0  0  0
    4.2889   60.4279   71.9855 H   0  0  0  0  0  0
    5.4686   59.7098   70.8984 H   0  0  0  0  0  0
    1.0843   61.0076   70.1657 H   0  0  0  0  0  0
   -0.2335   63.0199   70.4753 H   0  0  0  0  0  0
    3.3477   65.3987   70.3699 H   0  0  0  0  0  0
    4.6801   63.3838   70.0144 H   0  0  0  0  0  0
    0.7431   65.8813   71.7388 H   0  0  0  0  0  0
   -0.4381   65.3498   70.6096 H   0  0  0  0  0  0
    1.9925   66.9370   69.5945 H   0  0  0  0  0  0
    0.6308   67.7078   70.3542 H   0  0  0  0  0  0
    1.7854   67.8071   67.4793 H   0  0  0  0  0  0
    0.3214   68.7557   67.4480 H   0  0  0  0  0  0
   -0.7036   67.3605   65.7468 H   0  0  0  0  0  0
    0.4912   66.1088   65.9079 H   0  0  0  0  0  0
    3.0907   67.2675   65.7177 H   0  0  0  0  0  0
    4.4309   68.2415   63.9438 H   0  0  0  0  0  0
    0.8418   69.4064   61.8649 H   0  0  0  0  0  0
   -0.5097   68.4305   63.6689 H   0  0  0  0  0  0
    3.0528   70.4872   61.4019 H   0  0  0  0  0  0
    2.4233   68.5050   60.0772 H   0  0  0  0  0  0
    3.9440   67.7172   60.5111 H   0  0  0  0  0  0
    3.9421   69.1819   59.5245 H   0  0  0  0  0  0
    5.0691   70.5056   62.8755 H   0  0  0  0  0  0
    5.6151   68.9978   62.1270 H   0  0  0  0  0  0
    5.4711   70.4589   61.1690 H   0  0  0  0  0  0
  1  2  1  0  0  0
  1 25  1  0  0  0
  1 26  1  0  0  0
  1 27  1  0  0  0
  2  3  1  0  0  0
  2  4  1  0  0  0
  2 28  1  0  0  0
  3 29  1  0  0  0
  3 30  1  0  0  0
  3 31  1  0  0  0
  4  9  1  0  0  0
  4  5  2  0  0  0
  5  6  1  0  0  0
  5 32  1  0  0  0
  6  7  2  0  0  0
  6 33  1  0  0  0
  7  8  1  0  0  0
  7 10  1  0  0  0
  8  9  2  0  0  0
  8 34  1  0  0  0
  9 35  1  0  0  0
 10 11  1  0  0  0
 10 36  1  0  0  0
 10 37  1  0  0  0
 11 12  1  0  0  0
 11 38  1  0  0  0
 11 39  1  0  0  0
 12 13  2  0  0  0
 12 14  1  0  0  0
 14 15  1  0  0  0
 14 40  1  0  0  0
 14 41  1  0  0  0
 15 16  1  0  0  0
 15 42  1  0  0  0
 15 43  1  0  0  0
 16 21  1  0  0  0
 16 17  2  0  0  0
 17 18  1  0  0  0
 17 44  1  0  0  0
 18 19  2  0  0  0
 18 45  1  0  0  0
 19 20  1  0  0  0
 19 22  1  0  0  0
 20 21  2  0  0  0
 20 46  1  0  0  0
 21 47  1  0  0  0
 22 23  1  0  0  0
 22 24  1  0  0  0
 22 48  1  0  0  0
 23 49  1  0  0  0
 23 50  1  0  0  0
 23 51  1  0  0  0
 24 52  1  0  0  0
 24 53  1  0  0  0
 24 54  1  0  0  0
M  END
> <s_m_entry_id>
9827

> <s_m_entry_name>
ligand_docking-pose.269

> <s_m_Source_Path>
/home/csk/Desktop/cluster/DUD-E-result/aces

> <s_m_Source_File>
ligand_docking-pose.sdf

> <i_m_Source_File_Index>
269

> <i_lp_mmshare_version>
53161

> <r_lp_tautomer_probability>
0.999999960000001

> <s_lp_Force_Field>
OPLS_2005

> <r_lp_Energy>
12.662889

> <b_lp_Chiralities_Consistent>
1

> <s_lp_Variant>
343374-1

> <s_i_glide_gridfile>
glide-grid_1e66

> <i_i_glide_lignum>
955

> <i_i_glide_rotatable_bonds>
8

> <r_i_docking_score>
-7.21101587809739

> <r_i_glide_ligand_efficiency>
-0.300458994920724

> <r_i_glide_ligand_efficiency_sa>
-0.866673711720709

> <r_i_glide_ligand_efficiency_ln>
-1.72592699158614

> <r_i_glide_gscore>
-7.21101587809739

> <r_i_glide_lipo>
-4.05604382555438

> <r_i_glide_hbond>
0

> <r_i_glide_metal>
0

> <r_i_glide_rewards>
-2.07189506316039

> <r_i_glide_evdw>
-43.2237319946289

> <r_i_glide_ecoul>
-0.00557426642626524

> <r_i_glide_erotb>
1.07894575031276

> <r_i_glide_esite>
0

> <r_i_glide_emodel>
-59.2608649243199

> <r_i_glide_energy>
-43.2293062610552

> <r_i_glide_einternal>
6.13946962356567

> <i_i_glide_confnum>
26

> <i_i_glide_posenum>
307

> <r_i_glide_eff_state_penalty>
0

> <i_f3d_flags>
0

> <s_user_duplicate_titles>
343374

> <s_m_subgroup_title>
dock_pv

> <s_m_subgroupid>
dock_pv1

> <b_m_subgroup_collapsed>
1

$$$$
678248
                    3D
 Schrodinger Suite 2021-1.
 62 66  0  0  1  0            999 V2000
    6.0152   68.5361   62.8730 C   0  0  0  0  0  0
    5.1403   67.6230   62.2985 C   0  0  0  0  0  0
    3.7722   67.7785   62.4746 C   0  0  0  0  0  0
    3.2802   68.8331   63.2475 C   0  0  0  0  0  0
    4.1782   69.7069   63.8693 C   0  0  0  0  0  0
    5.5430   69.5718   63.6679 C   0  0  0  0  0  0
    1.7818   68.9858   63.4943 C   0  0  0  0  0  0
    1.3128   68.2526   64.6806 N   0  0  1  0  0  0
    1.9216   68.7208   65.9318 C   0  0  0  0  0  0
    1.4813   67.8574   67.1167 C   0  0  0  0  0  0
   -0.0409   67.7625   67.3257 C   0  0  0  0  0  0
   -0.6412   67.3900   65.9680 C   0  0  0  0  0  0
   -0.1571   68.2747   64.7879 C   0  0  0  0  0  0
   -0.4383   66.7318   68.4282 C   0  0  0  0  0  0
    0.5307   66.7160   69.6178 C   0  0  0  0  0  0
    0.1435   65.8678   70.7331 N   0  0  0  0  0  0
    0.5656   64.5285   70.8304 C   0  0  0  0  0  0
    1.9323   64.1051   70.7181 C   0  0  0  0  0  0
    3.0426   64.9703   70.4826 C   0  0  0  0  0  0
    4.3319   64.4787   70.3682 C   0  0  0  0  0  0
    4.5573   63.1244   70.5347 C   0  0  0  0  0  0
    3.5292   62.2514   70.8420 C   0  0  0  0  0  0
    2.1891   62.7148   70.9235 C   0  0  0  0  0  0
    1.0786   61.8812   71.2552 C   0  0  0  0  0  0
   -0.1862   62.3701   71.3491 N   0  0  0  0  0  0
   -0.4407   63.6692   71.1404 N   0  0  0  0  0  0
    1.2258   60.4375   71.6205 C   0  0  0  0  0  0
    1.9432   59.5492   70.8057 C   0  0  0  0  0  0
    2.1209   58.2214   71.1861 C   0  0  0  0  0  0
    1.5725   57.7737   72.3840 C   0  0  0  0  0  0
    0.8390   58.6330   73.1953 C   0  0  0  0  0  0
    0.6634   59.9580   72.8101 C   0  0  0  0  0  0
    7.0776   68.4478   62.6911 H   0  0  0  0  0  0
    5.5275   66.8394   61.6685 H   0  0  0  0  0  0
    3.1097   67.0935   61.9817 H   0  0  0  0  0  0
    3.8177   70.5041   64.5029 H   0  0  0  0  0  0
    6.2362   70.2696   64.1218 H   0  0  0  0  0  0
    1.5429   70.0476   63.5670 H   0  0  0  0  0  0
    1.2514   68.5960   62.6216 H   0  0  0  0  0  0
    3.0062   68.6526   65.8726 H   0  0  0  0  0  0
    1.6868   69.7653   66.1067 H   0  0  0  0  0  0
    1.8839   66.8562   66.9436 H   0  0  0  0  0  0
    1.9438   68.2357   68.0274 H   0  0  0  0  0  0
   -0.3994   68.7592   67.5906 H   0  0  0  0  0  0
   -1.7293   67.3473   66.0197 H   0  0  0  0  0  0
   -0.3188   66.3700   65.7722 H   0  0  0  0  0  0
   -0.4982   69.3062   64.9006 H   0  0  0  0  0  0
   -0.5949   67.8999   63.8629 H   0  0  0  0  0  0
   -1.4622   66.9085   68.7672 H   0  0  0  0  0  0
   -0.4565   65.7242   68.0109 H   0  0  0  0  0  0
    1.4897   66.4314   69.2095 H   0  0  0  0  0  0
    0.6810   67.7215   70.0004 H   0  0  0  0  0  0
   -0.7496   66.0971   71.1453 H   0  0  0  0  0  0
    2.9234   66.0404   70.4598 H   0  0  0  0  0  0
    5.1588   65.1502   70.1850 H   0  0  0  0  0  0
    5.5443   62.7263   70.4552 H   0  0  0  0  0  0
    3.7748   61.2209   71.0336 H   0  0  0  0  0  0
    2.3547   59.8832   69.8654 H   0  0  0  0  0  0
    2.6710   57.5417   70.5542 H   0  0  0  0  0  0
    1.7179   56.7506   72.6889 H   0  0  0  0  0  0
    0.4171   58.2778   74.1231 H   0  0  0  0  0  0
    0.1088   60.6251   73.4548 H   0  0  0  0  0  0
  1  6  1  0  0  0
  1  2  2  0  0  0
  1 33  1  0  0  0
  2  3  1  0  0  0
  2 34  1  0  0  0
  3  4  2  0  0  0
  3 35  1  0  0  0
  4  5  1  0  0  0
  4  7  1  0  0  0
  5  6  2  0  0  0
  5 36  1  0  0  0
  6 37  1  0  0  0
  7  8  1  0  0  0
  7 38  1  0  0  0
  7 39  1  0  0  0
  8 13  1  0  0  0
  8  9  1  0  0  0
  9 10  1  0  0  0
  9 40  1  0  0  0
  9 41  1  0  0  0
 10 11  1  0  0  0
 10 42  1  0  0  0
 10 43  1  0  0  0
 11 12  1  0  0  0
 11 14  1  0  0  0
 11 44  1  0  0  0
 12 13  1  0  0  0
 12 45  1  0  0  0
 12 46  1  0  0  0
 13 47  1  0  0  0
 13 48  1  0  0  0
 14 15  1  0  0  0
 14 49  1  0  0  0
 14 50  1  0  0  0
 15 16  1  0  0  0
 15 51  1  0  0  0
 15 52  1  0  0  0
 16 17  1  0  0  0
 16 53  1  0  0  0
 17 26  1  0  0  0
 17 18  2  0  0  0
 18 23  1  0  0  0
 18 19  1  0  0  0
 19 20  2  0  0  0
 19 54  1  0  0  0
 20 21  1  0  0  0
 20 55  1  0  0  0
 21 22  2  0  0  0
 21 56  1  0  0  0
 22 23  1  0  0  0
 22 57  1  0  0  0
 23 24  2  0  0  0
 24 25  1  0  0  0
 24 27  1  0  0  0
 25 26  2  0  0  0
 27 32  1  0  0  0
 27 28  2  0  0  0
 28 29  1  0  0  0
 28 58  1  0  0  0
 29 30  2  0  0  0
 29 59  1  0  0  0
 30 31  1  0  0  0
 30 60  1  0  0  0
 31 32  2  0  0  0
 31 61  1  0  0  0
 32 62  1  0  0  0
M  END
> <s_m_entry_id>
9828

> <s_m_entry_name>
ligand_docking-pose.270

> <s_m_Source_Path>
/home/csk/Desktop/cluster/DUD-E-result/aces

> <s_m_Source_File>
ligand_docking-pose.sdf

> <i_m_Source_File_Index>
270

> <i_lp_mmshare_version>
53161

> <r_lp_tautomer_probability>
1

> <s_lp_Force_Field>
OPLS_2005

> <r_lp_Energy>
44.935488

> <b_lp_Chiralities_Consistent>
1

> <s_lp_Variant>
678248-1

> <s_i_glide_gridfile>
glide-grid_1e66

> <i_i_glide_lignum>
396

> <i_i_glide_rotatable_bonds>
7

> <r_i_docking_score>
-7.20946257277464

> <r_i_glide_ligand_efficiency>
-0.225295705399208

> <r_i_glide_ligand_efficiency_sa>
-0.715269278682928

> <r_i_glide_ligand_efficiency_ln>
-1.61439519257168

> <r_i_glide_gscore>
-7.20946257277464

> <r_i_glide_lipo>
-4.612755343427

> <r_i_glide_hbond>
0

> <r_i_glide_metal>
0

> <r_i_glide_rewards>
-1.42796863636364

> <r_i_glide_evdw>
-39.7292633056641

> <r_i_glide_ecoul>
0.273762762546539

> <r_i_glide_erotb>
0.776660157917216

> <r_i_glide_esite>
0

> <r_i_glide_emodel>
-36.3266557175492

> <r_i_glide_energy>
-39.4555005431175

> <r_i_glide_einternal>
14.7448921203613

> <i_i_glide_confnum>
29

> <i_i_glide_posenum>
296

> <r_i_glide_eff_state_penalty>
0

> <i_f3d_flags>
0

> <s_user_duplicate_titles>
678248

> <s_m_subgroup_title>
dock_pv

> <s_m_subgroupid>
dock_pv1

> <b_m_subgroup_collapsed>
1

$$$$
117543
                    3D
 Schrodinger Suite 2021-1.
 71 76  0  0  1  0            999 V2000
    0.5543   65.9380   70.8353 C   0  0  0  0  0  0
   -0.0570   65.4115   71.9680 C   0  0  0  0  0  0
    0.2163   64.1080   72.3778 C   0  0  0  0  0  0
    1.1527   63.3166   71.6685 C   0  0  0  0  0  0
    1.8333   63.8687   70.5383 C   0  0  0  0  0  0
    1.4964   65.1958   70.1328 C   0  0  0  0  0  0
    2.8076   63.0556   69.8688 C   0  0  0  0  0  0
    2.9984   61.7366   70.3174 C   0  0  0  0  0  0
    2.2875   61.3020   71.4342 C   0  0  0  0  0  0
    1.3859   62.0513   72.1061 N   0  0  0  0  0  0
    2.7089   59.9148   71.8575 C   0  0  0  0  0  0
    3.5107   59.4090   70.6610 C   0  0  0  0  0  0
    3.9757   60.6500   69.8953 C   0  0  0  0  0  0
    3.5430   63.6232   68.8140 N   0  0  0  0  0  0
    3.5430   62.9535   67.5251 C   0  0  0  0  0  0
    3.9014   63.9429   66.3917 C   0  0  0  0  0  0
    3.5443   63.5548   64.9437 C   0  0  0  0  0  0
    4.3335   64.3036   63.8463 C   0  0  0  0  0  0
    4.1804   65.8355   63.8808 C   0  0  0  0  0  0
    4.5809   66.5419   62.5677 C   0  0  0  0  0  0
    4.5394   68.0849   62.6110 C   0  0  0  0  0  0
    3.3946   68.6298   63.3373 N   0  0  0  0  0  0
    3.3797   68.9193   64.7229 C   0  0  0  0  0  0
    2.1382   68.7583   65.4380 C   0  0  0  0  0  0
    0.9491   68.2158   64.8615 C   0  0  0  0  0  0
   -0.2211   68.1080   65.6098 C   0  0  0  0  0  0
   -0.2568   68.5059   66.9399 C   0  0  0  0  0  0
    0.8791   69.0273   67.5473 C   0  0  0  0  0  0
    2.0792   69.1664   66.8094 C   0  0  0  0  0  0
    3.1430   69.7081   67.4470 N   0  0  0  0  0  0
    4.3037   69.8117   66.7680 C   0  0  0  0  0  0
    4.4909   69.4038   65.4490 C   0  0  0  0  0  0
    5.9400   69.6683   65.0651 C   0  0  0  0  0  0
    6.6321   70.0933   66.3636 C   0  0  0  0  0  0
    5.5345   70.4631   67.3495 C   0  0  0  0  0  0
    0.3219   66.9461   70.5210 H   0  0  0  0  0  0
   -0.7550   66.0230   72.5216 H   0  0  0  0  0  0
   -0.2768   63.6939   73.2461 H   0  0  0  0  0  0
    1.9660   65.6400   69.2682 H   0  0  0  0  0  0
    3.3303   59.9560   72.7533 H   0  0  0  0  0  0
    1.8640   59.2585   72.0714 H   0  0  0  0  0  0
    4.3391   58.7643   70.9570 H   0  0  0  0  0  0
    2.8586   58.8119   70.0197 H   0  0  0  0  0  0
    3.9847   60.4346   68.8289 H   0  0  0  0  0  0
    4.9900   60.9114   70.1971 H   0  0  0  0  0  0
    3.4028   64.6211   68.7471 H   0  0  0  0  0  0
    2.5638   62.5080   67.3516 H   0  0  0  0  0  0
    4.2180   62.1080   67.5705 H   0  0  0  0  0  0
    4.9699   64.1080   66.4490 H   0  0  0  0  0  0
    3.4305   64.9080   66.5900 H   0  0  0  0  0  0
    2.4798   63.7080   64.7680 H   0  0  0  0  0  0
    3.7250   62.4998   64.8008 H   0  0  0  0  0  0
    3.9863   63.9310   62.8819 H   0  0  0  0  0  0
    5.3904   64.0414   63.9048 H   0  0  0  0  0  0
    4.7718   66.2584   64.6907 H   0  0  0  0  0  0
    3.1430   66.0755   64.1135 H   0  0  0  0  0  0
    3.9430   66.1966   61.7582 H   0  0  0  0  0  0
    5.5909   66.2442   62.2912 H   0  0  0  0  0  0
    4.4675   68.4704   61.5927 H   0  0  0  0  0  0
    5.4823   68.4718   62.9690 H   0  0  0  0  0  0
    2.4955   68.4041   62.9394 H   0  0  0  0  0  0
    0.9404   67.8894   63.8327 H   0  0  0  0  0  0
   -1.1154   67.7080   65.1551 H   0  0  0  0  0  0
   -1.1739   68.4134   67.5040 H   0  0  0  0  0  0
    0.8466   69.3424   68.5820 H   0  0  0  0  0  0
    6.0187   70.4619   64.3200 H   0  0  0  0  0  0
    6.4586   68.7812   64.7053 H   0  0  0  0  0  0
    7.2104   69.2578   66.7621 H   0  0  0  0  0  0
    7.3375   70.9076   66.1983 H   0  0  0  0  0  0
    5.7709   70.1081   68.3530 H   0  0  0  0  0  0
    5.4110   71.5445   67.4079 H   0  0  0  0  0  0
  1  6  1  0  0  0
  1  2  2  0  0  0
  1 36  1  0  0  0
  2  3  1  0  0  0
  2 37  1  0  0  0
  3  4  2  0  0  0
  3 38  1  0  0  0
  4 10  1  0  0  0
  4  5  1  0  0  0
  5  6  2  0  0  0
  5  7  1  0  0  0
  6 39  1  0  0  0
  7  8  2  0  0  0
  7 14  1  0  0  0
  8 13  1  0  0  0
  8  9  1  0  0  0
  9 10  2  0  0  0
  9 11  1  0  0  0
 11 12  1  0  0  0
 11 40  1  0  0  0
 11 41  1  0  0  0
 12 13  1  0  0  0
 12 42  1  0  0  0
 12 43  1  0  0  0
 13 44  1  0  0  0
 13 45  1  0  0  0
 14 15  1  0  0  0
 14 46  1  0  0  0
 15 16  1  0  0  0
 15 47  1  0  0  0
 15 48  1  0  0  0
 16 17  1  0  0  0
 16 49  1  0  0  0
 16 50  1  0  0  0
 17 18  1  0  0  0
 17 51  1  0  0  0
 17 52  1  0  0  0
 18 19  1  0  0  0
 18 53  1  0  0  0
 18 54  1  0  0  0
 19 20  1  0  0  0
 19 55  1  0  0  0
 19 56  1  0  0  0
 20 21  1  0  0  0
 20 57  1  0  0  0
 20 58  1  0  0  0
 21 22  1  0  0  0
 21 59  1  0  0  0
 21 60  1  0  0  0
 22 23  1  0  0  0
 22 61  1  0  0  0
 23 32  1  0  0  0
 23 24  2  0  0  0
 24 29  1  0  0  0
 24 25  1  0  0  0
 25 26  2  0  0  0
 25 62  1  0  0  0
 26 27  1  0  0  0
 26 63  1  0  0  0
 27 28  2  0  0  0
 27 64  1  0  0  0
 28 29  1  0  0  0
 28 65  1  0  0  0
 29 30  2  0  0  0
 30 31  1  0  0  0
 31 35  1  0  0  0
 31 32  2  0  0  0
 32 33  1  0  0  0
 33 34  1  0  0  0
 33 66  1  0  0  0
 33 67  1  0  0  0
 34 35  1  0  0  0
 34 68  1  0  0  0
 34 69  1  0  0  0
 35 70  1  0  0  0
 35 71  1  0  0  0
M  END
> <s_m_entry_id>
9831

> <s_m_entry_name>
ligand_docking-pose.273

> <s_m_Source_Path>
/home/csk/Desktop/cluster/DUD-E-result/aces

> <s_m_Source_File>
ligand_docking-pose.sdf

> <i_m_Source_File_Index>
273

> <i_lp_mmshare_version>
53161

> <r_lp_tautomer_probability>
1

> <s_lp_Force_Field>
OPLS_2005

> <r_lp_Energy>
56.951026

> <b_lp_Chiralities_Consistent>
1

> <s_lp_Variant>
117543-1

> <s_i_glide_gridfile>
glide-grid_1e66

> <i_i_glide_lignum>
121

> <i_i_glide_rotatable_bonds>
10

> <r_i_docking_score>
-7.19859506050492

> <r_i_glide_ligand_efficiency>
-0.205674144585855

> <r_i_glide_ligand_efficiency_sa>
-0.672773764434331

> <r_i_glide_ligand_efficiency_ln>
-1.58025137999033

> <r_i_glide_gscore>
-7.19859506050492

> <r_i_glide_lipo>
-4.82970844387077

> <r_i_glide_hbond>
0

> <r_i_glide_metal>
0

> <r_i_glide_rewards>
-1.14106131818182

> <r_i_glide_evdw>
-45.2789878845215

> <r_i_glide_ecoul>
1.92703711986542

> <r_i_glide_erotb>
0.747068527793929

> <r_i_glide_esite>
0

> <r_i_glide_emodel>
-55.1534086580915

> <r_i_glide_energy>
-43.3519507646561

> <r_i_glide_einternal>
7.91263246536255

> <i_i_glide_confnum>
6

> <i_i_glide_posenum>
11

> <r_i_glide_eff_state_penalty>
0

> <i_f3d_flags>
0

> <s_user_duplicate_titles>
117543

> <s_m_subgroup_title>
dock_pv

> <s_m_subgroupid>
dock_pv1

> <b_m_subgroup_collapsed>
1

$$$$
138446
                    3D
 Schrodinger Suite 2021-1.
 52 55  0  0  1  0            999 V2000
    5.2566   67.2752   62.2303 C   0  0  0  0  0  0
    5.4972   68.1228   63.3429 O   0  0  0  0  0  0
    4.4995   68.3336   64.2741 C   0  0  0  0  0  0
    3.3076   67.5897   64.3170 C   0  0  0  0  0  0
    2.3280   67.8738   65.2672 C   0  0  0  0  0  0
    2.5326   68.9092   66.1713 C   0  0  0  0  0  0
    3.7280   69.6227   66.1792 C   0  0  0  0  0  0
    4.7271   69.3247   65.2431 C   0  0  0  0  0  0
    5.9450   69.9696   65.2227 O   0  0  0  0  0  0
    6.4346   70.5358   66.4344 C   0  0  0  0  0  0
    1.3620   69.0757   67.0462 C   0  0  0  0  0  0
    1.2420   69.8789   67.9672 O   0  0  0  0  0  0
    0.3290   68.0487   66.5801 C   0  0  1  0  0  0
    1.0392   67.1502   65.5594 C   0  0  0  0  0  0
   -0.4744   67.3812   67.7309 C   0  0  0  0  0  0
    0.2395   66.5355   68.8083 C   0  0  0  0  0  0
   -0.3133   65.3102   69.1776 C   0  0  0  0  0  0
    0.3447   64.4419   70.0513 C   0  0  0  0  0  0
    1.5374   64.7964   70.5716 N   0  3  0  0  0  0
    2.0639   66.0168   70.3147 C   0  0  0  0  0  0
    1.4081   66.9192   69.4729 C   0  0  0  0  0  0
    2.2326   63.8673   71.4964 C   0  0  0  0  0  0
    2.5410   62.4875   70.9239 C   0  0  0  0  0  0
    3.6207   62.3126   70.0516 C   0  0  0  0  0  0
    3.9212   61.0414   69.5669 C   0  0  0  0  0  0
    3.1379   59.9534   69.9471 C   0  0  0  0  0  0
    2.0603   60.1230   70.8134 C   0  0  0  0  0  0
    1.7610   61.3908   71.3021 C   0  0  0  0  0  0
    6.1233   67.3064   61.5707 H   0  0  0  0  0  0
    5.1131   66.2390   62.5401 H   0  0  0  0  0  0
    4.3909   67.6034   61.6509 H   0  0  0  0  0  0
    3.1387   66.7908   63.6142 H   0  0  0  0  0  0
    3.8728   70.4098   66.9046 H   0  0  0  0  0  0
    7.4673   70.8510   66.2827 H   0  0  0  0  0  0
    6.4268   69.8096   67.2550 H   0  0  0  0  0  0
    5.8648   71.4207   66.7325 H   0  0  0  0  0  0
   -0.3917   68.6388   66.0129 H   0  0  0  0  0  0
    0.4256   67.0214   64.6675 H   0  0  0  0  0  0
    1.2323   66.1596   65.9699 H   0  0  0  0  0  0
   -1.0356   68.1765   68.1983 H   0  0  0  0  0  0
   -1.2341   66.7594   67.2544 H   0  0  0  0  0  0
   -1.2561   65.0072   68.7789 H   0  0  0  0  0  0
   -0.0449   63.4738   70.3323 H   0  0  0  0  0  0
    3.0139   66.2537   70.7681 H   0  0  0  0  0  0
    1.8563   67.8878   69.3275 H   0  0  0  0  0  0
    3.1693   64.3329   71.7997 H   0  0  0  0  0  0
    1.6016   63.8012   72.3856 H   0  0  0  0  0  0
    4.2299   63.1566   69.7563 H   0  0  0  0  0  0
    4.7418   60.8977   68.8816 H   0  0  0  0  0  0
    3.3602   58.9686   69.5619 H   0  0  0  0  0  0
    1.4548   59.2752   71.1039 H   0  0  0  0  0  0
    0.9299   61.5121   71.9819 H   0  0  0  0  0  0
  1  2  1  0  0  0
  1 29  1  0  0  0
  1 30  1  0  0  0
  1 31  1  0  0  0
  2  3  1  0  0  0
  3  8  1  0  0  0
  3  4  2  0  0  0
  4  5  1  0  0  0
  4 32  1  0  0  0
  5 14  1  0  0  0
  5  6  2  0  0  0
  6  7  1  0  0  0
  6 11  1  0  0  0
  7  8  2  0  0  0
  7 33  1  0  0  0
  8  9  1  0  0  0
  9 10  1  0  0  0
 10 34  1  0  0  0
 10 35  1  0  0  0
 10 36  1  0  0  0
 11 12  2  0  0  0
 11 13  1  0  0  0
 13 14  1  0  0  0
 13 15  1  0  0  0
 13 37  1  0  0  0
 14 38  1  0  0  0
 14 39  1  0  0  0
 15 16  1  0  0  0
 15 40  1  0  0  0
 15 41  1  0  0  0
 16 21  1  0  0  0
 16 17  2  0  0  0
 17 18  1  0  0  0
 17 42  1  0  0  0
 18 19  2  0  0  0
 18 43  1  0  0  0
 19 20  1  0  0  0
 19 22  1  0  0  0
 20 21  2  0  0  0
 20 44  1  0  0  0
 21 45  1  0  0  0
 22 23  1  0  0  0
 22 46  1  0  0  0
 22 47  1  0  0  0
 23 28  1  0  0  0
 23 24  2  0  0  0
 24 25  1  0  0  0
 24 48  1  0  0  0
 25 26  2  0  0  0
 25 49  1  0  0  0
 26 27  1  0  0  0
 26 50  1  0  0  0
 27 28  2  0  0  0
 27 51  1  0  0  0
 28 52  1  0  0  0
M  CHG  1  19   1
M  END
> <s_m_entry_id>
9832

> <s_m_entry_name>
ligand_docking-pose.274

> <s_m_Source_Path>
/home/csk/Desktop/cluster/DUD-E-result/aces

> <s_m_Source_File>
ligand_docking-pose.sdf

> <i_m_Source_File_Index>
274

> <i_lp_mmshare_version>
53161

> <r_lp_tautomer_probability>
0.99995

> <s_lp_Force_Field>
OPLS_2005

> <r_lp_Energy>
44.386934

> <b_lp_Chiralities_Consistent>
1

> <s_lp_Variant>
138446-1

> <s_i_glide_gridfile>
glide-grid_1e66

> <i_i_glide_lignum>
1920

> <i_i_glide_rotatable_bonds>
6

> <r_i_docking_score>
-7.19847285049839

> <r_i_glide_ligand_efficiency>
-0.257088316089228

> <r_i_glide_ligand_efficiency_sa>
-0.780671544567516

> <r_i_glide_ligand_efficiency_ln>
-1.66161889024193

> <r_i_glide_gscore>
-7.19847285049839

> <r_i_glide_lipo>
-3.70545155272262

> <r_i_glide_hbond>
0

> <r_i_glide_metal>
0

> <r_i_glide_rewards>
-2.31497672119944

> <r_i_glide_evdw>
-35.8256492614746

> <r_i_glide_ecoul>
0.410810500383377

> <r_i_glide_erotb>
0.551616311439889

> <r_i_glide_esite>
0

> <r_i_glide_emodel>
-35.9277440442633

> <r_i_glide_energy>
-35.4148387610912

> <r_i_glide_einternal>
12.548436164856

> <i_i_glide_confnum>
11

> <i_i_glide_posenum>
314

> <r_i_glide_eff_state_penalty>
0

> <i_f3d_flags>
0

> <s_user_duplicate_titles>
138446

> <s_m_subgroup_title>
dock_pv

> <s_m_subgroupid>
dock_pv1

> <b_m_subgroup_collapsed>
1

$$$$
552340
                    3D
 Schrodinger Suite 2021-1.
 53 55  0  0  1  0            999 V2000
   -0.8041   68.8788   62.8124 C   0  0  0  0  0  0
    0.5743   68.6288   63.2422 N   0  0  0  0  0  0
    0.6917   67.7825   64.4438 C   0  0  0  0  0  0
   -0.0793   68.2728   65.6878 C   0  0  0  0  0  0
    0.1964   67.3989   66.9329 C   0  0  0  0  0  0
    0.9845   68.1464   68.0216 C   0  0  0  0  0  0
    1.3504   67.1880   69.1708 C   0  0  0  0  0  0
    0.1933   66.5095   69.7568 N   0  0  1  0  0  0
   -0.7547   65.9564   68.7841 C   0  0  0  0  0  0
   -1.0854   66.9152   67.6241 C   0  0  0  0  0  0
    0.5651   65.5820   70.8357 C   0  0  0  0  0  0
    1.4590   64.4012   70.4497 C   0  0  0  0  0  0
    0.8915   63.1654   70.1355 C   0  0  0  0  0  0
    1.7096   62.0980   69.7763 C   0  0  0  0  0  0
    3.0898   62.2733   69.7016 C   0  0  0  0  0  0
    3.6632   63.5084   69.9939 C   0  0  0  0  0  0
    2.8464   64.5699   70.3691 C   0  0  0  0  0  0
    1.6022   68.9081   62.3942 C   0  0  0  0  0  0
    1.4162   69.2720   61.2307 O   0  0  0  0  0  0
    3.0290   68.7827   62.8752 C   0  0  0  0  0  0
    3.9845   68.2117   62.0228 C   0  0  0  0  0  0
    5.3097   68.1031   62.4282 C   0  0  0  0  0  0
    5.6891   68.5846   63.6784 C   0  0  0  0  0  0
    4.7595   69.1817   64.5257 C   0  0  0  0  0  0
    3.4315   69.2864   64.1226 C   0  0  0  0  0  0
   -1.2567   67.9340   62.5155 H   0  0  0  0  0  0
   -1.4007   69.3052   63.6177 H   0  0  0  0  0  0
   -0.8667   69.5763   61.9752 H   0  0  0  0  0  0
    0.3456   66.7816   64.1864 H   0  0  0  0  0  0
    1.7286   67.6214   64.7313 H   0  0  0  0  0  0
    0.1780   69.3065   65.9039 H   0  0  0  0  0  0
   -1.1485   68.2748   65.4738 H   0  0  0  0  0  0
    0.7649   66.5155   66.6359 H   0  0  0  0  0  0
    1.8986   68.5626   67.5987 H   0  0  0  0  0  0
    0.4445   69.0224   68.3879 H   0  0  0  0  0  0
    1.9426   66.3760   68.7675 H   0  0  0  0  0  0
    1.9344   67.6946   69.9403 H   0  0  0  0  0  0
   -0.3610   65.0204   68.4066 H   0  0  0  0  0  0
   -1.6568   65.7103   69.3089 H   0  0  0  0  0  0
   -1.7128   67.7394   67.9642 H   0  0  0  0  0  0
   -1.7129   66.3983   66.8976 H   0  0  0  0  0  0
    1.1009   66.1690   71.5694 H   0  0  0  0  0  0
   -0.3304   65.2098   71.3293 H   0  0  0  0  0  0
   -0.1793   63.0281   70.1789 H   0  0  0  0  0  0
    1.2768   61.1332   69.5601 H   0  0  0  0  0  0
    3.7205   61.4443   69.4198 H   0  0  0  0  0  0
    4.7337   63.6442   69.9341 H   0  0  0  0  0  0
    3.2920   65.5260   70.6042 H   0  0  0  0  0  0
    3.7098   67.8550   61.0383 H   0  0  0  0  0  0
    6.0469   67.6705   61.7654 H   0  0  0  0  0  0
    6.7237   68.5099   63.9826 H   0  0  0  0  0  0
    5.0684   69.5724   65.4856 H   0  0  0  0  0  0
    2.7259   69.7715   64.7838 H   0  0  0  0  0  0
  1  2  1  0  0  0
  1 26  1  0  0  0
  1 27  1  0  0  0
  1 28  1  0  0  0
  2  3  1  0  0  0
  2 18  1  0  0  0
  3  4  1  0  0  0
  3 29  1  0  0  0
  3 30  1  0  0  0
  4  5  1  0  0  0
  4 31  1  0  0  0
  4 32  1  0  0  0
  5 10  1  0  0  0
  5  6  1  0  0  0
  5 33  1  0  0  0
  6  7  1  0  0  0
  6 34  1  0  0  0
  6 35  1  0  0  0
  7  8  1  0  0  0
  7 36  1  0  0  0
  7 37  1  0  0  0
  8  9  1  0  0  0
  8 11  1  0  0  0
  9 10  1  0  0  0
  9 38  1  0  0  0
  9 39  1  0  0  0
 10 40  1  0  0  0
 10 41  1  0  0  0
 11 12  1  0  0  0
 11 42  1  0  0  0
 11 43  1  0  0  0
 12 17  1  0  0  0
 12 13  2  0  0  0
 13 14  1  0  0  0
 13 44  1  0  0  0
 14 15  2  0  0  0
 14 45  1  0  0  0
 15 16  1  0  0  0
 15 46  1  0  0  0
 16 17  2  0  0  0
 16 47  1  0  0  0
 17 48  1  0  0  0
 18 19  2  0  0  0
 18 20  1  0  0  0
 20 25  1  0  0  0
 20 21  2  0  0  0
 21 22  1  0  0  0
 21 49  1  0  0  0
 22 23  2  0  0  0
 22 50  1  0  0  0
 23 24  1  0  0  0
 23 51  1  0  0  0
 24 25  2  0  0  0
 24 52  1  0  0  0
 25 53  1  0  0  0
M  END
> <s_m_entry_id>
9834

> <s_m_entry_name>
ligand_docking-pose.276

> <s_m_Source_Path>
/home/csk/Desktop/cluster/DUD-E-result/aces

> <s_m_Source_File>
ligand_docking-pose.sdf

> <i_m_Source_File_Index>
276

> <i_lp_mmshare_version>
53161

> <r_lp_tautomer_probability>
1

> <s_lp_Force_Field>
OPLS_2005

> <r_lp_Energy>
39.078628

> <b_lp_Chiralities_Consistent>
1

> <s_lp_Variant>
552340-1

> <s_i_glide_gridfile>
glide-grid_1e66

> <i_i_glide_lignum>
1762

> <i_i_glide_rotatable_bonds>
7

> <r_i_docking_score>
-7.19427459682211

> <r_i_glide_ligand_efficiency>
-0.287770983872884

> <r_i_glide_ligand_efficiency_sa>
-0.841447460484444

> <r_i_glide_ligand_efficiency_ln>
-1.70525867445906

> <r_i_glide_gscore>
-7.19427459682211

> <r_i_glide_lipo>
-3.55042812717104

> <r_i_glide_hbond>
0

> <r_i_glide_metal>
0

> <r_i_glide_rewards>
-2.31509036123369

> <r_i_glide_evdw>
-41.4116554260254

> <r_i_glide_ecoul>
-1.72753524780273

> <r_i_glide_erotb>
1.0009569500543

> <r_i_glide_esite>
0

> <r_i_glide_emodel>
-52.1010806668203

> <r_i_glide_energy>
-43.1391906738281

> <r_i_glide_einternal>
12.226110458374

> <i_i_glide_confnum>
11

> <i_i_glide_posenum>
45

> <r_i_glide_eff_state_penalty>
0

> <i_f3d_flags>
0

> <s_user_duplicate_titles>
552340

> <s_m_subgroup_title>
dock_pv

> <s_m_subgroupid>
dock_pv1

> <b_m_subgroup_collapsed>
1

$$$$
267488
                    3D
 Schrodinger Suite 2021-1.
 54 56  0  0  1  0            999 V2000
    2.7311   57.9394   72.5002 C   0  0  0  0  0  0
    2.4015   57.9901   71.1473 C   0  0  0  0  0  0
    2.8945   59.0251   70.3556 C   0  0  0  0  0  0
    3.7259   59.9953   70.9211 C   0  0  0  0  0  0
    4.0463   59.9428   72.2811 C   0  0  0  0  0  0
    3.5508   58.9103   73.0710 C   0  0  0  0  0  0
    4.2037   61.1744   70.0913 C   0  0  0  0  0  0
    3.4041   62.3717   70.3556 N   0  0  1  0  0  0
    4.1886   63.5978   70.1574 C   0  0  0  0  0  0
    3.3515   64.8395   70.5095 C   0  0  0  0  0  0
    2.0818   64.9265   69.6489 C   0  0  0  0  0  0
    1.2837   63.6422   69.9646 C   0  0  0  0  0  0
    2.1065   62.3692   69.6539 C   0  0  0  0  0  0
    1.2671   66.2258   69.8819 C   0  0  0  0  0  0
    0.2069   66.5410   68.7979 C   0  0  0  0  0  0
    0.8593   66.9597   67.5669 N   0  0  0  0  0  0
    0.4623   67.9402   66.8476 C   0  0  0  0  0  0
    1.0837   68.4665   65.7271 N   0  0  0  0  0  0
    2.1592   67.9876   64.9547 C   0  0  0  0  0  0
    2.7571   68.8780   64.0601 C   0  0  0  0  0  0
    3.8262   68.4764   63.2621 C   0  0  0  0  0  0
    4.2982   67.1673   63.3351 C   0  0  0  0  0  0
    3.7045   66.2402   64.2053 C   0  0  0  0  0  0
    2.6397   66.6711   65.0155 C   0  0  0  0  0  0
    4.1735   64.8322   64.2561 N   0  3  0  0  0  0
    3.5755   64.0386   64.9788 O   0  5  0  0  0  0
    5.1414   64.5101   63.5681 O   0  0  0  0  0  0
   -1.0446   68.8718   67.1648 S   0  0  0  0  0  0
    2.3475   57.1417   73.1182 H   0  0  0  0  0  0
    1.7573   57.2396   70.7157 H   0  0  0  0  0  0
    2.6220   59.0802   69.3110 H   0  0  0  0  0  0
    4.6665   60.7081   72.7283 H   0  0  0  0  0  0
    3.7951   58.8649   74.1225 H   0  0  0  0  0  0
    4.1887   60.9385   69.0253 H   0  0  0  0  0  0
    5.2408   61.3508   70.3753 H   0  0  0  0  0  0
    4.5428   63.6439   69.1250 H   0  0  0  0  0  0
    5.0787   63.5712   70.7874 H   0  0  0  0  0  0
    3.9708   65.7143   70.3665 H   0  0  0  0  0  0
    3.1100   64.8666   71.5680 H   0  0  0  0  0  0
    2.4102   64.9056   68.6113 H   0  0  0  0  0  0
    0.9312   63.6297   70.9985 H   0  0  0  0  0  0
    0.3630   63.6245   69.3810 H   0  0  0  0  0  0
    2.2740   62.2767   68.5790 H   0  0  0  0  0  0
    1.5347   61.4885   69.9511 H   0  0  0  0  0  0
    1.9397   67.0806   69.9699 H   0  0  0  0  0  0
    0.7698   66.1646   70.8508 H   0  0  0  0  0  0
   -0.4558   67.3002   69.2020 H   0  0  0  0  0  0
   -0.4129   65.6641   68.6080 H   0  0  0  0  0  0
    0.6551   69.2854   65.3299 H   0  0  0  0  0  0
    2.4091   69.8978   63.9877 H   0  0  0  0  0  0
    4.2891   69.1818   62.5862 H   0  0  0  0  0  0
    5.1239   66.8836   62.6976 H   0  0  0  0  0  0
    2.1672   65.9631   65.6784 H   0  0  0  0  0  0
   -1.0284   69.5872   66.0394 H   0  0  0  0  0  0
  1  6  1  0  0  0
  1  2  2  0  0  0
  1 29  1  0  0  0
  2  3  1  0  0  0
  2 30  1  0  0  0
  3  4  2  0  0  0
  3 31  1  0  0  0
  4  5  1  0  0  0
  4  7  1  0  0  0
  5  6  2  0  0  0
  5 32  1  0  0  0
  6 33  1  0  0  0
  7  8  1  0  0  0
  7 34  1  0  0  0
  7 35  1  0  0  0
  8 13  1  0  0  0
  8  9  1  0  0  0
  9 10  1  0  0  0
  9 36  1  0  0  0
  9 37  1  0  0  0
 10 11  1  0  0  0
 10 38  1  0  0  0
 10 39  1  0  0  0
 11 12  1  0  0  0
 11 14  1  0  0  0
 11 40  1  0  0  0
 12 13  1  0  0  0
 12 41  1  0  0  0
 12 42  1  0  0  0
 13 43  1  0  0  0
 13 44  1  0  0  0
 14 15  1  0  0  0
 14 45  1  0  0  0
 14 46  1  0  0  0
 15 16  1  0  0  0
 15 47  1  0  0  0
 15 48  1  0  0  0
 16 17  2  0  0  0
 17 18  1  0  0  0
 17 28  1  0  0  0
 18 19  1  0  0  0
 18 49  1  0  0  0
 19 24  1  0  0  0
 19 20  2  0  0  0
 20 21  1  0  0  0
 20 50  1  0  0  0
 21 22  2  0  0  0
 21 51  1  0  0  0
 22 23  1  0  0  0
 22 52  1  0  0  0
 23 24  2  0  0  0
 23 25  1  0  0  0
 24 53  1  0  0  0
 25 26  1  0  0  0
 25 27  2  0  0  0
 28 54  1  0  0  0
M  CHG  2  25   1  26  -1
M  END
> <s_m_entry_id>
9836

> <s_m_entry_name>
ligand_docking-pose.278

> <s_m_Source_Path>
/home/csk/Desktop/cluster/DUD-E-result/aces

> <s_m_Source_File>
ligand_docking-pose.sdf

> <i_m_Source_File_Index>
278

> <i_lp_mmshare_version>
53161

> <r_lp_tautomer_probability>
1

> <s_lp_Force_Field>
OPLS_2005

> <r_lp_Energy>
27.474834

> <b_lp_Chiralities_Consistent>
1

> <s_lp_Variant>
267488-1

> <s_i_glide_gridfile>
glide-grid_1e66

> <i_i_glide_lignum>
422

> <i_i_glide_rotatable_bonds>
9

> <r_i_docking_score>
-7.17545968853235

> <r_i_glide_ligand_efficiency>
-0.256266417447584

> <r_i_glide_ligand_efficiency_sa>
-0.778175776219071

> <r_i_glide_ligand_efficiency_ln>
-1.65630677676437

> <r_i_glide_gscore>
-7.17545968853235

> <r_i_glide_lipo>
-3.17161790474147

> <r_i_glide_hbond>
0

> <r_i_glide_metal>
0

> <r_i_glide_rewards>
-2.53681556735212

> <r_i_glide_evdw>
-49.3581123352051

> <r_i_glide_ecoul>
0.383987933397293

> <r_i_glide_erotb>
0.986547477370358

> <r_i_glide_esite>
-0.0432662670584504

> <r_i_glide_emodel>
-66.8765477148307

> <r_i_glide_energy>
-48.9741244018078

> <r_i_glide_einternal>
5.75049591064453

> <i_i_glide_confnum>
115

> <i_i_glide_posenum>
40

> <r_i_glide_eff_state_penalty>
0

> <i_f3d_flags>
0

> <s_user_duplicate_titles>
267488

> <s_m_subgroup_title>
dock_pv

> <s_m_subgroupid>
dock_pv1

> <b_m_subgroup_collapsed>
1

$$$$
569627
                    3D
 Schrodinger Suite 2021-1.
 43 46  0  0  1  0            999 V2000
   -0.1188   69.6448   62.0110 C   0  0  0  0  0  0
    0.3415   68.7774   63.1635 C   0  0  0  0  0  0
   -0.4202   68.5104   64.2470 C   0  0  0  0  0  0
    0.0684   67.7066   65.4503 C   0  0  2  0  0  0
    0.7199   68.6285   66.5145 C   0  0  0  0  0  0
    2.2147   68.8959   66.2781 C   0  0  0  0  0  0
    2.9259   68.2723   65.2273 C   0  0  0  0  0  0
    4.2987   68.4778   65.1020 C   0  0  0  0  0  0
    4.9338   69.3083   66.0369 C   0  0  0  0  0  0
    6.3206   69.5020   66.0174 C   0  0  0  0  0  0
    6.9018   70.2824   66.9787 C   0  0  0  0  0  0
    6.1773   70.8750   67.9834 C   0  0  0  0  0  0
    4.7970   70.7272   68.0419 C   0  0  0  0  0  0
    4.1557   69.9256   67.0650 C   0  0  0  0  0  0
    2.8225   69.7080   67.1720 N   0  0  0  0  0  0
    7.0773   71.7083   69.1679 Cl  0  0  0  0  0  0
    5.0464   67.7950   64.1166 N   0  0  0  0  0  0
    5.2518   68.4279   62.8173 C   0  0  0  0  0  0
    5.4293   69.9521   62.8382 C   0  0  0  0  0  0
    5.5276   70.5093   61.1679 Cl  0  0  0  0  0  0
    2.2017   67.3809   64.2534 C   0  0  1  0  0  0
    1.0893   66.6405   64.9739 C   0  0  0  0  0  0
    1.7528   68.2311   63.0267 C   0  0  0  0  0  0
   -0.0567   69.0870   61.0761 H   0  0  0  0  0  0
   -1.1369   70.0139   62.1497 H   0  0  0  0  0  0
    0.5348   70.5084   61.9184 H   0  0  0  0  0  0
   -1.4125   68.9366   64.2883 H   0  0  0  0  0  0
   -0.7956   67.2054   65.8887 H   0  0  0  0  0  0
    0.6364   68.1375   67.4856 H   0  0  0  0  0  0
    0.1677   69.5641   66.6145 H   0  0  0  0  0  0
    6.9304   69.0042   65.2810 H   0  0  0  0  0  0
    7.9430   70.4207   66.9529 H   0  0  0  0  0  0
    4.2190   71.1737   68.8379 H   0  0  0  0  0  0
    4.7971   66.8227   64.0177 H   0  0  0  0  0  0
    4.4055   68.1835   62.1747 H   0  0  0  0  0  0
    6.1369   67.9875   62.3542 H   0  0  0  0  0  0
    6.3419   70.2581   63.3485 H   0  0  0  0  0  0
    4.5851   70.4676   63.2984 H   0  0  0  0  0  0
    2.9051   66.6148   63.9348 H   0  0  0  0  0  0
    0.7430   65.8418   64.3395 H   0  0  0  0  0  0
    1.4912   66.1157   65.8426 H   0  0  0  0  0  0
    2.4354   69.0631   62.8480 H   0  0  0  0  0  0
    1.8061   67.7080   62.0822 H   0  0  0  0  0  0
  1  2  1  0  0  0
  1 24  1  0  0  0
  1 25  1  0  0  0
  1 26  1  0  0  0
  2 23  1  0  0  0
  2  3  2  0  0  0
  3  4  1  0  0  0
  3 27  1  0  0  0
  4 22  1  0  0  0
  4  5  1  0  0  0
  4 28  1  0  0  0
  5  6  1  0  0  0
  5 29  1  0  0  0
  5 30  1  0  0  0
  6 15  2  0  0  0
  6  7  1  0  0  0
  7  8  2  0  0  0
  7 21  1  0  0  0
  8  9  1  0  0  0
  8 17  1  0  0  0
  9 14  2  0  0  0
  9 10  1  0  0  0
 10 11  2  0  0  0
 10 31  1  0  0  0
 11 12  1  0  0  0
 11 32  1  0  0  0
 12 13  2  0  0  0
 12 16  1  0  0  0
 13 14  1  0  0  0
 13 33  1  0  0  0
 14 15  1  0  0  0
 17 18  1  0  0  0
 17 34  1  0  0  0
 18 19  1  0  0  0
 18 35  1  0  0  0
 18 36  1  0  0  0
 19 20  1  0  0  0
 19 37  1  0  0  0
 19 38  1  0  0  0
 21 22  1  0  0  0
 21 23  1  0  0  0
 21 39  1  0  0  0
 22 40  1  0  0  0
 22 41  1  0  0  0
 23 42  1  0  0  0
 23 43  1  0  0  0
M  END
> <s_m_entry_id>
9837

> <s_m_entry_name>
ligand_docking-pose.279

> <s_m_Source_Path>
/home/csk/Desktop/cluster/DUD-E-result/aces

> <s_m_Source_File>
ligand_docking-pose.sdf

> <i_m_Source_File_Index>
279

> <i_lp_mmshare_version>
53161

> <r_lp_tautomer_probability>
1

> <s_lp_Force_Field>
OPLS_2005

> <r_lp_Energy>
24.520871

> <b_lp_Chiralities_Consistent>
1

> <s_lp_Variant>
569627-1

> <s_i_glide_gridfile>
glide-grid_1e66

> <i_i_glide_lignum>
612

> <i_i_glide_rotatable_bonds>
3

> <r_i_docking_score>
-7.17524215776289

> <r_i_glide_ligand_efficiency>
-0.311967050337517

> <r_i_glide_ligand_efficiency_sa>
-0.887192792329294

> <r_i_glide_ligand_efficiency_ln>
-1.73503861524584

> <r_i_glide_gscore>
-7.17524215776289

> <r_i_glide_lipo>
-3.96456532194338

> <r_i_glide_hbond>
0

> <r_i_glide_metal>
0

> <r_i_glide_rewards>
-1.82309617876988

> <r_i_glide_evdw>
-32.5686340332031

> <r_i_glide_ecoul>
-0.497347176074982

> <r_i_glide_erotb>
0.315453121021769

> <r_i_glide_esite>
0

> <r_i_glide_emodel>
-34.8583499537167

> <r_i_glide_energy>
-33.0659812092781

> <r_i_glide_einternal>
4.59307193756104

> <i_i_glide_confnum>
7

> <i_i_glide_posenum>
309

> <r_i_glide_eff_state_penalty>
0

> <i_f3d_flags>
0

> <s_user_duplicate_titles>
569627

> <s_m_subgroup_title>
dock_pv

> <s_m_subgroupid>
dock_pv1

> <b_m_subgroup_collapsed>
1

$$$$
245487
                    3D
 Schrodinger Suite 2021-1.
 33 34  0  0  1  0            999 V2000
    4.7240   69.7064   61.5756 C   0  0  0  0  0  0
    4.5429   68.8864   62.8726 N   0  3  0  0  0  0
    5.2782   69.6488   63.9957 C   0  0  0  0  0  0
    4.8943   69.0980   65.3736 C   0  0  0  0  0  0
    3.4803   69.0376   65.5676 O   0  0  0  0  0  0
    2.7468   68.2610   64.6511 C   0  0  2  0  0  0
    3.0306   68.7551   63.2064 C   0  0  0  0  0  0
    1.2510   68.3711   65.0610 C   0  0  0  0  0  0
    0.2206   68.4451   64.1115 C   0  0  0  0  0  0
   -1.1075   68.5080   64.5232 C   0  0  0  0  0  0
   -1.4219   68.5086   65.8796 C   0  0  0  0  0  0
   -0.4105   68.4462   66.8331 C   0  0  0  0  0  0
    0.9173   68.3734   66.4256 C   0  0  0  0  0  0
   -3.0741   68.5814   66.3748 Cl  0  0  0  0  0  0
    3.0766   66.9325   64.7314 O   0  0  0  0  0  0
    5.1822   67.5000   62.6206 C   0  0  0  0  0  0
    4.1777   69.2049   60.7756 H   0  0  0  0  0  0
    4.3387   70.6992   61.7477 H   0  0  0  0  0  0
    5.7876   69.7492   61.3454 H   0  0  0  0  0  0
    4.9732   70.6951   63.9271 H   0  0  0  0  0  0
    6.3429   69.5895   63.7934 H   0  0  0  0  0  0
    5.3009   69.7544   66.1433 H   0  0  0  0  0  0
    5.3482   68.1251   65.5674 H   0  0  0  0  0  0
    2.6106   69.7571   63.1042 H   0  0  0  0  0  0
    2.5798   68.0979   62.4640 H   0  0  0  0  0  0
    0.4231   68.4352   63.0516 H   0  0  0  0  0  0
   -1.8980   68.5619   63.7889 H   0  0  0  0  0  0
   -0.6550   68.4497   67.8856 H   0  0  0  0  0  0
    1.6902   68.3206   67.1783 H   0  0  0  0  0  0
    2.8983   66.6618   65.6344 H   0  0  0  0  0  0
    4.5930   66.9956   61.8545 H   0  0  0  0  0  0
    6.1990   67.6663   62.2604 H   0  0  0  0  0  0
    5.2015   66.9324   63.5444 H   0  0  0  0  0  0
  1  2  1  0  0  0
  1 17  1  0  0  0
  1 18  1  0  0  0
  1 19  1  0  0  0
  2  7  1  0  0  0
  2  3  1  0  0  0
  2 16  1  0  0  0
  3  4  1  0  0  0
  3 20  1  0  0  0
  3 21  1  0  0  0
  4  5  1  0  0  0
  4 22  1  0  0  0
  4 23  1  0  0  0
  5  6  1  0  0  0
  6  7  1  0  0  0
  6  8  1  0  0  0
  6 15  1  0  0  0
  7 24  1  0  0  0
  7 25  1  0  0  0
  8 13  1  0  0  0
  8  9  2  0  0  0
  9 10  1  0  0  0
  9 26  1  0  0  0
 10 11  2  0  0  0
 10 27  1  0  0  0
 11 12  1  0  0  0
 11 14  1  0  0  0
 12 13  2  0  0  0
 12 28  1  0  0  0
 13 29  1  0  0  0
 15 30  1  0  0  0
 16 31  1  0  0  0
 16 32  1  0  0  0
 16 33  1  0  0  0
M  CHG  1   2   1
M  END
> <s_m_entry_id>
9840

> <s_m_entry_name>
ligand_docking-pose.282

> <s_m_Source_Path>
/home/csk/Desktop/cluster/DUD-E-result/aces

> <s_m_Source_File>
ligand_docking-pose.sdf

> <i_m_Source_File_Index>
282

> <i_lp_mmshare_version>
53161

> <r_lp_tautomer_probability>
1

> <s_lp_Force_Field>
OPLS_2005

> <r_lp_Energy>
27.026966

> <b_lp_Chiralities_Consistent>
1

> <s_lp_Variant>
245487-1

> <s_i_glide_gridfile>
glide-grid_1e66

> <i_i_glide_lignum>
1679

> <i_i_glide_rotatable_bonds>
2

> <r_i_docking_score>
-7.16968366980676

> <r_i_glide_ligand_efficiency>
-0.448105229362922

> <r_i_glide_ligand_efficiency_sa>
-1.12915442104107

> <r_i_glide_ligand_efficiency_ln>
-1.90046787436456

> <r_i_glide_gscore>
-7.16968366980676

> <r_i_glide_lipo>
-2.34931055040004

> <r_i_glide_hbond>
0

> <r_i_glide_metal>
0

> <r_i_glide_rewards>
-3.26165397090612

> <r_i_glide_evdw>
-28.8275413513184

> <r_i_glide_ecoul>
-2.7457537651062

> <r_i_glide_erotb>
0.294520983831243

> <r_i_glide_esite>
0

> <r_i_glide_emodel>
-49.2145621653548

> <r_i_glide_energy>
-31.5732951164246

> <r_i_glide_einternal>
0.869734823703766

> <i_i_glide_confnum>
2

> <i_i_glide_posenum>
313

> <r_i_glide_eff_state_penalty>
0

> <i_f3d_flags>
0

> <s_user_duplicate_titles>
245487

> <s_m_subgroup_title>
dock_pv

> <s_m_subgroupid>
dock_pv1

> <b_m_subgroup_collapsed>
1

$$$$
676815
                    3D
 Schrodinger Suite 2021-1.
 62 65  0  0  1  0            999 V2000
    5.2213   69.8258   65.3510 C   0  0  0  0  0  0
    3.9115   69.0265   65.2024 C   0  0  0  0  0  0
    3.2951   68.9278   63.7966 C   0  0  0  0  0  0
    4.0790   69.2602   62.6784 C   0  0  0  0  0  0
    3.5426   69.2479   61.3970 C   0  0  0  0  0  0
    2.2092   68.9079   61.2110 C   0  0  0  0  0  0
    1.4255   68.5480   62.3025 C   0  0  0  0  0  0
    1.9435   68.5318   63.6053 C   0  0  0  0  0  0
    1.0286   68.1078   64.7137 C   0  0  0  0  0  0
   -0.3130   68.5101   64.7750 C   0  0  0  0  0  0
   -1.0798   68.1423   65.8767 C   0  0  0  0  0  0
   -0.4911   67.3330   66.8433 C   0  0  0  0  0  0
    0.8021   66.9211   66.7239 N   0  0  0  0  0  0
    1.5462   67.2968   65.6757 N   0  0  0  0  0  0
   -1.2772   66.9062   67.9261 N   0  0  0  0  0  0
   -0.7621   65.9369   68.8814 C   0  0  0  0  0  0
   -0.0693   66.5079   70.1236 C   0  0  0  0  0  0
    0.9692   65.5332   70.7322 C   0  0  0  0  0  0
    0.5402   64.0523   70.8544 C   0  0  0  0  0  0
    1.6522   63.1752   71.4783 C   0  0  0  0  0  0
    2.9169   63.2740   70.7245 N   0  0  1  0  0  0
    3.3857   64.6578   70.5913 C   0  0  0  0  0  0
    2.3083   65.5658   69.9710 C   0  0  0  0  0  0
    3.9768   62.4386   71.3027 C   0  0  0  0  0  0
    3.7466   60.9502   71.0782 C   0  0  0  0  0  0
    3.7521   60.0682   72.1619 C   0  0  0  0  0  0
    3.5430   58.7077   71.9503 C   0  0  0  0  0  0
    3.3396   58.2362   70.6561 C   0  0  0  0  0  0
    3.3557   59.1058   69.5681 C   0  0  0  0  0  0
    3.5671   60.4632   69.7807 C   0  0  0  0  0  0
    5.5074   69.8949   66.4028 H   0  0  0  0  0  0
    6.0497   69.3494   64.8264 H   0  0  0  0  0  0
    5.1182   70.8458   64.9755 H   0  0  0  0  0  0
    3.1744   69.4882   65.8614 H   0  0  0  0  0  0
    4.0831   68.0165   65.5714 H   0  0  0  0  0  0
    5.1142   69.5486   62.7807 H   0  0  0  0  0  0
    4.1646   69.5093   60.5512 H   0  0  0  0  0  0
    1.7796   68.9057   60.2204 H   0  0  0  0  0  0
    0.4004   68.2568   62.1225 H   0  0  0  0  0  0
   -0.7455   69.1425   64.0133 H   0  0  0  0  0  0
   -2.1101   68.4562   65.9561 H   0  0  0  0  0  0
   -2.1205   67.4171   68.1487 H   0  0  0  0  0  0
   -1.5357   65.2415   69.1619 H   0  0  0  0  0  0
   -0.0551   65.3079   68.3680 H   0  0  0  0  0  0
    0.4356   67.4405   69.8666 H   0  0  0  0  0  0
   -0.8188   66.7918   70.8651 H   0  0  0  0  0  0
    1.1429   65.8716   71.7466 H   0  0  0  0  0  0
   -0.3702   63.9834   71.4496 H   0  0  0  0  0  0
    0.2586   63.6279   69.8904 H   0  0  0  0  0  0
    1.8270   63.4601   72.5192 H   0  0  0  0  0  0
    1.3189   62.1355   71.4976 H   0  0  0  0  0  0
    3.6995   65.0225   71.5666 H   0  0  0  0  0  0
    4.2763   64.6819   69.9596 H   0  0  0  0  0  0
    2.1777   65.3101   68.9186 H   0  0  0  0  0  0
    2.6760   66.5905   69.9682 H   0  0  0  0  0  0
    4.9479   62.6808   70.8652 H   0  0  0  0  0  0
    4.0740   62.6481   72.3681 H   0  0  0  0  0  0
    3.9054   60.4319   73.1684 H   0  0  0  0  0  0
    3.5366   58.0204   72.7853 H   0  0  0  0  0  0
    3.1628   57.1827   70.4937 H   0  0  0  0  0  0
    3.1763   58.7332   68.5712 H   0  0  0  0  0  0
    3.5671   61.1494   68.9471 H   0  0  0  0  0  0
  1  2  1  0  0  0
  1 31  1  0  0  0
  1 32  1  0  0  0
  1 33  1  0  0  0
  2  3  1  0  0  0
  2 34  1  0  0  0
  2 35  1  0  0  0
  3  8  1  0  0  0
  3  4  2  0  0  0
  4  5  1  0  0  0
  4 36  1  0  0  0
  5  6  2  0  0  0
  5 37  1  0  0  0
  6  7  1  0  0  0
  6 38  1  0  0  0
  7  8  2  0  0  0
  7 39  1  0  0  0
  8  9  1  0  0  0
  9 14  1  0  0  0
  9 10  2  0  0  0
 10 11  1  0  0  0
 10 40  1  0  0  0
 11 12  2  0  0  0
 11 41  1  0  0  0
 12 13  1  0  0  0
 12 15  1  0  0  0
 13 14  2  0  0  0
 15 16  1  0  0  0
 15 42  1  0  0  0
 16 17  1  0  0  0
 16 43  1  0  0  0
 16 44  1  0  0  0
 17 18  1  0  0  0
 17 45  1  0  0  0
 17 46  1  0  0  0
 18 23  1  0  0  0
 18 19  1  0  0  0
 18 47  1  0  0  0
 19 20  1  0  0  0
 19 48  1  0  0  0
 19 49  1  0  0  0
 20 21  1  0  0  0
 20 50  1  0  0  0
 20 51  1  0  0  0
 21 22  1  0  0  0
 21 24  1  0  0  0
 22 23  1  0  0  0
 22 52  1  0  0  0
 22 53  1  0  0  0
 23 54  1  0  0  0
 23 55  1  0  0  0
 24 25  1  0  0  0
 24 56  1  0  0  0
 24 57  1  0  0  0
 25 30  1  0  0  0
 25 26  2  0  0  0
 26 27  1  0  0  0
 26 58  1  0  0  0
 27 28  2  0  0  0
 27 59  1  0  0  0
 28 29  1  0  0  0
 28 60  1  0  0  0
 29 30  2  0  0  0
 29 61  1  0  0  0
 30 62  1  0  0  0
M  END
> <s_m_entry_id>
9841

> <s_m_entry_name>
ligand_docking-pose.283

> <s_m_Source_Path>
/home/csk/Desktop/cluster/DUD-E-result/aces

> <s_m_Source_File>
ligand_docking-pose.sdf

> <i_m_Source_File_Index>
283

> <i_lp_mmshare_version>
53161

> <r_lp_tautomer_probability>
0.999978240473126

> <s_lp_Force_Field>
OPLS_2005

> <r_lp_Energy>
39.660274

> <b_lp_Chiralities_Consistent>
1

> <s_lp_Variant>
676815-1

> <s_i_glide_gridfile>
glide-grid_1e66

> <i_i_glide_lignum>
891

> <i_i_glide_rotatable_bonds>
8

> <r_i_docking_score>
-7.16955558747292

> <r_i_glide_ligand_efficiency>
-0.238985186249097

> <r_i_glide_ligand_efficiency_sa>
-0.742582538312743

> <r_i_glide_ligand_efficiency_ln>
-1.62900114803878

> <r_i_glide_gscore>
-7.16955558747292

> <r_i_glide_lipo>
-5.53282286851581

> <r_i_glide_hbond>
0

> <r_i_glide_metal>
0

> <r_i_glide_rewards>
0.121997999293977

> <r_i_glide_evdw>
-47.9511260986328

> <r_i_glide_ecoul>
-1.44347429275513

> <r_i_glide_erotb>
0.85534673059382

> <r_i_glide_esite>
0

> <r_i_glide_emodel>
-64.8973810965693

> <r_i_glide_energy>
-49.3946003913879

> <r_i_glide_einternal>
8.9993200302124

> <i_i_glide_confnum>
29

> <i_i_glide_posenum>
104

> <r_i_glide_eff_state_penalty>
0

> <i_f3d_flags>
0

> <s_user_duplicate_titles>
676815

> <s_m_subgroup_title>
dock_pv

> <s_m_subgroupid>
dock_pv1

> <b_m_subgroup_collapsed>
1

$$$$
174638
                    3D
 Schrodinger Suite 2021-1.
 62 64  0  0  1  0            999 V2000
   -1.6241   69.8252   66.9036 C   0  0  0  0  0  0
   -0.3885   69.3060   67.6464 C   0  0  0  0  0  0
   -0.3014   67.8422   67.5697 N   0  0  2  0  0  0
    0.5737   67.2448   68.5855 C   0  0  0  0  0  0
   -0.1303   66.0328   69.2230 C   0  0  0  0  0  0
    0.6418   65.3349   70.3707 C   0  0  0  0  0  0
    1.9285   64.6003   69.9334 C   0  0  0  0  0  0
    2.7069   63.8676   71.0482 C   0  0  0  0  0  0
    2.1066   62.5995   71.4846 N   0  0  0  0  0  0
    2.4651   61.3968   70.9611 C   0  0  0  0  0  0
    3.2745   61.1842   70.0550 O   0  0  0  0  0  0
    1.6749   60.3980   71.7257 C   0  0  0  0  0  0
    1.6325   59.0073   71.6480 C   0  0  0  0  0  0
    0.7766   58.3124   72.5090 C   0  0  0  0  0  0
   -0.0371   58.9996   73.4332 C   0  0  0  0  0  0
    0.0332   60.4032   73.4864 C   0  0  0  0  0  0
    0.9006   61.0745   72.6271 C   0  0  0  0  0  0
    1.1958   62.5201   72.4891 C   0  0  0  0  0  0
    0.7234   63.4477   73.1457 O   0  0  0  0  0  0
   -0.9505   58.2598   74.3347 N   0  3  0  0  0  0
   -1.7643   58.8980   74.9948 O   0  5  0  0  0  0
   -0.8595   57.0374   74.3780 O   0  0  0  0  0  0
   -0.2083   67.2607   66.2179 C   0  0  0  0  0  0
    0.7813   67.9393   65.2636 C   0  0  0  0  0  0
    0.4483   68.1079   63.9140 C   0  0  0  0  0  0
    1.3495   68.6930   63.0248 C   0  0  0  0  0  0
    2.5984   69.1162   63.4787 C   0  0  0  0  0  0
    2.9539   68.9354   64.8216 C   0  0  0  0  0  0
    2.0531   68.3292   65.6905 C   0  0  0  0  0  0
    4.1218   69.4099   65.3728 O   0  0  0  0  0  0
    5.3373   69.1589   64.8291 C   0  0  0  0  0  0
    5.5430   68.4808   63.8209 O   0  0  0  0  0  0
    6.3430   69.7649   65.5687 N   0  0  0  0  0  0
    6.1587   70.4218   66.8631 C   0  0  0  0  0  0
   -1.7711   70.8819   67.1298 H   0  0  0  0  0  0
   -1.5225   69.7082   65.8247 H   0  0  0  0  0  0
   -2.5259   69.2938   67.2052 H   0  0  0  0  0  0
   -0.4552   69.6298   68.6861 H   0  0  0  0  0  0
    0.5181   69.7689   67.2605 H   0  0  0  0  0  0
    0.8145   67.9609   69.3731 H   0  0  0  0  0  0
    1.5350   66.9396   68.1739 H   0  0  0  0  0  0
   -0.3599   65.3066   68.4478 H   0  0  0  0  0  0
   -1.0981   66.3668   69.5966 H   0  0  0  0  0  0
   -0.0328   64.6137   70.8318 H   0  0  0  0  0  0
    0.8733   66.0603   71.1508 H   0  0  0  0  0  0
    2.6003   65.3231   69.4770 H   0  0  0  0  0  0
    1.6903   63.8693   69.1680 H   0  0  0  0  0  0
    2.8156   64.5079   71.9209 H   0  0  0  0  0  0
    3.7292   63.6873   70.7060 H   0  0  0  0  0  0
    2.2413   58.4636   70.9416 H   0  0  0  0  0  0
    0.7437   57.2338   72.4484 H   0  0  0  0  0  0
   -0.5694   60.9586   74.1937 H   0  0  0  0  0  0
    0.0069   66.1917   66.2677 H   0  0  0  0  0  0
   -1.2010   67.3121   65.7692 H   0  0  0  0  0  0
   -0.5178   67.7901   63.5507 H   0  0  0  0  0  0
    1.0721   68.8256   61.9880 H   0  0  0  0  0  0
    3.2829   69.6058   62.8009 H   0  0  0  0  0  0
    2.3438   68.2184   66.7224 H   0  0  0  0  0  0
    7.2809   69.7188   65.1796 H   0  0  0  0  0  0
    7.1262   70.7237   67.2634 H   0  0  0  0  0  0
    5.5385   71.3131   66.7675 H   0  0  0  0  0  0
    5.6918   69.7461   67.5818 H   0  0  0  0  0  0
  1  2  1  0  0  0
  1 35  1  0  0  0
  1 36  1  0  0  0
  1 37  1  0  0  0
  2  3  1  0  0  0
  2 38  1  0  0  0
  2 39  1  0  0  0
  3  4  1  0  0  0
  3 23  1  0  0  0
  4  5  1  0  0  0
  4 40  1  0  0  0
  4 41  1  0  0  0
  5  6  1  0  0  0
  5 42  1  0  0  0
  5 43  1  0  0  0
  6  7  1  0  0  0
  6 44  1  0  0  0
  6 45  1  0  0  0
  7  8  1  0  0  0
  7 46  1  0  0  0
  7 47  1  0  0  0
  8  9  1  0  0  0
  8 48  1  0  0  0
  8 49  1  0  0  0
  9 18  1  0  0  0
  9 10  1  0  0  0
 10 11  2  0  0  0
 10 12  1  0  0  0
 12 17  2  0  0  0
 12 13  1  0  0  0
 13 14  2  0  0  0
 13 50  1  0  0  0
 14 15  1  0  0  0
 14 51  1  0  0  0
 15 16  2  0  0  0
 15 20  1  0  0  0
 16 17  1  0  0  0
 16 52  1  0  0  0
 17 18  1  0  0  0
 18 19  2  0  0  0
 20 21  1  0  0  0
 20 22  2  0  0  0
 23 24  1  0  0  0
 23 53  1  0  0  0
 23 54  1  0  0  0
 24 29  1  0  0  0
 24 25  2  0  0  0
 25 26  1  0  0  0
 25 55  1  0  0  0
 26 27  2  0  0  0
 26 56  1  0  0  0
 27 28  1  0  0  0
 27 57  1  0  0  0
 28 29  2  0  0  0
 28 30  1  0  0  0
 29 58  1  0  0  0
 30 31  1  0  0  0
 31 32  2  0  0  0
 31 33  1  0  0  0
 33 34  1  0  0  0
 33 59  1  0  0  0
 34 60  1  0  0  0
 34 61  1  0  0  0
 34 62  1  0  0  0
M  CHG  2  20   1  21  -1
M  END
> <s_m_entry_id>
9842

> <s_m_entry_name>
ligand_docking-pose.284

> <s_m_Source_Path>
/home/csk/Desktop/cluster/DUD-E-result/aces

> <s_m_Source_File>
ligand_docking-pose.sdf

> <i_m_Source_File_Index>
284

> <i_lp_mmshare_version>
53161

> <r_lp_tautomer_probability>
1

> <s_lp_Force_Field>
OPLS_2005

> <r_lp_Energy>
47.426133

> <b_lp_Chiralities_Consistent>
1

> <s_lp_Variant>
174638-1

> <s_i_glide_gridfile>
glide-grid_1e66

> <i_i_glide_lignum>
1330

> <i_i_glide_rotatable_bonds>
13

> <r_i_docking_score>
-7.16336602866269

> <r_i_glide_ligand_efficiency>
-0.210687236137138

> <r_i_glide_ligand_efficiency_sa>
-0.682544855766108

> <r_i_glide_ligand_efficiency_ln>
-1.58258848134289

> <r_i_glide_gscore>
-7.16336602866269

> <r_i_glide_lipo>
-3.63447124627401

> <r_i_glide_hbond>
-0.32

> <r_i_glide_metal>
0

> <r_i_glide_rewards>
-0.215509449134805

> <r_i_glide_evdw>
-50.1848602294922

> <r_i_glide_ecoul>
-9.25339221954346

> <r_i_glide_erotb>
0.919860769206597

> <r_i_glide_esite>
-0.0159942580543378

> <r_i_glide_emodel>
-69.9790862636417

> <r_i_glide_energy>
-59.4382524490356

> <r_i_glide_einternal>
17.1681594848633

> <i_i_glide_confnum>
59

> <i_i_glide_posenum>
262

> <r_i_glide_eff_state_penalty>
0

> <i_f3d_flags>
0

> <s_user_duplicate_titles>
174638

> <s_m_subgroup_title>
dock_pv

> <s_m_subgroupid>
dock_pv1

> <b_m_subgroup_collapsed>
1

$$$$
591796
                    3D
 Schrodinger Suite 2021-1.
 49 51  0  0  1  0            999 V2000
    0.6881   69.8233   62.1285 C   0  0  0  0  0  0
    1.1145   68.5982   62.9547 C   0  0  0  0  0  0
    1.9432   68.9198   64.1325 N   0  0  0  0  0  0
    3.3049   69.4149   63.8990 C   0  0  0  0  0  0
    4.3364   68.2854   63.7663 C   0  0  0  0  0  0
    1.5756   68.5036   65.4448 C   0  0  0  0  0  0
    0.7337   67.4073   65.6206 C   0  0  0  0  0  0
    0.4688   66.9079   66.8841 C   0  0  0  0  0  0
    1.0996   67.4248   68.0092 C   0  0  0  0  0  0
    1.7869   68.6370   67.8808 C   0  0  0  0  0  0
    2.0472   69.1518   66.6039 C   0  0  0  0  0  0
    1.1413   66.5496   69.2138 C   0  0  0  0  0  0
    0.4241   66.7173   70.3263 C   0  0  0  0  0  0
    0.3428   65.7002   71.3800 C   0  0  0  0  0  0
   -0.3860   65.7613   72.3711 O   0  0  0  0  0  0
    1.2870   64.5575   71.1706 C   0  0  0  0  0  0
    1.4426   63.5255   72.1068 C   0  0  0  0  0  0
    2.4419   62.5426   71.9536 C   0  0  0  0  0  0
    3.2743   62.5941   70.8176 C   0  0  0  0  0  0
    3.0731   63.5777   69.8518 C   0  0  0  0  0  0
    2.0895   64.5433   70.0309 C   0  0  0  0  0  0
    1.9429   65.4746   69.0271 O   0  0  0  0  0  0
    4.2901   61.6928   70.5835 O   0  0  0  0  0  0
    5.2809   61.5657   71.5990 C   0  0  0  0  0  0
    2.6555   61.5286   72.8716 O   0  0  0  0  0  0
    2.0145   61.5833   74.1416 C   0  0  0  0  0  0
   -0.0297   69.5330   61.3597 H   0  0  0  0  0  0
    1.5174   70.3023   61.6063 H   0  0  0  0  0  0
    0.1937   70.5640   62.7584 H   0  0  0  0  0  0
    0.1885   68.0984   63.2272 H   0  0  0  0  0  0
    1.6568   67.9010   62.3157 H   0  0  0  0  0  0
    3.3257   70.0343   63.0022 H   0  0  0  0  0  0
    3.6254   70.0846   64.6954 H   0  0  0  0  0  0
    5.3335   68.6934   63.5941 H   0  0  0  0  0  0
    4.3797   67.6800   64.6724 H   0  0  0  0  0  0
    4.1000   67.6290   62.9286 H   0  0  0  0  0  0
    0.3424   66.8573   64.7858 H   0  0  0  0  0  0
   -0.1330   66.0178   66.9628 H   0  0  0  0  0  0
    2.2399   69.0981   68.7472 H   0  0  0  0  0  0
    2.6523   70.0410   66.5322 H   0  0  0  0  0  0
   -0.0530   67.6735   70.3802 H   0  0  0  0  0  0
    0.8059   63.5190   72.9803 H   0  0  0  0  0  0
    3.6934   63.6046   68.9700 H   0  0  0  0  0  0
    6.2156   61.2289   71.1499 H   0  0  0  0  0  0
    5.4882   62.5037   72.1151 H   0  0  0  0  0  0
    4.9970   60.8150   72.3358 H   0  0  0  0  0  0
    2.3875   60.7717   74.7681 H   0  0  0  0  0  0
    2.2261   62.5196   74.6615 H   0  0  0  0  0  0
    0.9332   61.4588   74.0486 H   0  0  0  0  0  0
  1  2  1  0  0  0
  1 27  1  0  0  0
  1 28  1  0  0  0
  1 29  1  0  0  0
  2  3  1  0  0  0
  2 30  1  0  0  0
  2 31  1  0  0  0
  3  4  1  0  0  0
  3  6  1  0  0  0
  4  5  1  0  0  0
  4 32  1  0  0  0
  4 33  1  0  0  0
  5 34  1  0  0  0
  5 35  1  0  0  0
  5 36  1  0  0  0
  6 11  1  0  0  0
  6  7  2  0  0  0
  7  8  1  0  0  0
  7 37  1  0  0  0
  8  9  2  0  0  0
  8 38  1  0  0  0
  9 10  1  0  0  0
  9 12  1  0  0  0
 10 11  2  0  0  0
 10 39  1  0  0  0
 11 40  1  0  0  0
 12 22  1  0  0  0
 12 13  2  0  0  0
 13 14  1  0  0  0
 13 41  1  0  0  0
 14 15  2  0  0  0
 14 16  1  0  0  0
 16 21  2  0  0  0
 16 17  1  0  0  0
 17 18  2  0  0  0
 17 42  1  0  0  0
 18 19  1  0  0  0
 18 25  1  0  0  0
 19 20  2  0  0  0
 19 23  1  0  0  0
 20 21  1  0  0  0
 20 43  1  0  0  0
 21 22  1  0  0  0
 23 24  1  0  0  0
 24 44  1  0  0  0
 24 45  1  0  0  0
 24 46  1  0  0  0
 25 26  1  0  0  0
 26 47  1  0  0  0
 26 48  1  0  0  0
 26 49  1  0  0  0
M  END
> <s_m_entry_id>
9843

> <s_m_entry_name>
ligand_docking-pose.285

> <s_m_Source_Path>
/home/csk/Desktop/cluster/DUD-E-result/aces

> <s_m_Source_File>
ligand_docking-pose.sdf

> <i_m_Source_File_Index>
285

> <i_lp_mmshare_version>
53161

> <r_lp_tautomer_probability>
1

> <s_lp_Force_Field>
OPLS_2005

> <r_lp_Energy>
26.464364

> <b_lp_Chiralities_Consistent>
1

> <s_lp_Variant>
591796-1

> <s_i_glide_gridfile>
glide-grid_1e66

> <i_i_glide_lignum>
1245

> <i_i_glide_rotatable_bonds>
6

> <r_i_docking_score>
-7.16286650235915

> <r_i_glide_ligand_efficiency>
-0.275494865475352

> <r_i_glide_ligand_efficiency_sa>
-0.81615245495078

> <r_i_glide_ligand_efficiency_ln>
-1.68217569479704

> <r_i_glide_gscore>
-7.16286650235915

> <r_i_glide_lipo>
-3.5331410302047

> <r_i_glide_hbond>
-0.107312920756944

> <r_i_glide_metal>
0

> <r_i_glide_rewards>
-1.98885497960076

> <r_i_glide_evdw>
-23.3084869384766

> <r_i_glide_ecoul>
-4.4928183555603

> <r_i_glide_erotb>
0.305789528461116

> <r_i_glide_esite>
0

> <r_i_glide_emodel>
-25.8334289848551

> <r_i_glide_energy>
-27.8013052940369

> <r_i_glide_einternal>
14.5818386077881

> <i_i_glide_confnum>
1

> <i_i_glide_posenum>
111

> <r_i_glide_eff_state_penalty>
0

> <i_f3d_flags>
0

> <s_user_duplicate_titles>
591796

> <s_m_subgroup_title>
dock_pv

> <s_m_subgroupid>
dock_pv1

> <b_m_subgroup_collapsed>
1

$$$$
591748
                    3D
 Schrodinger Suite 2021-1.
 51 52  0  0  1  0            999 V2000
    5.0385   60.5599   71.5394 C   0  0  0  0  0  0
    4.2358   61.1648   72.7022 C   0  0  0  0  0  0
    2.8097   61.3631   72.4057 N   0  0  0  0  0  0
    1.8970   60.2718   72.7722 C   0  0  0  0  0  0
    1.5871   59.3101   71.6151 C   0  0  0  0  0  0
    2.3575   62.4739   71.6325 C   0  0  0  0  0  0
    3.2611   63.4324   71.1498 C   0  0  0  0  0  0
    2.8309   64.5078   70.3811 C   0  0  0  0  0  0
    1.4802   64.6631   70.0685 C   0  0  0  0  0  0
    0.5634   63.7268   70.5515 C   0  0  0  0  0  0
    0.9978   62.6503   71.3227 C   0  0  0  0  0  0
    1.0995   65.7719   69.1697 C   0  0  0  0  0  0
   -0.1378   66.1186   68.7504 C   0  0  0  0  0  0
   -0.3913   67.1562   67.7419 C   0  0  0  0  0  0
   -1.5358   67.3195   67.3238 O   0  0  0  0  0  0
    0.7538   67.8941   67.1219 C   0  0  0  0  0  0
    1.3920   68.9074   67.8398 C   0  0  0  0  0  0
    2.5516   69.5335   67.3471 C   0  0  0  0  0  0
    3.0365   69.1894   66.0771 C   0  0  0  0  0  0
    2.3742   68.1962   65.3431 C   0  0  0  0  0  0
    1.2637   67.5407   65.8677 C   0  0  0  0  0  0
    0.7430   66.5123   65.1388 O   0  0  0  0  0  0
    4.1823   69.8287   65.6374 O   0  0  0  0  0  0
    4.6845   69.5682   64.3319 C   0  0  0  0  0  0
    3.2852   70.4533   68.0730 O   0  0  0  0  0  0
    2.9589   70.6539   69.4367 C   0  0  0  0  0  0
    6.0967   60.5086   71.7953 H   0  0  0  0  0  0
    4.7039   59.5479   71.3152 H   0  0  0  0  0  0
    4.9480   61.1525   70.6294 H   0  0  0  0  0  0
    4.6873   62.1088   73.0090 H   0  0  0  0  0  0
    4.3408   60.5265   73.5796 H   0  0  0  0  0  0
    2.3103   59.7096   73.6110 H   0  0  0  0  0  0
    0.9668   60.6827   73.1655 H   0  0  0  0  0  0
    0.8823   58.5418   71.9325 H   0  0  0  0  0  0
    1.1428   59.8302   70.7678 H   0  0  0  0  0  0
    2.4852   58.8025   71.2649 H   0  0  0  0  0  0
    4.3180   63.3652   71.3473 H   0  0  0  0  0  0
    3.5648   65.2144   70.0200 H   0  0  0  0  0  0
   -0.4858   63.8047   70.3129 H   0  0  0  0  0  0
    0.2478   61.9512   71.6558 H   0  0  0  0  0  0
    1.9423   66.3233   68.7936 H   0  0  0  0  0  0
   -1.0128   65.6092   69.1205 H   0  0  0  0  0  0
    0.9971   69.1758   68.8058 H   0  0  0  0  0  0
    2.7353   67.8902   64.3739 H   0  0  0  0  0  0
   -0.2185   66.4219   65.1792 H   0  0  0  0  0  0
    5.5611   70.1918   64.1545 H   0  0  0  0  0  0
    4.9927   68.5278   64.2211 H   0  0  0  0  0  0
    3.9479   69.8110   63.5648 H   0  0  0  0  0  0
    3.6906   71.3081   69.9058 H   0  0  0  0  0  0
    2.9785   69.7081   69.9681 H   0  0  0  0  0  0
    1.9679   71.0950   69.5434 H   0  0  0  0  0  0
  1  2  1  0  0  0
  1 27  1  0  0  0
  1 28  1  0  0  0
  1 29  1  0  0  0
  2  3  1  0  0  0
  2 30  1  0  0  0
  2 31  1  0  0  0
  3  4  1  0  0  0
  3  6  1  0  0  0
  4  5  1  0  0  0
  4 32  1  0  0  0
  4 33  1  0  0  0
  5 34  1  0  0  0
  5 35  1  0  0  0
  5 36  1  0  0  0
  6 11  1  0  0  0
  6  7  2  0  0  0
  7  8  1  0  0  0
  7 37  1  0  0  0
  8  9  2  0  0  0
  8 38  1  0  0  0
  9 10  1  0  0  0
  9 12  1  0  0  0
 10 11  2  0  0  0
 10 39  1  0  0  0
 11 40  1  0  0  0
 12 13  2  0  0  0
 12 41  1  0  0  0
 13 14  1  0  0  0
 13 42  1  0  0  0
 14 15  2  0  0  0
 14 16  1  0  0  0
 16 21  1  0  0  0
 16 17  2  0  0  0
 17 18  1  0  0  0
 17 43  1  0  0  0
 18 19  2  0  0  0
 18 25  1  0  0  0
 19 20  1  0  0  0
 19 23  1  0  0  0
 20 21  2  0  0  0
 20 44  1  0  0  0
 21 22  1  0  0  0
 22 45  1  0  0  0
 23 24  1  0  0  0
 24 46  1  0  0  0
 24 47  1  0  0  0
 24 48  1  0  0  0
 25 26  1  0  0  0
 26 49  1  0  0  0
 26 50  1  0  0  0
 26 51  1  0  0  0
M  END
> <s_m_entry_id>
9844

> <s_m_entry_name>
ligand_docking-pose.286

> <s_m_Source_Path>
/home/csk/Desktop/cluster/DUD-E-result/aces

> <s_m_Source_File>
ligand_docking-pose.sdf

> <i_m_Source_File_Index>
286

> <i_lp_mmshare_version>
53161

> <r_lp_tautomer_probability>
1

> <s_lp_Force_Field>
OPLS_2005

> <r_lp_Energy>
33.476611

> <b_lp_Chiralities_Consistent>
1

> <s_lp_Variant>
591748-1

> <s_i_glide_gridfile>
glide-grid_1e66

> <i_i_glide_lignum>
1255

> <i_i_glide_rotatable_bonds>
9

> <r_i_docking_score>
-7.16038810114155

> <r_i_glide_ligand_efficiency>
-0.275399542351598

> <r_i_glide_ligand_efficiency_sa>
-0.815870060571737

> <r_i_glide_ligand_efficiency_ln>
-1.68159365040338

> <r_i_glide_gscore>
-7.16038810114155

> <r_i_glide_lipo>
-3.50319130511693

> <r_i_glide_hbond>
0

> <r_i_glide_metal>
0

> <r_i_glide_rewards>
-2.05776642096896

> <r_i_glide_evdw>
-37.7537422180176

> <r_i_glide_ecoul>
-2.11441278457642

> <r_i_glide_erotb>
0.605418653531685

> <r_i_glide_esite>
0

> <r_i_glide_emodel>
-49.2039296742186

> <r_i_glide_energy>
-39.868155002594

> <r_i_glide_einternal>
9.90286827087402

> <i_i_glide_confnum>
17

> <i_i_glide_posenum>
26

> <r_i_glide_eff_state_penalty>
0

> <i_f3d_flags>
0

> <s_user_duplicate_titles>
591748

> <s_m_subgroup_title>
dock_pv

> <s_m_subgroupid>
dock_pv1

> <b_m_subgroup_collapsed>
1

$$$$
630793
                    3D
 Schrodinger Suite 2021-1.
 51 54  0  0  1  0            999 V2000
    1.9575   64.5068   70.7447 C   0  0  0  0  0  0
    2.2234   65.8203   70.3678 C   0  0  0  0  0  0
    1.2954   66.5453   69.6264 C   0  0  0  0  0  0
    0.1321   65.9211   69.1767 C   0  0  0  0  0  0
   -0.1413   64.6126   69.5927 C   0  0  0  0  0  0
    0.7641   63.9021   70.3722 C   0  0  0  0  0  0
   -0.8317   66.6407   68.2219 C   0  0  0  0  0  0
   -0.1774   67.4066   67.1510 N   0  0  1  0  0  0
    0.5969   66.5079   66.3102 C   0  0  0  0  0  0
    1.3548   67.0941   65.1272 C   0  0  0  0  0  0
    0.6692   68.2755   64.4209 C   0  0  0  0  0  0
   -0.4855   68.9120   65.2598 C   0  0  0  0  0  0
   -1.1810   68.0319   66.3016 C   0  0  0  0  0  0
    1.5813   69.2290   63.5690 C   0  0  0  0  0  0
    2.8364   68.6295   62.8884 C   0  0  0  0  0  0
    4.0597   68.2172   63.7464 C   0  0  0  0  0  0
    4.7210   67.2663   63.3242 O   0  0  0  0  0  0
    4.5327   69.0448   64.9140 C   0  0  0  0  0  0
    5.9228   69.2382   65.0830 C   0  0  0  0  0  0
    6.4477   69.8833   66.2134 C   0  0  0  0  0  0
    5.5578   70.3179   67.1789 C   0  0  0  0  0  0
    4.2213   70.1080   67.0530 C   0  0  0  0  0  0
    3.6746   69.4931   65.9408 C   0  0  0  0  0  0
    3.5846   70.5079   68.1786 O   0  0  0  0  0  0
    4.5438   71.2127   68.9046 C   0  0  0  0  0  0
    5.8075   70.9143   68.3723 O   0  0  0  0  0  0
    2.6774   63.9621   71.3371 H   0  0  0  0  0  0
    3.1424   66.2900   70.6827 H   0  0  0  0  0  0
    1.5104   67.5677   69.3467 H   0  0  0  0  0  0
   -1.0315   64.1113   69.2458 H   0  0  0  0  0  0
    0.5525   62.8832   70.6619 H   0  0  0  0  0  0
   -1.4784   67.3068   68.7676 H   0  0  0  0  0  0
   -1.5377   65.9314   67.8057 H   0  0  0  0  0  0
   -0.0467   65.7003   65.9688 H   0  0  0  0  0  0
    1.3660   66.1083   66.9642 H   0  0  0  0  0  0
    1.6674   66.3260   64.4216 H   0  0  0  0  0  0
    2.2798   67.3919   65.5982 H   0  0  0  0  0  0
    0.0894   67.7310   63.6714 H   0  0  0  0  0  0
   -0.1273   69.7078   65.9202 H   0  0  0  0  0  0
   -1.2334   69.3228   64.5883 H   0  0  0  0  0  0
   -1.8397   67.2944   65.8418 H   0  0  0  0  0  0
   -1.8200   68.6655   66.9214 H   0  0  0  0  0  0
    1.9439   70.0977   64.1071 H   0  0  0  0  0  0
    0.9564   69.6613   62.7862 H   0  0  0  0  0  0
    3.2091   69.3518   62.1610 H   0  0  0  0  0  0
    2.5280   67.7608   62.3078 H   0  0  0  0  0  0
    6.6138   68.8888   64.3288 H   0  0  0  0  0  0
    7.5129   70.0184   66.3311 H   0  0  0  0  0  0
    2.6086   69.3636   65.9490 H   0  0  0  0  0  0
    4.3445   72.2770   68.7664 H   0  0  0  0  0  0
    4.4874   70.9132   69.9532 H   0  0  0  0  0  0
  1  6  1  0  0  0
  1  2  2  0  0  0
  1 27  1  0  0  0
  2  3  1  0  0  0
  2 28  1  0  0  0
  3  4  2  0  0  0
  3 29  1  0  0  0
  4  5  1  0  0  0
  4  7  1  0  0  0
  5  6  2  0  0  0
  5 30  1  0  0  0
  6 31  1  0  0  0
  7  8  1  0  0  0
  7 32  1  0  0  0
  7 33  1  0  0  0
  8 13  1  0  0  0
  8  9  1  0  0  0
  9 10  1  0  0  0
  9 34  1  0  0  0
  9 35  1  0  0  0
 10 11  1  0  0  0
 10 36  1  0  0  0
 10 37  1  0  0  0
 11 12  1  0  0  0
 11 14  1  0  0  0
 11 38  1  0  0  0
 12 13  1  0  0  0
 12 39  1  0  0  0
 12 40  1  0  0  0
 13 41  1  0  0  0
 13 42  1  0  0  0
 14 15  1  0  0  0
 14 43  1  0  0  0
 14 44  1  0  0  0
 15 16  1  0  0  0
 15 45  1  0  0  0
 15 46  1  0  0  0
 16 17  2  0  0  0
 16 18  1  0  0  0
 18 23  1  0  0  0
 18 19  2  0  0  0
 19 20  1  0  0  0
 19 47  1  0  0  0
 20 21  2  0  0  0
 20 48  1  0  0  0
 21 26  1  0  0  0
 21 22  1  0  0  0
 22 23  2  0  0  0
 22 24  1  0  0  0
 23 49  1  0  0  0
 24 25  1  0  0  0
 25 26  1  0  0  0
 25 50  1  0  0  0
 25 51  1  0  0  0
M  END
> <s_m_entry_id>
9845

> <s_m_entry_name>
ligand_docking-pose.287

> <s_m_Source_Path>
/home/csk/Desktop/cluster/DUD-E-result/aces

> <s_m_Source_File>
ligand_docking-pose.sdf

> <i_m_Source_File_Index>
287

> <i_lp_mmshare_version>
53161

> <r_lp_tautomer_probability>
0.99990000499975

> <s_lp_Force_Field>
OPLS_2005

> <r_lp_Energy>
43.80298

> <b_lp_Chiralities_Consistent>
1

> <s_lp_Variant>
630793-1

> <s_i_glide_gridfile>
glide-grid_1e66

> <i_i_glide_lignum>
374

> <i_i_glide_rotatable_bonds>
6

> <r_i_docking_score>
-7.15954446620156

> <r_i_glide_ligand_efficiency>
-0.275367094853906

> <r_i_glide_ligand_efficiency_sa>
-0.815773934987499

> <r_i_glide_ligand_efficiency_ln>
-1.68139552550592

> <r_i_glide_gscore>
-7.15954446620156

> <r_i_glide_lipo>
-3.74994850894909

> <r_i_glide_hbond>
0

> <r_i_glide_metal>
0

> <r_i_glide_rewards>
-2.38882518390776

> <r_i_glide_evdw>
-29.0092353820801

> <r_i_glide_ecoul>
-2.28289198875427

> <r_i_glide_erotb>
0.772124794072439

> <r_i_glide_esite>
0

> <r_i_glide_emodel>
-37.1195459700324

> <r_i_glide_energy>
-31.2921273708344

> <r_i_glide_einternal>
6.80591154098511

> <i_i_glide_confnum>
25

> <i_i_glide_posenum>
54

> <r_i_glide_eff_state_penalty>
0

> <i_f3d_flags>
0

> <s_user_duplicate_titles>
630793

> <s_m_subgroup_title>
dock_pv

> <s_m_subgroupid>
dock_pv1

> <b_m_subgroup_collapsed>
1

$$$$
219196
                    3D
 Schrodinger Suite 2021-1.
 31 33  0  0  1  0            999 V2000
    6.4293   70.9424   68.4971 C   0  0  0  0  0  0
    5.1062   70.5763   68.1278 O   0  0  0  0  0  0
    4.8462   70.1082   66.8487 C   0  0  0  0  0  0
    5.8161   70.1083   65.8350 C   0  0  0  0  0  0
    5.5431   69.6200   64.5651 C   0  0  0  0  0  0
    4.3015   69.0860   64.2670 C   0  0  0  0  0  0
    3.2899   69.0620   65.2477 C   0  0  0  0  0  0
    3.5336   69.5992   66.5518 C   0  0  0  0  0  0
    2.4343   69.5672   67.4811 C   0  0  0  0  0  0
    1.2129   68.9908   67.1025 C   0  0  0  0  0  0
    1.1033   68.5080   65.7909 C   0  0  0  0  0  0
    2.1024   68.5189   64.8874 N   0  0  0  0  0  0
   -0.0429   67.9331   65.2835 O   0  0  0  0  0  0
   -1.2548   68.2661   65.9587 C   0  0  0  0  0  0
   -1.1021   68.0100   67.4619 C   0  0  0  0  0  0
    0.0103   68.9004   68.0392 C   0  0  0  0  0  0
    2.5383   70.1061   68.7678 N   0  0  0  0  0  0
    6.4595   71.1619   69.5637 H   0  0  0  0  0  0
    6.7433   71.8393   67.9680 H   0  0  0  0  0  0
    7.1427   70.1385   68.3073 H   0  0  0  0  0  0
    6.8078   70.4961   66.0105 H   0  0  0  0  0  0
    6.3148   69.6462   63.8081 H   0  0  0  0  0  0
    4.1006   68.6968   63.2790 H   0  0  0  0  0  0
   -2.0651   67.6640   65.5571 H   0  0  0  0  0  0
   -1.5054   69.3133   65.7798 H   0  0  0  0  0  0
   -0.8607   66.9590   67.6246 H   0  0  0  0  0  0
   -2.0487   68.1959   67.9679 H   0  0  0  0  0  0
    0.3424   68.5079   69.0028 H   0  0  0  0  0  0
   -0.3750   69.9068   68.2160 H   0  0  0  0  0  0
    1.7495   70.0795   69.4101 H   0  0  0  0  0  0
    3.4365   70.4896   69.0380 H   0  0  0  0  0  0
  1  2  1  0  0  0
  1 18  1  0  0  0
  1 19  1  0  0  0
  1 20  1  0  0  0
  2  3  1  0  0  0
  3  8  1  0  0  0
  3  4  2  0  0  0
  4  5  1  0  0  0
  4 21  1  0  0  0
  5  6  2  0  0  0
  5 22  1  0  0  0
  6  7  1  0  0  0
  6 23  1  0  0  0
  7 12  2  0  0  0
  7  8  1  0  0  0
  8  9  2  0  0  0
  9 10  1  0  0  0
  9 17  1  0  0  0
 10 16  1  0  0  0
 10 11  2  0  0  0
 11 12  1  0  0  0
 11 13  1  0  0  0
 13 14  1  0  0  0
 14 15  1  0  0  0
 14 24  1  0  0  0
 14 25  1  0  0  0
 15 16  1  0  0  0
 15 26  1  0  0  0
 15 27  1  0  0  0
 16 28  1  0  0  0
 16 29  1  0  0  0
 17 30  1  0  0  0
 17 31  1  0  0  0
M  END
> <s_m_entry_id>
9846

> <s_m_entry_name>
ligand_docking-pose.288

> <s_m_Source_Path>
/home/csk/Desktop/cluster/DUD-E-result/aces

> <s_m_Source_File>
ligand_docking-pose.sdf

> <i_m_Source_File_Index>
288

> <i_lp_mmshare_version>
53161

> <r_lp_tautomer_probability>
1

> <s_lp_Force_Field>
OPLS_2005

> <r_lp_Energy>
24.857669

> <b_lp_Chiralities_Consistent>
1

> <s_lp_Variant>
219196-1

> <s_i_glide_gridfile>
glide-grid_1e66

> <i_i_glide_lignum>
2100

> <i_i_glide_rotatable_bonds>
1

> <r_i_docking_score>
-7.15742101282929

> <r_i_glide_ligand_efficiency>
-0.421024765460546

> <r_i_glide_ligand_efficiency_sa>
-1.08257322761752

> <r_i_glide_ligand_efficiency_ln>
-1.86721175431772

> <r_i_glide_gscore>
-7.15742101282929

> <r_i_glide_lipo>
-2.94914974090203

> <r_i_glide_hbond>
-0.143909866961131

> <r_i_glide_metal>
0

> <r_i_glide_rewards>
-2.30578625757576

> <r_i_glide_evdw>
-29.8495807647705

> <r_i_glide_ecoul>
-1.77397406101227

> <r_i_glide_erotb>
0

> <r_i_glide_esite>
0

> <r_i_glide_emodel>
-45.3728276706832

> <r_i_glide_energy>
-31.6235548257828

> <r_i_glide_einternal>
0.189032554626465

> <i_i_glide_confnum>
2

> <i_i_glide_posenum>
355

> <r_i_glide_eff_state_penalty>
0

> <i_f3d_flags>
0

> <s_user_duplicate_titles>
219196

> <s_m_subgroup_title>
dock_pv

> <s_m_subgroupid>
dock_pv1

> <b_m_subgroup_collapsed>
1

$$$$
487298
                    3D
 Schrodinger Suite 2021-1.
 42 44  0  0  1  0            999 V2000
    0.2102   67.6137   66.0437 C   0  0  0  0  0  0
    1.5149   67.8418   65.6170 C   0  0  0  0  0  0
    2.3462   68.7433   66.3002 C   0  0  0  0  0  0
    1.8567   69.3266   67.4926 C   0  0  0  0  0  0
    0.5328   69.1202   67.8903 C   0  0  0  0  0  0
   -0.2982   68.2836   67.1477 C   0  0  0  0  0  0
   -1.9568   68.0621   67.5681 Cl  0  0  0  0  0  0
    2.6530   70.1263   68.3285 N   0  0  0  0  0  0
    3.8537   70.3643   67.9692 C   0  0  0  0  0  0
    4.4442   69.9009   66.7806 N   0  0  0  0  0  0
    3.7248   69.1283   65.8238 C   0  0  0  0  0  0
    4.0607   68.7226   64.6519 N   0  0  0  0  0  0
    5.2595   69.0160   63.8947 C   0  0  0  0  0  0
    4.8720   69.5708   62.5077 C   0  0  0  0  0  0
    4.0639   68.6551   61.5570 C   0  0  0  0  0  0
    2.6139   68.3177   61.9548 C   0  0  0  0  0  0
    1.7004   69.5294   62.1916 C   0  0  0  0  0  0
    0.3366   69.0944   62.4337 N   0  0  0  0  0  0
    5.7889   70.4602   66.6346 C   0  0  0  0  0  0
    6.1521   70.8978   68.0504 C   0  0  0  0  0  0
    4.8360   71.2015   68.7399 C   0  0  0  0  0  0
   -0.4261   66.9195   65.5230 H   0  0  0  0  0  0
    1.8663   67.3108   64.7491 H   0  0  0  0  0  0
    0.1476   69.6172   68.7679 H   0  0  0  0  0  0
    5.9155   69.7547   64.3351 H   0  0  0  0  0  0
    5.8517   68.1075   63.7807 H   0  0  0  0  0  0
    4.3425   70.5099   62.6413 H   0  0  0  0  0  0
    5.7959   69.8352   61.9922 H   0  0  0  0  0  0
    4.0310   69.1371   60.5786 H   0  0  0  0  0  0
    4.6170   67.7272   61.4071 H   0  0  0  0  0  0
    2.1827   67.7103   61.1674 H   0  0  0  0  0  0
    2.6256   67.6733   62.8248 H   0  0  0  0  0  0
    2.0472   70.1082   63.0485 H   0  0  0  0  0  0
    1.7106   70.1813   61.3182 H   0  0  0  0  0  0
    0.2934   68.5263   63.2691 H   0  0  0  0  0  0
   -0.2558   69.8940   62.6156 H   0  0  0  0  0  0
    6.5018   69.7017   66.3091 H   0  0  0  0  0  0
    5.7926   71.3047   65.9413 H   0  0  0  0  0  0
    6.6721   70.1030   68.5798 H   0  0  0  0  0  0
    6.8356   71.7439   68.0509 H   0  0  0  0  0  0
    4.5639   72.2519   68.6482 H   0  0  0  0  0  0
    4.8541   70.9080   69.7901 H   0  0  0  0  0  0
  1  6  1  0  0  0
  1  2  2  0  0  0
  1 22  1  0  0  0
  2  3  1  0  0  0
  2 23  1  0  0  0
  3 11  1  0  0  0
  3  4  2  0  0  0
  4  5  1  0  0  0
  4  8  1  0  0  0
  5  6  2  0  0  0
  5 24  1  0  0  0
  6  7  1  0  0  0
  8  9  2  0  0  0
  9 21  1  0  0  0
  9 10  1  0  0  0
 10 11  1  0  0  0
 10 19  1  0  0  0
 11 12  2  0  0  0
 12 13  1  0  0  0
 13 14  1  0  0  0
 13 25  1  0  0  0
 13 26  1  0  0  0
 14 15  1  0  0  0
 14 27  1  0  0  0
 14 28  1  0  0  0
 15 16  1  0  0  0
 15 29  1  0  0  0
 15 30  1  0  0  0
 16 17  1  0  0  0
 16 31  1  0  0  0
 16 32  1  0  0  0
 17 18  1  0  0  0
 17 33  1  0  0  0
 17 34  1  0  0  0
 18 35  1  0  0  0
 18 36  1  0  0  0
 19 20  1  0  0  0
 19 37  1  0  0  0
 19 38  1  0  0  0
 20 21  1  0  0  0
 20 39  1  0  0  0
 20 40  1  0  0  0
 21 41  1  0  0  0
 21 42  1  0  0  0
M  END
> <s_m_entry_id>
9848

> <s_m_entry_name>
ligand_docking-pose.290

> <s_m_Source_Path>
/home/csk/Desktop/cluster/DUD-E-result/aces

> <s_m_Source_File>
ligand_docking-pose.sdf

> <i_m_Source_File_Index>
290

> <i_lp_mmshare_version>
53161

> <r_lp_tautomer_probability>
0.5

> <s_lp_Force_Field>
OPLS_2005

> <r_lp_Energy>
35.871765

> <b_lp_Chiralities_Consistent>
1

> <s_lp_Variant>
487298-1

> <s_i_glide_gridfile>
glide-grid_1e66

> <i_i_glide_lignum>
43

> <i_i_glide_rotatable_bonds>
5

> <r_i_docking_score>
-7.15498487973266

> <r_i_glide_ligand_efficiency>
-0.340713565701555

> <r_i_glide_ligand_efficiency_sa>
-0.940002892681085

> <r_i_glide_ligand_efficiency_ln>
-1.76905555350561

> <r_i_glide_gscore>
-7.15498487973266

> <r_i_glide_lipo>
-3.73896155164325

> <r_i_glide_hbond>
0

> <r_i_glide_metal>
0

> <r_i_glide_rewards>
-2.15770542501933

> <r_i_glide_evdw>
-35.5186500549316

> <r_i_glide_ecoul>
-1.84386813640594

> <r_i_glide_erotb>
0.794194820137394

> <r_i_glide_esite>
0

> <r_i_glide_emodel>
-50.7299565876228

> <r_i_glide_energy>
-37.3625181913376

> <r_i_glide_einternal>
1.03338086605072

> <i_i_glide_confnum>
49

> <i_i_glide_posenum>
364

> <r_i_glide_eff_state_penalty>
0

> <i_f3d_flags>
0

> <s_user_duplicate_titles>
487298

> <s_m_subgroup_title>
dock_pv

> <s_m_subgroupid>
dock_pv1

> <b_m_subgroup_collapsed>
1

$$$$
630420
                    3D
 Schrodinger Suite 2021-1.
 46 49  0  0  1  0            999 V2000
    1.1831   69.1473   61.1681 C   0  0  0  0  0  0
    0.0476   69.3256   61.9451 C   0  0  0  0  0  0
    0.0683   69.0217   63.2910 C   0  0  0  0  0  0
    1.2672   68.6701   63.9136 C   0  0  0  0  0  0
    2.4257   68.5433   63.1261 C   0  0  0  0  0  0
    2.3818   68.7617   61.7538 C   0  0  0  0  0  0
    1.3174   68.5442   65.2972 N   0  0  0  0  0  0
    0.2788   68.9866   66.2655 C   0  0  0  0  0  0
   -0.4515   67.7952   66.9197 C   0  0  0  0  0  0
    0.5455   66.8393   67.6071 C   0  0  0  0  0  0
    1.5858   66.5080   66.4990 C   0  0  0  0  0  0
    2.3217   67.7385   65.9770 C   0  0  0  0  0  0
    1.1430   67.4159   68.9259 C   0  0  0  0  0  0
    1.6354   66.4366   70.0435 C   0  0  2  0  0  0
    2.5528   65.2421   69.7187 C   0  0  0  0  0  0
    1.8934   64.0445   70.3402 C   0  0  0  0  0  0
    2.3144   62.7126   70.3405 C   0  0  0  0  0  0
    1.5433   61.7394   70.9782 C   0  0  0  0  0  0
    0.3591   62.0989   71.6232 C   0  0  0  0  0  0
   -0.0570   63.4310   71.6297 C   0  0  0  0  0  0
    0.7080   64.4004   70.9755 C   0  0  0  0  0  0
    0.4683   65.8560   70.8419 C   0  0  0  0  0  0
   -0.4570   66.5080   71.3212 O   0  0  0  0  0  0
    1.1302   69.3080   60.1039 H   0  0  0  0  0  0
   -0.8570   69.7094   61.5206 H   0  0  0  0  0  0
   -0.8461   69.1428   63.8517 H   0  0  0  0  0  0
    3.3855   68.3119   63.5576 H   0  0  0  0  0  0
    3.2743   68.6520   61.1542 H   0  0  0  0  0  0
   -0.4569   69.6694   65.8397 H   0  0  0  0  0  0
    0.7808   69.5683   67.0407 H   0  0  0  0  0  0
   -1.0348   67.2709   66.1602 H   0  0  0  0  0  0
   -1.1872   68.1646   67.6349 H   0  0  0  0  0  0
   -0.0265   65.9438   67.8534 H   0  0  0  0  0  0
    2.3430   65.7982   66.8007 H   0  0  0  0  0  0
    1.0730   66.0387   65.6549 H   0  0  0  0  0  0
    3.1679   67.4365   65.3649 H   0  0  0  0  0  0
    2.7430   68.3545   66.7682 H   0  0  0  0  0  0
    0.3920   68.0731   69.3664 H   0  0  0  0  0  0
    1.9430   68.1166   68.7085 H   0  0  0  0  0  0
    2.1654   67.0530   70.7678 H   0  0  0  0  0  0
    3.5418   65.4118   70.1471 H   0  0  0  0  0  0
    2.6739   65.0690   68.6610 H   0  0  0  0  0  0
    3.2311   62.4240   69.8486 H   0  0  0  0  0  0
    1.8622   60.7074   70.9752 H   0  0  0  0  0  0
   -0.2367   61.3458   72.1184 H   0  0  0  0  0  0
   -0.9712   63.6907   72.1409 H   0  0  0  0  0  0
  1  6  1  0  0  0
  1  2  2  0  0  0
  1 24  1  0  0  0
  2  3  1  0  0  0
  2 25  1  0  0  0
  3  4  2  0  0  0
  3 26  1  0  0  0
  4  5  1  0  0  0
  4  7  1  0  0  0
  5  6  2  0  0  0
  5 27  1  0  0  0
  6 28  1  0  0  0
  7 12  1  0  0  0
  7  8  1  0  0  0
  8  9  1  0  0  0
  8 29  1  0  0  0
  8 30  1  0  0  0
  9 10  1  0  0  0
  9 31  1  0  0  0
  9 32  1  0  0  0
 10 11  1  0  0  0
 10 13  1  0  0  0
 10 33  1  0  0  0
 11 12  1  0  0  0
 11 34  1  0  0  0
 11 35  1  0  0  0
 12 36  1  0  0  0
 12 37  1  0  0  0
 13 14  1  0  0  0
 13 38  1  0  0  0
 13 39  1  0  0  0
 14 22  1  0  0  0
 14 15  1  0  0  0
 14 40  1  0  0  0
 15 16  1  0  0  0
 15 41  1  0  0  0
 15 42  1  0  0  0
 16 21  2  0  0  0
 16 17  1  0  0  0
 17 18  2  0  0  0
 17 43  1  0  0  0
 18 19  1  0  0  0
 18 44  1  0  0  0
 19 20  2  0  0  0
 19 45  1  0  0  0
 20 21  1  0  0  0
 20 46  1  0  0  0
 21 22  1  0  0  0
 22 23  2  0  0  0
M  END
> <s_m_entry_id>
9849

> <s_m_entry_name>
ligand_docking-pose.291

> <s_m_Source_Path>
/home/csk/Desktop/cluster/DUD-E-result/aces

> <s_m_Source_File>
ligand_docking-pose.sdf

> <i_m_Source_File_Index>
291

> <i_lp_mmshare_version>
53161

> <r_lp_tautomer_probability>
0.99995

> <s_lp_Force_Field>
OPLS_2005

> <r_lp_Energy>
45.691911

> <b_lp_Chiralities_Consistent>
1

> <s_lp_Variant>
630420-1

> <s_i_glide_gridfile>
glide-grid_1e66

> <i_i_glide_lignum>
477

> <i_i_glide_rotatable_bonds>
3

> <r_i_docking_score>
-7.14786022134769

> <r_i_glide_ligand_efficiency>
-0.310776531362943

> <r_i_glide_ligand_efficiency_sa>
-0.883807114732155

> <r_i_glide_ligand_efficiency_ln>
-1.72841741473497

> <r_i_glide_gscore>
-7.14786022134769

> <r_i_glide_lipo>
-3.63754300466083

> <r_i_glide_hbond>
0

> <r_i_glide_metal>
0

> <r_i_glide_rewards>
-2.76932527578255

> <r_i_glide_evdw>
-23.1704807281494

> <r_i_glide_ecoul>
-1.17385172843933

> <r_i_glide_erotb>
0.59360985476906

> <r_i_glide_esite>
0

> <r_i_glide_emodel>
-23.2103764555792

> <r_i_glide_energy>
-24.3443324565887

> <r_i_glide_einternal>
7.74661827087402

> <i_i_glide_confnum>
47

> <i_i_glide_posenum>
64

> <r_i_glide_eff_state_penalty>
0

> <i_f3d_flags>
0

> <s_user_duplicate_titles>
630420

> <s_m_subgroup_title>
dock_pv

> <s_m_subgroupid>
dock_pv1

> <b_m_subgroup_collapsed>
1

$$$$
118084
                    3D
 Schrodinger Suite 2021-1.
 54 57  0  0  1  0            999 V2000
    1.1425   61.6165   70.7687 C   0  0  0  0  0  0
    2.5302   61.4794   70.7502 C   0  0  0  0  0  0
    3.3376   62.6124   70.6585 C   0  0  0  0  0  0
    2.7592   63.8800   70.5903 C   0  0  0  0  0  0
    1.3646   64.0243   70.6131 C   0  0  0  0  0  0
    0.5607   62.8823   70.6925 C   0  0  0  0  0  0
    0.7102   65.4003   70.5403 C   0  0  0  0  0  0
    0.3562   65.8008   69.1685 N   0  0  1  0  0  0
   -0.5837   66.9080   69.1871 C   0  0  0  0  0  0
   -1.0122   67.4004   67.7805 C   0  0  0  0  0  0
    0.1726   67.9201   66.9353 C   0  0  0  0  0  0
    1.2872   66.8834   67.0553 C   0  0  0  0  0  0
    1.5429   66.2723   68.4668 C   0  0  0  0  0  0
   -0.2189   68.2514   65.4533 C   0  0  0  0  0  0
    0.7355   67.8067   64.2927 C   0  0  0  0  0  0
    1.7226   68.8260   63.6970 C   0  0  0  0  0  0
    1.5000   69.2326   62.5567 O   0  0  0  0  0  0
    3.0343   69.0262   64.3814 C   0  0  0  0  0  0
    4.2270   69.0041   63.6421 C   0  0  0  0  0  0
    5.4444   69.3255   64.2485 C   0  0  0  0  0  0
    5.4749   69.6962   65.5933 C   0  0  0  0  0  0
    4.3003   69.7473   66.3211 C   0  0  0  0  0  0
    3.0866   69.4163   65.7246 C   0  0  0  0  0  0
    4.5904   70.3193   67.6769 C   0  0  0  0  0  0
    6.1187   70.4245   67.7134 C   0  0  0  0  0  0
    6.5639   70.1161   66.3630 N   0  0  0  0  0  0
    3.5639   64.9624   70.5100 F   0  0  0  0  0  0
    0.5133   60.7403   70.8342 H   0  0  0  0  0  0
    2.9764   60.4975   70.8077 H   0  0  0  0  0  0
    4.4127   62.5139   70.6458 H   0  0  0  0  0  0
   -0.5163   62.9744   70.6960 H   0  0  0  0  0  0
    1.3507   66.1392   71.0257 H   0  0  0  0  0  0
   -0.1773   65.3642   71.1703 H   0  0  0  0  0  0
   -0.0570   67.7066   69.7276 H   0  0  0  0  0  0
   -1.4656   66.6007   69.7499 H   0  0  0  0  0  0
   -1.7958   68.1568   67.8394 H   0  0  0  0  0  0
   -1.4799   66.5567   67.2695 H   0  0  0  0  0  0
    0.5215   68.8168   67.4490 H   0  0  0  0  0  0
    0.9419   66.1080   66.4042 H   0  0  0  0  0  0
    2.2057   67.1993   66.5749 H   0  0  0  0  0  0
    1.9429   67.0571   69.1129 H   0  0  0  0  0  0
    2.2746   65.4633   68.4128 H   0  0  0  0  0  0
   -0.4577   69.3082   65.3676 H   0  0  0  0  0  0
   -1.1745   67.7665   65.2455 H   0  0  0  0  0  0
    0.0938   67.5115   63.4614 H   0  0  0  0  0  0
    1.2747   66.8907   64.5176 H   0  0  0  0  0  0
    4.2193   68.7608   62.5882 H   0  0  0  0  0  0
    6.3431   69.3186   63.6538 H   0  0  0  0  0  0
    2.1794   69.5537   66.2879 H   0  0  0  0  0  0
    4.2061   69.7080   68.4872 H   0  0  0  0  0  0
    4.1631   71.3080   67.8136 H   0  0  0  0  0  0
    6.4442   71.4240   68.0062 H   0  0  0  0  0  0
    6.5610   69.7083   68.3995 H   0  0  0  0  0  0
    7.4917   69.7175   66.3727 H   0  0  0  0  0  0
  1  6  1  0  0  0
  1  2  2  0  0  0
  1 28  1  0  0  0
  2  3  1  0  0  0
  2 29  1  0  0  0
  3  4  2  0  0  0
  3 30  1  0  0  0
  4  5  1  0  0  0
  4 27  1  0  0  0
  5  6  2  0  0  0
  5  7  1  0  0  0
  6 31  1  0  0  0
  7  8  1  0  0  0
  7 32  1  0  0  0
  7 33  1  0  0  0
  8 13  1  0  0  0
  8  9  1  0  0  0
  9 10  1  0  0  0
  9 34  1  0  0  0
  9 35  1  0  0  0
 10 11  1  0  0  0
 10 36  1  0  0  0
 10 37  1  0  0  0
 11 12  1  0  0  0
 11 14  1  0  0  0
 11 38  1  0  0  0
 12 13  1  0  0  0
 12 39  1  0  0  0
 12 40  1  0  0  0
 13 41  1  0  0  0
 13 42  1  0  0  0
 14 15  1  0  0  0
 14 43  1  0  0  0
 14 44  1  0  0  0
 15 16  1  0  0  0
 15 45  1  0  0  0
 15 46  1  0  0  0
 16 17  2  0  0  0
 16 18  1  0  0  0
 18 23  1  0  0  0
 18 19  2  0  0  0
 19 20  1  0  0  0
 19 47  1  0  0  0
 20 21  2  0  0  0
 20 48  1  0  0  0
 21 26  1  0  0  0
 21 22  1  0  0  0
 22 23  2  0  0  0
 22 24  1  0  0  0
 23 49  1  0  0  0
 24 25  1  0  0  0
 24 50  1  0  0  0
 24 51  1  0  0  0
 25 26  1  0  0  0
 25 52  1  0  0  0
 25 53  1  0  0  0
 26 54  1  0  0  0
M  END
> <s_m_entry_id>
9850

> <s_m_entry_name>
ligand_docking-pose.292

> <s_m_Source_Path>
/home/csk/Desktop/cluster/DUD-E-result/aces

> <s_m_Source_File>
ligand_docking-pose.sdf

> <i_m_Source_File_Index>
292

> <i_lp_mmshare_version>
53161

> <r_lp_tautomer_probability>
0.99990000499975

> <s_lp_Force_Field>
OPLS_2005

> <r_lp_Energy>
45.919829

> <b_lp_Chiralities_Consistent>
1

> <s_lp_Variant>
118084-1

> <s_i_glide_gridfile>
glide-grid_1e66

> <i_i_glide_lignum>
363

> <i_i_glide_rotatable_bonds>
6

> <r_i_docking_score>
-7.14745590739915

> <r_i_glide_ligand_efficiency>
-0.264720589162931

> <r_i_glide_ligand_efficiency_sa>
-0.794161766616319

> <r_i_glide_ligand_efficiency_ln>
-1.66380990022258

> <r_i_glide_gscore>
-7.14745590739915

> <r_i_glide_lipo>
-4.26220231081728

> <r_i_glide_hbond>
-0.00208590299123915

> <r_i_glide_metal>
0

> <r_i_glide_rewards>
-2.42407855627843

> <r_i_glide_evdw>
-30.3747615814209

> <r_i_glide_ecoul>
2.28706359863281

> <r_i_glide_erotb>
0.716589401963923

> <r_i_glide_esite>
0

> <r_i_glide_emodel>
-21.4247741233282

> <r_i_glide_energy>
-28.0876979827881

> <r_i_glide_einternal>
16.5722770690918

> <i_i_glide_confnum>
11

> <i_i_glide_posenum>
367

> <r_i_glide_eff_state_penalty>
0

> <i_f3d_flags>
0

> <s_user_duplicate_titles>
118084

> <s_m_subgroup_title>
dock_pv

> <s_m_subgroupid>
dock_pv1

> <b_m_subgroup_collapsed>
1

$$$$
85514
                    3D
 Schrodinger Suite 2021-1.
 50 52  0  0  1  0            999 V2000
    3.3490   62.5466   69.4976 C   0  0  0  0  0  0
    1.9872   62.2624   69.5762 C   0  0  0  0  0  0
    1.1062   63.2309   70.0525 C   0  0  0  0  0  0
    1.5886   64.4789   70.4615 C   0  0  0  0  0  0
    2.9561   64.7567   70.3681 C   0  0  0  0  0  0
    3.8381   63.7903   69.8906 C   0  0  0  0  0  0
    0.6103   65.5532   70.9547 C   0  0  0  0  0  0
    0.1030   66.5078   69.9499 N   0  0  1  0  0  0
    1.1263   67.4456   69.4670 C   0  0  0  0  0  0
    0.6278   68.4254   68.3684 C   0  0  0  0  0  0
   -0.2259   67.8018   67.2516 C   0  0  0  0  0  0
   -1.2325   66.7997   67.8431 C   0  0  0  0  0  0
   -0.5597   65.8343   68.8382 C   0  0  0  0  0  0
   -0.8685   68.9097   66.3815 C   0  0  0  0  0  0
   -1.2699   68.5205   64.9535 C   0  0  0  0  0  0
   -0.0906   68.1269   64.1910 N   0  0  0  0  0  0
    0.4524   68.8119   63.1735 C   0  0  0  0  0  0
   -0.1760   69.5771   62.4412 O   0  0  0  0  0  0
    1.9437   68.6551   63.0418 C   0  0  0  0  0  0
    2.5590   68.9082   61.8126 C   0  0  0  0  0  0
    3.9431   68.8603   61.7092 C   0  0  0  0  0  0
    4.7161   68.5512   62.8255 C   0  0  0  0  0  0
    4.1185   68.2894   64.0519 C   0  0  0  0  0  0
    2.7357   68.3445   64.1618 C   0  0  0  0  0  0
    6.4300   68.5080   62.7036 Cl  0  0  0  0  0  0
    4.0315   61.7963   69.1277 H   0  0  0  0  0  0
    1.6135   61.2974   69.2672 H   0  0  0  0  0  0
    0.0495   63.0108   70.1022 H   0  0  0  0  0  0
    3.3392   65.7198   70.6737 H   0  0  0  0  0  0
    4.8942   64.0088   69.8232 H   0  0  0  0  0  0
    1.0855   66.1080   71.7537 H   0  0  0  0  0  0
   -0.2428   65.0516   71.4096 H   0  0  0  0  0  0
    1.9429   66.8514   69.0753 H   0  0  0  0  0  0
    1.5429   68.0018   70.3076 H   0  0  0  0  0  0
    1.4585   68.9979   67.9545 H   0  0  0  0  0  0
    0.0079   69.1864   68.8300 H   0  0  0  0  0  0
    0.4714   67.2036   66.6625 H   0  0  0  0  0  0
   -2.0273   67.3276   68.3680 H   0  0  0  0  0  0
   -1.7523   66.2668   67.0463 H   0  0  0  0  0  0
    0.2475   65.3080   68.3680 H   0  0  0  0  0  0
   -1.2570   65.0801   69.1817 H   0  0  0  0  0  0
   -0.1431   69.7080   66.3071 H   0  0  0  0  0  0
   -1.7267   69.3417   66.8999 H   0  0  0  0  0  0
   -1.8374   69.3080   64.4687 H   0  0  0  0  0  0
   -1.9723   67.7080   65.0200 H   0  0  0  0  0  0
    0.3820   67.2980   64.5160 H   0  0  0  0  0  0
    1.9724   69.1684   60.9415 H   0  0  0  0  0  0
    4.4156   69.0822   60.7681 H   0  0  0  0  0  0
    4.7240   68.0708   64.9203 H   0  0  0  0  0  0
    2.2970   68.1789   65.1357 H   0  0  0  0  0  0
  1  6  1  0  0  0
  1  2  2  0  0  0
  1 26  1  0  0  0
  2  3  1  0  0  0
  2 27  1  0  0  0
  3  4  2  0  0  0
  3 28  1  0  0  0
  4  5  1  0  0  0
  4  7  1  0  0  0
  5  6  2  0  0  0
  5 29  1  0  0  0
  6 30  1  0  0  0
  7  8  1  0  0  0
  7 31  1  0  0  0
  7 32  1  0  0  0
  8 13  1  0  0  0
  8  9  1  0  0  0
  9 10  1  0  0  0
  9 33  1  0  0  0
  9 34  1  0  0  0
 10 11  1  0  0  0
 10 35  1  0  0  0
 10 36  1  0  0  0
 11 12  1  0  0  0
 11 14  1  0  0  0
 11 37  1  0  0  0
 12 13  1  0  0  0
 12 38  1  0  0  0
 12 39  1  0  0  0
 13 40  1  0  0  0
 13 41  1  0  0  0
 14 15  1  0  0  0
 14 42  1  0  0  0
 14 43  1  0  0  0
 15 16  1  0  0  0
 15 44  1  0  0  0
 15 45  1  0  0  0
 16 17  1  0  0  0
 16 46  1  0  0  0
 17 18  2  0  0  0
 17 19  1  0  0  0
 19 24  1  0  0  0
 19 20  2  0  0  0
 20 21  1  0  0  0
 20 47  1  0  0  0
 21 22  2  0  0  0
 21 48  1  0  0  0
 22 23  1  0  0  0
 22 25  1  0  0  0
 23 24  2  0  0  0
 23 49  1  0  0  0
 24 50  1  0  0  0
M  END
> <s_m_entry_id>
9851

> <s_m_entry_name>
ligand_docking-pose.293

> <s_m_Source_Path>
/home/csk/Desktop/cluster/DUD-E-result/aces

> <s_m_Source_File>
ligand_docking-pose.sdf

> <i_m_Source_File_Index>
293

> <i_lp_mmshare_version>
53161

> <r_lp_tautomer_probability>
1

> <s_lp_Force_Field>
OPLS_2005

> <r_lp_Energy>
26.567982

> <b_lp_Chiralities_Consistent>
1

> <s_lp_Variant>
85514-1

> <s_i_glide_gridfile>
glide-grid_1e66

> <i_i_glide_lignum>
425

> <i_i_glide_rotatable_bonds>
7

> <r_i_docking_score>
-7.14639651351912

> <r_i_glide_ligand_efficiency>
-0.285855860540765

> <r_i_glide_ligand_efficiency_sa>
-0.835847605896469

> <r_i_glide_ligand_efficiency_ln>
-1.69391013392587

> <r_i_glide_gscore>
-7.14639651351912

> <r_i_glide_lipo>
-3.69011500742067

> <r_i_glide_hbond>
0

> <r_i_glide_metal>
0

> <r_i_glide_rewards>
-1.97313550582143

> <r_i_glide_evdw>
-40.3850326538086

> <r_i_glide_ecoul>
-2.4360785484314

> <r_i_glide_erotb>
0.901517414678117

> <r_i_glide_esite>
0

> <r_i_glide_emodel>
-48.2526252864364

> <r_i_glide_energy>
-42.82111120224

> <r_i_glide_einternal>
10.4028100967407

> <i_i_glide_confnum>
2

> <i_i_glide_posenum>
351

> <r_i_glide_eff_state_penalty>
0

> <i_f3d_flags>
0

> <s_user_duplicate_titles>
85514

> <s_m_subgroup_title>
dock_pv

> <s_m_subgroupid>
dock_pv1

> <b_m_subgroup_collapsed>
1

$$$$
118401
                    3D
 Schrodinger Suite 2021-1.
 63 66  0  0  1  0            999 V2000
    5.2337   64.1597   70.0134 C   0  0  0  0  0  0
    3.7911   63.7076   70.0312 C   0  0  0  0  0  0
    3.4215   62.4512   69.5446 C   0  0  0  0  0  0
    2.0826   62.0590   69.5750 C   0  0  0  0  0  0
    1.1133   62.9177   70.0965 C   0  0  0  0  0  0
    1.4815   64.1681   70.6063 C   0  0  0  0  0  0
    2.8215   64.5555   70.5591 C   0  0  0  0  0  0
    0.4254   65.1469   71.1172 C   0  0  0  0  0  0
   -0.0570   66.1146   70.1234 N   0  0  1  0  0  0
    0.9518   67.0673   69.6489 C   0  0  0  0  0  0
    0.4192   68.1057   68.6371 C   0  0  0  0  0  0
   -0.6407   67.6083   67.6264 C   0  0  0  0  0  0
   -1.5704   66.5365   68.2273 C   0  0  0  0  0  0
   -0.7607   65.4907   69.0116 C   0  0  0  0  0  0
   -1.3782   68.7518   66.8735 C   0  0  0  0  0  0
   -1.8137   68.3615   65.4466 C   0  0  0  0  0  0
   -0.9131   68.6150   64.2079 C   0  0  0  0  0  0
   -1.5055   68.9076   63.1680 O   0  0  0  0  0  0
    0.5736   68.4224   64.2041 C   0  0  0  0  0  0
    1.3674   68.5080   65.3396 C   0  0  0  0  0  0
    2.7253   68.2686   65.3110 C   0  0  0  0  0  0
    3.3666   68.0260   64.1047 C   0  0  0  0  0  0
    2.6236   68.1389   62.9053 C   0  0  0  0  0  0
    1.2350   68.2603   62.9863 C   0  0  0  0  0  0
    3.2194   68.1324   61.6422 N   0  0  0  0  0  0
    4.2913   69.0766   61.3829 C   0  0  0  0  0  0
    5.6416   68.6609   61.9680 C   0  0  0  0  0  0
    5.7501   68.7091   63.4778 C   0  0  0  0  0  0
    4.8476   67.6886   64.1380 C   0  0  0  0  0  0
    5.9019   63.3080   69.9680 H   0  0  0  0  0  0
    5.4328   64.8114   69.1680 H   0  0  0  0  0  0
    5.4803   64.7119   70.9204 H   0  0  0  0  0  0
    4.1652   61.7819   69.1386 H   0  0  0  0  0  0
    1.7938   61.0919   69.1910 H   0  0  0  0  0  0
    0.0770   62.6116   70.1000 H   0  0  0  0  0  0
    3.1114   65.5303   70.9229 H   0  0  0  0  0  0
    0.8069   65.7059   71.9680 H   0  0  0  0  0  0
   -0.4247   64.5729   71.4895 H   0  0  0  0  0  0
    1.7855   66.5321   69.1974 H   0  0  0  0  0  0
    1.3646   67.5915   70.5101 H   0  0  0  0  0  0
    1.2671   68.6250   68.2017 H   0  0  0  0  0  0
   -0.0569   68.9080   69.1680 H   0  0  0  0  0  0
   -0.0588   67.0174   66.9177 H   0  0  0  0  0  0
   -2.3308   66.9515   68.8863 H   0  0  0  0  0  0
   -2.1559   66.1080   67.4180 H   0  0  0  0  0  0
   -0.0570   64.9995   68.3680 H   0  0  0  0  0  0
   -1.3706   64.6763   69.3712 H   0  0  0  0  0  0
   -0.8214   69.6898   66.8647 H   0  0  0  0  0  0
   -2.2717   69.0083   67.4454 H   0  0  0  0  0  0
   -2.7554   68.8741   65.2445 H   0  0  0  0  0  0
   -2.0570   67.3080   65.4677 H   0  0  0  0  0  0
    0.9736   68.8505   66.2570 H   0  0  0  0  0  0
    3.2835   68.3082   66.2350 H   0  0  0  0  0  0
    0.6680   68.2749   62.0646 H   0  0  0  0  0  0
    2.5172   68.2088   60.9210 H   0  0  0  0  0  0
    3.9988   70.0179   61.8529 H   0  0  0  0  0  0
    4.3430   69.3080   60.3208 H   0  0  0  0  0  0
    6.3984   69.3080   61.5680 H   0  0  0  0  0  0
    5.9063   67.6656   61.6062 H   0  0  0  0  0  0
    5.5318   69.7128   63.8478 H   0  0  0  0  0  0
    6.7788   68.5080   63.7618 H   0  0  0  0  0  0
    4.9938   66.6923   63.7192 H   0  0  0  0  0  0
    5.1780   67.6079   65.1680 H   0  0  0  0  0  0
  1  2  1  0  0  0
  1 30  1  0  0  0
  1 31  1  0  0  0
  1 32  1  0  0  0
  2  7  1  0  0  0
  2  3  2  0  0  0
  3  4  1  0  0  0
  3 33  1  0  0  0
  4  5  2  0  0  0
  4 34  1  0  0  0
  5  6  1  0  0  0
  5 35  1  0  0  0
  6  7  2  0  0  0
  6  8  1  0  0  0
  7 36  1  0  0  0
  8  9  1  0  0  0
  8 37  1  0  0  0
  8 38  1  0  0  0
  9 14  1  0  0  0
  9 10  1  0  0  0
 10 11  1  0  0  0
 10 39  1  0  0  0
 10 40  1  0  0  0
 11 12  1  0  0  0
 11 41  1  0  0  0
 11 42  1  0  0  0
 12 13  1  0  0  0
 12 15  1  0  0  0
 12 43  1  0  0  0
 13 14  1  0  0  0
 13 44  1  0  0  0
 13 45  1  0  0  0
 14 46  1  0  0  0
 14 47  1  0  0  0
 15 16  1  0  0  0
 15 48  1  0  0  0
 15 49  1  0  0  0
 16 17  1  0  0  0
 16 50  1  0  0  0
 16 51  1  0  0  0
 17 18  2  0  0  0
 17 19  1  0  0  0
 19 24  1  0  0  0
 19 20  2  0  0  0
 20 21  1  0  0  0
 20 52  1  0  0  0
 21 22  2  0  0  0
 21 53  1  0  0  0
 22 29  1  0  0  0
 22 23  1  0  0  0
 23 24  2  0  0  0
 23 25  1  0  0  0
 24 54  1  0  0  0
 25 26  1  0  0  0
 25 55  1  0  0  0
 26 27  1  0  0  0
 26 56  1  0  0  0
 26 57  1  0  0  0
 27 28  1  0  0  0
 27 58  1  0  0  0
 27 59  1  0  0  0
 28 29  1  0  0  0
 28 60  1  0  0  0
 28 61  1  0  0  0
 29 62  1  0  0  0
 29 63  1  0  0  0
M  END
> <s_m_entry_id>
9854

> <s_m_entry_name>
ligand_docking-pose.296

> <s_m_Source_Path>
/home/csk/Desktop/cluster/DUD-E-result/aces

> <s_m_Source_File>
ligand_docking-pose.sdf

> <i_m_Source_File_Index>
296

> <i_lp_mmshare_version>
53161

> <r_lp_tautomer_probability>
0.99990000499975

> <s_lp_Force_Field>
OPLS_2005

> <r_lp_Energy>
39.892396

> <b_lp_Chiralities_Consistent>
1

> <s_lp_Variant>
118401-1

> <s_i_glide_gridfile>
glide-grid_1e66

> <i_i_glide_lignum>
743

> <i_i_glide_rotatable_bonds>
6

> <r_i_docking_score>
-7.12939189354186

> <r_i_glide_ligand_efficiency>
-0.245841099777306

> <r_i_glide_ligand_efficiency_sa>
-0.755301746443155

> <r_i_glide_ligand_efficiency_ln>
-1.63244995784129

> <r_i_glide_gscore>
-7.12939189354186

> <r_i_glide_lipo>
-4.28450635832254

> <r_i_glide_hbond>
0

> <r_i_glide_metal>
0

> <r_i_glide_rewards>
-1.5045086060606

> <r_i_glide_evdw>
-32.7530899047852

> <r_i_glide_ecoul>
-2.09594297409058

> <r_i_glide_erotb>
0.639372975718825

> <r_i_glide_esite>
-0.0277039635247022

> <r_i_glide_emodel>
-37.7921575043298

> <r_i_glide_energy>
-34.8490328788757

> <r_i_glide_einternal>
11.7378330230713

> <i_i_glide_confnum>
2

> <i_i_glide_posenum>
355

> <r_i_glide_eff_state_penalty>
0

> <i_f3d_flags>
0

> <s_user_duplicate_titles>
118401

> <s_m_subgroup_title>
dock_pv

> <s_m_subgroupid>
dock_pv1

> <b_m_subgroup_collapsed>
1

$$$$
233524
                    3D
 Schrodinger Suite 2021-1.
 53 56  0  0  1  0            999 V2000
    4.7665   67.2232   62.1205 C   0  0  0  0  0  0
    3.9421   68.1999   61.5685 C   0  0  0  0  0  0
    2.8467   68.6611   62.2830 C   0  0  0  0  0  0
    2.5678   68.1362   63.5458 C   0  0  0  0  0  0
    3.4082   67.1611   64.1002 C   0  0  0  0  0  0
    4.4998   66.6911   63.3789 C   0  0  0  0  0  0
    1.4582   68.8096   64.3379 C   0  0  0  0  0  0
    0.9395   68.0264   65.4613 N   0  0  1  0  0  0
    1.6143   68.3761   66.7144 C   0  0  0  0  0  0
    1.2134   67.3671   67.7949 C   0  0  0  0  0  0
   -0.2781   67.3330   68.0595 C   0  0  0  0  0  0
   -1.0165   67.1367   66.7171 C   0  0  0  0  0  0
   -0.5220   68.1003   65.6062 C   0  0  0  0  0  0
   -0.6947   66.2912   69.1426 C   0  0  0  0  0  0
    0.1910   66.1828   70.4176 C   0  0  0  0  0  0
    1.1802   65.0786   70.4353 N   0  0  0  0  0  0
    2.5904   65.3862   70.1010 C   0  0  0  0  0  0
    3.5518   64.5075   70.7668 N   0  0  0  0  0  0
    3.2228   63.1499   70.8140 C   0  0  0  0  0  0
    4.2284   62.1902   70.9335 C   0  0  0  0  0  0
    3.9017   60.8339   70.9321 C   0  0  0  0  0  0
    2.5706   60.4394   70.7942 C   0  0  0  0  0  0
    1.5659   61.3982   70.6573 C   0  0  0  0  0  0
    1.8880   62.7641   70.6373 C   0  0  0  0  0  0
    0.7643   63.7775   70.5663 C   0  0  0  0  0  0
   -0.4232   63.4596   70.6526 O   0  0  0  0  0  0
    5.6390   66.9085   61.5685 H   0  0  0  0  0  0
    4.1667   68.6239   60.6030 H   0  0  0  0  0  0
    2.2361   69.4466   61.8630 H   0  0  0  0  0  0
    3.2221   66.7636   65.0868 H   0  0  0  0  0  0
    5.1438   65.9396   63.8079 H   0  0  0  0  0  0
    0.6670   69.1242   63.6524 H   0  0  0  0  0  0
    1.9432   69.7079   64.7144 H   0  0  0  0  0  0
    1.3769   69.4047   66.9955 H   0  0  0  0  0  0
    2.6961   68.3383   66.5825 H   0  0  0  0  0  0
    1.7231   67.6258   68.7237 H   0  0  0  0  0  0
    1.5432   66.3700   67.5118 H   0  0  0  0  0  0
   -0.4621   68.3578   68.3684 H   0  0  0  0  0  0
   -0.8910   66.1104   66.3689 H   0  0  0  0  0  0
   -2.0941   67.2376   66.8620 H   0  0  0  0  0  0
   -0.8313   69.1288   65.7951 H   0  0  0  0  0  0
   -0.9786   67.8111   64.6602 H   0  0  0  0  0  0
   -0.7525   65.3081   68.6851 H   0  0  0  0  0  0
   -1.7180   66.5086   69.4473 H   0  0  0  0  0  0
   -0.4566   66.0414   71.2830 H   0  0  0  0  0  0
    0.6717   67.1412   70.6241 H   0  0  0  0  0  0
    2.8272   66.4121   70.3842 H   0  0  0  0  0  0
    2.7333   65.3036   69.0252 H   0  0  0  0  0  0
    4.4910   64.8621   70.8840 H   0  0  0  0  0  0
    5.2574   62.4915   71.0429 H   0  0  0  0  0  0
    4.6754   60.0896   71.0446 H   0  0  0  0  0  0
    2.3117   59.3908   70.8039 H   0  0  0  0  0  0
    0.5395   61.0691   70.5726 H   0  0  0  0  0  0
  1  6  1  0  0  0
  1  2  2  0  0  0
  1 27  1  0  0  0
  2  3  1  0  0  0
  2 28  1  0  0  0
  3  4  2  0  0  0
  3 29  1  0  0  0
  4  5  1  0  0  0
  4  7  1  0  0  0
  5  6  2  0  0  0
  5 30  1  0  0  0
  6 31  1  0  0  0
  7  8  1  0  0  0
  7 32  1  0  0  0
  7 33  1  0  0  0
  8 13  1  0  0  0
  8  9  1  0  0  0
  9 10  1  0  0  0
  9 34  1  0  0  0
  9 35  1  0  0  0
 10 11  1  0  0  0
 10 36  1  0  0  0
 10 37  1  0  0  0
 11 12  1  0  0  0
 11 14  1  0  0  0
 11 38  1  0  0  0
 12 13  1  0  0  0
 12 39  1  0  0  0
 12 40  1  0  0  0
 13 41  1  0  0  0
 13 42  1  0  0  0
 14 15  1  0  0  0
 14 43  1  0  0  0
 14 44  1  0  0  0
 15 16  1  0  0  0
 15 45  1  0  0  0
 15 46  1  0  0  0
 16 25  1  0  0  0
 16 17  1  0  0  0
 17 18  1  0  0  0
 17 47  1  0  0  0
 17 48  1  0  0  0
 18 19  1  0  0  0
 18 49  1  0  0  0
 19 24  2  0  0  0
 19 20  1  0  0  0
 20 21  2  0  0  0
 20 50  1  0  0  0
 21 22  1  0  0  0
 21 51  1  0  0  0
 22 23  2  0  0  0
 22 52  1  0  0  0
 23 24  1  0  0  0
 23 53  1  0  0  0
 24 25  1  0  0  0
 25 26  2  0  0  0
M  END
> <s_m_entry_id>
9857

> <s_m_entry_name>
ligand_docking-pose.299

> <s_m_Source_Path>
/home/csk/Desktop/cluster/DUD-E-result/aces

> <s_m_Source_File>
ligand_docking-pose.sdf

> <i_m_Source_File_Index>
299

> <i_lp_mmshare_version>
53161

> <r_lp_tautomer_probability>
1

> <s_lp_Force_Field>
OPLS_2005

> <r_lp_Energy>
38.204838

> <b_lp_Chiralities_Consistent>
1

> <s_lp_Variant>
233524-1

> <s_i_glide_gridfile>
glide-grid_1e66

> <i_i_glide_lignum>
381

> <i_i_glide_rotatable_bonds>
5

> <r_i_docking_score>
-7.12011563287477

> <r_i_glide_ligand_efficiency>
-0.273850601264414

> <r_i_glide_ligand_efficiency_sa>
-0.811281328695744

> <r_i_glide_ligand_efficiency_ln>
-1.67213579337568

> <r_i_glide_gscore>
-7.12011563287477

> <r_i_glide_lipo>
-3.23878732311418

> <r_i_glide_hbond>
0

> <r_i_glide_metal>
0

> <r_i_glide_rewards>
-2.59736380007981

> <r_i_glide_evdw>
-39.9573097229004

> <r_i_glide_ecoul>
-0.439851611852646

> <r_i_glide_erotb>
0.779878718242137

> <r_i_glide_esite>
0

> <r_i_glide_emodel>
-52.7078535284774

> <r_i_glide_energy>
-40.397161334753

> <r_i_glide_einternal>
6.1715784072876

> <i_i_glide_confnum>
68

> <i_i_glide_posenum>
264

> <r_i_glide_eff_state_penalty>
0

> <i_f3d_flags>
0

> <s_user_duplicate_titles>
233524

> <s_m_subgroup_title>
dock_pv

> <s_m_subgroupid>
dock_pv1

> <b_m_subgroup_collapsed>
1

$$$$
118873
                    3D
 Schrodinger Suite 2021-1.
 60 63  0  0  1  0            999 V2000
    0.7369   62.3862   71.6535 C   0  0  0  0  0  0
    1.6618   61.6619   70.9035 C   0  0  0  0  0  0
    2.5721   62.3308   70.0870 C   0  0  0  0  0  0
    2.5580   63.7239   70.0150 C   0  0  0  0  0  0
    1.6350   64.4614   70.7711 C   0  0  0  0  0  0
    0.7231   63.7793   71.5871 C   0  0  0  0  0  0
    1.5434   65.9819   70.6470 C   0  0  0  0  0  0
    0.9881   66.3849   69.3565 N   0  0  1  0  0  0
   -0.4490   66.0991   69.3090 C   0  0  0  0  0  0
   -0.9968   66.3807   67.9105 C   0  0  0  0  0  0
   -0.6800   67.7522   67.3188 C   0  0  0  0  0  0
    0.8153   68.0717   67.5612 C   0  0  0  0  0  0
    1.2386   67.7883   68.9999 C   0  0  0  0  0  0
   -1.0403   67.7000   65.8299 C   0  0  0  0  0  0
   -1.0447   69.0171   65.0942 C   0  0  0  0  0  0
   -0.5773   68.9079   63.6278 C   0  0  0  0  0  0
   -1.4457   68.9083   62.7682 O   0  0  0  0  0  0
    0.8798   68.8073   63.2981 C   0  0  0  0  0  0
    1.2919   68.6845   61.9685 C   0  0  0  0  0  0
    2.6385   68.5081   61.6682 C   0  0  0  0  0  0
    3.5931   68.4348   62.6848 C   0  0  0  0  0  0
    3.2186   68.6926   64.0198 C   0  0  0  0  0  0
    1.8621   68.8335   64.2911 C   0  0  0  0  0  0
    4.1658   68.7562   65.0608 N   0  0  0  0  0  0
    5.3919   69.5602   65.0038 C   0  0  0  0  0  0
    5.7144   70.2435   63.6580 C   0  0  0  0  0  0
    5.9775   69.2897   62.4777 C   0  0  0  0  0  0
    5.0337   68.0954   62.3663 C   0  0  0  0  0  0
    3.4433   64.3474   69.2060 F   0  0  0  0  0  0
    0.0245   61.8671   72.2785 H   0  0  0  0  0  0
    1.6679   60.5835   70.9520 H   0  0  0  0  0  0
    3.2881   61.7720   69.5042 H   0  0  0  0  0  0
   -0.0110   64.3276   72.1591 H   0  0  0  0  0  0
    2.5507   66.3848   70.7659 H   0  0  0  0  0  0
    0.9502   66.3944   71.4629 H   0  0  0  0  0  0
   -0.9566   66.6795   70.0772 H   0  0  0  0  0  0
   -0.6358   65.0496   69.5397 H   0  0  0  0  0  0
   -2.0505   66.1123   67.8103 H   0  0  0  0  0  0
   -0.4587   65.7080   67.2576 H   0  0  0  0  0  0
   -1.2827   68.4903   67.8522 H   0  0  0  0  0  0
    1.4409   67.4362   66.9333 H   0  0  0  0  0  0
    1.0420   69.1030   67.2983 H   0  0  0  0  0  0
    0.6276   68.4585   69.5681 H   0  0  0  0  0  0
    2.2786   68.0760   69.1641 H   0  0  0  0  0  0
   -2.0416   67.2829   65.7180 H   0  0  0  0  0  0
   -0.3331   67.0057   65.3717 H   0  0  0  0  0  0
   -0.4484   69.7081   65.6543 H   0  0  0  0  0  0
   -2.0582   69.4146   65.1334 H   0  0  0  0  0  0
    0.5716   68.6797   61.1609 H   0  0  0  0  0  0
    2.9384   68.3720   60.6389 H   0  0  0  0  0  0
    1.5853   69.0036   65.3102 H   0  0  0  0  0  0
    3.7536   68.7893   65.9824 H   0  0  0  0  0  0
    6.1932   68.8488   65.2146 H   0  0  0  0  0  0
    5.4087   70.2861   65.8185 H   0  0  0  0  0  0
    6.5679   70.9084   63.7859 H   0  0  0  0  0  0
    4.8884   70.9079   63.4021 H   0  0  0  0  0  0
    6.9964   68.9053   62.5405 H   0  0  0  0  0  0
    5.9399   69.8614   61.5507 H   0  0  0  0  0  0
    5.1005   67.6485   61.3756 H   0  0  0  0  0  0
    5.3554   67.3078   63.0478 H   0  0  0  0  0  0
  1  6  1  0  0  0
  1  2  2  0  0  0
  1 30  1  0  0  0
  2  3  1  0  0  0
  2 31  1  0  0  0
  3  4  2  0  0  0
  3 32  1  0  0  0
  4  5  1  0  0  0
  4 29  1  0  0  0
  5  6  2  0  0  0
  5  7  1  0  0  0
  6 33  1  0  0  0
  7  8  1  0  0  0
  7 34  1  0  0  0
  7 35  1  0  0  0
  8 13  1  0  0  0
  8  9  1  0  0  0
  9 10  1  0  0  0
  9 36  1  0  0  0
  9 37  1  0  0  0
 10 11  1  0  0  0
 10 38  1  0  0  0
 10 39  1  0  0  0
 11 12  1  0  0  0
 11 14  1  0  0  0
 11 40  1  0  0  0
 12 13  1  0  0  0
 12 41  1  0  0  0
 12 42  1  0  0  0
 13 43  1  0  0  0
 13 44  1  0  0  0
 14 15  1  0  0  0
 14 45  1  0  0  0
 14 46  1  0  0  0
 15 16  1  0  0  0
 15 47  1  0  0  0
 15 48  1  0  0  0
 16 17  2  0  0  0
 16 18  1  0  0  0
 18 23  1  0  0  0
 18 19  2  0  0  0
 19 20  1  0  0  0
 19 49  1  0  0  0
 20 21  2  0  0  0
 20 50  1  0  0  0
 21 28  1  0  0  0
 21 22  1  0  0  0
 22 23  2  0  0  0
 22 24  1  0  0  0
 23 51  1  0  0  0
 24 25  1  0  0  0
 24 52  1  0  0  0
 25 26  1  0  0  0
 25 53  1  0  0  0
 25 54  1  0  0  0
 26 27  1  0  0  0
 26 55  1  0  0  0
 26 56  1  0  0  0
 27 28  1  0  0  0
 27 57  1  0  0  0
 27 58  1  0  0  0
 28 59  1  0  0  0
 28 60  1  0  0  0
M  END
> <s_m_entry_id>
9858

> <s_m_entry_name>
ligand_docking-pose.300

> <s_m_Source_Path>
/home/csk/Desktop/cluster/DUD-E-result/aces

> <s_m_Source_File>
ligand_docking-pose.sdf

> <i_m_Source_File_Index>
300

> <i_lp_mmshare_version>
53161

> <r_lp_tautomer_probability>
0.99990000499975

> <s_lp_Force_Field>
OPLS_2005

> <r_lp_Energy>
42.719199

> <b_lp_Chiralities_Consistent>
1

> <s_lp_Variant>
118873-1

> <s_i_glide_gridfile>
glide-grid_1e66

> <i_i_glide_lignum>
369

> <i_i_glide_rotatable_bonds>
6

> <r_i_docking_score>
-7.11782513119319

> <r_i_glide_ligand_efficiency>
-0.245442245903213

> <r_i_glide_ligand_efficiency_sa>
-0.754076340976166

> <r_i_glide_ligand_efficiency_ln>
-1.62980146257123

> <r_i_glide_gscore>
-7.11782513119319

> <r_i_glide_lipo>
-4.28440002915355

> <r_i_glide_hbond>
0

> <r_i_glide_metal>
0

> <r_i_glide_rewards>
-1.68111408063711

> <r_i_glide_evdw>
-34.3097763061523

> <r_i_glide_ecoul>
-0.426391273736954

> <r_i_glide_erotb>
0.627875618938072

> <r_i_glide_esite>
-0.000739133972442226

> <r_i_glide_emodel>
-31.6128383960236

> <r_i_glide_energy>
-34.7361675798893

> <r_i_glide_einternal>
6.35981512069702

> <i_i_glide_confnum>
10

> <i_i_glide_posenum>
300

> <r_i_glide_eff_state_penalty>
0

> <i_f3d_flags>
0

> <s_user_duplicate_titles>
118873

> <s_m_subgroup_title>
dock_pv

> <s_m_subgroupid>
dock_pv1

> <b_m_subgroup_collapsed>
1

$$$$
232436
                    3D
 Schrodinger Suite 2021-1.
 52 55  0  0  1  0            999 V2000
    3.8070   70.6980   68.7691 C   0  0  0  0  0  0
    3.1706   70.1080   67.6823 C   0  0  0  0  0  0
    3.9220   69.7067   66.5802 C   0  0  0  0  0  0
    5.3135   69.8585   66.5772 C   0  0  0  0  0  0
    5.9318   70.4994   67.6551 C   0  0  0  0  0  0
    5.1832   70.9081   68.7500 C   0  0  0  0  0  0
    6.2312   69.1443   65.5794 C   0  0  0  0  0  0
    5.7845   68.9625   64.2006 N   0  0  2  0  0  0
    5.4941   70.2208   63.4921 C   0  0  0  0  0  0
    5.0765   69.9734   62.0248 C   0  0  0  0  0  0
    3.9689   68.9116   61.9369 C   0  0  0  0  0  0
    4.6766   67.6251   62.4249 C   0  0  0  0  0  0
    4.9956   67.7508   63.9290 C   0  0  0  0  0  0
    2.6521   69.3071   62.6830 C   0  0  0  0  0  0
    1.7292   68.1100   62.9456 C   0  0  0  0  0  0
    0.7457   68.2314   64.0286 N   0  0  0  0  0  0
   -0.4726   68.7546   63.8028 C   0  0  0  0  0  0
   -0.8572   69.2918   62.7675 O   0  0  0  0  0  0
   -1.2314   68.5290   65.0587 C   0  0  0  0  0  0
   -2.5549   68.8356   65.3644 C   0  0  0  0  0  0
   -3.0586   68.4532   66.6020 C   0  0  0  0  0  0
   -2.2394   67.7933   67.5194 C   0  0  0  0  0  0
   -0.8830   67.5455   67.2405 C   0  0  0  0  0  0
   -0.4055   67.9112   65.9652 C   0  0  0  0  0  0
    0.8986   67.6900   65.2680 C   0  0  0  0  0  0
    1.8964   67.1022   65.6864 O   0  0  0  0  0  0
   -0.0373   66.9290   68.2863 N   0  3  0  0  0  0
   -0.5562   66.1089   69.0379 O   0  5  0  0  0  0
    1.1204   67.3125   68.4046 O   0  0  0  0  0  0
    3.2307   70.9700   69.6418 H   0  0  0  0  0  0
    2.1032   69.9425   67.7021 H   0  0  0  0  0  0
    3.4135   69.2160   65.7728 H   0  0  0  0  0  0
    7.0069   70.5979   67.6901 H   0  0  0  0  0  0
    5.6945   71.3078   69.6060 H   0  0  0  0  0  0
    6.5008   68.1597   65.9674 H   0  0  0  0  0  0
    7.1434   69.7229   65.5682 H   0  0  0  0  0  0
    6.3738   70.8628   63.5432 H   0  0  0  0  0  0
    4.7168   70.7663   64.0230 H   0  0  0  0  0  0
    5.9432   69.7089   61.4256 H   0  0  0  0  0  0
    4.7433   70.9078   61.5989 H   0  0  0  0  0  0
    3.7214   68.7663   60.8840 H   0  0  0  0  0  0
    4.0507   66.7481   62.2748 H   0  0  0  0  0  0
    5.5926   67.4165   61.8674 H   0  0  0  0  0  0
    5.5396   66.8754   64.2772 H   0  0  0  0  0  0
    4.0816   67.7646   64.5128 H   0  0  0  0  0  0
    2.1133   70.0549   62.0996 H   0  0  0  0  0  0
    2.8675   69.7838   63.6367 H   0  0  0  0  0  0
    2.3707   67.3078   63.2668 H   0  0  0  0  0  0
    1.2688   67.7629   62.0186 H   0  0  0  0  0  0
   -3.2017   69.3121   64.6422 H   0  0  0  0  0  0
   -4.0924   68.6482   66.8436 H   0  0  0  0  0  0
   -2.6709   67.4899   68.4615 H   0  0  0  0  0  0
  1  6  1  0  0  0
  1  2  2  0  0  0
  1 30  1  0  0  0
  2  3  1  0  0  0
  2 31  1  0  0  0
  3  4  2  0  0  0
  3 32  1  0  0  0
  4  5  1  0  0  0
  4  7  1  0  0  0
  5  6  2  0  0  0
  5 33  1  0  0  0
  6 34  1  0  0  0
  7  8  1  0  0  0
  7 35  1  0  0  0
  7 36  1  0  0  0
  8 13  1  0  0  0
  8  9  1  0  0  0
  9 10  1  0  0  0
  9 37  1  0  0  0
  9 38  1  0  0  0
 10 11  1  0  0  0
 10 39  1  0  0  0
 10 40  1  0  0  0
 11 12  1  0  0  0
 11 14  1  0  0  0
 11 41  1  0  0  0
 12 13  1  0  0  0
 12 42  1  0  0  0
 12 43  1  0  0  0
 13 44  1  0  0  0
 13 45  1  0  0  0
 14 15  1  0  0  0
 14 46  1  0  0  0
 14 47  1  0  0  0
 15 16  1  0  0  0
 15 48  1  0  0  0
 15 49  1  0  0  0
 16 25  1  0  0  0
 16 17  1  0  0  0
 17 18  2  0  0  0
 17 19  1  0  0  0
 19 24  2  0  0  0
 19 20  1  0  0  0
 20 21  2  0  0  0
 20 50  1  0  0  0
 21 22  1  0  0  0
 21 51  1  0  0  0
 22 23  2  0  0  0
 22 52  1  0  0  0
 23 24  1  0  0  0
 23 27  1  0  0  0
 24 25  1  0  0  0
 25 26  2  0  0  0
 27 28  1  0  0  0
 27 29  2  0  0  0
M  CHG  2  27   1  28  -1
M  END
> <s_m_entry_id>
9859

> <s_m_entry_name>
ligand_docking-pose.301

> <s_m_Source_Path>
/home/csk/Desktop/cluster/DUD-E-result/aces

> <s_m_Source_File>
ligand_docking-pose.sdf

> <i_m_Source_File_Index>
301

> <i_lp_mmshare_version>
53161

> <r_lp_tautomer_probability>
1

> <s_lp_Force_Field>
OPLS_2005

> <r_lp_Energy>
51.657646

> <b_lp_Chiralities_Consistent>
1

> <s_lp_Variant>
232436-1

> <s_i_glide_gridfile>
glide-grid_1e66

> <i_i_glide_lignum>
390

> <i_i_glide_rotatable_bonds>
6

> <r_i_docking_score>
-7.11348385212941

> <r_i_glide_ligand_efficiency>
-0.245292546625152

> <r_i_glide_ligand_efficiency_sa>
-0.753616417365902

> <r_i_glide_ligand_efficiency_ln>
-1.62880741975096

> <r_i_glide_gscore>
-7.11348385212941

> <r_i_glide_lipo>
-3.92281231776831

> <r_i_glide_hbond>
0

> <r_i_glide_metal>
0

> <r_i_glide_rewards>
-1.41787568208869

> <r_i_glide_evdw>
-44.6930236816406

> <r_i_glide_ecoul>
-1.12765395641327

> <r_i_glide_erotb>
0.631003425271615

> <r_i_glide_esite>
0

> <r_i_glide_emodel>
-49.2434217864491

> <r_i_glide_energy>
-45.8206776380539

> <r_i_glide_einternal>
19.158504486084

> <i_i_glide_confnum>
224

> <i_i_glide_posenum>
189

> <r_i_glide_eff_state_penalty>
0

> <i_f3d_flags>
0

> <s_user_duplicate_titles>
232436

> <s_m_subgroup_title>
dock_pv

> <s_m_subgroupid>
dock_pv1

> <b_m_subgroup_collapsed>
1

$$$$
180779
                    3D
 Schrodinger Suite 2021-1.
 46 49  0  0  1  0            999 V2000
   -0.0281   63.1590   70.8878 C   0  0  0  0  0  0
    0.8284   64.3684   71.3072 C   0  0  0  0  0  0
    0.4992   65.7129   70.6180 C   0  0  0  0  0  0
    0.5093   65.6400   69.0734 C   0  0  0  0  0  0
    0.3699   66.9247   68.2589 C   0  0  0  0  0  0
    0.7430   68.1080   68.7680 C   0  0  0  0  0  0
    0.5505   69.4516   68.0849 C   0  0  1  0  0  0
    1.9043   69.8332   67.4854 C   0  0  0  0  0  0
    2.1623   69.1541   66.1521 C   0  0  0  0  0  0
    1.1268   68.5080   65.4367 C   0  0  0  0  0  0
    1.3798   68.1989   64.0938 C   0  0  0  0  0  0
    2.6783   68.4111   63.5522 C   0  0  0  0  0  0
    3.0211   68.1080   62.2160 C   0  0  0  0  0  0
    4.3265   68.2414   61.7808 C   0  0  0  0  0  0
    5.3219   68.7294   62.6195 C   0  0  0  0  0  0
    5.0152   69.0867   63.9281 C   0  0  0  0  0  0
    3.6924   68.9278   64.4081 C   0  0  0  0  0  0
    3.4210   69.2970   65.6771 N   0  0  0  0  0  0
    0.3430   67.7080   63.2954 N   0  0  0  0  0  0
   -0.2384   68.2320   66.1129 C   0  0  2  0  0  0
   -0.6210   69.3346   67.0903 C   0  0  0  0  0  0
   -0.2752   66.8637   66.8586 C   0  0  0  0  0  0
    0.2797   62.2664   71.4332 H   0  0  0  0  0  0
    0.0780   62.9342   69.8262 H   0  0  0  0  0  0
   -1.0857   63.3080   71.0960 H   0  0  0  0  0  0
    0.7429   64.4987   72.3863 H   0  0  0  0  0  0
    1.8769   64.1284   71.1239 H   0  0  0  0  0  0
   -0.4570   66.1044   70.9646 H   0  0  0  0  0  0
    1.2482   66.4216   70.9647 H   0  0  0  0  0  0
    1.4597   65.2066   68.7680 H   0  0  0  0  0  0
   -0.2885   64.9647   68.7680 H   0  0  0  0  0  0
    1.2057   68.1092   69.7402 H   0  0  0  0  0  0
    0.2583   70.2365   68.7680 H   0  0  0  0  0  0
    1.9430   70.9079   67.3496 H   0  0  0  0  0  0
    2.7175   69.6218   68.1834 H   0  0  0  0  0  0
    2.2735   67.7241   61.5409 H   0  0  0  0  0  0
    4.5437   67.9519   60.7680 H   0  0  0  0  0  0
    6.3307   68.8381   62.2439 H   0  0  0  0  0  0
    5.7797   69.4851   64.5807 H   0  0  0  0  0  0
    0.5022   67.5901   62.3067 H   0  0  0  0  0  0
   -0.4340   67.2272   63.7439 H   0  0  0  0  0  0
   -1.0085   68.2070   65.3418 H   0  0  0  0  0  0
   -1.5442   69.0784   67.6142 H   0  0  0  0  0  0
   -0.8570   70.2630   66.5757 H   0  0  0  0  0  0
    0.1976   66.1079   66.2429 H   0  0  0  0  0  0
   -1.3070   66.5421   67.0067 H   0  0  0  0  0  0
  1  2  1  0  0  0
  1 23  1  0  0  0
  1 24  1  0  0  0
  1 25  1  0  0  0
  2  3  1  0  0  0
  2 26  1  0  0  0
  2 27  1  0  0  0
  3  4  1  0  0  0
  3 28  1  0  0  0
  3 29  1  0  0  0
  4  5  1  0  0  0
  4 30  1  0  0  0
  4 31  1  0  0  0
  5 22  1  0  0  0
  5  6  2  0  0  0
  6  7  1  0  0  0
  6 32  1  0  0  0
  7 21  1  0  0  0
  7  8  1  0  0  0
  7 33  1  0  0  0
  8  9  1  0  0  0
  8 34  1  0  0  0
  8 35  1  0  0  0
  9 18  2  0  0  0
  9 10  1  0  0  0
 10 11  2  0  0  0
 10 20  1  0  0  0
 11 12  1  0  0  0
 11 19  1  0  0  0
 12 17  2  0  0  0
 12 13  1  0  0  0
 13 14  2  0  0  0
 13 36  1  0  0  0
 14 15  1  0  0  0
 14 37  1  0  0  0
 15 16  2  0  0  0
 15 38  1  0  0  0
 16 17  1  0  0  0
 16 39  1  0  0  0
 17 18  1  0  0  0
 19 40  1  0  0  0
 19 41  1  0  0  0
 20 21  1  0  0  0
 20 22  1  0  0  0
 20 42  1  0  0  0
 21 43  1  0  0  0
 21 44  1  0  0  0
 22 45  1  0  0  0
 22 46  1  0  0  0
M  END
> <s_m_entry_id>
9862

> <s_m_entry_name>
ligand_docking-pose.304

> <s_m_Source_Path>
/home/csk/Desktop/cluster/DUD-E-result/aces

> <s_m_Source_File>
ligand_docking-pose.sdf

> <i_m_Source_File_Index>
304

> <i_lp_mmshare_version>
53161

> <r_lp_tautomer_probability>
1

> <s_lp_Force_Field>
OPLS_2005

> <r_lp_Energy>
23.327436

> <b_lp_Chiralities_Consistent>
1

> <s_lp_Variant>
180779-1

> <s_i_glide_gridfile>
glide-grid_1e66

> <i_i_glide_lignum>
972

> <i_i_glide_rotatable_bonds>
3

> <r_i_docking_score>
-7.11074543017178

> <r_i_glide_ligand_efficiency>
-0.323215701371445

> <r_i_glide_ligand_efficiency_sa>
-0.905663106595006

> <r_i_glide_ligand_efficiency_ln>
-1.73812555387554

> <r_i_glide_gscore>
-7.11074543017178

> <r_i_glide_lipo>
-3.27087140597352

> <r_i_glide_hbond>
-0.32

> <r_i_glide_metal>
0

> <r_i_glide_rewards>
-1.92533060230572

> <r_i_glide_evdw>
-25.2703495025635

> <r_i_glide_ecoul>
-5.05360651016235

> <r_i_glide_erotb>
0.427015029759986

> <r_i_glide_esite>
0

> <r_i_glide_emodel>
-30.6778203228793

> <r_i_glide_energy>
-30.3239560127258

> <r_i_glide_einternal>
2.65741753578186

> <i_i_glide_confnum>
4

> <i_i_glide_posenum>
245

> <r_i_glide_eff_state_penalty>
0

> <i_f3d_flags>
0

> <s_user_duplicate_titles>
180779

> <s_m_subgroup_title>
dock_pv

> <s_m_subgroupid>
dock_pv1

> <b_m_subgroup_collapsed>
1

$$$$
676828
                    3D
 Schrodinger Suite 2021-1.
 55 58  0  0  1  0            999 V2000
    5.9435   68.6241   62.8859 C   0  0  0  0  0  0
    5.4165   69.6623   63.6453 C   0  0  0  0  0  0
    4.0461   69.7079   63.8707 C   0  0  0  0  0  0
    3.2066   68.7342   63.3186 C   0  0  0  0  0  0
    3.7600   67.6816   62.5860 C   0  0  0  0  0  0
    5.1285   67.6289   62.3679 C   0  0  0  0  0  0
    1.7019   68.7872   63.5751 C   0  0  0  0  0  0
    1.2762   68.1090   64.8101 N   0  0  1  0  0  0
    1.8944   68.6612   66.0229 C   0  0  0  0  0  0
    1.5152   67.8210   67.2429 C   0  0  0  0  0  0
    0.0108   67.6940   67.5027 C   0  0  0  0  0  0
   -0.6715   67.3082   66.1763 C   0  0  0  0  0  0
   -0.1904   68.1277   64.9476 C   0  0  0  0  0  0
   -0.3175   66.7098   68.6596 C   0  0  0  0  0  0
    0.6667   66.7192   69.8578 C   0  0  0  0  0  0
    0.3430   65.7495   70.8969 N   0  0  0  0  0  0
    0.8601   64.4456   70.8947 C   0  0  0  0  0  0
    0.2914   63.5125   71.7607 C   0  0  0  0  0  0
    0.7884   62.2119   71.7537 C   0  0  0  0  0  0
    1.8541   61.9020   70.8971 C   0  0  0  0  0  0
    2.3811   62.8584   70.0782 N   0  0  0  0  0  0
    1.8918   64.1087   70.0717 N   0  0  0  0  0  0
    2.4474   60.5278   70.8066 C   0  0  0  0  0  0
    2.2096   59.5507   71.7887 C   0  0  0  0  0  0
    2.7579   58.2723   71.6676 C   0  0  0  0  0  0
    3.5435   57.9963   70.5545 C   0  0  0  0  0  0
    3.8146   58.9110   69.5931 N   0  0  0  0  0  0
    3.2685   60.1438   69.7322 C   0  0  0  0  0  0
    7.0053   68.5887   62.6893 H   0  0  0  0  0  0
    6.0652   70.4245   64.0494 H   0  0  0  0  0  0
    3.6376   70.5066   64.4687 H   0  0  0  0  0  0
    3.1431   66.9098   62.1662 H   0  0  0  0  0  0
    5.5591   66.8453   61.7654 H   0  0  0  0  0  0
    1.3855   69.8297   63.5677 H   0  0  0  0  0  0
    1.2005   68.3011   62.7356 H   0  0  0  0  0  0
    2.9791   68.6259   65.9423 H   0  0  0  0  0  0
    1.6241   69.7079   66.1558 H   0  0  0  0  0  0
    1.9372   66.8232   67.0985 H   0  0  0  0  0  0
    1.9588   68.2458   68.1399 H   0  0  0  0  0  0
   -0.3382   68.6976   67.7592 H   0  0  0  0  0  0
   -1.7570   67.3380   66.2802 H   0  0  0  0  0  0
   -0.4519   66.2599   65.9730 H   0  0  0  0  0  0
   -0.5484   69.1579   65.0054 H   0  0  0  0  0  0
   -0.6340   67.7083   64.0455 H   0  0  0  0  0  0
   -1.3337   66.8983   69.0063 H   0  0  0  0  0  0
   -0.3394   65.6960   68.2649 H   0  0  0  0  0  0
    1.6847   66.5451   69.5121 H   0  0  0  0  0  0
    0.7259   67.7078   70.3050 H   0  0  0  0  0  0
   -0.4646   65.9454   71.4695 H   0  0  0  0  0  0
   -0.5281   63.7748   72.4132 H   0  0  0  0  0  0
    0.3335   61.4743   72.3970 H   0  0  0  0  0  0
    1.6114   59.7638   72.6591 H   0  0  0  0  0  0
    2.5767   57.5185   72.4198 H   0  0  0  0  0  0
    3.9785   57.0185   70.4285 H   0  0  0  0  0  0
    3.5064   60.8361   68.9416 H   0  0  0  0  0  0
  1  6  1  0  0  0
  1  2  2  0  0  0
  1 29  1  0  0  0
  2  3  1  0  0  0
  2 30  1  0  0  0
  3  4  2  0  0  0
  3 31  1  0  0  0
  4  5  1  0  0  0
  4  7  1  0  0  0
  5  6  2  0  0  0
  5 32  1  0  0  0
  6 33  1  0  0  0
  7  8  1  0  0  0
  7 34  1  0  0  0
  7 35  1  0  0  0
  8 13  1  0  0  0
  8  9  1  0  0  0
  9 10  1  0  0  0
  9 36  1  0  0  0
  9 37  1  0  0  0
 10 11  1  0  0  0
 10 38  1  0  0  0
 10 39  1  0  0  0
 11 12  1  0  0  0
 11 14  1  0  0  0
 11 40  1  0  0  0
 12 13  1  0  0  0
 12 41  1  0  0  0
 12 42  1  0  0  0
 13 43  1  0  0  0
 13 44  1  0  0  0
 14 15  1  0  0  0
 14 45  1  0  0  0
 14 46  1  0  0  0
 15 16  1  0  0  0
 15 47  1  0  0  0
 15 48  1  0  0  0
 16 17  1  0  0  0
 16 49  1  0  0  0
 17 22  1  0  0  0
 17 18  2  0  0  0
 18 19  1  0  0  0
 18 50  1  0  0  0
 19 20  2  0  0  0
 19 51  1  0  0  0
 20 21  1  0  0  0
 20 23  1  0  0  0
 21 22  2  0  0  0
 23 28  1  0  0  0
 23 24  2  0  0  0
 24 25  1  0  0  0
 24 52  1  0  0  0
 25 26  2  0  0  0
 25 53  1  0  0  0
 26 27  1  0  0  0
 26 54  1  0  0  0
 27 28  2  0  0  0
 28 55  1  0  0  0
M  END
> <s_m_entry_id>
9864

> <s_m_entry_name>
ligand_docking-pose.306

> <s_m_Source_Path>
/home/csk/Desktop/cluster/DUD-E-result/aces

> <s_m_Source_File>
ligand_docking-pose.sdf

> <i_m_Source_File_Index>
306

> <i_lp_mmshare_version>
53161

> <r_lp_tautomer_probability>
0.999978240473126

> <s_lp_Force_Field>
OPLS_2005

> <r_lp_Energy>
32.016917

> <b_lp_Chiralities_Consistent>
1

> <s_lp_Variant>
676828-1

> <s_i_glide_gridfile>
glide-grid_1e66

> <i_i_glide_lignum>
415

> <i_i_glide_rotatable_bonds>
7

> <r_i_docking_score>
-7.10892105388847

> <r_i_glide_ligand_efficiency>
-0.253890037638874

> <r_i_glide_ligand_efficiency_sa>
-0.77095968750697

> <r_i_glide_ligand_efficiency_ln>
-1.64094770622936

> <r_i_glide_gscore>
-7.10892105388847

> <r_i_glide_lipo>
-3.45886100432402

> <r_i_glide_hbond>
-0.128373296658189

> <r_i_glide_metal>
0

> <r_i_glide_rewards>
-2.21392209378264

> <r_i_glide_evdw>
-42.4060020446777

> <r_i_glide_ecoul>
-1.0481903553009

> <r_i_glide_erotb>
0.969763996405401

> <r_i_glide_esite>
0

> <r_i_glide_emodel>
-57.5068314580108

> <r_i_glide_energy>
-43.4541923999786

> <r_i_glide_einternal>
4.36227512359619

> <i_i_glide_confnum>
23

> <i_i_glide_posenum>
330

> <r_i_glide_eff_state_penalty>
0

> <i_f3d_flags>
0

> <s_user_duplicate_titles>
676828

> <s_m_subgroup_title>
dock_pv

> <s_m_subgroupid>
dock_pv1

> <b_m_subgroup_collapsed>
1

$$$$
424207
                    3D
 Schrodinger Suite 2021-1.
 49 52  0  0  1  0            999 V2000
   -2.2860   68.0243   66.6097 C   0  0  0  0  0  0
   -1.2061   68.7598   67.3853 C   0  0  0  0  0  0
   -1.2573   70.0905   67.5700 C   0  0  0  0  0  0
   -0.0467   67.9207   67.9330 C   0  0  0  0  0  0
    1.1306   67.8293   67.0597 N   0  0  2  0  0  0
    1.7611   69.1406   66.8912 C   0  0  0  0  0  0
    3.1842   69.2681   66.3174 C   0  0  0  0  0  0
    3.4283   68.6798   64.9109 C   0  0  1  0  0  0
    2.4597   69.3079   63.8998 C   0  0  0  0  0  0
    2.8001   69.7073   62.6640 C   0  0  0  0  0  0
    4.2119   69.6073   62.1415 C   0  0  1  0  0  0
    5.2001   69.7933   63.3104 C   0  0  0  0  0  0
    4.9249   68.8064   64.4672 C   0  0  2  0  0  0
    5.3423   67.5168   64.0203 O   0  0  0  0  0  0
    4.3419   66.6156   64.2544 C   0  0  0  0  0  0
    3.2297   67.1999   64.8410 C   0  0  0  0  0  0
    2.1197   66.4247   65.1682 C   0  0  0  0  0  0
    2.1438   65.0911   64.7677 C   0  0  0  0  0  0
    3.2754   64.4777   64.2631 C   0  0  0  0  0  0
    4.4036   65.2416   63.9708 C   0  0  0  0  0  0
    5.5420   64.6998   63.4128 O   0  0  0  0  0  0
    5.6266   63.2755   63.2764 C   0  0  0  0  0  0
    0.9037   67.0231   65.8548 C   0  0  0  0  0  0
    4.3430   68.3318   61.5682 O   0  0  0  0  0  0
    4.3893   70.3608   61.3717 H   0  0  0  0  0  0
    5.5429   69.0763   65.3279 H   0  0  0  0  0  0
   -1.8888   67.6291   65.6777 H   0  0  0  0  0  0
   -2.6920   67.2049   67.2070 H   0  0  0  0  0  0
   -3.1151   68.6868   66.3496 H   0  0  0  0  0  0
   -0.4908   70.6042   68.1319 H   0  0  0  0  0  0
   -2.0534   70.6926   67.1686 H   0  0  0  0  0  0
    0.2759   68.3398   68.8893 H   0  0  0  0  0  0
   -0.4051   66.9162   68.1647 H   0  0  0  0  0  0
    1.0690   69.7079   66.2865 H   0  0  0  0  0  0
    1.8005   69.6232   67.8702 H   0  0  0  0  0  0
    3.4150   70.3328   66.2646 H   0  0  0  0  0  0
    3.9053   68.9080   67.0462 H   0  0  0  0  0  0
    1.4084   69.3096   64.1393 H   0  0  0  0  0  0
    2.0196   70.0515   62.0016 H   0  0  0  0  0  0
    5.0851   70.8116   63.6838 H   0  0  0  0  0  0
    6.2343   69.7086   62.9720 H   0  0  0  0  0  0
    1.2342   64.5122   64.7684 H   0  0  0  0  0  0
    3.2100   63.4301   64.0147 H   0  0  0  0  0  0
    6.5911   62.9992   62.8510 H   0  0  0  0  0  0
    5.5472   62.7842   64.2476 H   0  0  0  0  0  0
    4.8503   62.8728   62.6244 H   0  0  0  0  0  0
    0.2512   66.1879   66.1187 H   0  0  0  0  0  0
    0.3531   67.5988   65.1111 H   0  0  0  0  0  0
    5.0940   68.3507   60.9504 H   0  0  0  0  0  0
  1  2  1  0  0  0
  1 27  1  0  0  0
  1 28  1  0  0  0
  1 29  1  0  0  0
  2  3  2  0  0  0
  2  4  1  0  0  0
  3 30  1  0  0  0
  3 31  1  0  0  0
  4  5  1  0  0  0
  4 32  1  0  0  0
  4 33  1  0  0  0
  5 23  1  0  0  0
  5  6  1  0  0  0
  6  7  1  0  0  0
  6 34  1  0  0  0
  6 35  1  0  0  0
  7  8  1  0  0  0
  7 36  1  0  0  0
  7 37  1  0  0  0
  8 13  1  0  0  0
  8 16  1  0  0  0
  8  9  1  0  0  0
  9 10  2  0  0  0
  9 38  1  0  0  0
 10 11  1  0  0  0
 10 39  1  0  0  0
 11 25  1  0  0  0
 11 12  1  0  0  0
 11 24  1  0  0  0
 12 13  1  0  0  0
 12 40  1  0  0  0
 12 41  1  0  0  0
 13 26  1  0  0  0
 13 14  1  0  0  0
 14 15  1  0  0  0
 15 20  1  0  0  0
 15 16  2  0  0  0
 16 17  1  0  0  0
 17 18  2  0  0  0
 17 23  1  0  0  0
 18 19  1  0  0  0
 18 42  1  0  0  0
 19 20  2  0  0  0
 19 43  1  0  0  0
 20 21  1  0  0  0
 21 22  1  0  0  0
 22 44  1  0  0  0
 22 45  1  0  0  0
 22 46  1  0  0  0
 23 47  1  0  0  0
 23 48  1  0  0  0
 24 49  1  0  0  0
M  END
> <s_m_entry_id>
9872

> <s_m_entry_name>
ligand_docking-pose.314

> <s_m_Source_Path>
/home/csk/Desktop/cluster/DUD-E-result/aces

> <s_m_Source_File>
ligand_docking-pose.sdf

> <i_m_Source_File_Index>
314

> <i_lp_mmshare_version>
53161

> <r_lp_tautomer_probability>
1

> <s_lp_Force_Field>
OPLS_2005

> <r_lp_Energy>
51.790363

> <b_lp_Chiralities_Consistent>
1

> <s_lp_Variant>
424207-1

> <s_i_glide_gridfile>
glide-grid_1e66

> <i_i_glide_lignum>
1084

> <i_i_glide_rotatable_bonds>
4

> <r_i_docking_score>
-7.08019129347744

> <r_i_glide_ligand_efficiency>
-0.29500797056156

> <r_i_glide_ligand_efficiency_sa>
-0.850950236657886

> <r_i_glide_ligand_efficiency_ln>
-1.69461466533757

> <r_i_glide_gscore>
-7.08019129347744

> <r_i_glide_lipo>
-3.38144099432492

> <r_i_glide_hbond>
-0.249834724159532

> <r_i_glide_metal>
0

> <r_i_glide_rewards>
-1.23503287878788

> <r_i_glide_evdw>
-20.1360569000244

> <r_i_glide_ecoul>
-10.3814678192139

> <r_i_glide_erotb>
0.350140321678192

> <r_i_glide_esite>
0

> <r_i_glide_emodel>
-27.0767113619749

> <r_i_glide_energy>
-30.5175247192383

> <r_i_glide_einternal>
9.81977558135986

> <i_i_glide_confnum>
9

> <i_i_glide_posenum>
18

> <r_i_glide_eff_state_penalty>
0

> <i_f3d_flags>
0

> <s_user_duplicate_titles>
424207

> <s_m_subgroup_title>
dock_pv

> <s_m_subgroupid>
dock_pv1

> <b_m_subgroup_collapsed>
1

$$$$
283507
                    3D
 Schrodinger Suite 2021-1.
 29 31  0  0  1  0            999 V2000
    4.5541   69.3051   62.3334 C   0  0  0  0  0  0
    3.2423   68.9129   62.5744 C   0  0  0  0  0  0
    2.7230   68.9060   63.9002 C   0  0  0  0  0  0
    1.3922   68.5051   64.2257 C   0  0  0  0  0  0
    0.9734   68.4803   65.5687 C   0  0  0  0  0  0
    1.8806   68.9230   66.5492 C   0  0  0  0  0  0
    3.1434   69.3079   66.2565 N   0  0  0  0  0  0
    3.5791   69.3050   64.9713 C   0  0  0  0  0  0
    4.9155   69.7075   64.6931 C   0  0  0  0  0  0
    5.3756   69.7001   63.3807 C   0  0  0  0  0  0
    5.9956   70.2176   65.9499 Cl  0  0  0  0  0  0
    1.4935   68.9197   68.0214 C   0  0  0  0  0  0
    0.5876   67.7232   68.3347 C   0  0  0  0  0  0
   -0.6856   67.8559   67.4885 C   0  0  0  0  0  0
   -0.4048   67.9219   65.9694 C   0  0  0  0  0  0
    0.4894   68.1103   63.2294 N   0  0  0  0  0  0
    4.9420   69.3076   61.3242 H   0  0  0  0  0  0
    2.6192   68.6123   61.7458 H   0  0  0  0  0  0
    6.3855   70.0105   63.1723 H   0  0  0  0  0  0
    2.3719   68.9082   68.6673 H   0  0  0  0  0  0
    0.9724   69.8485   68.2567 H   0  0  0  0  0  0
    0.3444   67.7082   69.3978 H   0  0  0  0  0  0
    1.0960   66.7831   68.1190 H   0  0  0  0  0  0
   -1.2121   68.7658   67.7856 H   0  0  0  0  0  0
   -1.3753   67.0377   67.7040 H   0  0  0  0  0  0
   -1.2007   68.4804   65.4736 H   0  0  0  0  0  0
   -0.4567   66.9097   65.5721 H   0  0  0  0  0  0
   -0.4146   67.7505   63.5086 H   0  0  0  0  0  0
    0.7548   68.1477   62.2583 H   0  0  0  0  0  0
  1 10  1  0  0  0
  1  2  2  0  0  0
  1 17  1  0  0  0
  2  3  1  0  0  0
  2 18  1  0  0  0
  3  8  2  0  0  0
  3  4  1  0  0  0
  4  5  2  0  0  0
  4 16  1  0  0  0
  5 15  1  0  0  0
  5  6  1  0  0  0
  6  7  2  0  0  0
  6 12  1  0  0  0
  7  8  1  0  0  0
  8  9  1  0  0  0
  9 10  2  0  0  0
  9 11  1  0  0  0
 10 19  1  0  0  0
 12 13  1  0  0  0
 12 20  1  0  0  0
 12 21  1  0  0  0
 13 14  1  0  0  0
 13 22  1  0  0  0
 13 23  1  0  0  0
 14 15  1  0  0  0
 14 24  1  0  0  0
 14 25  1  0  0  0
 15 26  1  0  0  0
 15 27  1  0  0  0
 16 28  1  0  0  0
 16 29  1  0  0  0
M  END
> <s_m_entry_id>
9874

> <s_m_entry_name>
ligand_docking-pose.316

> <s_m_Source_Path>
/home/csk/Desktop/cluster/DUD-E-result/aces

> <s_m_Source_File>
ligand_docking-pose.sdf

> <i_m_Source_File_Index>
316

> <i_lp_mmshare_version>
53161

> <r_lp_tautomer_probability>
1

> <s_lp_Force_Field>
OPLS_2005

> <r_lp_Energy>
17.804144

> <b_lp_Chiralities_Consistent>
1

> <s_lp_Variant>
283507-1

> <s_i_glide_gridfile>
glide-grid_1e66

> <i_i_glide_lignum>
4

> <i_i_glide_rotatable_bonds>
0

> <r_i_docking_score>
-7.07884717266015

> <r_i_glide_ligand_efficiency>
-0.442427948291259

> <r_i_glide_ligand_efficiency_sa>
-1.11484856919758

> <r_i_glide_ligand_efficiency_ln>
-1.87638984629564

> <r_i_glide_gscore>
-7.07884717266015

> <r_i_glide_lipo>
-2.98393580134948

> <r_i_glide_hbond>
-0.045073294601671

> <r_i_glide_metal>
0

> <r_i_glide_rewards>
-2.15042586195299

> <r_i_glide_evdw>
-31.0546703338623

> <r_i_glide_ecoul>
-2.31119132041931

> <r_i_glide_erotb>
0

> <r_i_glide_esite>
0

> <r_i_glide_emodel>
-46.4440817625403

> <r_i_glide_energy>
-33.3658616542816

> <r_i_glide_einternal>
0

> <i_i_glide_confnum>
2

> <i_i_glide_posenum>
397

> <r_i_glide_eff_state_penalty>
0

> <i_f3d_flags>
0

> <s_user_duplicate_titles>
283507

> <s_m_subgroup_title>
dock_pv

> <s_m_subgroupid>
dock_pv1

> <b_m_subgroup_collapsed>
1

$$$$
547729
                    3D
 Schrodinger Suite 2021-1.
 50 52  0  0  1  0            999 V2000
    3.5028   62.6455   69.5069 C   0  0  0  0  0  0
    2.1505   62.3149   69.5680 C   0  0  0  0  0  0
    1.2304   63.2542   70.0287 C   0  0  0  0  0  0
    1.6651   64.5175   70.4436 C   0  0  0  0  0  0
    3.0228   64.8419   70.3680 C   0  0  0  0  0  0
    3.9434   63.9059   69.9041 C   0  0  0  0  0  0
    0.6486   65.5543   70.9374 C   0  0  0  0  0  0
    0.1227   66.5080   69.9421 N   0  0  1  0  0  0
    1.1218   67.4695   69.4455 C   0  0  0  0  0  0
    0.5966   68.4296   68.3357 C   0  0  0  0  0  0
   -0.2130   67.7497   67.2159 C   0  0  0  0  0  0
   -1.2383   66.7960   67.8536 C   0  0  0  0  0  0
   -0.5628   65.8320   68.8468 C   0  0  0  0  0  0
   -0.8594   68.7936   66.2587 C   0  0  0  0  0  0
   -0.5730   68.6005   64.7624 C   0  0  0  0  0  0
    0.8521   68.5080   64.4834 N   0  0  0  0  0  0
    1.3982   68.5142   63.2592 C   0  0  0  0  0  0
    0.7297   68.5080   62.2240 O   0  0  0  0  0  0
    2.9031   68.6193   63.2234 C   0  0  0  0  0  0
    3.5245   69.1404   62.0816 C   0  0  0  0  0  0
    4.9041   69.3008   62.0472 C   0  0  0  0  0  0
    5.6719   68.9180   63.1413 C   0  0  0  0  0  0
    5.0755   68.3885   64.2798 C   0  0  0  0  0  0
    3.6939   68.2344   64.3209 C   0  0  0  0  0  0
    4.2157   61.9185   69.1476 H   0  0  0  0  0  0
    1.8137   61.3375   69.2553 H   0  0  0  0  0  0
    0.1812   62.9983   70.0656 H   0  0  0  0  0  0
    3.3681   65.8169   70.6812 H   0  0  0  0  0  0
    4.9924   64.1606   69.8514 H   0  0  0  0  0  0
    1.0946   66.1080   71.7530 H   0  0  0  0  0  0
   -0.1942   65.0192   71.3733 H   0  0  0  0  0  0
    1.9430   66.8849   69.0499 H   0  0  0  0  0  0
    1.5429   68.0364   70.2772 H   0  0  0  0  0  0
    1.4163   69.0136   67.9161 H   0  0  0  0  0  0
   -0.0451   69.1905   68.7680 H   0  0  0  0  0  0
    0.4879   67.1061   66.6808 H   0  0  0  0  0  0
   -2.0199   67.3534   68.3680 H   0  0  0  0  0  0
   -1.7738   66.2521   67.0745 H   0  0  0  0  0  0
    0.2394   65.3080   68.3680 H   0  0  0  0  0  0
   -1.2570   65.0800   69.2026 H   0  0  0  0  0  0
   -0.5421   69.7987   66.5321 H   0  0  0  0  0  0
   -1.9410   68.8162   66.4031 H   0  0  0  0  0  0
   -1.0020   69.4082   64.1794 H   0  0  0  0  0  0
   -1.0595   67.7080   64.4084 H   0  0  0  0  0  0
    1.4640   68.5090   65.2836 H   0  0  0  0  0  0
    2.9423   69.4439   61.2224 H   0  0  0  0  0  0
    5.3825   69.7081   61.1680 H   0  0  0  0  0  0
    6.7430   69.0374   63.1040 H   0  0  0  0  0  0
    5.6813   68.1077   65.1290 H   0  0  0  0  0  0
    3.2547   67.8220   65.2180 H   0  0  0  0  0  0
  1  6  1  0  0  0
  1  2  2  0  0  0
  1 25  1  0  0  0
  2  3  1  0  0  0
  2 26  1  0  0  0
  3  4  2  0  0  0
  3 27  1  0  0  0
  4  5  1  0  0  0
  4  7  1  0  0  0
  5  6  2  0  0  0
  5 28  1  0  0  0
  6 29  1  0  0  0
  7  8  1  0  0  0
  7 30  1  0  0  0
  7 31  1  0  0  0
  8 13  1  0  0  0
  8  9  1  0  0  0
  9 10  1  0  0  0
  9 32  1  0  0  0
  9 33  1  0  0  0
 10 11  1  0  0  0
 10 34  1  0  0  0
 10 35  1  0  0  0
 11 12  1  0  0  0
 11 14  1  0  0  0
 11 36  1  0  0  0
 12 13  1  0  0  0
 12 37  1  0  0  0
 12 38  1  0  0  0
 13 39  1  0  0  0
 13 40  1  0  0  0
 14 15  1  0  0  0
 14 41  1  0  0  0
 14 42  1  0  0  0
 15 16  1  0  0  0
 15 43  1  0  0  0
 15 44  1  0  0  0
 16 17  1  0  0  0
 16 45  1  0  0  0
 17 18  2  0  0  0
 17 19  1  0  0  0
 19 24  1  0  0  0
 19 20  2  0  0  0
 20 21  1  0  0  0
 20 46  1  0  0  0
 21 22  2  0  0  0
 21 47  1  0  0  0
 22 23  1  0  0  0
 22 48  1  0  0  0
 23 24  2  0  0  0
 23 49  1  0  0  0
 24 50  1  0  0  0
M  END
> <s_m_entry_id>
9876

> <s_m_entry_name>
ligand_docking-pose.318

> <s_m_Source_Path>
/home/csk/Desktop/cluster/DUD-E-result/aces

> <s_m_Source_File>
ligand_docking-pose.sdf

> <i_m_Source_File_Index>
318

> <i_lp_mmshare_version>
53161

> <r_lp_tautomer_probability>
1

> <s_lp_Force_Field>
OPLS_2005

> <r_lp_Energy>
26.696442

> <b_lp_Chiralities_Consistent>
1

> <s_lp_Variant>
547729-1

> <s_i_glide_gridfile>
glide-grid_1e66

> <i_i_glide_lignum>
424

> <i_i_glide_rotatable_bonds>
7

> <r_i_docking_score>
-7.07527782284272

> <r_i_glide_ligand_efficiency>
-0.294803242618447

> <r_i_glide_ligand_efficiency_sa>
-0.850359699082541

> <r_i_glide_ligand_efficiency_ln>
-1.69343864635021

> <r_i_glide_gscore>
-7.07527782284272

> <r_i_glide_lipo>
-3.45848936296362

> <r_i_glide_hbond>
0

> <r_i_glide_metal>
0

> <r_i_glide_rewards>
-2.36416518314236

> <r_i_glide_evdw>
-38.4740333557129

> <r_i_glide_ecoul>
-2.72067975997925

> <r_i_glide_erotb>
1.0791803550458

> <r_i_glide_esite>
0

> <r_i_glide_emodel>
-50.2167026012725

> <r_i_glide_energy>
-41.1947131156921

> <r_i_glide_einternal>
10.8353662490845

> <i_i_glide_confnum>
16

> <i_i_glide_posenum>
85

> <r_i_glide_eff_state_penalty>
0

> <i_f3d_flags>
0

> <s_user_duplicate_titles>
547729

> <s_m_subgroup_title>
dock_pv

> <s_m_subgroupid>
dock_pv1

> <b_m_subgroup_collapsed>
1

$$$$
547371
                    3D
 Schrodinger Suite 2021-1.
 80 85  0  0  1  0            999 V2000
    7.2171   70.6506   67.6095 C   0  0  0  0  0  0
    5.7060   70.5049   67.5903 C   0  0  0  0  0  0
    4.9759   70.8865   68.7111 C   0  0  0  0  0  0
    3.6098   70.6664   68.7684 C   0  0  0  0  0  0
    2.9423   70.1080   67.6848 C   0  0  0  0  0  0
    3.6351   69.7079   66.4960 C   0  0  0  0  0  0
    5.0498   69.9090   66.4696 C   0  0  0  0  0  0
    5.7912   69.5453   65.3940 N   0  0  0  0  0  0
    5.1966   69.0763   64.2776 C   0  0  0  0  0  0
    3.8118   68.8615   64.1858 C   0  0  0  0  0  0
    3.0197   69.1450   65.3144 C   0  0  0  0  0  0
    1.6535   68.8149   65.1890 N   0  0  0  0  0  0
    1.1118   67.9660   66.2289 C   0  0  0  0  0  0
   -0.2407   67.3079   65.9709 C   0  0  0  0  0  0
   -1.1112   67.1925   67.2514 C   0  0  0  0  0  0
   -0.5208   66.4409   68.4767 C   0  0  0  0  0  0
    0.6740   67.1155   69.1953 C   0  0  0  0  0  0
    1.3819   66.2973   70.2826 C   0  0  0  0  0  0
    0.4444   65.6024   71.2850 C   0  0  0  0  0  0
    0.3227   64.1694   71.0170 N   0  0  0  0  0  0
    1.1298   63.2791   71.7543 C   0  0  0  0  0  0
    0.9255   63.0748   73.1570 C   0  0  0  0  0  0
   -0.0569   63.7534   73.9327 C   0  0  0  0  0  0
   -0.2138   63.4822   75.2886 C   0  0  0  0  0  0
    0.5793   62.5272   75.9093 C   0  0  0  0  0  0
    1.5427   61.8318   75.1860 C   0  0  0  0  0  0
    1.7359   62.1027   73.8111 C   0  0  0  0  0  0
    2.7020   61.4151   73.1602 N   0  0  0  0  0  0
    2.9133   61.6404   71.8431 C   0  0  0  0  0  0
    2.1075   62.5155   71.0818 C   0  0  0  0  0  0
    2.2818   62.5719   69.5536 C   0  0  0  0  0  0
    3.6759   62.1277   69.0936 C   0  0  0  0  0  0
    3.9892   60.7523   69.6945 C   0  0  0  0  0  0
    4.0878   60.8788   71.2240 C   0  0  0  0  0  0
    3.2013   68.2274   62.9137 C   0  0  0  0  0  0
    4.2064   67.8784   61.7998 C   0  0  0  0  0  0
    5.5739   67.4984   62.3671 C   0  0  0  0  0  0
    6.1216   68.7050   63.1283 C   0  0  0  0  0  0
    7.5421   71.4185   68.3135 H   0  0  0  0  0  0
    7.6748   69.7089   67.9039 H   0  0  0  0  0  0
    7.6022   70.9080   66.6242 H   0  0  0  0  0  0
    5.4836   71.3075   69.5642 H   0  0  0  0  0  0
    3.0543   70.9474   69.6508 H   0  0  0  0  0  0
    1.8727   70.0933   67.7539 H   0  0  0  0  0  0
    1.4118   68.4793   64.2697 H   0  0  0  0  0  0
    0.9381   68.6124   67.0703 H   0  0  0  0  0  0
    1.8439   67.2018   66.4954 H   0  0  0  0  0  0
   -0.0569   66.3150   65.5684 H   0  0  0  0  0  0
   -0.8000   67.8573   65.2102 H   0  0  0  0  0  0
   -2.0419   66.6987   66.9653 H   0  0  0  0  0  0
   -1.4093   68.1951   67.5665 H   0  0  0  0  0  0
   -0.2602   65.4215   68.2288 H   0  0  0  0  0  0
   -1.3375   66.3390   69.1904 H   0  0  0  0  0  0
    0.3618   68.0877   69.5686 H   0  0  0  0  0  0
    1.4923   67.3252   68.5294 H   0  0  0  0  0  0
    2.0571   66.9904   70.7680 H   0  0  0  0  0  0
    2.0682   65.5875   69.8264 H   0  0  0  0  0  0
   -0.5124   66.1083   71.2634 H   0  0  0  0  0  0
    0.7431   65.7701   72.3125 H   0  0  0  0  0  0
    0.2805   63.9760   70.0267 H   0  0  0  0  0  0
   -0.6979   64.4839   73.4668 H   0  0  0  0  0  0
   -0.9612   64.0132   75.8607 H   0  0  0  0  0  0
    0.4516   62.3259   76.9620 H   0  0  0  0  0  0
    2.1676   61.0971   75.6749 H   0  0  0  0  0  0
    1.5333   61.9192   69.1042 H   0  0  0  0  0  0
    2.0809   63.5659   69.1677 H   0  0  0  0  0  0
    3.7277   62.1083   68.0063 H   0  0  0  0  0  0
    4.4195   62.8608   69.4103 H   0  0  0  0  0  0
    3.2125   60.0354   69.4182 H   0  0  0  0  0  0
    4.9220   60.3619   69.2895 H   0  0  0  0  0  0
    4.9990   61.4263   71.4720 H   0  0  0  0  0  0
    4.1969   59.8945   71.6820 H   0  0  0  0  0  0
    2.7073   67.3076   63.2217 H   0  0  0  0  0  0
    2.4163   68.8706   62.5101 H   0  0  0  0  0  0
    3.8257   67.0745   61.1728 H   0  0  0  0  0  0
    4.3215   68.7407   61.1398 H   0  0  0  0  0  0
    5.4924   66.6239   63.0127 H   0  0  0  0  0  0
    6.2640   67.2469   61.5680 H   0  0  0  0  0  0
    7.1413   68.5079   63.4611 H   0  0  0  0  0  0
    6.1856   69.5598   62.4570 H   0  0  0  0  0  0
  1  2  1  0  0  0
  1 39  1  0  0  0
  1 40  1  0  0  0
  1 41  1  0  0  0
  2  7  1  0  0  0
  2  3  2  0  0  0
  3  4  1  0  0  0
  3 42  1  0  0  0
  4  5  2  0  0  0
  4 43  1  0  0  0
  5  6  1  0  0  0
  5 44  1  0  0  0
  6 11  2  0  0  0
  6  7  1  0  0  0
  7  8  2  0  0  0
  8  9  1  0  0  0
  9 38  1  0  0  0
  9 10  2  0  0  0
 10 11  1  0  0  0
 10 35  1  0  0  0
 11 12  1  0  0  0
 12 13  1  0  0  0
 12 45  1  0  0  0
 13 14  1  0  0  0
 13 46  1  0  0  0
 13 47  1  0  0  0
 14 15  1  0  0  0
 14 48  1  0  0  0
 14 49  1  0  0  0
 15 16  1  0  0  0
 15 50  1  0  0  0
 15 51  1  0  0  0
 16 17  1  0  0  0
 16 52  1  0  0  0
 16 53  1  0  0  0
 17 18  1  0  0  0
 17 54  1  0  0  0
 17 55  1  0  0  0
 18 19  1  0  0  0
 18 56  1  0  0  0
 18 57  1  0  0  0
 19 20  1  0  0  0
 19 58  1  0  0  0
 19 59  1  0  0  0
 20 21  1  0  0  0
 20 60  1  0  0  0
 21 30  1  0  0  0
 21 22  2  0  0  0
 22 27  1  0  0  0
 22 23  1  0  0  0
 23 24  2  0  0  0
 23 61  1  0  0  0
 24 25  1  0  0  0
 24 62  1  0  0  0
 25 26  2  0  0  0
 25 63  1  0  0  0
 26 27  1  0  0  0
 26 64  1  0  0  0
 27 28  2  0  0  0
 28 29  1  0  0  0
 29 34  1  0  0  0
 29 30  2  0  0  0
 30 31  1  0  0  0
 31 32  1  0  0  0
 31 65  1  0  0  0
 31 66  1  0  0  0
 32 33  1  0  0  0
 32 67  1  0  0  0
 32 68  1  0  0  0
 33 34  1  0  0  0
 33 69  1  0  0  0
 33 70  1  0  0  0
 34 71  1  0  0  0
 34 72  1  0  0  0
 35 36  1  0  0  0
 35 73  1  0  0  0
 35 74  1  0  0  0
 36 37  1  0  0  0
 36 75  1  0  0  0
 36 76  1  0  0  0
 37 38  1  0  0  0
 37 77  1  0  0  0
 37 78  1  0  0  0
 38 79  1  0  0  0
 38 80  1  0  0  0
M  END
> <s_m_entry_id>
9879

> <s_m_entry_name>
ligand_docking-pose.321

> <s_m_Source_Path>
/home/csk/Desktop/cluster/DUD-E-result/aces

> <s_m_Source_File>
ligand_docking-pose.sdf

> <i_m_Source_File_Index>
321

> <i_lp_mmshare_version>
53161

> <r_lp_tautomer_probability>
1

> <s_lp_Force_Field>
OPLS_2005

> <r_lp_Energy>
40.101991

> <b_lp_Chiralities_Consistent>
1

> <s_lp_Variant>
547371-1

> <s_i_glide_gridfile>
glide-grid_1e66

> <i_i_glide_lignum>
703

> <i_i_glide_rotatable_bonds>
10

> <r_i_docking_score>
-7.0731486099193

> <r_i_glide_ligand_efficiency>
-0.186135489734718

> <r_i_glide_ligand_efficiency_sa>
-0.625782938061824

> <r_i_glide_ligand_efficiency_ln>
-1.52517891124994

> <r_i_glide_gscore>
-7.0731486099193

> <r_i_glide_lipo>
-5.13317954470836

> <r_i_glide_hbond>
0

> <r_i_glide_metal>
0

> <r_i_glide_rewards>
-0.9

> <r_i_glide_evdw>
-48.8481101989746

> <r_i_glide_ecoul>
4.56818199157715

> <r_i_glide_erotb>
0.717209146001223

> <r_i_glide_esite>
0

> <r_i_glide_emodel>
-54.6562861421041

> <r_i_glide_energy>
-44.2799282073975

> <r_i_glide_einternal>
12.4482698440552

> <i_i_glide_confnum>
3

> <i_i_glide_posenum>
269

> <r_i_glide_eff_state_penalty>
0

> <i_f3d_flags>
0

> <s_user_duplicate_titles>
547371

> <s_m_subgroup_title>
dock_pv

> <s_m_subgroupid>
dock_pv1

> <b_m_subgroup_collapsed>
1

$$$$
268083
                    3D
 Schrodinger Suite 2021-1.
 52 54  0  0  1  0            999 V2000
    3.8353   62.0505   69.9965 C   0  0  0  0  0  0
    2.4980   61.7775   69.7217 C   0  0  0  0  0  0
    1.5322   62.7499   69.9688 C   0  0  0  0  0  0
    1.9054   63.9820   70.5177 C   0  0  0  0  0  0
    3.2512   64.2590   70.7632 C   0  0  0  0  0  0
    4.2183   63.2909   70.5064 C   0  0  0  0  0  0
    0.8458   65.0477   70.7536 C   0  0  0  0  0  0
    0.5960   65.8344   69.5421 N   0  0  1  0  0  0
   -0.8255   66.0919   69.3276 C   0  0  0  0  0  0
   -1.1463   66.9085   68.0597 C   0  0  0  0  0  0
   -0.2385   68.1482   67.8565 C   0  0  0  0  0  0
    1.2155   67.7118   68.0749 C   0  0  0  0  0  0
    1.4130   67.0418   69.4531 C   0  0  0  0  0  0
   -0.4660   68.9027   66.5297 C   0  0  0  0  0  0
   -0.7286   67.9755   65.3287 C   0  0  0  0  0  0
   -0.3467   68.5083   64.0317 N   0  0  0  0  0  0
    0.9634   68.5084   63.6049 C   0  0  0  0  0  0
    1.9669   68.0584   64.2586 N   0  0  0  0  0  0
    3.2977   68.2425   63.8756 C   0  0  0  0  0  0
    3.8361   67.5938   62.7563 C   0  0  0  0  0  0
    5.1512   67.8124   62.3682 C   0  0  0  0  0  0
    5.9431   68.7086   63.0771 C   0  0  0  0  0  0
    5.4412   69.3421   64.2086 C   0  0  0  0  0  0
    4.1298   69.1007   64.6146 C   0  0  0  0  0  0
    3.6696   69.7086   65.7334 F   0  0  0  0  0  0
    1.0848   69.3078   61.9972 S   0  0  0  0  0  0
    4.5825   61.2948   69.8097 H   0  0  0  0  0  0
    2.2079   60.8195   69.3150 H   0  0  0  0  0  0
    0.4954   62.5457   69.7416 H   0  0  0  0  0  0
    3.5489   65.2221   71.1509 H   0  0  0  0  0  0
    5.2568   63.5053   70.7021 H   0  0  0  0  0  0
    1.1415   65.7074   71.5686 H   0  0  0  0  0  0
   -0.0592   64.5325   71.0750 H   0  0  0  0  0  0
   -1.2569   66.5539   70.2118 H   0  0  0  0  0  0
   -1.2575   65.1000   69.2189 H   0  0  0  0  0  0
   -2.1946   67.2079   68.0497 H   0  0  0  0  0  0
   -1.0670   66.2120   67.2248 H   0  0  0  0  0  0
   -0.4138   68.8718   68.6451 H   0  0  0  0  0  0
    1.5430   67.0478   67.2723 H   0  0  0  0  0  0
    1.8715   68.5806   68.0008 H   0  0  0  0  0  0
    1.1557   67.7076   70.2775 H   0  0  0  0  0  0
    2.4509   66.7650   69.5928 H   0  0  0  0  0  0
    0.4091   69.5285   66.3603 H   0  0  0  0  0  0
   -1.2997   69.6006   66.6286 H   0  0  0  0  0  0
   -1.7842   67.7081   65.3118 H   0  0  0  0  0  0
   -0.1695   67.0479   65.4686 H   0  0  0  0  0  0
   -1.0651   69.0052   63.5235 H   0  0  0  0  0  0
    3.2227   66.9204   62.1775 H   0  0  0  0  0  0
    5.5549   67.3077   61.5051 H   0  0  0  0  0  0
    6.9559   68.9008   62.7480 H   0  0  0  0  0  0
    6.0669   70.0218   64.7680 H   0  0  0  0  0  0
   -0.2239   69.4998   61.8399 H   0  0  0  0  0  0
  1  6  1  0  0  0
  1  2  2  0  0  0
  1 27  1  0  0  0
  2  3  1  0  0  0
  2 28  1  0  0  0
  3  4  2  0  0  0
  3 29  1  0  0  0
  4  5  1  0  0  0
  4  7  1  0  0  0
  5  6  2  0  0  0
  5 30  1  0  0  0
  6 31  1  0  0  0
  7  8  1  0  0  0
  7 32  1  0  0  0
  7 33  1  0  0  0
  8 13  1  0  0  0
  8  9  1  0  0  0
  9 10  1  0  0  0
  9 34  1  0  0  0
  9 35  1  0  0  0
 10 11  1  0  0  0
 10 36  1  0  0  0
 10 37  1  0  0  0
 11 12  1  0  0  0
 11 14  1  0  0  0
 11 38  1  0  0  0
 12 13  1  0  0  0
 12 39  1  0  0  0
 12 40  1  0  0  0
 13 41  1  0  0  0
 13 42  1  0  0  0
 14 15  1  0  0  0
 14 43  1  0  0  0
 14 44  1  0  0  0
 15 16  1  0  0  0
 15 45  1  0  0  0
 15 46  1  0  0  0
 16 17  1  0  0  0
 16 47  1  0  0  0
 17 18  2  0  0  0
 17 26  1  0  0  0
 18 19  1  0  0  0
 19 24  1  0  0  0
 19 20  2  0  0  0
 20 21  1  0  0  0
 20 48  1  0  0  0
 21 22  2  0  0  0
 21 49  1  0  0  0
 22 23  1  0  0  0
 22 50  1  0  0  0
 23 24  2  0  0  0
 23 51  1  0  0  0
 24 25  1  0  0  0
 26 52  1  0  0  0
M  END
> <s_m_entry_id>
9880

> <s_m_entry_name>
ligand_docking-pose.322

> <s_m_Source_Path>
/home/csk/Desktop/cluster/DUD-E-result/aces

> <s_m_Source_File>
ligand_docking-pose.sdf

> <i_m_Source_File_Index>
322

> <i_lp_mmshare_version>
53161

> <r_lp_tautomer_probability>
1

> <s_lp_Force_Field>
OPLS_2005

> <r_lp_Energy>
31.815938

> <b_lp_Chiralities_Consistent>
1

> <s_lp_Variant>
268083-1

> <s_i_glide_gridfile>
glide-grid_1e66

> <i_i_glide_lignum>
421

> <i_i_glide_rotatable_bonds>
8

> <r_i_docking_score>
-7.06898394977111

> <r_i_glide_ligand_efficiency>
-0.271883998068119

> <r_i_glide_ligand_efficiency_sa>
-0.805455274464931

> <r_i_glide_ligand_efficiency_ln>
-1.66012768537552

> <r_i_glide_gscore>
-7.06898394977111

> <r_i_glide_lipo>
-3.11645295275218

> <r_i_glide_hbond>
0

> <r_i_glide_metal>
0

> <r_i_glide_rewards>
-2.79860361528992

> <r_i_glide_evdw>
-43.1410064697266

> <r_i_glide_ecoul>
0.160696044564247

> <r_i_glide_erotb>
0.979018535072692

> <r_i_glide_esite>
0

> <r_i_glide_emodel>
-58.6068169961744

> <r_i_glide_energy>
-42.9803104251623

> <r_i_glide_einternal>
6.01263570785522

> <i_i_glide_confnum>
3

> <i_i_glide_posenum>
66

> <r_i_glide_eff_state_penalty>
0

> <i_f3d_flags>
0

> <s_user_duplicate_titles>
268083

> <s_m_subgroup_title>
dock_pv

> <s_m_subgroupid>
dock_pv1

> <b_m_subgroup_collapsed>
1

$$$$
323329
                    3D
 Schrodinger Suite 2021-1.
 69 72  0  0  1  0            999 V2000
    4.7934   70.1884   67.5774 C   0  0  0  0  0  0
    5.8434   70.2298   66.6661 C   0  0  0  0  0  0
    5.6448   69.8277   65.3486 C   0  0  0  0  0  0
    4.3845   69.3647   64.9155 C   0  0  0  0  0  0
    3.3086   69.3020   65.8423 C   0  0  0  0  0  0
    3.5424   69.7081   67.1842 C   0  0  0  0  0  0
    2.0348   68.9083   65.3435 C   0  0  0  0  0  0
    1.8608   68.6857   63.9709 C   0  0  0  0  0  0
    3.0016   68.6990   63.1509 C   0  0  0  0  0  0
    4.2318   69.0338   63.6093 N   0  0  0  0  0  0
    2.8634   68.4007   61.6728 C   0  0  0  0  0  0
    1.6240   69.1118   61.1126 C   0  0  0  0  0  0
    0.3425   68.6712   61.8539 C   0  0  0  0  0  0
    0.4536   68.5163   63.3762 C   0  0  0  0  0  0
    0.8997   68.9089   66.1621 N   0  0  0  0  0  0
    0.6499   67.6709   66.8437 C   0  0  0  0  0  0
   -0.5839   67.7972   67.7444 C   0  0  0  0  0  0
   -0.7859   66.5773   68.6366 C   0  0  0  0  0  0
    0.3981   66.3901   69.5853 C   0  0  0  0  0  0
    0.1982   65.2823   70.6069 C   0  0  0  0  0  0
    1.4879   64.9497   71.1681 N   0  0  0  0  0  0
    2.3862   64.0673   70.7454 C   0  0  0  0  0  0
    3.5383   64.1167   71.1635 O   0  0  0  0  0  0
    1.9595   62.9927   69.7499 C   0  0  0  0  0  0
    2.9162   61.8130   69.7635 C   0  0  0  0  0  0
    2.3177   60.5052   69.2859 C   0  0  0  0  0  0
    3.3166   59.3413   69.3670 C   0  0  0  0  0  0
    3.8113   58.9294   70.7814 C   0  0  2  0  0  0
    2.7240   58.6040   71.8254 C   0  0  0  0  0  0
    3.3172   58.8239   73.2162 C   0  0  0  0  0  0
    3.9746   60.5030   73.1567 S   0  0  0  0  0  0
    5.0517   60.1078   71.4721 S   0  0  0  0  0  0
    4.9516   70.5136   68.5977 H   0  0  0  0  0  0
    6.8121   70.5930   66.9752 H   0  0  0  0  0  0
    6.4348   69.9008   64.6239 H   0  0  0  0  0  0
    2.7331   69.6819   67.9003 H   0  0  0  0  0  0
    2.7580   67.3237   61.5784 H   0  0  0  0  0  0
    3.7616   68.6672   61.1172 H   0  0  0  0  0  0
    1.5141   68.9136   60.0473 H   0  0  0  0  0  0
    1.7450   70.1901   61.1737 H   0  0  0  0  0  0
   -0.0069   67.7079   61.5067 H   0  0  0  0  0  0
   -0.4477   69.3779   61.6237 H   0  0  0  0  0  0
    0.0255   67.5693   63.7014 H   0  0  0  0  0  0
   -0.1999   69.2741   63.8095 H   0  0  0  0  0  0
    0.0690   69.1704   65.6517 H   0  0  0  0  0  0
    1.5449   67.4288   67.4115 H   0  0  0  0  0  0
    0.5548   66.8416   66.1433 H   0  0  0  0  0  0
   -1.4747   67.9643   67.1354 H   0  0  0  0  0  0
   -0.4742   68.6882   68.3674 H   0  0  0  0  0  0
   -0.8735   65.7086   67.9998 H   0  0  0  0  0  0
   -1.7282   66.6484   69.1809 H   0  0  0  0  0  0
    0.6176   67.3231   70.1086 H   0  0  0  0  0  0
    1.2795   66.1459   68.9939 H   0  0  0  0  0  0
   -0.2934   64.4187   70.1601 H   0  0  0  0  0  0
   -0.4559   65.6331   71.4092 H   0  0  0  0  0  0
    1.8334   65.6092   71.8524 H   0  0  0  0  0  0
    1.9418   63.4329   68.7687 H   0  0  0  0  0  0
    0.9524   62.6510   69.9806 H   0  0  0  0  0  0
    3.1730   61.6615   70.8009 H   0  0  0  0  0  0
    3.8367   62.0428   69.2249 H   0  0  0  0  0  0
    1.9428   60.6226   68.2731 H   0  0  0  0  0  0
    1.4417   60.2809   69.8877 H   0  0  0  0  0  0
    4.1798   59.5483   68.7331 H   0  0  0  0  0  0
    2.8188   58.5035   68.8982 H   0  0  0  0  0  0
    4.3462   57.9936   70.6473 H   0  0  0  0  0  0
    2.3765   57.5740   71.7131 H   0  0  0  0  0  0
    1.8483   59.2433   71.7233 H   0  0  0  0  0  0
    4.1207   58.1193   73.4401 H   0  0  0  0  0  0
    2.5650   58.7509   74.0013 H   0  0  0  0  0  0
  1  6  1  0  0  0
  1  2  2  0  0  0
  1 33  1  0  0  0
  2  3  1  0  0  0
  2 34  1  0  0  0
  3  4  2  0  0  0
  3 35  1  0  0  0
  4 10  1  0  0  0
  4  5  1  0  0  0
  5  6  2  0  0  0
  5  7  1  0  0  0
  6 36  1  0  0  0
  7  8  2  0  0  0
  7 15  1  0  0  0
  8 14  1  0  0  0
  8  9  1  0  0  0
  9 10  2  0  0  0
  9 11  1  0  0  0
 11 12  1  0  0  0
 11 37  1  0  0  0
 11 38  1  0  0  0
 12 13  1  0  0  0
 12 39  1  0  0  0
 12 40  1  0  0  0
 13 14  1  0  0  0
 13 41  1  0  0  0
 13 42  1  0  0  0
 14 43  1  0  0  0
 14 44  1  0  0  0
 15 16  1  0  0  0
 15 45  1  0  0  0
 16 17  1  0  0  0
 16 46  1  0  0  0
 16 47  1  0  0  0
 17 18  1  0  0  0
 17 48  1  0  0  0
 17 49  1  0  0  0
 18 19  1  0  0  0
 18 50  1  0  0  0
 18 51  1  0  0  0
 19 20  1  0  0  0
 19 52  1  0  0  0
 19 53  1  0  0  0
 20 21  1  0  0  0
 20 54  1  0  0  0
 20 55  1  0  0  0
 21 22  1  0  0  0
 21 56  1  0  0  0
 22 23  2  0  0  0
 22 24  1  0  0  0
 24 25  1  0  0  0
 24 57  1  0  0  0
 24 58  1  0  0  0
 25 26  1  0  0  0
 25 59  1  0  0  0
 25 60  1  0  0  0
 26 27  1  0  0  0
 26 61  1  0  0  0
 26 62  1  0  0  0
 27 28  1  0  0  0
 27 63  1  0  0  0
 27 64  1  0  0  0
 28 32  1  0  0  0
 28 29  1  0  0  0
 28 65  1  0  0  0
 29 30  1  0  0  0
 29 66  1  0  0  0
 29 67  1  0  0  0
 30 31  1  0  0  0
 30 68  1  0  0  0
 30 69  1  0  0  0
 31 32  1  0  0  0
M  END
> <s_m_entry_id>
9883

> <s_m_entry_name>
ligand_docking-pose.325

> <s_m_Source_Path>
/home/csk/Desktop/cluster/DUD-E-result/aces

> <s_m_Source_File>
ligand_docking-pose.sdf

> <i_m_Source_File_Index>
325

> <i_lp_mmshare_version>
53161

> <r_lp_tautomer_probability>
1

> <s_lp_Force_Field>
OPLS_2005

> <r_lp_Energy>
29.154678

> <b_lp_Chiralities_Consistent>
1

> <s_lp_Variant>
323329-1

> <s_i_glide_gridfile>
glide-grid_1e66

> <i_i_glide_lignum>
195

> <i_i_glide_rotatable_bonds>
13

> <r_i_docking_score>
-7.05993753815499

> <r_i_glide_ligand_efficiency>
-0.220623048067343

> <r_i_glide_ligand_efficiency_sa>
-0.70043451637189

> <r_i_glide_ligand_efficiency_ln>
-1.58091246142184

> <r_i_glide_gscore>
-7.05993753815499

> <r_i_glide_lipo>
-6.02862632357382

> <r_i_glide_hbond>
0

> <r_i_glide_metal>
0

> <r_i_glide_rewards>
0.346059351487084

> <r_i_glide_evdw>
-44.4107856750488

> <r_i_glide_ecoul>
-1.04071199893951

> <r_i_glide_erotb>
0.999275517525114

> <r_i_glide_esite>
0

> <r_i_glide_emodel>
-54.507925679001

> <r_i_glide_energy>
-45.4514976739883

> <r_i_glide_einternal>
11.020435333252

> <i_i_glide_confnum>
15

> <i_i_glide_posenum>
144

> <r_i_glide_eff_state_penalty>
0

> <i_f3d_flags>
0

> <s_user_duplicate_titles>
323329

> <s_m_subgroup_title>
dock_pv

> <s_m_subgroupid>
dock_pv1

> <b_m_subgroup_collapsed>
1

$$$$
676833
                    3D
 Schrodinger Suite 2021-1.
 61 64  0  0  1  0            999 V2000
    3.4810   59.1311   68.8526 C   0  0  0  0  0  0
    3.5428   58.5161   70.2523 C   0  0  0  0  0  0
    3.9428   57.3585   70.3681 O   0  0  0  0  0  0
    3.2071   59.4082   71.4005 C   0  0  0  0  0  0
    3.4804   59.0205   72.7195 C   0  0  0  0  0  0
    3.1640   59.8683   73.7818 C   0  0  0  0  0  0
    2.5748   61.1076   73.5398 C   0  0  0  0  0  0
    2.2889   61.5179   72.2308 C   0  0  0  0  0  0
    2.5978   60.6478   71.1807 C   0  0  0  0  0  0
    1.6719   62.8389   71.9332 C   0  0  0  0  0  0
    0.7098   63.4265   72.7581 C   0  0  0  0  0  0
    0.1720   64.6520   72.3652 C   0  0  0  0  0  0
    0.6187   65.2309   71.1746 C   0  0  0  0  0  0
    1.5529   64.6165   70.3993 N   0  0  0  0  0  0
    2.0701   63.4396   70.7754 N   0  0  0  0  0  0
    0.0960   66.4788   70.7962 N   0  0  0  0  0  0
    0.3633   67.0289   69.4787 C   0  0  0  0  0  0
   -0.6174   66.4928   68.4272 C   0  0  0  0  0  0
   -0.3712   66.9325   66.9706 C   0  0  0  0  0  0
   -0.9640   68.3102   66.6077 C   0  0  0  0  0  0
   -0.7218   68.6585   65.1129 C   0  0  0  0  0  0
    0.6919   68.4895   64.7345 N   0  0  1  0  0  0
    1.2475   67.1723   65.0741 C   0  0  0  0  0  0
    1.1151   67.0028   66.5853 C   0  0  0  0  0  0
    1.0209   68.9092   63.3716 C   0  0  0  0  0  0
    2.5218   69.1489   63.1545 C   0  0  0  0  0  0
    2.9923   69.3029   61.8490 C   0  0  0  0  0  0
    4.3470   69.5310   61.6251 C   0  0  0  0  0  0
    5.2296   69.5839   62.7005 C   0  0  0  0  0  0
    4.7683   69.4952   64.0051 C   0  0  0  0  0  0
    3.4124   69.3081   64.2309 C   0  0  0  0  0  0
    4.0027   60.0878   68.8426 H   0  0  0  0  0  0
    2.4424   59.3094   68.5735 H   0  0  0  0  0  0
    3.9433   58.5075   68.0952 H   0  0  0  0  0  0
    3.9425   58.0666   72.9330 H   0  0  0  0  0  0
    3.3832   59.5644   74.7945 H   0  0  0  0  0  0
    2.3581   61.7572   74.3770 H   0  0  0  0  0  0
    2.3476   60.9612   70.1782 H   0  0  0  0  0  0
    0.3823   62.9524   73.6717 H   0  0  0  0  0  0
   -0.5491   65.1530   72.9891 H   0  0  0  0  0  0
   -0.6873   66.8532   71.3091 H   0  0  0  0  0  0
    0.3442   68.1117   69.5105 H   0  0  0  0  0  0
    1.3891   66.8038   69.1871 H   0  0  0  0  0  0
   -0.5438   65.4060   68.4622 H   0  0  0  0  0  0
   -1.6440   66.7164   68.7188 H   0  0  0  0  0  0
   -0.8517   66.1822   66.3445 H   0  0  0  0  0  0
   -2.0336   68.3131   66.8154 H   0  0  0  0  0  0
   -0.5729   69.1007   67.2497 H   0  0  0  0  0  0
   -1.3661   68.0822   64.4502 H   0  0  0  0  0  0
   -0.9855   69.7034   64.9592 H   0  0  0  0  0  0
    0.7430   66.3940   64.5048 H   0  0  0  0  0  0
    2.3002   67.0838   64.8169 H   0  0  0  0  0  0
    1.6400   67.7885   67.1304 H   0  0  0  0  0  0
    1.6427   66.1081   66.8806 H   0  0  0  0  0  0
    0.6359   68.1899   62.6468 H   0  0  0  0  0  0
    0.5163   69.8540   63.1672 H   0  0  0  0  0  0
    2.3129   69.2387   61.0118 H   0  0  0  0  0  0
    4.7372   69.6649   60.6280 H   0  0  0  0  0  0
    6.2856   69.7080   62.5292 H   0  0  0  0  0  0
    5.4553   69.5812   64.8320 H   0  0  0  0  0  0
    3.0680   69.2745   65.2526 H   0  0  0  0  0  0
  1  2  1  0  0  0
  1 32  1  0  0  0
  1 33  1  0  0  0
  1 34  1  0  0  0
  2  3  2  0  0  0
  2  4  1  0  0  0
  4  9  1  0  0  0
  4  5  2  0  0  0
  5  6  1  0  0  0
  5 35  1  0  0  0
  6  7  2  0  0  0
  6 36  1  0  0  0
  7  8  1  0  0  0
  7 37  1  0  0  0
  8  9  2  0  0  0
  8 10  1  0  0  0
  9 38  1  0  0  0
 10 15  1  0  0  0
 10 11  2  0  0  0
 11 12  1  0  0  0
 11 39  1  0  0  0
 12 13  2  0  0  0
 12 40  1  0  0  0
 13 14  1  0  0  0
 13 16  1  0  0  0
 14 15  2  0  0  0
 16 17  1  0  0  0
 16 41  1  0  0  0
 17 18  1  0  0  0
 17 42  1  0  0  0
 17 43  1  0  0  0
 18 19  1  0  0  0
 18 44  1  0  0  0
 18 45  1  0  0  0
 19 24  1  0  0  0
 19 20  1  0  0  0
 19 46  1  0  0  0
 20 21  1  0  0  0
 20 47  1  0  0  0
 20 48  1  0  0  0
 21 22  1  0  0  0
 21 49  1  0  0  0
 21 50  1  0  0  0
 22 23  1  0  0  0
 22 25  1  0  0  0
 23 24  1  0  0  0
 23 51  1  0  0  0
 23 52  1  0  0  0
 24 53  1  0  0  0
 24 54  1  0  0  0
 25 26  1  0  0  0
 25 55  1  0  0  0
 25 56  1  0  0  0
 26 31  1  0  0  0
 26 27  2  0  0  0
 27 28  1  0  0  0
 27 57  1  0  0  0
 28 29  2  0  0  0
 28 58  1  0  0  0
 29 30  1  0  0  0
 29 59  1  0  0  0
 30 31  2  0  0  0
 30 60  1  0  0  0
 31 61  1  0  0  0
M  END
> <s_m_entry_id>
9886

> <s_m_entry_name>
ligand_docking-pose.328

> <s_m_Source_Path>
/home/csk/Desktop/cluster/DUD-E-result/aces

> <s_m_Source_File>
ligand_docking-pose.sdf

> <i_m_Source_File_Index>
328

> <i_lp_mmshare_version>
53161

> <r_lp_tautomer_probability>
0.999928241561103

> <s_lp_Force_Field>
OPLS_2005

> <r_lp_Energy>
40.20922

> <b_lp_Chiralities_Consistent>
1

> <s_lp_Variant>
676833-1

> <s_i_glide_gridfile>
glide-grid_1e66

> <i_i_glide_lignum>
1395

> <i_i_glide_rotatable_bonds>
8

> <r_i_docking_score>
-7.05093253663852

> <r_i_glide_ligand_efficiency>
-0.227449436665759

> <r_i_glide_ligand_efficiency_sa>
-0.714505258921268

> <r_i_glide_ligand_efficiency_ln>
-1.59020137214339

> <r_i_glide_gscore>
-7.05093253663852

> <r_i_glide_lipo>
-3.83920354371375

> <r_i_glide_hbond>
-0.226900097562639

> <r_i_glide_metal>
0

> <r_i_glide_rewards>
-1.51207514567366

> <r_i_glide_evdw>
-45.3814315795898

> <r_i_glide_ecoul>
-0.0514313466846943

> <r_i_glide_erotb>
0.804032531293735

> <r_i_glide_esite>
0

> <r_i_glide_emodel>
-58.7259518298764

> <r_i_glide_energy>
-45.4328629262745

> <r_i_glide_einternal>
9.71344947814941

> <i_i_glide_confnum>
7

> <i_i_glide_posenum>
258

> <r_i_glide_eff_state_penalty>
0

> <i_f3d_flags>
0

> <s_user_duplicate_titles>
676833

> <s_m_subgroup_title>
dock_pv

> <s_m_subgroupid>
dock_pv1

> <b_m_subgroup_collapsed>
1

$$$$
452388
                    3D
 Schrodinger Suite 2021-1.
 36 37  0  0  1  0            999 V2000
    1.1783   68.3851   68.3030 C   0  0  0  0  0  0
    2.1035   69.1546   67.6020 C   0  0  0  0  0  0
    2.3478   68.9080   66.2506 C   0  0  0  0  0  0
    1.5781   67.9351   65.5889 C   0  0  0  0  0  0
    0.5938   67.2294   66.2655 C   0  0  0  0  0  0
    0.4190   67.4269   67.6324 C   0  0  0  0  0  0
   -0.5073   66.5435   68.3678 C   0  0  0  0  0  0
   -0.4570   66.3398   69.5792 O   0  0  0  0  0  0
    3.3828   69.6315   65.6759 O   0  0  0  0  0  0
    3.6194   69.6138   64.2907 C   0  0  1  0  0  0
    4.5348   68.4355   63.9132 C   0  0  1  0  0  0
    4.7401   68.4195   62.3779 C   0  0  2  0  0  0
    3.3872   68.4629   61.6276 C   0  0  1  0  0  0
    2.5075   69.6058   62.1511 C   0  0  2  0  0  0
    2.4157   69.6236   63.5682 O   0  0  0  0  0  0
    1.0613   69.6340   61.6011 C   0  0  0  0  0  0
    0.3426   68.4771   61.9680 O   0  0  0  0  0  0
    3.5430   68.6991   60.2427 O   0  0  0  0  0  0
    5.5204   67.3081   61.9680 O   0  0  0  0  0  0
    5.7737   68.5076   64.6122 O   0  0  0  0  0  0
    4.1033   70.5536   64.0464 H   0  0  0  0  0  0
    4.0469   67.5139   64.2319 H   0  0  0  0  0  0
    5.3100   69.3071   62.0914 H   0  0  0  0  0  0
    2.8809   67.5082   61.7621 H   0  0  0  0  0  0
    3.0080   70.5080   61.8263 H   0  0  0  0  0  0
    1.0799   68.5080   69.3708 H   0  0  0  0  0  0
    2.6924   69.8908   68.1289 H   0  0  0  0  0  0
    1.7268   67.6884   64.5510 H   0  0  0  0  0  0
    0.0225   66.4838   65.7296 H   0  0  0  0  0  0
   -1.2854   66.1077   67.7454 H   0  0  0  0  0  0
    0.5256   70.5050   61.9824 H   0  0  0  0  0  0
    1.0452   69.7079   60.5161 H   0  0  0  0  0  0
    0.3599   67.8521   61.2360 H   0  0  0  0  0  0
    4.4646   68.5080   59.9764 H   0  0  0  0  0  0
    6.1074   67.6077   61.2542 H   0  0  0  0  0  0
    6.3588   69.1447   64.1886 H   0  0  0  0  0  0
  1  6  1  0  0  0
  1  2  2  0  0  0
  1 26  1  0  0  0
  2  3  1  0  0  0
  2 27  1  0  0  0
  3  4  2  0  0  0
  3  9  1  0  0  0
  4  5  1  0  0  0
  4 28  1  0  0  0
  5  6  2  0  0  0
  5 29  1  0  0  0
  6  7  1  0  0  0
  7  8  2  0  0  0
  7 30  1  0  0  0
  9 10  1  0  0  0
 10 21  1  0  0  0
 10 15  1  0  0  0
 10 11  1  0  0  0
 11 22  1  0  0  0
 11 12  1  0  0  0
 11 20  1  0  0  0
 12 23  1  0  0  0
 12 13  1  0  0  0
 12 19  1  0  0  0
 13 24  1  0  0  0
 13 14  1  0  0  0
 13 18  1  0  0  0
 14 25  1  0  0  0
 14 15  1  0  0  0
 14 16  1  0  0  0
 16 17  1  0  0  0
 16 31  1  0  0  0
 16 32  1  0  0  0
 17 33  1  0  0  0
 18 34  1  0  0  0
 19 35  1  0  0  0
 20 36  1  0  0  0
M  END
> <s_m_entry_id>
9889

> <s_m_entry_name>
ligand_docking-pose.331

> <s_m_Source_Path>
/home/csk/Desktop/cluster/DUD-E-result/aces

> <s_m_Source_File>
ligand_docking-pose.sdf

> <i_m_Source_File_Index>
331

> <i_lp_mmshare_version>
53161

> <r_lp_tautomer_probability>
1

> <s_lp_Force_Field>
OPLS_2005

> <r_lp_Energy>
36.235683

> <b_lp_Chiralities_Consistent>
1

> <s_lp_Variant>
452388-1

> <s_i_glide_gridfile>
glide-grid_1e66

> <i_i_glide_lignum>
473

> <i_i_glide_rotatable_bonds>
8

> <r_i_docking_score>
-7.0469630095355

> <r_i_glide_ligand_efficiency>
-0.352348150476775

> <r_i_glide_ligand_efficiency_sa>
-0.956420025873731

> <r_i_glide_ligand_efficiency_ln>
-1.76362241689121

> <r_i_glide_gscore>
-7.0469630095355

> <r_i_glide_lipo>
-2.09482028531365

> <r_i_glide_hbond>
0

> <r_i_glide_metal>
0

> <r_i_glide_rewards>
-2.20217273662989

> <r_i_glide_evdw>
-24.2041339874268

> <r_i_glide_ecoul>
-14.7509927749634

> <r_i_glide_erotb>
0.672885628023894

> <r_i_glide_esite>
0

> <r_i_glide_emodel>
-51.2849701544327

> <r_i_glide_energy>
-38.9551267623901

> <r_i_glide_einternal>
11.8791522979736

> <i_i_glide_confnum>
17

> <i_i_glide_posenum>
335

> <r_i_glide_eff_state_penalty>
0

> <i_f3d_flags>
0

> <s_user_duplicate_titles>
452388

> <s_m_subgroup_title>
dock_pv

> <s_m_subgroupid>
dock_pv1

> <b_m_subgroup_collapsed>
1

$$$$
245414
                    3D
 Schrodinger Suite 2021-1.
 26 26  0  0  1  0            999 V2000
   -2.0839   68.5079   65.7564 C   0  0  0  0  0  0
   -0.7591   68.4135   66.5517 N   0  3  0  0  0  0
   -0.8728   69.5739   67.5680 C   0  0  0  0  0  0
   -0.8009   67.0790   67.3323 C   0  0  0  0  0  0
    0.5050   68.5079   65.7118 C   0  0  0  0  0  0
    1.7364   68.6615   66.3649 C   0  0  0  0  0  0
    2.8968   68.8570   65.6187 C   0  0  0  0  0  0
    2.8402   68.9029   64.2270 C   0  0  0  0  0  0
    1.6208   68.7380   63.5527 C   0  0  0  0  0  0
    0.4567   68.5080   64.3057 C   0  0  0  0  0  0
    1.5558   68.8557   62.0759 N   0  3  0  0  0  0
    2.6074   68.9051   61.4442 O   0  5  0  0  0  0
    0.4515   68.9084   61.5437 O   0  0  0  0  0  0
   -2.9351   68.3821   66.4288 H   0  0  0  0  0  0
   -2.0569   67.7080   65.0313 H   0  0  0  0  0  0
   -2.1234   69.4717   65.2579 H   0  0  0  0  0  0
   -1.8335   69.4883   68.0722 H   0  0  0  0  0  0
   -0.0579   69.5226   68.2908 H   0  0  0  0  0  0
   -0.8571   70.5079   67.0145 H   0  0  0  0  0  0
   -1.7224   67.0372   67.9157 H   0  0  0  0  0  0
   -0.7642   66.2726   66.5969 H   0  0  0  0  0  0
    0.0702   67.0401   67.9874 H   0  0  0  0  0  0
    1.8100   68.6625   67.4428 H   0  0  0  0  0  0
    3.8429   69.0009   66.1215 H   0  0  0  0  0  0
    3.7519   69.0927   63.6767 H   0  0  0  0  0  0
   -0.4757   68.3960   63.7734 H   0  0  0  0  0  0
  1  2  1  0  0  0
  1 14  1  0  0  0
  1 15  1  0  0  0
  1 16  1  0  0  0
  2  3  1  0  0  0
  2  4  1  0  0  0
  2  5  1  0  0  0
  3 17  1  0  0  0
  3 18  1  0  0  0
  3 19  1  0  0  0
  4 20  1  0  0  0
  4 21  1  0  0  0
  4 22  1  0  0  0
  5 10  1  0  0  0
  5  6  2  0  0  0
  6  7  1  0  0  0
  6 23  1  0  0  0
  7  8  2  0  0  0
  7 24  1  0  0  0
  8  9  1  0  0  0
  8 25  1  0  0  0
  9 10  2  0  0  0
  9 11  1  0  0  0
 10 26  1  0  0  0
 11 12  1  0  0  0
 11 13  2  0  0  0
M  CHG  3   2   1  11   1  12  -1
M  END
> <s_m_entry_id>
9890

> <s_m_entry_name>
ligand_docking-pose.332

> <s_m_Source_Path>
/home/csk/Desktop/cluster/DUD-E-result/aces

> <s_m_Source_File>
ligand_docking-pose.sdf

> <i_m_Source_File_Index>
332

> <i_lp_mmshare_version>
53161

> <r_lp_tautomer_probability>
1

> <s_lp_Force_Field>
OPLS_2005

> <r_lp_Energy>
17.698276

> <b_lp_Chiralities_Consistent>
1

> <s_lp_Variant>
245414-1

> <s_i_glide_gridfile>
glide-grid_1e66

> <i_i_glide_lignum>
1725

> <i_i_glide_rotatable_bonds>
2

> <r_i_docking_score>
-7.04501657885951

> <r_i_glide_ligand_efficiency>
-0.541924352219963

> <r_i_glide_ligand_efficiency_sa>
-1.27424552640594

> <r_i_glide_ligand_efficiency_ln>
-1.97618980592644

> <r_i_glide_gscore>
-7.04501657885951

> <r_i_glide_lipo>
-2.052807597139

> <r_i_glide_hbond>
0

> <r_i_glide_metal>
0

> <r_i_glide_rewards>
-2.90381128808648

> <r_i_glide_evdw>
-24.3210182189941

> <r_i_glide_ecoul>
-5.81564521789551

> <r_i_glide_erotb>
0

> <r_i_glide_esite>
0

> <r_i_glide_emodel>
-47.040012110033

> <r_i_glide_energy>
-30.1366634368896

> <r_i_glide_einternal>
1.06654751300812

> <i_i_glide_confnum>
1

> <i_i_glide_posenum>
294

> <r_i_glide_eff_state_penalty>
0

> <i_f3d_flags>
0

> <s_user_duplicate_titles>
245414

> <s_m_subgroup_title>
dock_pv

> <s_m_subgroupid>
dock_pv1

> <b_m_subgroup_collapsed>
1

$$$$
240754
                    3D
 Schrodinger Suite 2021-1.
 57 60  0  0  1  0            999 V2000
    6.4250   70.3466   67.6481 C   0  0  0  0  0  0
    5.0672   70.5086   67.2494 O   0  0  0  0  0  0
    4.7100   69.9105   66.0610 C   0  0  0  0  0  0
    5.5459   69.8750   64.9446 C   0  0  0  0  0  0
    5.1733   69.1677   63.8095 C   0  0  0  0  0  0
    3.9454   68.4861   63.7651 C   0  0  0  0  0  0
    3.0799   68.5819   64.8636 C   0  0  0  0  0  0
    3.4552   69.3009   65.9951 C   0  0  0  0  0  0
    2.3711   69.2816   67.0318 C   0  0  0  0  0  0
    1.2600   68.3749   66.4774 C   0  0  1  0  0  0
    1.7332   67.9946   65.0661 C   0  0  0  0  0  0
    1.1037   67.3104   64.2645 O   0  0  0  0  0  0
    0.9024   67.0838   67.2865 C   0  0  0  0  0  0
    0.4203   67.3228   68.7489 C   0  0  0  0  0  0
   -0.6354   66.3033   69.2421 C   0  0  0  0  0  0
   -0.0678   64.9218   69.6468 C   0  0  0  0  0  0
    1.0610   65.0060   70.5882 N   0  0  2  0  0  0
    2.1028   65.9026   70.0798 C   0  0  0  0  0  0
    1.5230   67.3091   69.8356 C   0  0  0  0  0  0
    1.6217   63.6877   70.9102 C   0  0  0  0  0  0
    0.7944   62.9535   71.9581 C   0  0  0  0  0  0
    1.0898   63.1096   73.3160 C   0  0  0  0  0  0
    0.2968   62.4915   74.2789 C   0  0  0  0  0  0
   -0.8009   61.7307   73.8822 C   0  0  0  0  0  0
   -1.1126   61.5855   72.5326 C   0  0  0  0  0  0
   -0.3162   62.2009   71.5705 C   0  0  0  0  0  0
    3.5397   67.7041   62.7020 O   0  0  0  0  0  0
    4.3734   67.6747   61.5548 C   0  0  0  0  0  0
    6.5526   70.6688   68.6811 H   0  0  0  0  0  0
    6.7306   69.3063   67.5721 H   0  0  0  0  0  0
    7.1153   70.9085   67.0263 H   0  0  0  0  0  0
    6.4965   70.3841   64.9555 H   0  0  0  0  0  0
    5.8687   69.1511   62.9838 H   0  0  0  0  0  0
    2.7972   68.9165   67.9502 H   0  0  0  0  0  0
    1.9767   70.2802   67.2235 H   0  0  0  0  0  0
    0.3507   68.9670   66.3672 H   0  0  0  0  0  0
    0.0937   66.5827   66.7497 H   0  0  0  0  0  0
    1.7143   66.3611   67.2524 H   0  0  0  0  0  0
   -0.0558   68.3042   68.7692 H   0  0  0  0  0  0
   -1.1469   66.6992   70.1165 H   0  0  0  0  0  0
   -1.4201   66.1804   68.4957 H   0  0  0  0  0  0
   -0.8560   64.3085   70.0714 H   0  0  0  0  0  0
    0.2365   64.3778   68.7693 H   0  0  0  0  0  0
    2.9416   65.9737   70.7704 H   0  0  0  0  0  0
    2.5081   65.4637   69.1683 H   0  0  0  0  0  0
    2.3402   67.9782   69.6233 H   0  0  0  0  0  0
    1.1235   67.7066   70.7669 H   0  0  0  0  0  0
    1.7140   63.0804   70.0078 H   0  0  0  0  0  0
    2.6269   63.8087   71.3184 H   0  0  0  0  0  0
    1.9332   63.7071   73.6296 H   0  0  0  0  0  0
    0.5281   62.6076   75.3278 H   0  0  0  0  0  0
   -1.4214   61.2562   74.6284 H   0  0  0  0  0  0
   -1.9741   61.0048   72.2366 H   0  0  0  0  0  0
   -0.5654   62.1072   70.5249 H   0  0  0  0  0  0
    3.9419   67.0617   60.7680 H   0  0  0  0  0  0
    5.3579   67.2610   61.7799 H   0  0  0  0  0  0
    4.4935   68.6858   61.1656 H   0  0  0  0  0  0
  1  2  1  0  0  0
  1 29  1  0  0  0
  1 30  1  0  0  0
  1 31  1  0  0  0
  2  3  1  0  0  0
  3  8  1  0  0  0
  3  4  2  0  0  0
  4  5  1  0  0  0
  4 32  1  0  0  0
  5  6  2  0  0  0
  5 33  1  0  0  0
  6  7  1  0  0  0
  6 27  1  0  0  0
  7 11  1  0  0  0
  7  8  2  0  0  0
  8  9  1  0  0  0
  9 10  1  0  0  0
  9 34  1  0  0  0
  9 35  1  0  0  0
 10 11  1  0  0  0
 10 13  1  0  0  0
 10 36  1  0  0  0
 11 12  2  0  0  0
 13 14  1  0  0  0
 13 37  1  0  0  0
 13 38  1  0  0  0
 14 19  1  0  0  0
 14 15  1  0  0  0
 14 39  1  0  0  0
 15 16  1  0  0  0
 15 40  1  0  0  0
 15 41  1  0  0  0
 16 17  1  0  0  0
 16 42  1  0  0  0
 16 43  1  0  0  0
 17 18  1  0  0  0
 17 20  1  0  0  0
 18 19  1  0  0  0
 18 44  1  0  0  0
 18 45  1  0  0  0
 19 46  1  0  0  0
 19 47  1  0  0  0
 20 21  1  0  0  0
 20 48  1  0  0  0
 20 49  1  0  0  0
 21 26  1  0  0  0
 21 22  2  0  0  0
 22 23  1  0  0  0
 22 50  1  0  0  0
 23 24  2  0  0  0
 23 51  1  0  0  0
 24 25  1  0  0  0
 24 52  1  0  0  0
 25 26  2  0  0  0
 25 53  1  0  0  0
 26 54  1  0  0  0
 27 28  1  0  0  0
 28 55  1  0  0  0
 28 56  1  0  0  0
 28 57  1  0  0  0
M  END
> <s_m_entry_id>
9891

> <s_m_entry_name>
ligand_docking-pose.333

> <s_m_Source_Path>
/home/csk/Desktop/cluster/DUD-E-result/aces

> <s_m_Source_File>
ligand_docking-pose.sdf

> <i_m_Source_File_Index>
333

> <i_lp_mmshare_version>
53161

> <r_lp_tautomer_probability>
0.99995

> <s_lp_Force_Field>
OPLS_2005

> <r_lp_Energy>
49.60151

> <b_lp_Chiralities_Consistent>
1

> <s_lp_Variant>
240754-1

> <s_i_glide_gridfile>
glide-grid_1e66

> <i_i_glide_lignum>
2103

> <i_i_glide_rotatable_bonds>
6

> <r_i_docking_score>
-7.04240928289654

> <r_i_glide_ligand_efficiency>
-0.251514617246305

> <r_i_glide_ligand_efficiency_sa>
-0.763746512147339

> <r_i_glide_ligand_efficiency_ln>
-1.62559483661396

> <r_i_glide_gscore>
-7.04240928289654

> <r_i_glide_lipo>
-3.79868920399301

> <r_i_glide_hbond>
0

> <r_i_glide_metal>
0

> <r_i_glide_rewards>
-1.69740716880984

> <r_i_glide_evdw>
-38.2454147338867

> <r_i_glide_ecoul>
-1.15074789524078

> <r_i_glide_erotb>
0.538570010886759

> <r_i_glide_esite>
0

> <r_i_glide_emodel>
-50.7895404040864

> <r_i_glide_energy>
-39.3961626291275

> <r_i_glide_einternal>
6.43802976608276

> <i_i_glide_confnum>
70

> <i_i_glide_posenum>
112

> <r_i_glide_eff_state_penalty>
0

> <i_f3d_flags>
0

> <s_user_duplicate_titles>
240754

> <s_m_subgroup_title>
dock_pv

> <s_m_subgroupid>
dock_pv1

> <b_m_subgroup_collapsed>
1

$$$$
512038
                    3D
 Schrodinger Suite 2021-1.
 54 56  0  0  1  0            999 V2000
   -1.9541   67.0460   67.6915 C   0  0  0  0  0  0
   -0.5433   67.4355   67.2134 C   0  0  0  0  0  0
    0.0364   68.6306   67.8455 N   0  0  2  0  0  0
   -0.8164   69.8197   67.7426 C   0  0  0  0  0  0
    1.3455   68.8875   67.2353 C   0  0  0  0  0  0
    2.2397   69.9287   67.9651 C   0  0  0  0  0  0
    3.6638   70.0419   67.3936 C   0  0  0  0  0  0
    4.6894   70.6094   68.1527 C   0  0  0  0  0  0
    6.0083   70.5631   67.6990 C   0  0  0  0  0  0
    6.3158   69.8887   66.5162 C   0  0  0  0  0  0
    5.3141   69.3087   65.7333 C   0  0  0  0  0  0
    3.9859   69.4941   66.1446 C   0  0  0  0  0  0
    5.7450   68.5116   64.6738 O   0  0  0  0  0  0
    4.9292   67.9302   63.6248 C   0  0  2  0  0  0
    4.6472   68.9399   62.5198 C   0  0  0  0  0  0
    3.1515   68.9456   62.4073 C   0  0  0  0  0  0
    2.3669   69.7079   61.5676 C   0  0  0  0  0  0
    0.9841   69.7382   61.7218 C   0  0  0  0  0  0
    0.3521   68.9294   62.6709 C   0  0  0  0  0  0
    1.1475   68.0992   63.4735 C   0  0  0  0  0  0
    2.5417   68.1073   63.3269 C   0  0  0  0  0  0
    3.5770   67.3046   64.0142 C   0  0  0  0  0  0
    3.3893   66.3514   64.7671 O   0  0  0  0  0  0
   -1.0178   69.0287   62.7683 O   0  0  0  0  0  0
   -1.6520   68.7497   64.0018 C   0  0  0  0  0  0
    0.3431   70.7864   61.1123 O   0  0  0  0  0  0
   -0.7360   70.5078   60.2619 C   0  0  0  0  0  0
   -2.2645   66.1092   67.2291 H   0  0  0  0  0  0
   -2.7061   67.7840   67.4220 H   0  0  0  0  0  0
   -1.9871   66.9052   68.7707 H   0  0  0  0  0  0
    0.1155   66.5918   67.4241 H   0  0  0  0  0  0
   -0.5475   67.5453   66.1342 H   0  0  0  0  0  0
   -1.8316   69.6394   68.0851 H   0  0  0  0  0  0
   -0.4226   70.6264   68.3595 H   0  0  0  0  0  0
   -0.8873   70.1818   66.7201 H   0  0  0  0  0  0
    1.8964   67.9474   67.1808 H   0  0  0  0  0  0
    1.1687   69.2169   66.2101 H   0  0  0  0  0  0
    1.7725   70.9082   67.9567 H   0  0  0  0  0  0
    2.3222   69.6322   69.0121 H   0  0  0  0  0  0
    4.4695   71.0555   69.1122 H   0  0  0  0  0  0
    6.7994   70.9919   68.2978 H   0  0  0  0  0  0
    7.3468   69.7857   66.2165 H   0  0  0  0  0  0
    3.1727   69.1455   65.5534 H   0  0  0  0  0  0
    5.5453   67.1319   63.2165 H   0  0  0  0  0  0
    5.0288   69.9251   62.7982 H   0  0  0  0  0  0
    5.1346   68.6317   61.5944 H   0  0  0  0  0  0
    2.8392   70.3956   60.8860 H   0  0  0  0  0  0
    0.6837   67.4428   64.1942 H   0  0  0  0  0  0
   -2.7095   69.0058   63.9433 H   0  0  0  0  0  0
   -1.5993   67.7080   64.2540 H   0  0  0  0  0  0
   -1.2041   69.3093   64.8164 H   0  0  0  0  0  0
   -0.8665   71.3077   59.5680 H   0  0  0  0  0  0
   -0.5483   69.6180   59.6564 H   0  0  0  0  0  0
   -1.6696   70.5080   60.8231 H   0  0  0  0  0  0
  1  2  1  0  0  0
  1 28  1  0  0  0
  1 29  1  0  0  0
  1 30  1  0  0  0
  2  3  1  0  0  0
  2 31  1  0  0  0
  2 32  1  0  0  0
  3  4  1  0  0  0
  3  5  1  0  0  0
  4 33  1  0  0  0
  4 34  1  0  0  0
  4 35  1  0  0  0
  5  6  1  0  0  0
  5 36  1  0  0  0
  5 37  1  0  0  0
  6  7  1  0  0  0
  6 38  1  0  0  0
  6 39  1  0  0  0
  7 12  1  0  0  0
  7  8  2  0  0  0
  8  9  1  0  0  0
  8 40  1  0  0  0
  9 10  2  0  0  0
  9 41  1  0  0  0
 10 11  1  0  0  0
 10 42  1  0  0  0
 11 12  2  0  0  0
 11 13  1  0  0  0
 12 43  1  0  0  0
 13 14  1  0  0  0
 14 22  1  0  0  0
 14 15  1  0  0  0
 14 44  1  0  0  0
 15 16  1  0  0  0
 15 45  1  0  0  0
 15 46  1  0  0  0
 16 21  2  0  0  0
 16 17  1  0  0  0
 17 18  2  0  0  0
 17 47  1  0  0  0
 18 19  1  0  0  0
 18 26  1  0  0  0
 19 20  2  0  0  0
 19 24  1  0  0  0
 20 21  1  0  0  0
 20 48  1  0  0  0
 21 22  1  0  0  0
 22 23  2  0  0  0
 24 25  1  0  0  0
 25 49  1  0  0  0
 25 50  1  0  0  0
 25 51  1  0  0  0
 26 27  1  0  0  0
 27 52  1  0  0  0
 27 53  1  0  0  0
 27 54  1  0  0  0
M  END
> <s_m_entry_id>
9892

> <s_m_entry_name>
ligand_docking-pose.334

> <s_m_Source_Path>
/home/csk/Desktop/cluster/DUD-E-result/aces

> <s_m_Source_File>
ligand_docking-pose.sdf

> <i_m_Source_File_Index>
334

> <i_lp_mmshare_version>
53161

> <r_lp_tautomer_probability>
0.99995

> <s_lp_Force_Field>
OPLS_2005

> <r_lp_Energy>
47.057509

> <b_lp_Chiralities_Consistent>
1

> <s_lp_Variant>
512038-1

> <s_i_glide_gridfile>
glide-grid_1e66

> <i_i_glide_lignum>
1271

> <i_i_glide_rotatable_bonds>
8

> <r_i_docking_score>
-7.04187479273482

> <r_i_glide_ligand_efficiency>
-0.260810177508697

> <r_i_glide_ligand_efficiency_sa>
-0.782430531666503

> <r_i_glide_ligand_efficiency_ln>
-1.63923235736944

> <r_i_glide_gscore>
-7.04187479273482

> <r_i_glide_lipo>
-4.51480434786486

> <r_i_glide_hbond>
0

> <r_i_glide_metal>
0

> <r_i_glide_rewards>
-1.5538460441573

> <r_i_glide_evdw>
-35.044563293457

> <r_i_glide_ecoul>
0.48476442694664

> <r_i_glide_erotb>
0.706289099918197

> <r_i_glide_esite>
0

> <r_i_glide_emodel>
-22.927209773695

> <r_i_glide_energy>
-34.5597988665104

> <r_i_glide_einternal>
28.4220428466797

> <i_i_glide_confnum>
67

> <i_i_glide_posenum>
103

> <r_i_glide_eff_state_penalty>
0

> <i_f3d_flags>
0

> <s_user_duplicate_titles>
512038

> <s_m_subgroup_title>
dock_pv

> <s_m_subgroupid>
dock_pv1

> <b_m_subgroup_collapsed>
1

$$$$
165231
                    3D
 Schrodinger Suite 2021-1.
 55 56  0  0  1  0            999 V2000
    5.7050   69.3069   62.7694 C   0  0  0  0  0  0
    4.9758   69.4167   64.0369 N   0  0  2  0  0  0
    5.9439   69.5380   65.1369 C   0  0  0  0  0  0
    5.4430   70.2174   66.4270 C   0  0  0  0  0  0
    4.1885   69.7453   66.8996 O   0  0  0  0  0  0
    3.7215   70.4505   68.0445 C   0  0  0  0  0  0
    2.2070   70.2153   68.1717 C   0  0  0  0  0  0
    1.9430   68.9083   68.7680 N   0  0  0  0  0  0
    0.9235   68.0497   68.4899 C   0  0  0  0  0  0
   -0.2968   68.3559   67.3730 S   0  0  0  0  0  0
    1.0910   66.9200   69.2466 N   0  0  0  0  0  0
    0.3418   65.8099   69.4413 C   0  0  0  0  0  0
   -0.8564   65.7253   69.1679 O   0  0  0  0  0  0
    1.0706   64.6377   70.0781 C   0  0  0  0  0  0
    2.4462   64.6862   70.3679 C   0  0  0  0  0  0
    3.0934   63.5956   70.9398 C   0  0  0  0  0  0
    2.3831   62.4258   71.2358 C   0  0  0  0  0  0
    1.0229   62.3670   70.9382 C   0  0  0  0  0  0
    0.3707   63.4577   70.3684 C   0  0  0  0  0  0
    2.9436   61.3012   71.8107 O   0  0  0  0  0  0
    4.3079   61.3318   72.2204 C   0  0  0  0  0  0
    4.0707   68.2752   64.2135 C   0  0  0  0  0  0
    2.6682   68.5070   63.6470 C   0  0  0  0  0  0
    1.5935   67.9312   64.3249 C   0  0  0  0  0  0
    0.2970   68.1084   63.8579 C   0  0  0  0  0  0
    0.0677   68.8258   62.6924 C   0  0  0  0  0  0
    1.1323   69.3406   61.9631 C   0  0  0  0  0  0
    2.4313   69.1813   62.4389 C   0  0  0  0  0  0
    5.1327   68.8325   61.9723 H   0  0  0  0  0  0
    5.9430   70.3135   62.4275 H   0  0  0  0  0  0
    6.6316   68.7364   62.8632 H   0  0  0  0  0  0
    6.7425   70.1953   64.8011 H   0  0  0  0  0  0
    6.4063   68.5749   65.3596 H   0  0  0  0  0  0
    5.4019   71.2920   66.2438 H   0  0  0  0  0  0
    6.1923   70.0714   67.2071 H   0  0  0  0  0  0
    3.9434   71.5136   67.9681 H   0  0  0  0  0  0
    4.2527   70.1085   68.9341 H   0  0  0  0  0  0
    1.7879   70.2695   67.1675 H   0  0  0  0  0  0
    1.7263   70.9941   68.7660 H   0  0  0  0  0  0
    2.4270   68.7542   69.6399 H   0  0  0  0  0  0
    2.0081   66.8408   69.6523 H   0  0  0  0  0  0
    3.0450   65.5616   70.1623 H   0  0  0  0  0  0
    4.1482   63.6801   71.1509 H   0  0  0  0  0  0
    0.4662   61.4667   71.1556 H   0  0  0  0  0  0
   -0.6853   63.3703   70.1499 H   0  0  0  0  0  0
    4.5696   60.3760   72.6739 H   0  0  0  0  0  0
    4.4864   62.1075   72.9667 H   0  0  0  0  0  0
    4.9782   61.4888   71.3742 H   0  0  0  0  0  0
    4.4993   67.3613   63.7976 H   0  0  0  0  0  0
    3.9443   68.0525   65.2734 H   0  0  0  0  0  0
    1.7522   67.3730   65.2367 H   0  0  0  0  0  0
   -0.5405   67.7097   64.4091 H   0  0  0  0  0  0
   -0.9485   68.9800   62.3681 H   0  0  0  0  0  0
    0.9516   69.8877   61.0492 H   0  0  0  0  0  0
    3.2326   69.6276   61.8747 H   0  0  0  0  0  0
  1  2  1  0  0  0
  1 29  1  0  0  0
  1 30  1  0  0  0
  1 31  1  0  0  0
  2  3  1  0  0  0
  2 22  1  0  0  0
  3  4  1  0  0  0
  3 32  1  0  0  0
  3 33  1  0  0  0
  4  5  1  0  0  0
  4 34  1  0  0  0
  4 35  1  0  0  0
  5  6  1  0  0  0
  6  7  1  0  0  0
  6 36  1  0  0  0
  6 37  1  0  0  0
  7  8  1  0  0  0
  7 38  1  0  0  0
  7 39  1  0  0  0
  8  9  1  0  0  0
  8 40  1  0  0  0
  9 10  2  0  0  0
  9 11  1  0  0  0
 11 12  1  0  0  0
 11 41  1  0  0  0
 12 13  2  0  0  0
 12 14  1  0  0  0
 14 19  1  0  0  0
 14 15  2  0  0  0
 15 16  1  0  0  0
 15 42  1  0  0  0
 16 17  2  0  0  0
 16 43  1  0  0  0
 17 18  1  0  0  0
 17 20  1  0  0  0
 18 19  2  0  0  0
 18 44  1  0  0  0
 19 45  1  0  0  0
 20 21  1  0  0  0
 21 46  1  0  0  0
 21 47  1  0  0  0
 21 48  1  0  0  0
 22 23  1  0  0  0
 22 49  1  0  0  0
 22 50  1  0  0  0
 23 28  1  0  0  0
 23 24  2  0  0  0
 24 25  1  0  0  0
 24 51  1  0  0  0
 25 26  2  0  0  0
 25 52  1  0  0  0
 26 27  1  0  0  0
 26 53  1  0  0  0
 27 28  2  0  0  0
 27 54  1  0  0  0
 28 55  1  0  0  0
M  END
> <s_m_entry_id>
9893

> <s_m_entry_name>
ligand_docking-pose.335

> <s_m_Source_Path>
/home/csk/Desktop/cluster/DUD-E-result/aces

> <s_m_Source_File>
ligand_docking-pose.sdf

> <i_m_Source_File_Index>
335

> <i_lp_mmshare_version>
53161

> <r_lp_tautomer_probability>
1

> <s_lp_Force_Field>
OPLS_2005

> <r_lp_Energy>
36.833156

> <b_lp_Chiralities_Consistent>
1

> <s_lp_Variant>
165231-1

> <s_i_glide_gridfile>
glide-grid_1e66

> <i_i_glide_lignum>
1827

> <i_i_glide_rotatable_bonds>
13

> <r_i_docking_score>
-7.0391857682212

> <r_i_glide_ligand_efficiency>
-0.251399491722186

> <r_i_glide_ligand_efficiency_sa>
-0.763396923250805

> <r_i_glide_ligand_efficiency_ln>
-1.62485075478039

> <r_i_glide_gscore>
-7.0391857682212

> <r_i_glide_lipo>
-4.14160497173087

> <r_i_glide_hbond>
0

> <r_i_glide_metal>
0

> <r_i_glide_rewards>
-1.75341127193556

> <r_i_glide_evdw>
-48.3205070495605

> <r_i_glide_ecoul>
-0.0529362931847572

> <r_i_glide_erotb>
1.3383100744034

> <r_i_glide_esite>
-0.0585138025024419

> <r_i_glide_emodel>
-64.6933066408616

> <r_i_glide_energy>
-48.3734433427453

> <r_i_glide_einternal>
8.83744335174561

> <i_i_glide_confnum>
204

> <i_i_glide_posenum>
371

> <r_i_glide_eff_state_penalty>
0

> <i_f3d_flags>
0

> <s_user_duplicate_titles>
165231

> <s_m_subgroup_title>
dock_pv

> <s_m_subgroupid>
dock_pv1

> <b_m_subgroup_collapsed>
1

$$$$
240382
                    3D
 Schrodinger Suite 2021-1.
 53 56  0  0  1  0            999 V2000
    6.6894   68.9346   65.6545 C   0  0  0  0  0  0
    5.9371   68.6333   64.4836 O   0  0  0  0  0  0
    4.5634   68.6838   64.5684 C   0  0  0  0  0  0
    3.8292   68.2207   63.4738 C   0  0  0  0  0  0
    2.4385   68.1055   63.5474 C   0  0  0  0  0  0
    1.7757   68.4229   64.7332 C   0  0  0  0  0  0
    2.4977   68.9568   65.7920 C   0  0  0  0  0  0
    3.8722   69.1238   65.7060 C   0  0  0  0  0  0
    1.6183   69.3080   66.9157 C   0  0  0  0  0  0
    1.9480   69.8606   67.9652 O   0  0  0  0  0  0
    0.2057   68.9003   66.4939 C   0  0  1  0  0  0
    0.3365   68.2162   65.1239 C   0  0  0  0  0  0
   -0.5462   68.1293   67.5969 C   0  0  0  0  0  0
    0.1003   66.8646   68.2445 C   0  0  0  0  0  0
    1.0964   67.1242   69.4009 C   0  0  0  0  0  0
    1.6483   65.8220   70.0011 C   0  0  0  0  0  0
    0.5414   65.0069   70.5164 N   0  0  1  0  0  0
   -0.4495   64.6643   69.4911 C   0  0  0  0  0  0
   -0.9941   65.9611   68.8362 C   0  0  0  0  0  0
    0.9182   63.9109   71.4132 C   0  0  0  0  0  0
    1.9315   62.9306   70.8383 C   0  0  0  0  0  0
    3.2999   63.1673   70.9880 C   0  0  0  0  0  0
    4.2202   62.2799   70.4406 C   0  0  0  0  0  0
    3.7676   61.1678   69.7311 C   0  0  0  0  0  0
    2.4052   60.9408   69.5594 C   0  0  0  0  0  0
    1.4878   61.8333   70.1042 C   0  0  0  0  0  0
    7.6846   68.5076   65.5708 H   0  0  0  0  0  0
    6.2683   68.5083   66.5585 H   0  0  0  0  0  0
    6.7459   70.0141   65.8036 H   0  0  0  0  0  0
    4.3466   67.9143   62.5766 H   0  0  0  0  0  0
    1.8929   67.7180   62.6998 H   0  0  0  0  0  0
    4.3921   69.5457   66.5532 H   0  0  0  0  0  0
   -0.3552   69.8215   66.3509 H   0  0  0  0  0  0
   -0.3589   68.6566   64.4086 H   0  0  0  0  0  0
    0.1064   67.1537   65.2049 H   0  0  0  0  0  0
   -0.7749   68.8594   68.3675 H   0  0  0  0  0  0
   -1.5208   67.8669   67.1818 H   0  0  0  0  0  0
    0.6232   66.2969   67.4760 H   0  0  0  0  0  0
    1.9332   67.7407   69.0995 H   0  0  0  0  0  0
    0.6237   67.7067   70.1874 H   0  0  0  0  0  0
    2.2230   65.2442   69.2739 H   0  0  0  0  0  0
    2.3366   66.0819   70.8017 H   0  0  0  0  0  0
   -0.0540   63.9592   68.7688 H   0  0  0  0  0  0
   -1.2563   64.1097   69.9602 H   0  0  0  0  0  0
   -1.6063   66.5073   69.5558 H   0  0  0  0  0  0
   -1.6820   65.7225   68.0338 H   0  0  0  0  0  0
    1.3293   64.3434   72.3211 H   0  0  0  0  0  0
    0.0192   63.3707   71.7148 H   0  0  0  0  0  0
    3.6465   64.0326   71.5344 H   0  0  0  0  0  0
    5.2769   62.4592   70.5685 H   0  0  0  0  0  0
    4.4810   60.4782   69.3051 H   0  0  0  0  0  0
    2.0605   60.0815   69.0046 H   0  0  0  0  0  0
    0.4289   61.6721   69.9714 H   0  0  0  0  0  0
  1  2  1  0  0  0
  1 27  1  0  0  0
  1 28  1  0  0  0
  1 29  1  0  0  0
  2  3  1  0  0  0
  3  8  1  0  0  0
  3  4  2  0  0  0
  4  5  1  0  0  0
  4 30  1  0  0  0
  5  6  2  0  0  0
  5 31  1  0  0  0
  6 12  1  0  0  0
  6  7  1  0  0  0
  7  8  2  0  0  0
  7  9  1  0  0  0
  8 32  1  0  0  0
  9 10  2  0  0  0
  9 11  1  0  0  0
 11 12  1  0  0  0
 11 13  1  0  0  0
 11 33  1  0  0  0
 12 34  1  0  0  0
 12 35  1  0  0  0
 13 14  1  0  0  0
 13 36  1  0  0  0
 13 37  1  0  0  0
 14 19  1  0  0  0
 14 15  1  0  0  0
 14 38  1  0  0  0
 15 16  1  0  0  0
 15 39  1  0  0  0
 15 40  1  0  0  0
 16 17  1  0  0  0
 16 41  1  0  0  0
 16 42  1  0  0  0
 17 18  1  0  0  0
 17 20  1  0  0  0
 18 19  1  0  0  0
 18 43  1  0  0  0
 18 44  1  0  0  0
 19 45  1  0  0  0
 19 46  1  0  0  0
 20 21  1  0  0  0
 20 47  1  0  0  0
 20 48  1  0  0  0
 21 26  1  0  0  0
 21 22  2  0  0  0
 22 23  1  0  0  0
 22 49  1  0  0  0
 23 24  2  0  0  0
 23 50  1  0  0  0
 24 25  1  0  0  0
 24 51  1  0  0  0
 25 26  2  0  0  0
 25 52  1  0  0  0
 26 53  1  0  0  0
M  END
> <s_m_entry_id>
9895

> <s_m_entry_name>
ligand_docking-pose.337

> <s_m_Source_Path>
/home/csk/Desktop/cluster/DUD-E-result/aces

> <s_m_Source_File>
ligand_docking-pose.sdf

> <i_m_Source_File_Index>
337

> <i_lp_mmshare_version>
53161

> <r_lp_tautomer_probability>
0.99995

> <s_lp_Force_Field>
OPLS_2005

> <r_lp_Energy>
45.76499

> <b_lp_Chiralities_Consistent>
1

> <s_lp_Variant>
240382-1

> <s_i_glide_gridfile>
glide-grid_1e66

> <i_i_glide_lignum>
2060

> <i_i_glide_rotatable_bonds>
5

> <r_i_docking_score>
-7.02352216767386

> <r_i_glide_ligand_efficiency>
-0.270135467987456

> <r_i_glide_ligand_efficiency_sa>
-0.800275260981099

> <r_i_glide_ligand_efficiency_ln>
-1.64945113502225

> <r_i_glide_gscore>
-7.02352216767386

> <r_i_glide_lipo>
-3.74258699130863

> <r_i_glide_hbond>
0

> <r_i_glide_metal>
0

> <r_i_glide_rewards>
-2.21189303095485

> <r_i_glide_evdw>
-30.8738555908203

> <r_i_glide_ecoul>
-0.995085418224335

> <r_i_glide_erotb>
0.623913446864289

> <r_i_glide_esite>
0

> <r_i_glide_emodel>
-29.1711419101112

> <r_i_glide_energy>
-31.8689410090446

> <r_i_glide_einternal>
14.3538827896118

> <i_i_glide_confnum>
28

> <i_i_glide_posenum>
275

> <r_i_glide_eff_state_penalty>
0

> <i_f3d_flags>
0

> <s_user_duplicate_titles>
240382

> <s_m_subgroup_title>
dock_pv

> <s_m_subgroupid>
dock_pv1

> <b_m_subgroup_collapsed>
1

$$$$
85236
                    3D
 Schrodinger Suite 2021-1.
 49 51  0  0  1  0            999 V2000
    3.4631   62.5972   69.5088 C   0  0  0  0  0  0
    2.1051   62.2902   69.5669 C   0  0  0  0  0  0
    1.2006   63.2461   70.0239 C   0  0  0  0  0  0
    1.6565   64.5020   70.4384 C   0  0  0  0  0  0
    3.0201   64.8026   70.3682 C   0  0  0  0  0  0
    3.9248   63.8500   69.9063 C   0  0  0  0  0  0
    0.6586   65.5550   70.9332 C   0  0  0  0  0  0
    0.1279   66.5077   69.9390 N   0  0  1  0  0  0
    1.1251   67.4673   69.4381 C   0  0  0  0  0  0
    0.5926   68.4246   68.3296 C   0  0  0  0  0  0
   -0.1931   67.7272   67.1995 C   0  0  0  0  0  0
   -1.2345   66.8000   67.8526 C   0  0  0  0  0  0
   -0.5639   65.8327   68.8468 C   0  0  0  0  0  0
   -0.8218   68.7542   66.2086 C   0  0  0  0  0  0
   -0.4465   68.5998   64.7218 C   0  0  0  0  0  0
    0.9953   68.5075   64.5187 N   0  0  0  0  0  0
    1.6342   68.7299   63.3584 C   0  0  0  0  0  0
    1.0542   68.9694   62.2981 O   0  0  0  0  0  0
    3.1381   68.6595   63.4290 C   0  0  0  0  0  0
    3.8354   69.0077   64.6005 C   0  0  0  0  0  0
    5.2271   68.9208   64.6101 C   0  0  0  0  0  0
    5.9431   68.5099   63.5365 N   0  0  0  0  0  0
    5.2669   68.1849   62.4086 C   0  0  0  0  0  0
    3.8773   68.2510   62.3096 C   0  0  0  0  0  0
    4.1643   61.8579   69.1520 H   0  0  0  0  0  0
    1.7524   61.3186   69.2538 H   0  0  0  0  0  0
    0.1473   63.0089   70.0589 H   0  0  0  0  0  0
    3.3817   65.7716   70.6806 H   0  0  0  0  0  0
    4.9785   64.0855   69.8563 H   0  0  0  0  0  0
    1.1345   66.1082   71.7304 H   0  0  0  0  0  0
   -0.1826   65.0365   71.3916 H   0  0  0  0  0  0
    1.9430   66.8791   69.0417 H   0  0  0  0  0  0
    1.5427   68.0339   70.2709 H   0  0  0  0  0  0
    1.4092   69.0172   67.9154 H   0  0  0  0  0  0
   -0.0569   69.1773   68.7682 H   0  0  0  0  0  0
    0.5085   67.0685   66.6836 H   0  0  0  0  0  0
   -2.0050   67.3738   68.3671 H   0  0  0  0  0  0
   -1.7810   66.2558   67.0811 H   0  0  0  0  0  0
    0.2380   65.3080   68.3680 H   0  0  0  0  0  0
   -1.2571   65.0802   69.2028 H   0  0  0  0  0  0
   -0.5622   69.7667   66.5136 H   0  0  0  0  0  0
   -1.9101   68.7347   66.2884 H   0  0  0  0  0  0
   -0.8563   69.4302   64.1481 H   0  0  0  0  0  0
   -0.8959   67.7080   64.3095 H   0  0  0  0  0  0
    1.5386   68.2253   65.3194 H   0  0  0  0  0  0
    3.3223   69.3584   65.4851 H   0  0  0  0  0  0
    5.7939   69.1903   65.4905 H   0  0  0  0  0  0
    5.8711   67.8743   61.5697 H   0  0  0  0  0  0
    3.3899   67.9917   61.3799 H   0  0  0  0  0  0
  1  6  1  0  0  0
  1  2  2  0  0  0
  1 25  1  0  0  0
  2  3  1  0  0  0
  2 26  1  0  0  0
  3  4  2  0  0  0
  3 27  1  0  0  0
  4  5  1  0  0  0
  4  7  1  0  0  0
  5  6  2  0  0  0
  5 28  1  0  0  0
  6 29  1  0  0  0
  7  8  1  0  0  0
  7 30  1  0  0  0
  7 31  1  0  0  0
  8 13  1  0  0  0
  8  9  1  0  0  0
  9 10  1  0  0  0
  9 32  1  0  0  0
  9 33  1  0  0  0
 10 11  1  0  0  0
 10 34  1  0  0  0
 10 35  1  0  0  0
 11 12  1  0  0  0
 11 14  1  0  0  0
 11 36  1  0  0  0
 12 13  1  0  0  0
 12 37  1  0  0  0
 12 38  1  0  0  0
 13 39  1  0  0  0
 13 40  1  0  0  0
 14 15  1  0  0  0
 14 41  1  0  0  0
 14 42  1  0  0  0
 15 16  1  0  0  0
 15 43  1  0  0  0
 15 44  1  0  0  0
 16 17  1  0  0  0
 16 45  1  0  0  0
 17 18  2  0  0  0
 17 19  1  0  0  0
 19 24  1  0  0  0
 19 20  2  0  0  0
 20 21  1  0  0  0
 20 46  1  0  0  0
 21 22  2  0  0  0
 21 47  1  0  0  0
 22 23  1  0  0  0
 23 24  2  0  0  0
 23 48  1  0  0  0
 24 49  1  0  0  0
M  END
> <s_m_entry_id>
9898

> <s_m_entry_name>
ligand_docking-pose.340

> <s_m_Source_Path>
/home/csk/Desktop/cluster/DUD-E-result/aces

> <s_m_Source_File>
ligand_docking-pose.sdf

> <i_m_Source_File_Index>
340

> <i_lp_mmshare_version>
53161

> <r_lp_tautomer_probability>
1

> <s_lp_Force_Field>
OPLS_2005

> <r_lp_Energy>
22.517801

> <b_lp_Chiralities_Consistent>
1

> <s_lp_Variant>
85236-1

> <s_i_glide_gridfile>
glide-grid_1e66

> <i_i_glide_lignum>
434

> <i_i_glide_rotatable_bonds>
7

> <r_i_docking_score>
-6.9966548853948

> <r_i_glide_ligand_efficiency>
-0.29152728689145

> <r_i_glide_ligand_efficiency_sa>
-0.840910207613338

> <r_i_glide_ligand_efficiency_ln>
-1.67462056964741

> <r_i_glide_gscore>
-6.9966548853948

> <r_i_glide_lipo>
-3.27163308876216

> <r_i_glide_hbond>
0

> <r_i_glide_metal>
0

> <r_i_glide_rewards>
-2.30638350258369

> <r_i_glide_evdw>
-39.3227195739746

> <r_i_glide_ecoul>
-3.50583553314209

> <r_i_glide_erotb>
1.0733730146211

> <r_i_glide_esite>
0

> <r_i_glide_emodel>
-50.4954391678145

> <r_i_glide_energy>
-42.8285551071167

> <r_i_glide_einternal>
9.55447578430176

> <i_i_glide_confnum>
7

> <i_i_glide_posenum>
373

> <r_i_glide_eff_state_penalty>
0

> <i_f3d_flags>
0

> <s_user_duplicate_titles>
85236

> <s_m_subgroup_title>
dock_pv

> <s_m_subgroupid>
dock_pv1

> <b_m_subgroup_collapsed>
1

$$$$
179475
                    3D
 Schrodinger Suite 2021-1.
 47 50  0  0  1  0            999 V2000
    4.6308   70.8307   68.7306 C   0  0  0  0  0  0
    5.2817   70.4565   67.5645 C   0  0  0  0  0  0
    4.5675   69.8094   66.5277 C   0  0  0  0  0  0
    3.1590   69.5847   66.6407 C   0  0  0  0  0  0
    2.5119   70.0627   67.8381 C   0  0  0  0  0  0
    3.2685   70.6069   68.8722 C   0  0  0  0  0  0
    0.7935   70.1079   68.0427 Cl  0  0  0  0  0  0
    2.5178   68.9083   65.5373 C   0  0  0  0  0  0
    3.2665   68.5844   64.3838 C   0  0  0  0  0  0
    4.6347   68.9089   64.3785 C   0  0  0  0  0  0
    5.2752   69.4547   65.4333 N   0  0  0  0  0  0
    5.5215   68.7201   63.1521 C   0  0  0  0  0  0
    5.1019   69.5919   61.9588 C   0  0  0  0  0  0
    3.9330   69.0374   61.1390 C   0  0  0  0  0  0
    2.6042   68.9390   61.8874 C   0  0  0  0  0  0
    2.6382   68.0044   63.1059 C   0  0  0  0  0  0
    1.1310   68.6783   65.5387 N   0  0  0  0  0  0
    0.5743   67.3382   65.5905 C   0  0  0  0  0  0
    0.0631   67.0111   66.9708 C   0  0  0  0  0  0
   -1.2340   66.9088   67.4429 C   0  0  0  0  0  0
   -1.3028   66.5080   68.7777 C   0  0  0  0  0  0
   -0.0703   66.2072   69.3449 C   0  0  0  0  0  0
    1.1430   66.7671   68.3008 S   0  0  0  0  0  0
    0.3435   65.6455   70.6310 C   0  0  0  0  0  0
   -0.0571   66.1075   71.6972 O   0  0  0  0  0  0
    1.2225   64.3754   70.6419 C   0  0  0  0  0  0
    1.2508   63.8274   71.8585 F   0  0  0  0  0  0
    2.4657   64.6763   70.2631 F   0  0  0  0  0  0
    0.7166   63.4770   69.7971 F   0  0  0  0  0  0
    5.1954   71.2782   69.5335 H   0  0  0  0  0  0
    6.3434   70.6252   67.4550 H   0  0  0  0  0  0
    2.7738   70.9086   69.7845 H   0  0  0  0  0  0
    5.5354   67.6674   62.8703 H   0  0  0  0  0  0
    6.5580   68.9533   63.4010 H   0  0  0  0  0  0
    5.9442   69.7085   61.2830 H   0  0  0  0  0  0
    4.8785   70.6002   62.3044 H   0  0  0  0  0  0
    4.1974   68.0462   60.7689 H   0  0  0  0  0  0
    3.8023   69.6574   60.2530 H   0  0  0  0  0  0
    1.8536   68.5707   61.1855 H   0  0  0  0  0  0
    2.2606   69.9296   62.1875 H   0  0  0  0  0  0
    3.1467   67.0710   62.8665 H   0  0  0  0  0  0
    1.6074   67.7081   63.2755 H   0  0  0  0  0  0
    0.6373   69.2995   66.1666 H   0  0  0  0  0  0
    1.3022   66.5954   65.2620 H   0  0  0  0  0  0
   -0.2498   67.3079   64.8801 H   0  0  0  0  0  0
   -2.1043   67.1175   66.8375 H   0  0  0  0  0  0
   -2.2387   66.4729   69.3115 H   0  0  0  0  0  0
  1  6  1  0  0  0
  1  2  2  0  0  0
  1 30  1  0  0  0
  2  3  1  0  0  0
  2 31  1  0  0  0
  3 11  2  0  0  0
  3  4  1  0  0  0
  4  5  1  0  0  0
  4  8  2  0  0  0
  5  6  2  0  0  0
  5  7  1  0  0  0
  6 32  1  0  0  0
  8  9  1  0  0  0
  8 17  1  0  0  0
  9 16  1  0  0  0
  9 10  2  0  0  0
 10 11  1  0  0  0
 10 12  1  0  0  0
 12 13  1  0  0  0
 12 33  1  0  0  0
 12 34  1  0  0  0
 13 14  1  0  0  0
 13 35  1  0  0  0
 13 36  1  0  0  0
 14 15  1  0  0  0
 14 37  1  0  0  0
 14 38  1  0  0  0
 15 16  1  0  0  0
 15 39  1  0  0  0
 15 40  1  0  0  0
 16 41  1  0  0  0
 16 42  1  0  0  0
 17 18  1  0  0  0
 17 43  1  0  0  0
 18 19  1  0  0  0
 18 44  1  0  0  0
 18 45  1  0  0  0
 19 23  1  0  0  0
 19 20  2  0  0  0
 20 21  1  0  0  0
 20 46  1  0  0  0
 21 22  2  0  0  0
 21 47  1  0  0  0
 22 23  1  0  0  0
 22 24  1  0  0  0
 24 25  2  0  0  0
 24 26  1  0  0  0
 26 27  1  0  0  0
 26 28  1  0  0  0
 26 29  1  0  0  0
M  END
> <s_m_entry_id>
9899

> <s_m_entry_name>
ligand_docking-pose.341

> <s_m_Source_Path>
/home/csk/Desktop/cluster/DUD-E-result/aces

> <s_m_Source_File>
ligand_docking-pose.sdf

> <i_m_Source_File_Index>
341

> <i_lp_mmshare_version>
53161

> <r_lp_tautomer_probability>
1

> <s_lp_Force_Field>
OPLS_2005

> <r_lp_Energy>
36.553684

> <b_lp_Chiralities_Consistent>
1

> <s_lp_Variant>
179475-1

> <s_i_glide_gridfile>
glide-grid_1e66

> <i_i_glide_lignum>
18

> <i_i_glide_rotatable_bonds>
5

> <r_i_docking_score>
-6.99569223109072

> <r_i_glide_ligand_efficiency>
-0.241230766589335

> <r_i_glide_ligand_efficiency_sa>
-0.741137342233633

> <r_i_glide_ligand_efficiency_ln>
-1.60183612547089

> <r_i_glide_gscore>
-6.99569223109072

> <r_i_glide_lipo>
-3.63860428154526

> <r_i_glide_hbond>
0

> <r_i_glide_metal>
0

> <r_i_glide_rewards>
-2.28800972849995

> <r_i_glide_evdw>
-28.4676456451416

> <r_i_glide_ecoul>
-0.400275409221649

> <r_i_glide_erotb>
0.414345372594827

> <r_i_glide_esite>
0

> <r_i_glide_emodel>
-26.9447777631322

> <r_i_glide_energy>
-28.8679210543633

> <r_i_glide_einternal>
7.52807331085205

> <i_i_glide_confnum>
78

> <i_i_glide_posenum>
280

> <r_i_glide_eff_state_penalty>
0

> <i_f3d_flags>
0

> <s_user_duplicate_titles>
179475

> <s_m_subgroup_title>
dock_pv

> <s_m_subgroupid>
dock_pv1

> <b_m_subgroup_collapsed>
1

$$$$
212958
                    3D
 Schrodinger Suite 2021-1.
 63 66  0  0  1  0            999 V2000
    6.7710   70.9678   68.3687 C   0  0  0  0  0  0
    5.5407   70.7567   67.6233 N   0  0  0  0  0  0
    5.4843   69.9243   66.5206 C   0  0  0  0  0  0
    6.4289   69.3063   66.0303 O   0  0  0  0  0  0
    4.2042   69.8772   66.0951 O   0  0  0  0  0  0
    3.8106   69.3512   64.8792 C   0  0  0  0  0  0
    4.5985   69.3241   63.7132 C   0  0  0  0  0  0
    4.0639   68.8657   62.5100 C   0  0  0  0  0  0
    2.7373   68.4406   62.4578 C   0  0  0  0  0  0
    1.9468   68.4466   63.6129 C   0  0  0  0  0  0
    2.4894   68.9098   64.8100 C   0  0  0  0  0  0
    0.4777   68.0406   63.5588 C   0  0  0  0  0  0
   -0.4586   69.1412   63.2966 N   0  0  1  0  0  0
   -0.1753   69.7956   62.0169 C   0  0  0  0  0  0
   -1.8443   68.6273   63.3500 C   0  0  0  0  0  0
   -2.7122   68.9084   64.6073 C   0  0  0  0  0  0
   -1.9881   69.2594   65.9126 C   0  0  0  0  0  0
   -2.1750   68.1479   66.7599 O   0  0  0  0  0  0
   -1.1622   67.7136   67.5679 C   0  0  0  0  0  0
    0.0405   68.3786   67.8070 C   0  0  0  0  0  0
    0.9825   67.8000   68.6403 C   0  0  0  0  0  0
    0.7425   66.5431   69.2118 C   0  0  0  0  0  0
    1.7460   65.9262   70.0664 C   0  0  0  0  0  0
    2.7430   66.5080   70.3680 O   0  0  0  0  0  0
    1.4900   64.6233   70.5464 C   0  0  0  0  0  0
    0.3230   64.0260   70.3212 C   0  0  0  0  0  0
   -0.6726   64.5981   69.5626 O   0  0  0  0  0  0
   -0.4568   65.8732   69.0034 C   0  0  0  0  0  0
   -1.4141   66.5080   68.1977 C   0  0  0  0  0  0
    0.1121   62.6871   70.9115 C   0  0  0  0  0  0
   -0.9386   62.4705   71.7989 C   0  0  0  0  0  0
   -1.0338   61.2853   72.5218 C   0  0  0  0  0  0
   -0.0561   60.3063   72.3684 C   0  0  0  0  0  0
    1.0091   60.5057   71.4953 C   0  0  0  0  0  0
    1.0895   61.6904   70.7673 C   0  0  0  0  0  0
    6.6896   71.8496   69.0033 H   0  0  0  0  0  0
    7.5991   71.1134   67.6795 H   0  0  0  0  0  0
    7.0007   70.1087   68.9992 H   0  0  0  0  0  0
    4.6858   71.1939   67.9342 H   0  0  0  0  0  0
    5.6159   69.6886   63.7190 H   0  0  0  0  0  0
    4.6730   68.8632   61.6159 H   0  0  0  0  0  0
    2.3217   68.1076   61.5179 H   0  0  0  0  0  0
    1.8696   68.9551   65.6924 H   0  0  0  0  0  0
    0.3478   67.3080   62.7683 H   0  0  0  0  0  0
    0.2107   67.5602   64.5025 H   0  0  0  0  0  0
   -0.9584   70.5077   61.7543 H   0  0  0  0  0  0
    0.7482   70.3660   62.0853 H   0  0  0  0  0  0
   -0.0572   69.0782   61.2018 H   0  0  0  0  0  0
   -2.4116   69.0629   62.5272 H   0  0  0  0  0  0
   -1.8545   67.5705   63.1665 H   0  0  0  0  0  0
   -3.3995   69.7080   64.3613 H   0  0  0  0  0  0
   -3.4339   68.1192   64.8073 H   0  0  0  0  0  0
   -0.9561   69.5422   65.7265 H   0  0  0  0  0  0
   -2.4549   70.1077   66.4026 H   0  0  0  0  0  0
    0.2537   69.3529   67.3991 H   0  0  0  0  0  0
    1.8976   68.3434   68.8389 H   0  0  0  0  0  0
    2.2425   64.1447   71.1543 H   0  0  0  0  0  0
   -2.3804   66.1080   67.9684 H   0  0  0  0  0  0
   -1.6562   63.2493   71.9733 H   0  0  0  0  0  0
   -1.8536   61.1347   73.2093 H   0  0  0  0  0  0
   -0.1234   59.3871   72.9319 H   0  0  0  0  0  0
    1.7677   59.7452   71.3839 H   0  0  0  0  0  0
    1.9334   61.8495   70.1114 H   0  0  0  0  0  0
  1  2  1  0  0  0
  1 36  1  0  0  0
  1 37  1  0  0  0
  1 38  1  0  0  0
  2  3  1  0  0  0
  2 39  1  0  0  0
  3  4  2  0  0  0
  3  5  1  0  0  0
  5  6  1  0  0  0
  6 11  1  0  0  0
  6  7  2  0  0  0
  7  8  1  0  0  0
  7 40  1  0  0  0
  8  9  2  0  0  0
  8 41  1  0  0  0
  9 10  1  0  0  0
  9 42  1  0  0  0
 10 11  2  0  0  0
 10 12  1  0  0  0
 11 43  1  0  0  0
 12 13  1  0  0  0
 12 44  1  0  0  0
 12 45  1  0  0  0
 13 14  1  0  0  0
 13 15  1  0  0  0
 14 46  1  0  0  0
 14 47  1  0  0  0
 14 48  1  0  0  0
 15 16  1  0  0  0
 15 49  1  0  0  0
 15 50  1  0  0  0
 16 17  1  0  0  0
 16 51  1  0  0  0
 16 52  1  0  0  0
 17 18  1  0  0  0
 17 53  1  0  0  0
 17 54  1  0  0  0
 18 19  1  0  0  0
 19 29  1  0  0  0
 19 20  2  0  0  0
 20 21  1  0  0  0
 20 55  1  0  0  0
 21 22  2  0  0  0
 21 56  1  0  0  0
 22 28  1  0  0  0
 22 23  1  0  0  0
 23 24  2  0  0  0
 23 25  1  0  0  0
 25 26  2  0  0  0
 25 57  1  0  0  0
 26 27  1  0  0  0
 26 30  1  0  0  0
 27 28  1  0  0  0
 28 29  2  0  0  0
 29 58  1  0  0  0
 30 35  1  0  0  0
 30 31  2  0  0  0
 31 32  1  0  0  0
 31 59  1  0  0  0
 32 33  2  0  0  0
 32 60  1  0  0  0
 33 34  1  0  0  0
 33 61  1  0  0  0
 34 35  2  0  0  0
 34 62  1  0  0  0
 35 63  1  0  0  0
M  END
> <s_m_entry_id>
9900

> <s_m_entry_name>
ligand_docking-pose.342

> <s_m_Source_Path>
/home/csk/Desktop/cluster/DUD-E-result/aces

> <s_m_Source_File>
ligand_docking-pose.sdf

> <i_m_Source_File_Index>
342

> <i_lp_mmshare_version>
53161

> <r_lp_tautomer_probability>
1

> <s_lp_Force_Field>
OPLS_2005

> <r_lp_Energy>
31.024747

> <b_lp_Chiralities_Consistent>
1

> <s_lp_Variant>
212958-1

> <s_i_glide_gridfile>
glide-grid_1e66

> <i_i_glide_lignum>
1892

> <i_i_glide_rotatable_bonds>
11

> <r_i_docking_score>
-6.99490690545226

> <r_i_glide_ligand_efficiency>
-0.199854483012922

> <r_i_glide_ligand_efficiency_sa>
-0.653737265548972

> <r_i_glide_ligand_efficiency_ln>
-1.53553730934124

> <r_i_glide_gscore>
-6.99490690545226

> <r_i_glide_lipo>
-5.04241018570737

> <r_i_glide_hbond>
0

> <r_i_glide_metal>
0

> <r_i_glide_rewards>
-1.38501078396777

> <r_i_glide_evdw>
-35.3596229553223

> <r_i_glide_ecoul>
1.96599388122559

> <r_i_glide_erotb>
0.905596129805147

> <r_i_glide_esite>
0

> <r_i_glide_emodel>
-47.0557138442255

> <r_i_glide_energy>
-33.3936290740967

> <r_i_glide_einternal>
15.5528697967529

> <i_i_glide_confnum>
11

> <i_i_glide_posenum>
146

> <r_i_glide_eff_state_penalty>
0

> <i_f3d_flags>
0

> <s_user_duplicate_titles>
212958

> <s_m_subgroup_title>
dock_pv

> <s_m_subgroupid>
dock_pv1

> <b_m_subgroup_collapsed>
1

$$$$
245297
                    3D
 Schrodinger Suite 2021-1.
 40 41  0  0  1  0            999 V2000
    0.3430   65.7949   71.3179 C   0  0  0  0  0  0
    0.1515   66.0983   69.8416 C   0  0  0  0  0  0
   -0.4568   65.2746   69.1684 O   0  0  0  0  0  0
    0.6713   67.2536   69.3775 N   0  0  0  0  0  0
    0.8003   67.6769   68.0410 C   0  0  0  0  0  0
    1.5430   68.8393   67.8247 C   0  0  0  0  0  0
    1.9481   69.1783   66.5347 C   0  0  0  0  0  0
    1.6143   68.3571   65.4481 C   0  0  0  0  0  0
    0.7478   67.2847   65.6625 C   0  0  0  0  0  0
    0.3305   66.9518   66.9387 C   0  0  0  0  0  0
    2.1729   68.5156   63.9997 C   0  0  1  0  0  0
    3.1963   69.6277   63.7476 C   0  0  0  0  0  0
    4.6758   69.2961   64.0897 N   0  3  0  0  0  0
    5.0538   67.8151   63.8809 C   0  0  0  0  0  0
    3.9036   66.9062   64.2898 C   0  0  0  0  0  0
    2.7401   67.3080   63.5887 O   0  0  0  0  0  0
    5.5430   70.1082   63.1083 C   0  0  0  0  0  0
    5.0552   69.7083   65.5355 C   0  0  0  0  0  0
    1.1123   68.8206   63.1866 O   0  0  0  0  0  0
    1.4015   65.7509   71.5610 H   0  0  0  0  0  0
   -0.0775   64.8214   71.5691 H   0  0  0  0  0  0
   -0.1400   66.5498   71.9377 H   0  0  0  0  0  0
    1.0241   67.9058   70.0654 H   0  0  0  0  0  0
    1.8688   69.4453   68.6595 H   0  0  0  0  0  0
    2.5499   70.0632   66.4118 H   0  0  0  0  0  0
    0.4362   66.6574   64.8415 H   0  0  0  0  0  0
   -0.3055   66.0911   67.0289 H   0  0  0  0  0  0
    3.1671   69.8731   62.6831 H   0  0  0  0  0  0
    2.9190   70.5080   64.3004 H   0  0  0  0  0  0
    5.2865   67.6637   62.8240 H   0  0  0  0  0  0
    5.9429   67.6441   64.4764 H   0  0  0  0  0  0
    4.1322   65.8765   64.0148 H   0  0  0  0  0  0
    3.7381   66.9075   65.3663 H   0  0  0  0  0  0
    6.5805   69.8330   63.2811 H   0  0  0  0  0  0
    5.2687   69.8621   62.0799 H   0  0  0  0  0  0
    5.3904   71.1642   63.3143 H   0  0  0  0  0  0
    6.1398   69.6340   65.6359 H   0  0  0  0  0  0
    4.7405   70.7405   65.6928 H   0  0  0  0  0  0
    4.5732   69.0261   66.2339 H   0  0  0  0  0  0
    0.4839   68.0978   63.2490 H   0  0  0  0  0  0
  1  2  1  0  0  0
  1 20  1  0  0  0
  1 21  1  0  0  0
  1 22  1  0  0  0
  2  3  2  0  0  0
  2  4  1  0  0  0
  4  5  1  0  0  0
  4 23  1  0  0  0
  5 10  1  0  0  0
  5  6  2  0  0  0
  6  7  1  0  0  0
  6 24  1  0  0  0
  7  8  2  0  0  0
  7 25  1  0  0  0
  8  9  1  0  0  0
  8 11  1  0  0  0
  9 10  2  0  0  0
  9 26  1  0  0  0
 10 27  1  0  0  0
 11 16  1  0  0  0
 11 12  1  0  0  0
 11 19  1  0  0  0
 12 13  1  0  0  0
 12 28  1  0  0  0
 12 29  1  0  0  0
 13 14  1  0  0  0
 13 17  1  0  0  0
 13 18  1  0  0  0
 14 15  1  0  0  0
 14 30  1  0  0  0
 14 31  1  0  0  0
 15 16  1  0  0  0
 15 32  1  0  0  0
 15 33  1  0  0  0
 17 34  1  0  0  0
 17 35  1  0  0  0
 17 36  1  0  0  0
 18 37  1  0  0  0
 18 38  1  0  0  0
 18 39  1  0  0  0
 19 40  1  0  0  0
M  CHG  1  13   1
M  END
> <s_m_entry_id>
9901

> <s_m_entry_name>
ligand_docking-pose.343

> <s_m_Source_Path>
/home/csk/Desktop/cluster/DUD-E-result/aces

> <s_m_Source_File>
ligand_docking-pose.sdf

> <i_m_Source_File_Index>
343

> <i_lp_mmshare_version>
53161

> <r_lp_tautomer_probability>
1

> <s_lp_Force_Field>
OPLS_2005

> <r_lp_Energy>
33.064881

> <b_lp_Chiralities_Consistent>
1

> <s_lp_Variant>
245297-1

> <s_i_glide_gridfile>
glide-grid_1e66

> <i_i_glide_lignum>
1447

> <i_i_glide_rotatable_bonds>
4

> <r_i_docking_score>
-6.99226745406615

> <r_i_glide_ligand_efficiency>
-0.368014076529798

> <r_i_glide_ligand_efficiency_sa>
-0.982009367601174

> <r_i_glide_ligand_efficiency_ln>
-1.77268997974049

> <r_i_glide_gscore>
-6.99226745406615

> <r_i_glide_lipo>
-1.84367765728719

> <r_i_glide_hbond>
-0.0475552293117971

> <r_i_glide_metal>
0

> <r_i_glide_rewards>
-3.76724636356793

> <r_i_glide_evdw>
-21.2280445098877

> <r_i_glide_ecoul>
-5.13858366012573

> <r_i_glide_erotb>
0.50550987255368

> <r_i_glide_esite>
-0.00710830193966305

> <r_i_glide_emodel>
-32.4608598006808

> <r_i_glide_energy>
-26.3666281700134

> <r_i_glide_einternal>
14.4780206680298

> <i_i_glide_confnum>
20

> <i_i_glide_posenum>
223

> <r_i_glide_eff_state_penalty>
0

> <i_f3d_flags>
0

> <s_user_duplicate_titles>
245297

> <s_m_subgroup_title>
dock_pv

> <s_m_subgroupid>
dock_pv1

> <b_m_subgroup_collapsed>
1

$$$$
142855
                    3D
 Schrodinger Suite 2021-1.
 29 29  0  0  1  0            999 V2000
    4.7264   67.2554   61.9683 C   0  0  0  0  0  0
    4.3908   68.4828   62.8476 C   0  0  0  0  0  0
    5.2188   68.3785   64.1565 C   0  0  0  0  0  0
    4.8780   69.7650   62.1257 C   0  0  0  0  0  0
    2.8584   68.5248   63.0871 C   0  0  0  0  0  0
    1.9909   68.8361   62.0292 C   0  0  0  0  0  0
    0.6114   68.8291   62.2090 C   0  0  0  0  0  0
    0.0666   68.5083   63.4490 C   0  0  0  0  0  0
    0.8940   68.2297   64.5492 C   0  0  0  0  0  0
    2.2868   68.2396   64.3395 C   0  0  0  0  0  0
    0.3829   67.8641   65.9257 C   0  0  0  0  0  0
    1.1241   67.2953   66.7345 O   0  0  0  0  0  0
   -1.0055   68.3205   66.4585 C   0  0  0  0  0  0
   -1.9078   68.5200   65.5015 F   0  0  0  0  0  0
   -1.4872   67.3907   67.2905 F   0  0  0  0  0  0
   -0.8484   69.4540   67.1478 F   0  0  0  0  0  0
    5.7997   67.1779   61.7855 H   0  0  0  0  0  0
    4.2442   67.3145   60.9917 H   0  0  0  0  0  0
    4.4068   66.3262   62.4414 H   0  0  0  0  0  0
    4.9834   69.1914   64.8477 H   0  0  0  0  0  0
    5.0484   67.4363   64.6789 H   0  0  0  0  0  0
    6.2903   68.4419   63.9577 H   0  0  0  0  0  0
    4.7376   70.6482   62.7491 H   0  0  0  0  0  0
    5.9415   69.7043   61.8946 H   0  0  0  0  0  0
    4.3751   69.9391   61.1765 H   0  0  0  0  0  0
    2.3759   69.0513   61.0432 H   0  0  0  0  0  0
   -0.0439   69.0445   61.3776 H   0  0  0  0  0  0
   -1.0080   68.4691   63.4983 H   0  0  0  0  0  0
    2.9340   68.0077   65.1726 H   0  0  0  0  0  0
  1  2  1  0  0  0
  1 17  1  0  0  0
  1 18  1  0  0  0
  1 19  1  0  0  0
  2  3  1  0  0  0
  2  4  1  0  0  0
  2  5  1  0  0  0
  3 20  1  0  0  0
  3 21  1  0  0  0
  3 22  1  0  0  0
  4 23  1  0  0  0
  4 24  1  0  0  0
  4 25  1  0  0  0
  5 10  1  0  0  0
  5  6  2  0  0  0
  6  7  1  0  0  0
  6 26  1  0  0  0
  7  8  2  0  0  0
  7 27  1  0  0  0
  8  9  1  0  0  0
  8 28  1  0  0  0
  9 10  2  0  0  0
  9 11  1  0  0  0
 10 29  1  0  0  0
 11 12  2  0  0  0
 11 13  1  0  0  0
 13 14  1  0  0  0
 13 15  1  0  0  0
 13 16  1  0  0  0
M  END
> <s_m_entry_id>
9902

> <s_m_entry_name>
ligand_docking-pose.344

> <s_m_Source_Path>
/home/csk/Desktop/cluster/DUD-E-result/aces

> <s_m_Source_File>
ligand_docking-pose.sdf

> <i_m_Source_File_Index>
344

> <i_lp_mmshare_version>
53161

> <r_lp_tautomer_probability>
1

> <s_lp_Force_Field>
OPLS_2005

> <r_lp_Energy>
22.645712

> <b_lp_Chiralities_Consistent>
1

> <s_lp_Variant>
142855-1

> <s_i_glide_gridfile>
glide-grid_1e66

> <i_i_glide_lignum>
974

> <i_i_glide_rotatable_bonds>
3

> <r_i_docking_score>
-6.99109716589815

> <r_i_glide_ligand_efficiency>
-0.436943572868634

> <r_i_glide_ligand_efficiency_sa>
-1.10102880912937

> <r_i_glide_ligand_efficiency_ln>
-1.85312995415719

> <r_i_glide_gscore>
-6.99109716589815

> <r_i_glide_lipo>
-2.38727649985972

> <r_i_glide_hbond>
0

> <r_i_glide_metal>
0

> <r_i_glide_rewards>
-3.39526163603322

> <r_i_glide_evdw>
-30.4301815032959

> <r_i_glide_ecoul>
-0.0620333030819893

> <r_i_glide_erotb>
0.322255040621886

> <r_i_glide_esite>
0

> <r_i_glide_emodel>
-42.6617947153636

> <r_i_glide_energy>
-30.4922148063779

> <r_i_glide_einternal>
1.07751178741455

> <i_i_glide_confnum>
1

> <i_i_glide_posenum>
272

> <r_i_glide_eff_state_penalty>
0

> <i_f3d_flags>
0

> <s_user_duplicate_titles>
142855

> <s_m_subgroup_title>
dock_pv

> <s_m_subgroupid>
dock_pv1

> <b_m_subgroup_collapsed>
1

$$$$
498249
                    3D
 Schrodinger Suite 2021-1.
 74 79  0  0  1  0            999 V2000
    5.6280   63.2416   63.1883 C   0  0  0  0  0  0
    5.5431   64.6400   63.5106 O   0  0  0  0  0  0
    4.3773   65.1363   64.0564 C   0  0  0  0  0  0
    3.2806   64.3273   64.3347 C   0  0  0  0  0  0
    2.1044   64.9080   64.7680 C   0  0  0  0  0  0
    1.9611   66.2576   65.0335 C   0  0  0  0  0  0
    3.0731   67.0572   64.8408 C   0  0  0  0  0  0
    4.2535   66.5034   64.3679 C   0  0  0  0  0  0
    5.2509   67.4329   64.3166 O   0  0  0  0  0  0
    4.7605   68.6461   64.8997 C   0  0  2  0  0  0
    3.2134   68.5349   64.9384 C   0  0  2  0  0  0
    2.6122   69.1405   66.2413 C   0  0  0  0  0  0
    1.1040   68.9566   66.5303 C   0  0  0  0  0  0
    0.5563   67.6147   66.6768 N   0  0  1  0  0  0
    0.6185   66.8218   65.4564 C   0  0  0  0  0  0
    0.9149   66.7686   67.8178 C   0  0  0  0  0  0
    1.0808   67.4163   69.2039 C   0  0  0  0  0  0
    1.9428   66.6171   70.0164 O   0  0  0  0  0  0
    1.6316   65.3030   70.3114 C   0  0  0  0  0  0
    2.6790   64.5052   70.7683 C   0  0  0  0  0  0
    2.4573   63.1749   71.1129 C   0  0  0  0  0  0
    1.1824   62.6233   70.9719 C   0  0  0  0  0  0
    0.1342   63.4095   70.4895 C   0  0  0  0  0  0
    0.3506   64.7494   70.1862 C   0  0  0  0  0  0
    0.9456   61.1574   71.3177 C   0  0  0  0  0  0
    0.4435   60.9356   72.6798 N   0  0  0  0  0  0
   -0.9426   61.4118   72.8506 C   0  0  0  0  0  0
   -1.4939   61.1391   74.2637 C   0  0  0  0  0  0
   -1.3743   59.6591   74.6519 C   0  0  0  0  0  0
    0.0711   59.1894   74.4389 C   0  0  0  0  0  0
    0.5788   59.5088   73.0189 C   0  0  0  0  0  0
    2.5915   69.1164   63.6551 C   0  0  0  0  0  0
    3.3001   69.5972   62.6111 C   0  0  0  0  0  0
    4.8086   69.7981   62.6310 C   0  0  1  0  0  0
    5.2720   69.8533   64.0958 C   0  0  0  0  0  0
    5.4445   68.7370   61.9681 O   0  0  0  0  0  0
    5.1794   68.6780   65.9078 H   0  0  0  0  0  0
    5.0862   70.7229   62.1251 H   0  0  0  0  0  0
    6.6055   63.0098   62.7673 H   0  0  0  0  0  0
    5.5397   62.6367   64.0905 H   0  0  0  0  0  0
    4.8546   62.9078   62.4915 H   0  0  0  0  0  0
    3.2766   63.2694   64.1255 H   0  0  0  0  0  0
    1.2226   64.2986   64.7680 H   0  0  0  0  0  0
    2.8312   70.2044   66.2511 H   0  0  0  0  0  0
    3.1465   68.7665   67.1107 H   0  0  0  0  0  0
    0.5657   69.3080   65.6575 H   0  0  0  0  0  0
    0.8111   69.5814   67.3758 H   0  0  0  0  0  0
   -0.0569   65.9814   65.5812 H   0  0  0  0  0  0
    0.2169   67.3943   64.6183 H   0  0  0  0  0  0
    1.7925   66.1600   67.5968 H   0  0  0  0  0  0
    0.0917   66.0616   67.8927 H   0  0  0  0  0  0
    0.1200   67.5529   69.6941 H   0  0  0  0  0  0
    1.5411   68.4010   69.1360 H   0  0  0  0  0  0
    3.6671   64.9307   70.8700 H   0  0  0  0  0  0
    3.2766   62.5752   71.4828 H   0  0  0  0  0  0
   -0.8535   62.9895   70.3665 H   0  0  0  0  0  0
   -0.4754   65.3489   69.8465 H   0  0  0  0  0  0
    1.8925   60.6305   71.1824 H   0  0  0  0  0  0
    0.2606   60.7222   70.5950 H   0  0  0  0  0  0
   -1.5861   60.9441   72.1034 H   0  0  0  0  0  0
   -0.9876   62.4844   72.6674 H   0  0  0  0  0  0
   -2.5412   61.4424   74.3043 H   0  0  0  0  0  0
   -0.9838   61.7799   74.9834 H   0  0  0  0  0  0
   -1.6751   59.5093   75.6894 H   0  0  0  0  0  0
   -2.0528   59.0621   74.0397 H   0  0  0  0  0  0
    0.7433   59.6324   75.1755 H   0  0  0  0  0  0
    0.1296   58.1133   74.6066 H   0  0  0  0  0  0
    0.0414   58.9050   72.2850 H   0  0  0  0  0  0
    1.6277   59.2193   72.9415 H   0  0  0  0  0  0
    1.5200   69.0507   63.5353 H   0  0  0  0  0  0
    2.7543   69.9003   61.7301 H   0  0  0  0  0  0
    4.8610   70.7569   64.5460 H   0  0  0  0  0  0
    6.3430   69.9598   64.1925 H   0  0  0  0  0  0
    5.5438   68.9032   61.0162 H   0  0  0  0  0  0
  1  2  1  0  0  0
  1 39  1  0  0  0
  1 40  1  0  0  0
  1 41  1  0  0  0
  2  3  1  0  0  0
  3  8  1  0  0  0
  3  4  2  0  0  0
  4  5  1  0  0  0
  4 42  1  0  0  0
  5  6  2  0  0  0
  5 43  1  0  0  0
  6 15  1  0  0  0
  6  7  1  0  0  0
  7 11  1  0  0  0
  7  8  2  0  0  0
  8  9  1  0  0  0
  9 10  1  0  0  0
 10 37  1  0  0  0
 10 35  1  0  0  0
 10 11  1  0  0  0
 11 12  1  0  0  0
 11 32  1  0  0  0
 12 13  1  0  0  0
 12 44  1  0  0  0
 12 45  1  0  0  0
 13 14  1  0  0  0
 13 46  1  0  0  0
 13 47  1  0  0  0
 14 15  1  0  0  0
 14 16  1  0  0  0
 15 48  1  0  0  0
 15 49  1  0  0  0
 16 17  1  0  0  0
 16 50  1  0  0  0
 16 51  1  0  0  0
 17 18  1  0  0  0
 17 52  1  0  0  0
 17 53  1  0  0  0
 18 19  1  0  0  0
 19 24  1  0  0  0
 19 20  2  0  0  0
 20 21  1  0  0  0
 20 54  1  0  0  0
 21 22  2  0  0  0
 21 55  1  0  0  0
 22 23  1  0  0  0
 22 25  1  0  0  0
 23 24  2  0  0  0
 23 56  1  0  0  0
 24 57  1  0  0  0
 25 26  1  0  0  0
 25 58  1  0  0  0
 25 59  1  0  0  0
 26 31  1  0  0  0
 26 27  1  0  0  0
 27 28  1  0  0  0
 27 60  1  0  0  0
 27 61  1  0  0  0
 28 29  1  0  0  0
 28 62  1  0  0  0
 28 63  1  0  0  0
 29 30  1  0  0  0
 29 64  1  0  0  0
 29 65  1  0  0  0
 30 31  1  0  0  0
 30 66  1  0  0  0
 30 67  1  0  0  0
 31 68  1  0  0  0
 31 69  1  0  0  0
 32 33  2  0  0  0
 32 70  1  0  0  0
 33 34  1  0  0  0
 33 71  1  0  0  0
 34 38  1  0  0  0
 34 35  1  0  0  0
 34 36  1  0  0  0
 35 72  1  0  0  0
 35 73  1  0  0  0
 36 74  1  0  0  0
M  END
> <s_m_entry_id>
9904

> <s_m_entry_name>
ligand_docking-pose.346

> <s_m_Source_Path>
/home/csk/Desktop/cluster/DUD-E-result/aces

> <s_m_Source_File>
ligand_docking-pose.sdf

> <i_m_Source_File_Index>
346

> <i_lp_mmshare_version>
53161

> <r_lp_tautomer_probability>
1

> <s_lp_Force_Field>
OPLS_2005

> <r_lp_Energy>
72.722471

> <b_lp_Chiralities_Consistent>
1

> <s_lp_Variant>
498249-1

> <s_i_glide_gridfile>
glide-grid_1e66

> <i_i_glide_lignum>
2051

> <i_i_glide_rotatable_bonds>
8

> <r_i_docking_score>
-6.98921960733819

> <r_i_glide_ligand_efficiency>
-0.194144989092728

> <r_i_glide_ligand_efficiency_sa>
-0.641052628955886

> <r_i_glide_ligand_efficiency_ln>
-1.52485889142904

> <r_i_glide_gscore>
-6.98921960733819

> <r_i_glide_lipo>
-4.29762107500741

> <r_i_glide_hbond>
-0.197819101663364

> <r_i_glide_metal>
0

> <r_i_glide_rewards>
-0.628026247734138

> <r_i_glide_evdw>
-21.5352973937988

> <r_i_glide_ecoul>
-8.64174175262451

> <r_i_glide_erotb>
0.507272949650335

> <r_i_glide_esite>
0

> <r_i_glide_emodel>
-31.7933956751908

> <r_i_glide_energy>
-30.1770391464233

> <r_i_glide_einternal>
7.72971773147583

> <i_i_glide_confnum>
47

> <i_i_glide_posenum>
391

> <r_i_glide_eff_state_penalty>
0

> <i_f3d_flags>
0

> <s_user_duplicate_titles>
498249

> <s_m_subgroup_title>
dock_pv

> <s_m_subgroupid>
dock_pv1

> <b_m_subgroup_collapsed>
1

$$$$
175252
                    3D
 Schrodinger Suite 2021-1.
 62 63  0  0  1  0            999 V2000
    1.7879   68.9824   68.6491 C   0  0  0  0  0  0
    1.2426   67.7762   69.4565 C   0  0  0  0  0  0
    0.9064   66.5799   68.6775 N   0  0  2  0  0  0
    0.0945   66.8434   67.4815 C   0  0  0  0  0  0
   -1.2710   67.5515   67.6886 C   0  0  0  0  0  0
   -2.1841   67.6070   66.4423 C   0  0  0  0  0  0
   -1.7785   68.5910   65.3193 C   0  0  0  0  0  0
   -0.3253   68.4007   64.8385 C   0  0  0  0  0  0
    0.0445   68.9059   63.4397 C   0  0  0  0  0  0
   -0.8433   69.1953   62.6448 O   0  0  0  0  0  0
    1.5025   68.9481   63.0990 C   0  0  0  0  0  0
    1.9062   68.9084   61.7579 C   0  0  0  0  0  0
    3.2541   69.0328   61.4240 C   0  0  0  0  0  0
    4.2081   69.2341   62.4200 C   0  0  0  0  0  0
    3.8295   69.3079   63.7648 C   0  0  0  0  0  0
    2.4790   69.1329   64.0914 C   0  0  0  0  0  0
    4.8216   69.5785   64.6910 O   0  0  0  0  0  0
    4.5104   69.5853   66.0743 C   0  0  0  0  0  0
    5.5192   69.3836   62.0552 O   0  0  0  0  0  0
    6.3437   68.2937   62.4403 C   0  0  0  0  0  0
    0.3467   65.5102   69.5233 C   0  0  0  0  0  0
    1.3714   64.5999   70.2292 C   0  0  0  0  0  0
    2.7523   64.8285   70.1423 C   0  0  0  0  0  0
    3.6635   63.9688   70.7479 C   0  0  0  0  0  0
    3.2071   62.8632   71.4564 C   0  0  0  0  0  0
    1.8395   62.6218   71.5571 C   0  0  0  0  0  0
    0.9094   63.4789   70.9421 C   0  0  0  0  0  0
   -0.4570   63.2688   70.9884 O   0  0  0  0  0  0
   -0.9721   62.1315   71.6731 C   0  0  0  0  0  0
    1.9511   69.8370   69.3039 H   0  0  0  0  0  0
    2.7396   68.7928   68.1668 H   0  0  0  0  0  0
    1.0911   69.3281   67.8875 H   0  0  0  0  0  0
    0.3430   68.0943   69.9676 H   0  0  0  0  0  0
    1.9602   67.5216   70.2363 H   0  0  0  0  0  0
   -0.0603   65.9355   66.9056 H   0  0  0  0  0  0
    0.7415   67.4206   66.8317 H   0  0  0  0  0  0
   -1.0935   68.5887   67.9680 H   0  0  0  0  0  0
   -1.8091   67.0747   68.5085 H   0  0  0  0  0  0
   -3.1910   67.8747   66.7675 H   0  0  0  0  0  0
   -2.2761   66.6014   66.0399 H   0  0  0  0  0  0
   -1.8919   69.6107   65.6913 H   0  0  0  0  0  0
   -2.4876   68.5074   64.4940 H   0  0  0  0  0  0
   -0.0602   67.3432   64.8406 H   0  0  0  0  0  0
    0.2939   68.9063   65.5725 H   0  0  0  0  0  0
    1.1798   68.7813   60.9661 H   0  0  0  0  0  0
    3.5723   68.9857   60.3921 H   0  0  0  0  0  0
    2.1963   69.2112   65.1272 H   0  0  0  0  0  0
    5.4190   69.7505   66.6537 H   0  0  0  0  0  0
    3.8053   70.3790   66.3254 H   0  0  0  0  0  0
    4.0995   68.6207   66.3682 H   0  0  0  0  0  0
    7.3826   68.5092   62.2074 H   0  0  0  0  0  0
    6.0621   67.3754   61.9226 H   0  0  0  0  0  0
    6.3179   68.1081   63.5129 H   0  0  0  0  0  0
   -0.3537   65.9241   70.2505 H   0  0  0  0  0  0
   -0.2362   64.8393   68.8915 H   0  0  0  0  0  0
    3.1376   65.6740   69.5972 H   0  0  0  0  0  0
    4.7209   64.1672   70.6703 H   0  0  0  0  0  0
    3.9092   62.1952   71.9333 H   0  0  0  0  0  0
    1.5192   61.7566   72.1165 H   0  0  0  0  0  0
   -2.0563   62.1088   71.5711 H   0  0  0  0  0  0
   -0.5825   61.2015   71.2576 H   0  0  0  0  0  0
   -0.7438   62.1712   72.7394 H   0  0  0  0  0  0
  1  2  1  0  0  0
  1 30  1  0  0  0
  1 31  1  0  0  0
  1 32  1  0  0  0
  2  3  1  0  0  0
  2 33  1  0  0  0
  2 34  1  0  0  0
  3  4  1  0  0  0
  3 21  1  0  0  0
  4  5  1  0  0  0
  4 35  1  0  0  0
  4 36  1  0  0  0
  5  6  1  0  0  0
  5 37  1  0  0  0
  5 38  1  0  0  0
  6  7  1  0  0  0
  6 39  1  0  0  0
  6 40  1  0  0  0
  7  8  1  0  0  0
  7 41  1  0  0  0
  7 42  1  0  0  0
  8  9  1  0  0  0
  8 43  1  0  0  0
  8 44  1  0  0  0
  9 10  2  0  0  0
  9 11  1  0  0  0
 11 16  1  0  0  0
 11 12  2  0  0  0
 12 13  1  0  0  0
 12 45  1  0  0  0
 13 14  2  0  0  0
 13 46  1  0  0  0
 14 15  1  0  0  0
 14 19  1  0  0  0
 15 16  2  0  0  0
 15 17  1  0  0  0
 16 47  1  0  0  0
 17 18  1  0  0  0
 18 48  1  0  0  0
 18 49  1  0  0  0
 18 50  1  0  0  0
 19 20  1  0  0  0
 20 51  1  0  0  0
 20 52  1  0  0  0
 20 53  1  0  0  0
 21 22  1  0  0  0
 21 54  1  0  0  0
 21 55  1  0  0  0
 22 27  1  0  0  0
 22 23  2  0  0  0
 23 24  1  0  0  0
 23 56  1  0  0  0
 24 25  2  0  0  0
 24 57  1  0  0  0
 25 26  1  0  0  0
 25 58  1  0  0  0
 26 27  2  0  0  0
 26 59  1  0  0  0
 27 28  1  0  0  0
 28 29  1  0  0  0
 29 60  1  0  0  0
 29 61  1  0  0  0
 29 62  1  0  0  0
M  END
> <s_m_entry_id>
9905

> <s_m_entry_name>
ligand_docking-pose.347

> <s_m_Source_Path>
/home/csk/Desktop/cluster/DUD-E-result/aces

> <s_m_Source_File>
ligand_docking-pose.sdf

> <i_m_Source_File_Index>
347

> <i_lp_mmshare_version>
53161

> <r_lp_tautomer_probability>
0.99990000499975

> <s_lp_Force_Field>
OPLS_2005

> <r_lp_Energy>
41.622697

> <b_lp_Chiralities_Consistent>
1

> <s_lp_Variant>
175252-1

> <s_i_glide_gridfile>
glide-grid_1e66

> <i_i_glide_lignum>
1323

> <i_i_glide_rotatable_bonds>
13

> <r_i_docking_score>
-6.98831914446193

> <r_i_glide_ligand_efficiency>
-0.240976522222825

> <r_i_glide_ligand_efficiency_sa>
-0.740356222989446

> <r_i_glide_ligand_efficiency_ln>
-1.60014787559824

> <r_i_glide_gscore>
-6.98831914446193

> <r_i_glide_lipo>
-4.32236195646087

> <r_i_glide_hbond>
0

> <r_i_glide_metal>
0

> <r_i_glide_rewards>
-1.55027327459952

> <r_i_glide_evdw>
-42.2688102722168

> <r_i_glide_ecoul>
-0.714087665081024

> <r_i_glide_erotb>
1.10486974997145

> <r_i_glide_esite>
0

> <r_i_glide_emodel>
-50.6739855522856

> <r_i_glide_energy>
-42.9828979372978

> <r_i_glide_einternal>
21.4676914215088

> <i_i_glide_confnum>
91

> <i_i_glide_posenum>
345

> <r_i_glide_eff_state_penalty>
0

> <i_f3d_flags>
0

> <s_user_duplicate_titles>
175252

> <s_m_subgroup_title>
dock_pv

> <s_m_subgroupid>
dock_pv1

> <b_m_subgroup_collapsed>
1

$$$$
118289
                    3D
 Schrodinger Suite 2021-1.
 60 63  0  0  1  0            999 V2000
    5.8570   60.5618   71.9013 C   0  0  0  0  0  0
    4.4075   60.4103   72.0014 N   0  0  0  0  0  0
    4.0612   58.9885   72.1455 C   0  0  0  0  0  0
    2.5844   58.7705   72.4898 C   0  0  0  0  0  0
    1.7093   59.4241   71.4243 C   0  0  0  0  0  0
    2.1428   60.8717   71.2164 C   0  0  0  0  0  0
    3.4788   61.2874   71.4325 C   0  0  0  0  0  0
    3.8310   62.6186   71.1679 C   0  0  0  0  0  0
    2.8971   63.5269   70.6921 C   0  0  0  0  0  0
    1.5735   63.1282   70.4892 C   0  0  0  0  0  0
    1.2141   61.8066   70.7649 C   0  0  0  0  0  0
    0.5371   64.0578   69.9680 C   0  0  0  0  0  0
   -0.6207   63.7042   69.7662 O   0  0  0  0  0  0
    0.9743   65.4875   69.6271 C   0  0  0  0  0  0
   -0.1507   66.4536   69.1922 C   0  0  0  0  0  0
    0.3392   67.5330   68.2064 C   0  0  0  0  0  0
    1.5594   68.3365   68.7109 C   0  0  0  0  0  0
    2.1444   69.3061   67.6608 C   0  0  0  0  0  0
    2.3434   68.6429   66.3683 N   0  0  1  0  0  0
    1.0885   68.1011   65.8330 C   0  0  0  0  0  0
    0.5886   67.0030   66.7806 C   0  0  0  0  0  0
    3.0565   69.4820   65.4099 C   0  0  0  0  0  0
    3.8352   68.7060   64.3575 C   0  0  0  0  0  0
    4.4860   69.4285   63.3575 C   0  0  0  0  0  0
    5.2005   68.7647   62.3679 C   0  0  0  0  0  0
    5.2692   67.3743   62.3680 C   0  0  0  0  0  0
    4.6442   66.6405   63.3779 C   0  0  0  0  0  0
    3.9355   67.3086   64.3681 C   0  0  0  0  0  0
    4.7429   64.9185   63.4460 Cl  0  0  0  0  0  0
    6.2442   60.1075   70.9910 H   0  0  0  0  0  0
    6.1826   61.5992   71.9145 H   0  0  0  0  0  0
    6.3339   60.1081   72.7643 H   0  0  0  0  0  0
    4.7428   58.4256   72.7728 H   0  0  0  0  0  0
    4.2118   58.5602   71.1531 H   0  0  0  0  0  0
    2.3688   59.1897   73.4738 H   0  0  0  0  0  0
    2.3718   57.7039   72.5664 H   0  0  0  0  0  0
    1.8230   58.8846   70.4832 H   0  0  0  0  0  0
    0.6551   59.3577   71.6992 H   0  0  0  0  0  0
    4.8285   62.9875   71.3393 H   0  0  0  0  0  0
    3.2275   64.5377   70.4997 H   0  0  0  0  0  0
    0.1964   61.4767   70.6065 H   0  0  0  0  0  0
    1.5000   65.9162   70.4807 H   0  0  0  0  0  0
    1.7069   65.3872   68.8277 H   0  0  0  0  0  0
   -0.9855   65.9302   68.7241 H   0  0  0  0  0  0
   -0.5577   66.9079   70.0941 H   0  0  0  0  0  0
   -0.4573   68.2694   68.0783 H   0  0  0  0  0  0
    1.3030   68.9044   69.5676 H   0  0  0  0  0  0
    2.3323   67.7161   69.1679 H   0  0  0  0  0  0
    1.5307   70.2010   67.5495 H   0  0  0  0  0  0
    3.1159   69.6461   68.0231 H   0  0  0  0  0  0
    0.3615   68.9017   65.6872 H   0  0  0  0  0  0
    1.2559   67.6502   64.8548 H   0  0  0  0  0  0
    1.3213   66.1978   66.7890 H   0  0  0  0  0  0
   -0.3224   66.5492   66.3875 H   0  0  0  0  0  0
    2.3430   70.1080   64.8849 H   0  0  0  0  0  0
    3.7674   70.1279   65.9281 H   0  0  0  0  0  0
    4.4353   70.5079   63.3409 H   0  0  0  0  0  0
    5.7000   69.3234   61.5886 H   0  0  0  0  0  0
    5.8352   66.9053   61.5793 H   0  0  0  0  0  0
    3.4630   66.7292   65.1465 H   0  0  0  0  0  0
  1  2  1  0  0  0
  1 30  1  0  0  0
  1 31  1  0  0  0
  1 32  1  0  0  0
  2  7  1  0  0  0
  2  3  1  0  0  0
  3  4  1  0  0  0
  3 33  1  0  0  0
  3 34  1  0  0  0
  4  5  1  0  0  0
  4 35  1  0  0  0
  4 36  1  0  0  0
  5  6  1  0  0  0
  5 37  1  0  0  0
  5 38  1  0  0  0
  6 11  2  0  0  0
  6  7  1  0  0  0
  7  8  2  0  0  0
  8  9  1  0  0  0
  8 39  1  0  0  0
  9 10  2  0  0  0
  9 40  1  0  0  0
 10 11  1  0  0  0
 10 12  1  0  0  0
 11 41  1  0  0  0
 12 13  2  0  0  0
 12 14  1  0  0  0
 14 15  1  0  0  0
 14 42  1  0  0  0
 14 43  1  0  0  0
 15 16  1  0  0  0
 15 44  1  0  0  0
 15 45  1  0  0  0
 16 21  1  0  0  0
 16 17  1  0  0  0
 16 46  1  0  0  0
 17 18  1  0  0  0
 17 47  1  0  0  0
 17 48  1  0  0  0
 18 19  1  0  0  0
 18 49  1  0  0  0
 18 50  1  0  0  0
 19 20  1  0  0  0
 19 22  1  0  0  0
 20 21  1  0  0  0
 20 51  1  0  0  0
 20 52  1  0  0  0
 21 53  1  0  0  0
 21 54  1  0  0  0
 22 23  1  0  0  0
 22 55  1  0  0  0
 22 56  1  0  0  0
 23 28  1  0  0  0
 23 24  2  0  0  0
 24 25  1  0  0  0
 24 57  1  0  0  0
 25 26  2  0  0  0
 25 58  1  0  0  0
 26 27  1  0  0  0
 26 59  1  0  0  0
 27 28  2  0  0  0
 27 29  1  0  0  0
 28 60  1  0  0  0
M  END
> <s_m_entry_id>
9906

> <s_m_entry_name>
ligand_docking-pose.348

> <s_m_Source_Path>
/home/csk/Desktop/cluster/DUD-E-result/aces

> <s_m_Source_File>
ligand_docking-pose.sdf

> <i_m_Source_File_Index>
348

> <i_lp_mmshare_version>
53161

> <r_lp_tautomer_probability>
0.99990000499975

> <s_lp_Force_Field>
OPLS_2005

> <r_lp_Energy>
37.355316

> <b_lp_Chiralities_Consistent>
1

> <s_lp_Variant>
118289-1

> <s_i_glide_gridfile>
glide-grid_1e66

> <i_i_glide_lignum>
1514

> <i_i_glide_rotatable_bonds>
6

> <r_i_docking_score>
-6.98801865803408

> <r_i_glide_ligand_efficiency>
-0.240966160621865

> <r_i_glide_ligand_efficiency_sa>
-0.74032438886851

> <r_i_glide_ligand_efficiency_ln>
-1.60007907182594

> <r_i_glide_gscore>
-6.98801865803408

> <r_i_glide_lipo>
-3.31107311106884

> <r_i_glide_hbond>
0

> <r_i_glide_metal>
0

> <r_i_glide_rewards>
-1.92249920462935

> <r_i_glide_evdw>
-37.1110076904297

> <r_i_glide_ecoul>
-3.992600440979

> <r_i_glide_erotb>
0.699994108332456

> <r_i_glide_esite>
0

> <r_i_glide_emodel>
-50.9621362403676

> <r_i_glide_energy>
-41.1036081314087

> <r_i_glide_einternal>
8.36100769042969

> <i_i_glide_confnum>
90

> <i_i_glide_posenum>
262

> <r_i_glide_eff_state_penalty>
0

> <i_f3d_flags>
0

> <s_user_duplicate_titles>
118289

> <s_m_subgroup_title>
dock_pv

> <s_m_subgroupid>
dock_pv1

> <b_m_subgroup_collapsed>
1

$$$$
633140
                    3D
 Schrodinger Suite 2021-1.
 43 45  0  0  1  0            999 V2000
   -1.8444   69.2140   66.5236 C   0  0  0  0  0  0
   -0.9330   68.3273   65.6580 C   0  0  0  0  0  0
   -0.9954   68.6433   64.1441 C   0  0  0  0  0  0
    0.0984   67.9733   63.2761 C   0  0  0  0  0  0
    1.4323   68.1156   63.8653 N   0  0  0  0  0  0
    1.4339   67.4816   65.1974 C   0  0  0  0  0  0
    0.5237   68.2666   66.1599 C   0  0  0  0  0  0
    2.5709   68.5218   63.1753 C   0  0  0  0  0  0
    2.4711   68.8248   61.8510 N   0  0  0  0  0  0
    3.5905   69.3086   61.2573 C   0  0  0  0  0  0
    4.7677   69.5608   61.9656 C   0  0  0  0  0  0
    4.7854   69.2234   63.3126 C   0  0  0  0  0  0
    3.7031   68.6637   63.9036 N   0  0  0  0  0  0
    5.9415   69.4652   64.0653 N   0  0  0  0  0  0
    6.1126   68.9075   65.4002 C   0  0  0  0  0  0
    5.5187   69.7573   66.5144 C   0  0  0  0  0  0
    6.3731   70.4931   67.3386 C   0  0  0  0  0  0
    5.8777   71.0691   68.5042 C   0  0  0  0  0  0
    4.5304   70.9103   68.8319 C   0  0  0  0  0  0
    3.6568   70.2609   67.9740 C   0  0  0  0  0  0
    4.1510   69.7079   66.8035 C   0  0  0  0  0  0
   -1.4921   70.2432   66.5471 H   0  0  0  0  0  0
   -2.8681   69.2202   66.1469 H   0  0  0  0  0  0
   -1.8776   68.8593   67.5549 H   0  0  0  0  0  0
   -1.2990   67.3079   65.7402 H   0  0  0  0  0  0
   -0.8503   69.7080   64.0079 H   0  0  0  0  0  0
   -1.9947   68.4657   63.7460 H   0  0  0  0  0  0
    0.0516   68.3983   62.2737 H   0  0  0  0  0  0
   -0.0570   66.9080   63.1681 H   0  0  0  0  0  0
    1.0549   66.4625   65.0907 H   0  0  0  0  0  0
    2.4329   67.3708   65.6158 H   0  0  0  0  0  0
    0.5631   67.8512   67.1673 H   0  0  0  0  0  0
    0.9206   69.2787   66.2594 H   0  0  0  0  0  0
    3.5422   69.4951   60.1967 H   0  0  0  0  0  0
    5.6332   69.9706   61.4682 H   0  0  0  0  0  0
    6.7932   69.7333   63.5835 H   0  0  0  0  0  0
    7.1752   68.7568   65.5828 H   0  0  0  0  0  0
    5.6744   67.9111   65.4410 H   0  0  0  0  0  0
    7.4290   70.5488   67.1189 H   0  0  0  0  0  0
    6.5438   71.5985   69.1684 H   0  0  0  0  0  0
    4.1432   71.3078   69.7572 H   0  0  0  0  0  0
    2.6108   70.1620   68.2283 H   0  0  0  0  0  0
    3.4610   69.1485   66.2073 H   0  0  0  0  0  0
  1  2  1  0  0  0
  1 22  1  0  0  0
  1 23  1  0  0  0
  1 24  1  0  0  0
  2  7  1  0  0  0
  2  3  1  0  0  0
  2 25  1  0  0  0
  3  4  1  0  0  0
  3 26  1  0  0  0
  3 27  1  0  0  0
  4  5  1  0  0  0
  4 28  1  0  0  0
  4 29  1  0  0  0
  5  6  1  0  0  0
  5  8  1  0  0  0
  6  7  1  0  0  0
  6 30  1  0  0  0
  6 31  1  0  0  0
  7 32  1  0  0  0
  7 33  1  0  0  0
  8 13  1  0  0  0
  8  9  2  0  0  0
  9 10  1  0  0  0
 10 11  2  0  0  0
 10 34  1  0  0  0
 11 12  1  0  0  0
 11 35  1  0  0  0
 12 13  2  0  0  0
 12 14  1  0  0  0
 14 15  1  0  0  0
 14 36  1  0  0  0
 15 16  1  0  0  0
 15 37  1  0  0  0
 15 38  1  0  0  0
 16 21  1  0  0  0
 16 17  2  0  0  0
 17 18  1  0  0  0
 17 39  1  0  0  0
 18 19  2  0  0  0
 18 40  1  0  0  0
 19 20  1  0  0  0
 19 41  1  0  0  0
 20 21  2  0  0  0
 20 42  1  0  0  0
 21 43  1  0  0  0
M  END
> <s_m_entry_id>
9907

> <s_m_entry_name>
ligand_docking-pose.349

> <s_m_Source_Path>
/home/csk/Desktop/cluster/DUD-E-result/aces

> <s_m_Source_File>
ligand_docking-pose.sdf

> <i_m_Source_File_Index>
349

> <i_lp_mmshare_version>
53161

> <r_lp_tautomer_probability>
0.999999976134001

> <s_lp_Force_Field>
OPLS_2005

> <r_lp_Energy>
10.535983

> <b_lp_Chiralities_Consistent>
1

> <s_lp_Variant>
633140-1

> <s_i_glide_gridfile>
glide-grid_1e66

> <i_i_glide_lignum>
819

> <i_i_glide_rotatable_bonds>
4

> <r_i_docking_score>
-6.98654191232508

> <r_i_glide_ligand_efficiency>
-0.33269247201548

> <r_i_glide_ligand_efficiency_sa>
-0.917873303412012

> <r_i_glide_ligand_efficiency_ln>
-1.72740837018515

> <r_i_glide_gscore>
-6.98654191232508

> <r_i_glide_lipo>
-3.2432321835767

> <r_i_glide_hbond>
-0.207223250654168

> <r_i_glide_metal>
0

> <r_i_glide_rewards>
-2.68880468093001

> <r_i_glide_evdw>
-34.508846282959

> <r_i_glide_ecoul>
-0.141664668917656

> <r_i_glide_erotb>
0.907586308633749

> <r_i_glide_esite>
-0.00817609131234793

> <r_i_glide_emodel>
-48.942623238284

> <r_i_glide_energy>
-34.6505109518766

> <r_i_glide_einternal>
0.540466010570526

> <i_i_glide_confnum>
2

> <i_i_glide_posenum>
55

> <r_i_glide_eff_state_penalty>
0

> <i_f3d_flags>
0

> <s_user_duplicate_titles>
633140

> <s_m_subgroup_title>
dock_pv

> <s_m_subgroupid>
dock_pv1

> <b_m_subgroup_collapsed>
1

$$$$
631158
                    3D
 Schrodinger Suite 2021-1.
 64 67  0  0  1  0            999 V2000
    6.3820   70.5080   66.6213 C   0  0  0  0  0  0
    6.0332   70.9080   67.9063 C   0  0  0  0  0  0
    4.7337   70.7302   68.3680 C   0  0  0  0  0  0
    3.7662   70.1080   67.5431 C   0  0  0  0  0  0
    4.1089   69.7080   66.2178 C   0  0  0  0  0  0
    5.4418   69.9359   65.7714 C   0  0  0  0  0  0
    3.0940   69.0768   65.4291 C   0  0  0  0  0  0
    1.8037   68.8904   65.9714 C   0  0  0  0  0  0
    1.5737   69.3080   67.2981 C   0  0  0  0  0  0
    2.5319   69.8923   68.0565 N   0  0  0  0  0  0
    0.2056   69.1742   67.9681 C   0  0  0  0  0  0
   -0.8274   68.3534   67.1755 C   0  0  0  0  0  0
   -0.7313   68.6490   65.6788 C   0  0  0  0  0  0
    0.6586   68.2360   65.1738 C   0  0  0  0  0  0
    3.3511   68.6131   64.1227 N   0  0  0  0  0  0
    4.1101   67.3645   64.0546 C   0  0  0  0  0  0
    3.4059   66.1690   64.7201 C   0  0  0  0  0  0
    4.1480   64.8241   64.5658 C   0  0  0  0  0  0
    3.5430   63.7286   65.4599 C   0  0  0  0  0  0
    3.6920   63.9732   66.9874 C   0  0  0  0  0  0
    3.1714   62.8605   67.9162 C   0  0  0  0  0  0
    2.7428   63.3654   69.3110 C   0  0  0  0  0  0
    1.6403   62.5117   69.9613 C   0  0  0  0  0  0
    2.0154   61.1128   70.1315 N   0  0  0  0  0  0
    2.6276   60.6257   71.2930 C   0  0  0  0  0  0
    2.9408   61.4342   72.3945 C   0  0  0  0  0  0
    3.5430   60.8470   73.5056 C   0  0  0  0  0  0
    3.8496   59.5277   73.5680 N   0  0  0  0  0  0
    3.5430   58.7570   72.4951 C   0  0  0  0  0  0
    2.9403   59.2649   71.3438 C   0  0  0  0  0  0
    7.3949   70.6450   66.2708 H   0  0  0  0  0  0
    6.7752   71.3593   68.5492 H   0  0  0  0  0  0
    4.4611   71.0264   69.3705 H   0  0  0  0  0  0
    5.7389   69.6527   64.7726 H   0  0  0  0  0  0
   -0.1893   70.1759   68.1468 H   0  0  0  0  0  0
    0.3430   68.7130   68.9452 H   0  0  0  0  0  0
   -1.8323   68.5680   67.5427 H   0  0  0  0  0  0
   -0.6637   67.2878   67.3475 H   0  0  0  0  0  0
   -0.9103   69.7080   65.4948 H   0  0  0  0  0  0
   -1.5055   68.1068   65.1345 H   0  0  0  0  0  0
    0.7353   68.4594   64.1091 H   0  0  0  0  0  0
    0.7353   67.1541   65.2718 H   0  0  0  0  0  0
    3.8480   69.3225   63.6021 H   0  0  0  0  0  0
    5.0858   67.4786   64.5282 H   0  0  0  0  0  0
    4.3133   67.1335   63.0083 H   0  0  0  0  0  0
    2.3866   66.0564   64.3680 H   0  0  0  0  0  0
    3.2540   66.4228   65.7652 H   0  0  0  0  0  0
    5.2147   64.9242   64.7680 H   0  0  0  0  0  0
    4.0828   64.5075   63.5241 H   0  0  0  0  0  0
    3.9647   62.7611   65.1911 H   0  0  0  0  0  0
    2.4958   63.7080   65.1680 H   0  0  0  0  0  0
    3.1940   64.9075   67.2489 H   0  0  0  0  0  0
    4.7430   64.1080   67.2346 H   0  0  0  0  0  0
    3.9477   62.1080   68.0462 H   0  0  0  0  0  0
    2.3430   62.3269   67.4568 H   0  0  0  0  0  0
    2.3634   64.3865   69.2517 H   0  0  0  0  0  0
    3.6149   63.4135   69.9650 H   0  0  0  0  0  0
    0.7577   62.5079   69.3194 H   0  0  0  0  0  0
    1.3047   62.9595   70.8970 H   0  0  0  0  0  0
    1.9532   60.5002   69.3330 H   0  0  0  0  0  0
    2.7328   62.4921   72.4071 H   0  0  0  0  0  0
    3.7967   61.4435   74.3681 H   0  0  0  0  0  0
    3.7880   57.7080   72.5739 H   0  0  0  0  0  0
    2.7097   58.6073   70.5185 H   0  0  0  0  0  0
  1  6  1  0  0  0
  1  2  2  0  0  0
  1 31  1  0  0  0
  2  3  1  0  0  0
  2 32  1  0  0  0
  3  4  2  0  0  0
  3 33  1  0  0  0
  4 10  1  0  0  0
  4  5  1  0  0  0
  5  6  2  0  0  0
  5  7  1  0  0  0
  6 34  1  0  0  0
  7  8  2  0  0  0
  7 15  1  0  0  0
  8 14  1  0  0  0
  8  9  1  0  0  0
  9 10  2  0  0  0
  9 11  1  0  0  0
 11 12  1  0  0  0
 11 35  1  0  0  0
 11 36  1  0  0  0
 12 13  1  0  0  0
 12 37  1  0  0  0
 12 38  1  0  0  0
 13 14  1  0  0  0
 13 39  1  0  0  0
 13 40  1  0  0  0
 14 41  1  0  0  0
 14 42  1  0  0  0
 15 16  1  0  0  0
 15 43  1  0  0  0
 16 17  1  0  0  0
 16 44  1  0  0  0
 16 45  1  0  0  0
 17 18  1  0  0  0
 17 46  1  0  0  0
 17 47  1  0  0  0
 18 19  1  0  0  0
 18 48  1  0  0  0
 18 49  1  0  0  0
 19 20  1  0  0  0
 19 50  1  0  0  0
 19 51  1  0  0  0
 20 21  1  0  0  0
 20 52  1  0  0  0
 20 53  1  0  0  0
 21 22  1  0  0  0
 21 54  1  0  0  0
 21 55  1  0  0  0
 22 23  1  0  0  0
 22 56  1  0  0  0
 22 57  1  0  0  0
 23 24  1  0  0  0
 23 58  1  0  0  0
 23 59  1  0  0  0
 24 25  1  0  0  0
 24 60  1  0  0  0
 25 30  1  0  0  0
 25 26  2  0  0  0
 26 27  1  0  0  0
 26 61  1  0  0  0
 27 28  2  0  0  0
 27 62  1  0  0  0
 28 29  1  0  0  0
 29 30  2  0  0  0
 29 63  1  0  0  0
 30 64  1  0  0  0
M  END
> <s_m_entry_id>
9908

> <s_m_entry_name>
ligand_docking-pose.350

> <s_m_Source_Path>
/home/csk/Desktop/cluster/DUD-E-result/aces

> <s_m_Source_File>
ligand_docking-pose.sdf

> <i_m_Source_File_Index>
350

> <i_lp_mmshare_version>
53161

> <r_lp_tautomer_probability>
0.999999106000799

> <s_lp_Force_Field>
OPLS_2005

> <r_lp_Energy>
25.204768

> <b_lp_Chiralities_Consistent>
1

> <s_lp_Variant>
631158-1

> <s_i_glide_gridfile>
glide-grid_1e66

> <i_i_glide_lignum>
158

> <i_i_glide_rotatable_bonds>
11

> <r_i_docking_score>
-6.98549804918604

> <r_i_glide_ligand_efficiency>
-0.232849934972868

> <r_i_glide_ligand_efficiency_sa>
-0.72351888613666

> <r_i_glide_ligand_efficiency_ln>
-1.58718126987249

> <r_i_glide_gscore>
-6.98549804918604

> <r_i_glide_lipo>
-4.16200402268095

> <r_i_glide_hbond>
0

> <r_i_glide_metal>
0

> <r_i_glide_rewards>
-1.56426163636363

> <r_i_glide_evdw>
-41.0983505249023

> <r_i_glide_ecoul>
-1.96100306510925

> <r_i_glide_erotb>
1.08983559587004

> <r_i_glide_esite>
0

> <r_i_glide_emodel>
-54.8308994337083

> <r_i_glide_energy>
-43.0593535900116

> <r_i_glide_einternal>
8.69847583770752

> <i_i_glide_confnum>
15

> <i_i_glide_posenum>
139

> <r_i_glide_eff_state_penalty>
0

> <i_f3d_flags>
0

> <s_user_duplicate_titles>
631158

> <s_m_subgroup_title>
dock_pv

> <s_m_subgroupid>
dock_pv1

> <b_m_subgroup_collapsed>
1

$$$$
461421
                    3D
 Schrodinger Suite 2021-1.
 51 54  0  0  1  0            999 V2000
    0.9388   65.0023   70.0915 C   0  0  0  0  0  0
   -0.4150   65.5051   69.5773 C   0  0  0  0  0  0
   -0.2171   66.2770   68.4321 O   0  0  0  0  0  0
   -1.2091   66.9264   67.8008 C   0  0  0  0  0  0
   -2.3876   66.9076   68.1620 O   0  0  0  0  0  0
   -0.7010   67.6954   66.6457 C   0  0  0  0  0  0
   -1.5098   68.4109   65.8157 C   0  0  0  0  0  0
   -0.9866   68.9087   64.6436 N   0  0  0  0  0  0
    0.2399   68.4963   64.1156 C   0  0  0  0  0  0
    1.0947   67.7321   64.9127 C   0  0  0  0  0  0
    2.3037   67.3053   64.3638 C   0  0  0  0  0  0
    2.7516   67.8770   63.1758 C   0  0  0  0  0  0
    1.8150   68.6376   62.4418 C   0  0  0  0  0  0
    0.5676   68.9116   62.8841 N   0  0  0  0  0  0
    2.1884   69.3086   61.1529 C   0  0  0  0  0  0
    3.6747   69.1899   60.7978 C   0  0  0  0  0  0
    4.5984   69.0801   62.0110 C   0  0  0  0  0  0
    4.2155   67.7910   62.7412 C   0  0  0  0  0  0
    3.1375   66.4314   65.0673 N   0  0  0  0  0  0
    0.8352   67.6402   66.4012 C   0  0  1  0  0  0
    1.7206   68.6927   67.1222 C   0  0  0  0  0  0
    1.4935   69.0127   68.4569 C   0  0  0  0  0  0
    2.3472   69.9097   69.1054 C   0  0  0  0  0  0
    3.4462   70.4482   68.5360 N   0  0  0  0  0  0
    3.6896   70.1086   67.2563 C   0  0  0  0  0  0
    2.8433   69.3028   66.5172 C   0  0  0  0  0  0
   -3.0174   68.6221   65.9211 C   0  0  0  0  0  0
    0.8083   64.3744   70.9770 H   0  0  0  0  0  0
    1.4484   64.3962   69.3372 H   0  0  0  0  0  0
    1.5907   65.8356   70.3586 H   0  0  0  0  0  0
   -0.8578   66.1384   70.3455 H   0  0  0  0  0  0
   -1.0800   64.6712   69.3495 H   0  0  0  0  0  0
   -1.5481   69.5434   64.0901 H   0  0  0  0  0  0
    1.5964   68.8813   60.3391 H   0  0  0  0  0  0
    1.9086   70.3620   61.1813 H   0  0  0  0  0  0
    3.8079   68.2589   60.2492 H   0  0  0  0  0  0
    3.9910   70.0022   60.1358 H   0  0  0  0  0  0
    5.6459   69.0509   61.7079 H   0  0  0  0  0  0
    4.4917   69.9542   62.6559 H   0  0  0  0  0  0
    4.8793   67.6801   63.5984 H   0  0  0  0  0  0
    4.3727   66.9184   62.1035 H   0  0  0  0  0  0
    4.0943   66.3638   64.7556 H   0  0  0  0  0  0
    2.9035   66.2732   66.0349 H   0  0  0  0  0  0
    1.2413   66.6799   66.7139 H   0  0  0  0  0  0
    0.6908   68.5665   69.0229 H   0  0  0  0  0  0
    2.3431   70.1218   70.1560 H   0  0  0  0  0  0
    4.5470   70.5673   66.7885 H   0  0  0  0  0  0
    3.1256   69.2027   65.4884 H   0  0  0  0  0  0
   -3.5287   67.6770   66.0968 H   0  0  0  0  0  0
   -3.2410   69.2989   66.7502 H   0  0  0  0  0  0
   -3.4577   69.0293   65.0074 H   0  0  0  0  0  0
  1  2  1  0  0  0
  1 28  1  0  0  0
  1 29  1  0  0  0
  1 30  1  0  0  0
  2  3  1  0  0  0
  2 31  1  0  0  0
  2 32  1  0  0  0
  3  4  1  0  0  0
  4  5  2  0  0  0
  4  6  1  0  0  0
  6 20  1  0  0  0
  6  7  2  0  0  0
  7  8  1  0  0  0
  7 27  1  0  0  0
  8  9  1  0  0  0
  8 33  1  0  0  0
  9 14  2  0  0  0
  9 10  1  0  0  0
 10 11  2  0  0  0
 10 20  1  0  0  0
 11 12  1  0  0  0
 11 19  1  0  0  0
 12 18  1  0  0  0
 12 13  2  0  0  0
 13 14  1  0  0  0
 13 15  1  0  0  0
 15 16  1  0  0  0
 15 34  1  0  0  0
 15 35  1  0  0  0
 16 17  1  0  0  0
 16 36  1  0  0  0
 16 37  1  0  0  0
 17 18  1  0  0  0
 17 38  1  0  0  0
 17 39  1  0  0  0
 18 40  1  0  0  0
 18 41  1  0  0  0
 19 42  1  0  0  0
 19 43  1  0  0  0
 20 21  1  0  0  0
 20 44  1  0  0  0
 21 26  1  0  0  0
 21 22  2  0  0  0
 22 23  1  0  0  0
 22 45  1  0  0  0
 23 24  2  0  0  0
 23 46  1  0  0  0
 24 25  1  0  0  0
 25 26  2  0  0  0
 25 47  1  0  0  0
 26 48  1  0  0  0
 27 49  1  0  0  0
 27 50  1  0  0  0
 27 51  1  0  0  0
M  END
> <s_m_entry_id>
9909

> <s_m_entry_name>
ligand_docking-pose.351

> <s_m_Source_Path>
/home/csk/Desktop/cluster/DUD-E-result/aces

> <s_m_Source_File>
ligand_docking-pose.sdf

> <i_m_Source_File_Index>
351

> <i_lp_mmshare_version>
53161

> <r_lp_tautomer_probability>
0.999999999997873

> <s_lp_Force_Field>
OPLS_2005

> <r_lp_Energy>
24.271166

> <b_lp_Chiralities_Consistent>
1

> <s_lp_Variant>
461421-1

> <s_i_glide_gridfile>
glide-grid_1e66

> <i_i_glide_lignum>
1437

> <i_i_glide_rotatable_bonds>
4

> <r_i_docking_score>
-6.98477028169134

> <r_i_glide_ligand_efficiency>
-0.258695195618198

> <r_i_glide_ligand_efficiency_sa>
-0.776085586001976

> <r_i_glide_ligand_efficiency_ln>
-1.62593936863996

> <r_i_glide_gscore>
-6.98477028169134

> <r_i_glide_lipo>
-3.16271246591383

> <r_i_glide_hbond>
-0.252423801682737

> <r_i_glide_metal>
0

> <r_i_glide_rewards>
-2.21537710600193

> <r_i_glide_evdw>
-31.3013000488281

> <r_i_glide_ecoul>
-1.34986305236816

> <r_i_glide_erotb>
0.434240029727793

> <r_i_glide_esite>
-0.020952477524006

> <r_i_glide_emodel>
-56.7083563692972

> <r_i_glide_energy>
-32.6511631011963

> <r_i_glide_einternal>
6.18103504180908

> <i_i_glide_confnum>
10

> <i_i_glide_posenum>
62

> <r_i_glide_eff_state_penalty>
0

> <i_f3d_flags>
0

> <s_user_duplicate_titles>
461421

> <s_m_subgroup_title>
dock_pv

> <s_m_subgroupid>
dock_pv1

> <b_m_subgroup_collapsed>
1

$$$$
188738
                    3D
 Schrodinger Suite 2021-1.
 38 40  0  0  1  0            999 V2000
    4.5314   64.5794   63.6581 C   0  0  0  0  0  0
    3.5423   65.4861   64.3685 C   0  0  0  0  0  0
    3.4270   66.8356   64.2871 C   0  0  0  0  0  0
    4.2930   67.7313   63.3880 C   0  0  2  0  0  0
    5.1501   68.6732   64.2754 C   0  0  0  0  0  0
    4.4404   69.1712   65.5364 C   0  0  0  0  0  0
    3.1888   68.7517   65.8938 C   0  0  0  0  0  0
    2.6942   69.3102   67.1597 C   0  0  0  0  0  0
    3.4689   70.1169   67.9209 C   0  0  0  0  0  0
    4.8140   70.5080   67.5298 C   0  0  0  0  0  0
    5.1926   70.0233   66.3181 N   0  0  0  0  0  0
    5.5565   71.2148   68.2052 O   0  0  0  0  0  0
    2.4024   67.6930   65.0760 C   0  0  1  0  0  0
    1.4616   68.3529   64.0387 C   0  0  0  0  0  0
    2.1667   69.2112   62.9682 C   0  0  1  0  0  0
    3.3871   68.4743   62.3681 C   0  0  0  0  0  0
    1.1890   69.7062   61.8873 C   0  0  0  0  0  0
    1.5657   66.9085   65.9679 N   0  0  0  0  0  0
    4.9853   63.8997   64.3801 H   0  0  0  0  0  0
    4.0096   63.9778   62.9145 H   0  0  0  0  0  0
    5.3403   65.1140   63.1675 H   0  0  0  0  0  0
    2.8708   64.9468   65.0189 H   0  0  0  0  0  0
    4.9899   67.1507   62.7873 H   0  0  0  0  0  0
    6.0664   68.1712   64.5887 H   0  0  0  0  0  0
    5.5093   69.5249   63.6946 H   0  0  0  0  0  0
    1.6945   69.0719   67.4967 H   0  0  0  0  0  0
    3.0843   70.5086   68.8506 H   0  0  0  0  0  0
    6.1167   70.3069   66.0341 H   0  0  0  0  0  0
    0.9303   67.5544   63.5168 H   0  0  0  0  0  0
    0.6633   68.9111   64.5264 H   0  0  0  0  0  0
    2.5719   70.0739   63.5000 H   0  0  0  0  0  0
    3.9642   69.1424   61.7263 H   0  0  0  0  0  0
    3.0137   67.7100   61.6837 H   0  0  0  0  0  0
    0.7570   68.8726   61.3316 H   0  0  0  0  0  0
    0.3642   70.2706   62.3257 H   0  0  0  0  0  0
    1.6888   70.3551   61.1685 H   0  0  0  0  0  0
    0.9424   66.3108   65.4435 H   0  0  0  0  0  0
    2.1268   66.3212   66.5639 H   0  0  0  0  0  0
  1  2  1  0  0  0
  1 19  1  0  0  0
  1 20  1  0  0  0
  1 21  1  0  0  0
  2  3  2  0  0  0
  2 22  1  0  0  0
  3 13  1  0  0  0
  3  4  1  0  0  0
  4 16  1  0  0  0
  4  5  1  0  0  0
  4 23  1  0  0  0
  5 24  1  0  0  0
  5 25  1  0  0  0
  5  6  1  0  0  0
  6 11  1  0  0  0
  6  7  2  0  0  0
  7 13  1  0  0  0
  7  8  1  0  0  0
  8 26  1  0  0  0
  8  9  2  0  0  0
  9 10  1  0  0  0
  9 27  1  0  0  0
 10 12  2  0  0  0
 10 11  1  0  0  0
 11 28  1  0  0  0
 13 14  1  0  0  0
 13 18  1  0  0  0
 14 15  1  0  0  0
 14 29  1  0  0  0
 14 30  1  0  0  0
 15 16  1  0  0  0
 15 17  1  0  0  0
 15 31  1  0  0  0
 16 32  1  0  0  0
 16 33  1  0  0  0
 17 34  1  0  0  0
 17 35  1  0  0  0
 17 36  1  0  0  0
 18 37  1  0  0  0
 18 38  1  0  0  0
M  END
> <s_m_entry_id>
9910

> <s_m_entry_name>
ligand_docking-pose.352

> <s_m_Source_Path>
/home/csk/Desktop/cluster/DUD-E-result/aces

> <s_m_Source_File>
ligand_docking-pose.sdf

> <i_m_Source_File_Index>
352

> <i_lp_mmshare_version>
53161

> <r_lp_tautomer_probability>
0.999

> <s_lp_Force_Field>
OPLS_2005

> <r_lp_Energy>
27.931094

> <b_lp_Chiralities_Consistent>
1

> <s_lp_Variant>
188738-1

> <s_i_glide_gridfile>
glide-grid_1e66

> <i_i_glide_lignum>
846

> <i_i_glide_rotatable_bonds>
0

> <r_i_docking_score>
-6.98304628633127

> <r_i_glide_ligand_efficiency>
-0.387947015907293

> <r_i_glide_ligand_efficiency_sa>
-1.0167088023685

> <r_i_glide_ligand_efficiency_ln>
-1.79495604042416

> <r_i_glide_gscore>
-6.98304628633127

> <r_i_glide_lipo>
-3.35201539293332

> <r_i_glide_hbond>
0

> <r_i_glide_metal>
0

> <r_i_glide_rewards>
-2.08485689393939

> <r_i_glide_evdw>
-30.3268451690674

> <r_i_glide_ecoul>
-0.198878273367882

> <r_i_glide_erotb>
0

> <r_i_glide_esite>
0

> <r_i_glide_emodel>
-42.3677623275509

> <r_i_glide_energy>
-30.5257234424353

> <r_i_glide_einternal>
0

> <i_i_glide_confnum>
1

> <i_i_glide_posenum>
254

> <r_i_glide_eff_state_penalty>
0

> <i_f3d_flags>
0

> <s_user_duplicate_titles>
188738

> <s_m_subgroup_title>
dock_pv

> <s_m_subgroupid>
dock_pv1

> <b_m_subgroup_collapsed>
1

$$$$
226847
                    3D
 Schrodinger Suite 2021-1.
 31 31  0  0  1  0            999 V2000
    2.4439   69.7346   68.1756 C   0  0  0  0  0  0
    2.2936   69.1361   66.7694 C   0  0  0  0  0  0
    1.1327   68.4274   66.3325 C   0  0  0  0  0  0
    1.1062   67.9328   65.0135 C   0  0  0  0  0  0
    2.1678   68.1331   64.1465 C   0  0  0  0  0  0
    3.2943   68.8103   64.5717 C   0  0  0  0  0  0
    3.3833   69.3062   65.8794 C   0  0  0  0  0  0
    4.5157   69.9646   66.3341 O   0  0  0  0  0  0
    5.6272   70.1924   65.4697 C   0  0  0  0  0  0
   -0.1076   68.1714   67.2232 N   0  3  0  0  0  0
   -1.2058   67.2775   66.5671 C   0  0  0  0  0  0
    0.2369   67.3994   68.5283 C   0  0  0  0  0  0
   -0.8723   69.4790   67.5678 C   0  0  0  0  0  0
    3.3606   70.3075   68.3090 H   0  0  0  0  0  0
    2.4754   68.9637   68.9394 H   0  0  0  0  0  0
    1.6560   70.4405   68.4074 H   0  0  0  0  0  0
    0.2763   67.3841   64.6036 H   0  0  0  0  0  0
    2.1178   67.7602   63.1341 H   0  0  0  0  0  0
    4.0998   68.9428   63.8674 H   0  0  0  0  0  0
    6.3937   70.7546   66.0060 H   0  0  0  0  0  0
    6.0783   69.2540   65.1423 H   0  0  0  0  0  0
    5.3454   70.7817   64.5952 H   0  0  0  0  0  0
   -2.0502   67.1521   67.2505 H   0  0  0  0  0  0
   -1.5563   67.7686   65.6556 H   0  0  0  0  0  0
   -0.7546   66.3038   66.3597 H   0  0  0  0  0  0
   -0.6518   66.9139   68.9440 H   0  0  0  0  0  0
    0.9816   66.6406   68.2726 H   0  0  0  0  0  0
    0.6147   68.1005   69.2695 H   0  0  0  0  0  0
   -1.8600   69.2391   67.9676 H   0  0  0  0  0  0
   -0.3367   70.0483   68.3242 H   0  0  0  0  0  0
   -0.9787   70.0505   66.6439 H   0  0  0  0  0  0
  1  2  1  0  0  0
  1 14  1  0  0  0
  1 15  1  0  0  0
  1 16  1  0  0  0
  2  7  1  0  0  0
  2  3  2  0  0  0
  3  4  1  0  0  0
  3 10  1  0  0  0
  4  5  2  0  0  0
  4 17  1  0  0  0
  5  6  1  0  0  0
  5 18  1  0  0  0
  6  7  2  0  0  0
  6 19  1  0  0  0
  7  8  1  0  0  0
  8  9  1  0  0  0
  9 20  1  0  0  0
  9 21  1  0  0  0
  9 22  1  0  0  0
 10 11  1  0  0  0
 10 12  1  0  0  0
 10 13  1  0  0  0
 11 23  1  0  0  0
 11 24  1  0  0  0
 11 25  1  0  0  0
 12 26  1  0  0  0
 12 27  1  0  0  0
 12 28  1  0  0  0
 13 29  1  0  0  0
 13 30  1  0  0  0
 13 31  1  0  0  0
M  CHG  1  10   1
M  END
> <s_m_entry_id>
9911

> <s_m_entry_name>
ligand_docking-pose.353

> <s_m_Source_Path>
/home/csk/Desktop/cluster/DUD-E-result/aces

> <s_m_Source_File>
ligand_docking-pose.sdf

> <i_m_Source_File_Index>
353

> <i_lp_mmshare_version>
53161

> <r_lp_tautomer_probability>
1

> <s_lp_Force_Field>
OPLS_2005

> <r_lp_Energy>
29.313174

> <b_lp_Chiralities_Consistent>
1

> <s_lp_Variant>
226847-1

> <s_i_glide_gridfile>
glide-grid_1e66

> <i_i_glide_lignum>
797

> <i_i_glide_rotatable_bonds>
2

> <r_i_docking_score>
-6.98210367886908

> <r_i_glide_ligand_efficiency>
-0.537084898374545

> <r_i_glide_ligand_efficiency_sa>
-1.26286635071932

> <r_i_glide_ligand_efficiency_ln>
-1.95854217795699

> <r_i_glide_gscore>
-6.98210367886908

> <r_i_glide_lipo>
-2.411840731144

> <r_i_glide_hbond>
0

> <r_i_glide_metal>
0

> <r_i_glide_rewards>
-2.66033698623064

> <r_i_glide_evdw>
-24.1630172729492

> <r_i_glide_ecoul>
-4.67850065231323

> <r_i_glide_erotb>
0

> <r_i_glide_esite>
0

> <r_i_glide_emodel>
-46.2807711335569

> <r_i_glide_energy>
-28.8415179252625

> <r_i_glide_einternal>
0.0544788055121899

> <i_i_glide_confnum>
1

> <i_i_glide_posenum>
42

> <r_i_glide_eff_state_penalty>
0

> <i_f3d_flags>
0

> <s_user_duplicate_titles>
226847

> <s_m_subgroup_title>
dock_pv

> <s_m_subgroupid>
dock_pv1

> <b_m_subgroup_collapsed>
1

$$$$
631155
                    3D
 Schrodinger Suite 2021-1.
 67 69  0  0  1  0            999 V2000
    5.3753   60.7579   72.1793 C   0  0  0  0  0  0
    4.7033   61.3954   71.0526 N   0  0  0  0  0  0
    3.4238   60.7245   70.8195 C   0  0  0  0  0  0
    4.5424   62.8242   71.3474 C   0  0  0  0  0  0
    3.8730   63.6507   70.2245 C   0  0  0  0  0  0
    4.5139   63.5259   68.8224 C   0  0  0  0  0  0
    3.5423   63.9107   67.7097 C   0  0  0  0  0  0
    3.9718   63.7373   66.2380 C   0  0  0  0  0  0
    3.2054   64.5080   65.1613 C   0  0  0  0  0  0
    3.8806   64.3916   63.7709 C   0  0  0  0  0  0
    5.0429   65.3514   63.4429 C   0  0  0  0  0  0
    4.8798   66.8522   63.7723 C   0  0  0  0  0  0
    3.5166   67.4994   63.4807 C   0  0  0  0  0  0
    3.4529   68.8773   63.9547 N   0  0  0  0  0  0
    3.1516   69.1210   65.3133 C   0  0  0  0  0  0
    4.1509   69.7080   66.1557 C   0  0  0  0  0  0
    5.4979   69.9401   65.7518 C   0  0  0  0  0  0
    6.4130   70.5080   66.6321 C   0  0  0  0  0  0
    6.0272   70.9080   67.9070 C   0  0  0  0  0  0
    4.7213   70.7037   68.3390 C   0  0  0  0  0  0
    3.7804   70.0813   67.4822 C   0  0  0  0  0  0
    2.5422   69.8345   67.9680 N   0  0  0  0  0  0
    1.6077   69.2554   67.1779 C   0  0  0  0  0  0
    1.8654   68.8663   65.8429 C   0  0  0  0  0  0
    0.7459   68.2029   65.0174 C   0  0  0  0  0  0
   -0.6632   68.5078   65.5498 C   0  0  0  0  0  0
   -0.7281   68.1860   67.0438 C   0  0  0  0  0  0
    0.2293   69.1001   67.8233 C   0  0  0  0  0  0
    6.3430   61.2195   72.3647 H   0  0  0  0  0  0
    5.5564   59.7080   71.9679 H   0  0  0  0  0  0
    4.7865   60.8231   73.0967 H   0  0  0  0  0  0
    2.9257   61.1228   69.9353 H   0  0  0  0  0  0
    3.5716   59.6578   70.6444 H   0  0  0  0  0  0
    2.7474   60.8363   71.6691 H   0  0  0  0  0  0
    3.9459   62.9080   72.2572 H   0  0  0  0  0  0
    5.5198   63.2547   71.5669 H   0  0  0  0  0  0
    2.8081   63.4151   70.2052 H   0  0  0  0  0  0
    3.8981   64.7019   70.5162 H   0  0  0  0  0  0
    5.4365   64.1079   68.7679 H   0  0  0  0  0  0
    4.7430   62.4780   68.6536 H   0  0  0  0  0  0
    2.7430   63.2012   67.8853 H   0  0  0  0  0  0
    3.1430   64.9080   67.8872 H   0  0  0  0  0  0
    4.9929   64.1080   66.1477 H   0  0  0  0  0  0
    3.9430   62.6805   65.9709 H   0  0  0  0  0  0
    2.2018   64.1085   65.0640 H   0  0  0  0  0  0
    3.0881   65.5440   65.4745 H   0  0  0  0  0  0
    4.2238   63.3653   63.6272 H   0  0  0  0  0  0
    3.1430   64.5080   62.9956 H   0  0  0  0  0  0
    5.9364   64.9546   63.9270 H   0  0  0  0  0  0
    5.2357   65.3080   62.3738 H   0  0  0  0  0  0
    5.1265   67.0128   64.8135 H   0  0  0  0  0  0
    5.6363   67.4175   63.2256 H   0  0  0  0  0  0
    3.2941   67.4629   62.4138 H   0  0  0  0  0  0
    2.7266   66.9102   63.9319 H   0  0  0  0  0  0
    4.2132   69.4396   63.5994 H   0  0  0  0  0  0
    5.8264   69.6601   64.7617 H   0  0  0  0  0  0
    7.4347   70.6490   66.3101 H   0  0  0  0  0  0
    6.7491   71.3617   68.5707 H   0  0  0  0  0  0
    4.4228   70.9839   69.3388 H   0  0  0  0  0  0
    0.8034   68.4940   63.9680 H   0  0  0  0  0  0
    0.8854   67.1218   65.0515 H   0  0  0  0  0  0
   -0.9168   69.5548   65.3812 H   0  0  0  0  0  0
   -1.4056   67.9236   65.0064 H   0  0  0  0  0  0
   -1.7465   68.3093   67.4162 H   0  0  0  0  0  0
   -0.4659   67.1391   67.2096 H   0  0  0  0  0  0
   -0.2178   70.0916   67.9150 H   0  0  0  0  0  0
    0.3430   68.7203   68.8368 H   0  0  0  0  0  0
  1  2  1  0  0  0
  1 29  1  0  0  0
  1 30  1  0  0  0
  1 31  1  0  0  0
  2  3  1  0  0  0
  2  4  1  0  0  0
  3 32  1  0  0  0
  3 33  1  0  0  0
  3 34  1  0  0  0
  4  5  1  0  0  0
  4 35  1  0  0  0
  4 36  1  0  0  0
  5  6  1  0  0  0
  5 37  1  0  0  0
  5 38  1  0  0  0
  6  7  1  0  0  0
  6 39  1  0  0  0
  6 40  1  0  0  0
  7  8  1  0  0  0
  7 41  1  0  0  0
  7 42  1  0  0  0
  8  9  1  0  0  0
  8 43  1  0  0  0
  8 44  1  0  0  0
  9 10  1  0  0  0
  9 45  1  0  0  0
  9 46  1  0  0  0
 10 11  1  0  0  0
 10 47  1  0  0  0
 10 48  1  0  0  0
 11 12  1  0  0  0
 11 49  1  0  0  0
 11 50  1  0  0  0
 12 13  1  0  0  0
 12 51  1  0  0  0
 12 52  1  0  0  0
 13 14  1  0  0  0
 13 53  1  0  0  0
 13 54  1  0  0  0
 14 15  1  0  0  0
 14 55  1  0  0  0
 15 24  1  0  0  0
 15 16  2  0  0  0
 16 21  1  0  0  0
 16 17  1  0  0  0
 17 18  2  0  0  0
 17 56  1  0  0  0
 18 19  1  0  0  0
 18 57  1  0  0  0
 19 20  2  0  0  0
 19 58  1  0  0  0
 20 21  1  0  0  0
 20 59  1  0  0  0
 21 22  2  0  0  0
 22 23  1  0  0  0
 23 28  1  0  0  0
 23 24  2  0  0  0
 24 25  1  0  0  0
 25 26  1  0  0  0
 25 60  1  0  0  0
 25 61  1  0  0  0
 26 27  1  0  0  0
 26 62  1  0  0  0
 26 63  1  0  0  0
 27 28  1  0  0  0
 27 64  1  0  0  0
 27 65  1  0  0  0
 28 66  1  0  0  0
 28 67  1  0  0  0
M  END
> <s_m_entry_id>
9912

> <s_m_entry_name>
ligand_docking-pose.354

> <s_m_Source_Path>
/home/csk/Desktop/cluster/DUD-E-result/aces

> <s_m_Source_File>
ligand_docking-pose.sdf

> <i_m_Source_File_Index>
354

> <i_lp_mmshare_version>
53161

> <r_lp_tautomer_probability>
1

> <s_lp_Force_Field>
OPLS_2005

> <r_lp_Energy>
28.031575

> <b_lp_Chiralities_Consistent>
1

> <s_lp_Variant>
631155-1

> <s_i_glide_gridfile>
glide-grid_1e66

> <i_i_glide_lignum>
1779

> <i_i_glide_rotatable_bonds>
12

> <r_i_docking_score>
-6.97765519304046

> <r_i_glide_ligand_efficiency>
-0.249201971180016

> <r_i_glide_ligand_efficiency_sa>
-0.756723956614395

> <r_i_glide_ligand_efficiency_ln>
-1.61064769141249

> <r_i_glide_gscore>
-6.97765519304046

> <r_i_glide_lipo>
-4.60628402500096

> <r_i_glide_hbond>
0

> <r_i_glide_metal>
0

> <r_i_glide_rewards>
-1.70729140909091

> <r_i_glide_evdw>
-36.6943817138672

> <r_i_glide_ecoul>
-1.08335971832275

> <r_i_glide_erotb>
1.33314328449318

> <r_i_glide_esite>
0

> <r_i_glide_emodel>
-41.8939457352432

> <r_i_glide_energy>
-37.7777414321899

> <r_i_glide_einternal>
7.75920677185059

> <i_i_glide_confnum>
20

> <i_i_glide_posenum>
213

> <r_i_glide_eff_state_penalty>
0

> <i_f3d_flags>
0

> <s_user_duplicate_titles>
631155

> <s_m_subgroup_title>
dock_pv

> <s_m_subgroupid>
dock_pv1

> <b_m_subgroup_collapsed>
1

$$$$
118984
                    3D
 Schrodinger Suite 2021-1.
 66 69  0  0  1  0            999 V2000
    6.4163   69.5365   66.2381 C   0  0  0  0  0  0
    5.6374   70.2486   65.1033 C   0  0  0  0  0  0
    4.8278   69.3765   64.2315 N   0  0  0  0  0  0
    5.6479   68.3119   63.6407 C   0  0  0  0  0  0
    5.3987   68.0276   62.1609 C   0  0  0  0  0  0
    4.0056   67.4880   61.8326 C   0  0  0  0  0  0
    2.8649   68.4382   62.2076 C   0  0  0  0  0  0
    2.5588   68.5334   63.6993 C   0  0  0  0  0  0
    3.5125   69.0327   64.6261 C   0  0  0  0  0  0
    3.1061   69.1519   65.9645 C   0  0  0  0  0  0
    1.8685   68.6967   66.4135 C   0  0  0  0  0  0
    0.9613   68.1672   65.4982 C   0  0  0  0  0  0
    1.3025   68.1074   64.1541 C   0  0  0  0  0  0
    1.5416   68.8151   67.8553 C   0  0  0  0  0  0
    1.9428   69.7548   68.5410 O   0  0  0  0  0  0
    1.0270   67.5083   68.4888 C   0  0  0  0  0  0
    1.4269   67.2564   69.9667 C   0  0  0  0  0  0
    1.5821   65.7646   70.3668 C   0  0  0  0  0  0
    0.4570   64.8603   69.8511 C   0  0  0  0  0  0
    0.6060   63.3983   70.3196 C   0  0  0  0  0  0
    1.9308   62.8601   69.9692 N   0  0  1  0  0  0
    3.0918   63.6809   70.3437 C   0  0  0  0  0  0
    2.9206   65.1558   69.9301 C   0  0  0  0  0  0
    2.0933   61.4100   70.1462 C   0  0  0  0  0  0
    2.5703   60.8894   71.5090 C   0  0  0  0  0  0
    3.1845   59.6325   71.5403 C   0  0  0  0  0  0
    3.5860   59.0723   72.7499 C   0  0  0  0  0  0
    3.3534   59.7575   73.9382 C   0  0  0  0  0  0
    2.7078   60.9905   73.9282 C   0  0  0  0  0  0
    2.3015   61.5472   72.7179 C   0  0  0  0  0  0
    6.8939   70.2684   66.8901 H   0  0  0  0  0  0
    5.7837   68.9087   66.8612 H   0  0  0  0  0  0
    7.2070   68.8926   65.8588 H   0  0  0  0  0  0
    6.3468   70.7817   64.4706 H   0  0  0  0  0  0
    5.0031   71.0203   65.5332 H   0  0  0  0  0  0
    5.4546   67.4009   64.2108 H   0  0  0  0  0  0
    6.7148   68.5088   63.7564 H   0  0  0  0  0  0
    6.1432   67.3094   61.8160 H   0  0  0  0  0  0
    5.5892   68.9384   61.5891 H   0  0  0  0  0  0
    3.8596   66.5194   62.3125 H   0  0  0  0  0  0
    3.9528   67.3070   60.7621 H   0  0  0  0  0  0
    3.0523   69.4429   61.8244 H   0  0  0  0  0  0
    1.9665   68.1083   61.6816 H   0  0  0  0  0  0
    3.7733   69.5744   66.6995 H   0  0  0  0  0  0
   -0.0144   67.8192   65.8108 H   0  0  0  0  0  0
    0.5761   67.7101   63.4597 H   0  0  0  0  0  0
   -0.0554   67.4567   68.3707 H   0  0  0  0  0  0
    1.4407   66.6997   67.8865 H   0  0  0  0  0  0
    2.3429   67.7859   70.2290 H   0  0  0  0  0  0
    0.6616   67.6983   70.5978 H   0  0  0  0  0  0
    1.5421   65.6887   71.4523 H   0  0  0  0  0  0
   -0.4571   65.2752   70.2421 H   0  0  0  0  0  0
    0.3193   64.9082   68.7684 H   0  0  0  0  0  0
    0.3971   63.2952   71.3834 H   0  0  0  0  0  0
   -0.1450   62.7955   69.8067 H   0  0  0  0  0  0
    3.2933   63.6094   71.4121 H   0  0  0  0  0  0
    3.9719   63.2737   69.8442 H   0  0  0  0  0  0
    3.0460   65.2831   68.8575 H   0  0  0  0  0  0
    3.7427   65.7192   70.3671 H   0  0  0  0  0  0
    1.1435   60.9193   69.9327 H   0  0  0  0  0  0
    2.7813   61.0522   69.3788 H   0  0  0  0  0  0
    3.3530   59.0838   70.6244 H   0  0  0  0  0  0
    4.0730   58.1080   72.7711 H   0  0  0  0  0  0
    3.6661   59.3220   74.8762 H   0  0  0  0  0  0
    2.5201   61.5115   74.8562 H   0  0  0  0  0  0
    1.7939   62.4967   72.7378 H   0  0  0  0  0  0
  1  2  1  0  0  0
  1 31  1  0  0  0
  1 32  1  0  0  0
  1 33  1  0  0  0
  2  3  1  0  0  0
  2 34  1  0  0  0
  2 35  1  0  0  0
  3  9  1  0  0  0
  3  4  1  0  0  0
  4  5  1  0  0  0
  4 36  1  0  0  0
  4 37  1  0  0  0
  5  6  1  0  0  0
  5 38  1  0  0  0
  5 39  1  0  0  0
  6  7  1  0  0  0
  6 40  1  0  0  0
  6 41  1  0  0  0
  7  8  1  0  0  0
  7 42  1  0  0  0
  7 43  1  0  0  0
  8 13  2  0  0  0
  8  9  1  0  0  0
  9 10  2  0  0  0
 10 11  1  0  0  0
 10 44  1  0  0  0
 11 12  2  0  0  0
 11 14  1  0  0  0
 12 13  1  0  0  0
 12 45  1  0  0  0
 13 46  1  0  0  0
 14 15  2  0  0  0
 14 16  1  0  0  0
 16 17  1  0  0  0
 16 47  1  0  0  0
 16 48  1  0  0  0
 17 18  1  0  0  0
 17 49  1  0  0  0
 17 50  1  0  0  0
 18 23  1  0  0  0
 18 19  1  0  0  0
 18 51  1  0  0  0
 19 20  1  0  0  0
 19 52  1  0  0  0
 19 53  1  0  0  0
 20 21  1  0  0  0
 20 54  1  0  0  0
 20 55  1  0  0  0
 21 22  1  0  0  0
 21 24  1  0  0  0
 22 23  1  0  0  0
 22 56  1  0  0  0
 22 57  1  0  0  0
 23 58  1  0  0  0
 23 59  1  0  0  0
 24 25  1  0  0  0
 24 60  1  0  0  0
 24 61  1  0  0  0
 25 30  1  0  0  0
 25 26  2  0  0  0
 26 27  1  0  0  0
 26 62  1  0  0  0
 27 28  2  0  0  0
 27 63  1  0  0  0
 28 29  1  0  0  0
 28 64  1  0  0  0
 29 30  2  0  0  0
 29 65  1  0  0  0
 30 66  1  0  0  0
M  END
> <s_m_entry_id>
9913

> <s_m_entry_name>
ligand_docking-pose.355

> <s_m_Source_Path>
/home/csk/Desktop/cluster/DUD-E-result/aces

> <s_m_Source_File>
ligand_docking-pose.sdf

> <i_m_Source_File_Index>
355

> <i_lp_mmshare_version>
53161

> <r_lp_tautomer_probability>
0.99990000499975

> <s_lp_Force_Field>
OPLS_2005

> <r_lp_Energy>
45.12284

> <b_lp_Chiralities_Consistent>
1

> <s_lp_Variant>
118984-1

> <s_i_glide_gridfile>
glide-grid_1e66

> <i_i_glide_lignum>
1230

> <i_i_glide_rotatable_bonds>
7

> <r_i_docking_score>
-6.97669741280075

> <r_i_glide_ligand_efficiency>
-0.232556580426692

> <r_i_glide_ligand_efficiency_sa>
-0.722607365356046

> <r_i_glide_ligand_efficiency_ln>
-1.58518166939514

> <r_i_glide_gscore>
-6.97669741280075

> <r_i_glide_lipo>
-3.75315684930642

> <r_i_glide_hbond>
0

> <r_i_glide_metal>
0

> <r_i_glide_rewards>
-1.71071479785825

> <r_i_glide_evdw>
-44.3621788024902

> <r_i_glide_ecoul>
-0.0985080003738403

> <r_i_glide_erotb>
0.720059374544511

> <r_i_glide_esite>
0

> <r_i_glide_emodel>
-51.85701538188

> <r_i_glide_energy>
-44.4606868028641

> <r_i_glide_einternal>
16.374324798584

> <i_i_glide_confnum>
93

> <i_i_glide_posenum>
292

> <r_i_glide_eff_state_penalty>
0

> <i_f3d_flags>
0

> <s_user_duplicate_titles>
118984

> <s_m_subgroup_title>
dock_pv

> <s_m_subgroupid>
dock_pv1

> <b_m_subgroup_collapsed>
1

$$$$
267398
                    3D
 Schrodinger Suite 2021-1.
 51 53  0  0  1  0            999 V2000
    3.9209   61.4188   69.5916 C   0  0  0  0  0  0
    2.5760   61.0575   69.5720 C   0  0  0  0  0  0
    1.6304   61.9005   70.1487 C   0  0  0  0  0  0
    2.0349   63.0843   70.7675 C   0  0  0  0  0  0
    3.3848   63.4473   70.7684 C   0  0  0  0  0  0
    4.3304   62.6143   70.1814 C   0  0  0  0  0  0
    0.9948   64.0176   71.3737 C   0  0  0  0  0  0
    0.5357   65.0825   70.4808 N   0  0  1  0  0  0
    1.5844   65.9819   69.9712 C   0  0  0  0  0  0
    0.9313   67.2349   69.3736 C   0  0  0  0  0  0
    0.0293   66.8630   68.1859 C   0  0  0  0  0  0
   -1.0443   65.9510   68.7940 C   0  0  0  0  0  0
   -0.4566   64.6834   69.4744 C   0  0  0  0  0  0
   -0.6899   68.0142   67.4390 C   0  0  0  0  0  0
    0.0678   69.3168   67.1586 C   0  0  0  0  0  0
    1.4980   69.2282   66.8416 N   0  0  0  0  0  0
    2.0725   68.8248   65.6694 C   0  0  0  0  0  0
    1.2824   68.1081   64.3898 S   0  0  0  0  0  0
    3.4160   69.0472   65.5298 N   0  0  0  0  0  0
    4.3500   69.6878   66.3729 C   0  0  0  0  0  0
    5.6602   69.8021   65.8978 C   0  0  0  0  0  0
    6.6214   70.4069   66.7097 C   0  0  0  0  0  0
    6.2633   70.9080   67.9627 C   0  0  0  0  0  0
    4.9389   70.7675   68.3694 C   0  0  0  0  0  0
    4.0037   70.1453   67.6109 N   0  0  0  0  0  0
    4.6520   60.7677   69.1347 H   0  0  0  0  0  0
    2.2680   60.1308   69.1115 H   0  0  0  0  0  0
    0.5855   61.6305   70.1292 H   0  0  0  0  0  0
    3.7017   64.3791   71.2146 H   0  0  0  0  0  0
    5.3686   62.9079   70.1795 H   0  0  0  0  0  0
    1.4091   64.4965   72.2555 H   0  0  0  0  0  0
    0.1334   63.4394   71.7135 H   0  0  0  0  0  0
    2.1897   65.4463   69.2387 H   0  0  0  0  0  0
    2.2549   66.2893   70.7683 H   0  0  0  0  0  0
    1.6877   67.9627   69.0947 H   0  0  0  0  0  0
    0.3528   67.7087   70.1549 H   0  0  0  0  0  0
    0.6339   66.3135   67.4663 H   0  0  0  0  0  0
   -1.6757   66.5037   69.4922 H   0  0  0  0  0  0
   -1.7330   65.7081   67.9909 H   0  0  0  0  0  0
   -0.0393   63.9763   68.7683 H   0  0  0  0  0  0
   -1.2450   64.1074   69.9576 H   0  0  0  0  0  0
   -1.6094   68.2924   67.9552 H   0  0  0  0  0  0
   -1.0364   67.6147   66.4839 H   0  0  0  0  0  0
    0.0096   69.9412   68.0520 H   0  0  0  0  0  0
   -0.4536   69.8626   66.3713 H   0  0  0  0  0  0
    2.1211   69.6411   67.5243 H   0  0  0  0  0  0
    3.8098   68.7397   64.6532 H   0  0  0  0  0  0
    5.9407   69.4309   64.9229 H   0  0  0  0  0  0
    7.6391   70.4991   66.3662 H   0  0  0  0  0  0
    6.9916   71.3864   68.6020 H   0  0  0  0  0  0
    4.6087   71.1226   69.3334 H   0  0  0  0  0  0
  1  6  1  0  0  0
  1  2  2  0  0  0
  1 26  1  0  0  0
  2  3  1  0  0  0
  2 27  1  0  0  0
  3  4  2  0  0  0
  3 28  1  0  0  0
  4  5  1  0  0  0
  4  7  1  0  0  0
  5  6  2  0  0  0
  5 29  1  0  0  0
  6 30  1  0  0  0
  7  8  1  0  0  0
  7 31  1  0  0  0
  7 32  1  0  0  0
  8 13  1  0  0  0
  8  9  1  0  0  0
  9 10  1  0  0  0
  9 33  1  0  0  0
  9 34  1  0  0  0
 10 11  1  0  0  0
 10 35  1  0  0  0
 10 36  1  0  0  0
 11 12  1  0  0  0
 11 14  1  0  0  0
 11 37  1  0  0  0
 12 13  1  0  0  0
 12 38  1  0  0  0
 12 39  1  0  0  0
 13 40  1  0  0  0
 13 41  1  0  0  0
 14 15  1  0  0  0
 14 42  1  0  0  0
 14 43  1  0  0  0
 15 16  1  0  0  0
 15 44  1  0  0  0
 15 45  1  0  0  0
 16 17  1  0  0  0
 16 46  1  0  0  0
 17 18  2  0  0  0
 17 19  1  0  0  0
 19 20  1  0  0  0
 19 47  1  0  0  0
 20 25  1  0  0  0
 20 21  2  0  0  0
 21 22  1  0  0  0
 21 48  1  0  0  0
 22 23  2  0  0  0
 22 49  1  0  0  0
 23 24  1  0  0  0
 23 50  1  0  0  0
 24 25  2  0  0  0
 24 51  1  0  0  0
M  END
> <s_m_entry_id>
9914

> <s_m_entry_name>
ligand_docking-pose.356

> <s_m_Source_Path>
/home/csk/Desktop/cluster/DUD-E-result/aces

> <s_m_Source_File>
ligand_docking-pose.sdf

> <i_m_Source_File_Index>
356

> <i_lp_mmshare_version>
53161

> <r_lp_tautomer_probability>
1

> <s_lp_Force_Field>
OPLS_2005

> <r_lp_Energy>
31.804901

> <b_lp_Chiralities_Consistent>
1

> <s_lp_Variant>
267398-1

> <s_i_glide_gridfile>
glide-grid_1e66

> <i_i_glide_lignum>
443

> <i_i_glide_rotatable_bonds>
8

> <r_i_docking_score>
-6.97607608594782

> <r_i_glide_ligand_efficiency>
-0.279043043437913

> <r_i_glide_ligand_efficiency_sa>
-0.815926807861904

> <r_i_glide_ligand_efficiency_ln>
-1.65353908850013

> <r_i_glide_gscore>
-6.97607608594782

> <r_i_glide_lipo>
-3.77248524258789

> <r_i_glide_hbond>
0

> <r_i_glide_metal>
0

> <r_i_glide_rewards>
-2.43328989105158

> <r_i_glide_evdw>
-36.9943504333496

> <r_i_glide_ecoul>
0.100432984530926

> <r_i_glide_erotb>
1.06435162167949

> <r_i_glide_esite>
0

> <r_i_glide_emodel>
-42.5303494791444

> <r_i_glide_energy>
-36.8939174488187

> <r_i_glide_einternal>
17.5206413269043

> <i_i_glide_confnum>
37

> <i_i_glide_posenum>
112

> <r_i_glide_eff_state_penalty>
0

> <i_f3d_flags>
0

> <s_user_duplicate_titles>
267398

> <s_m_subgroup_title>
dock_pv

> <s_m_subgroupid>
dock_pv1

> <b_m_subgroup_collapsed>
1

$$$$
226716
                    3D
 Schrodinger Suite 2021-1.
 31 31  0  0  1  0            999 V2000
    2.3469   69.8117   68.5484 C   0  0  0  0  0  0
    2.3426   69.3080   67.1047 C   0  0  0  0  0  0
    3.4996   69.5936   66.3672 C   0  0  0  0  0  0
    3.6292   69.2110   65.0378 C   0  0  0  0  0  0
    2.5989   68.5144   64.3999 C   0  0  0  0  0  0
    1.4495   68.2041   65.1266 C   0  0  0  0  0  0
    1.2867   68.5911   66.4760 C   0  0  0  0  0  0
   -0.0305   68.2246   67.1941 N   0  3  0  0  0  0
   -0.9795   67.3083   66.3680 C   0  0  0  0  0  0
    0.1999   67.4193   68.5003 C   0  0  0  0  0  0
   -0.9077   69.4674   67.5018 C   0  0  0  0  0  0
    2.6360   68.1088   63.0790 O   0  0  0  0  0  0
    3.7464   68.4803   62.2654 C   0  0  0  0  0  0
    3.2406   70.3960   68.7724 H   0  0  0  0  0  0
    2.3432   68.9925   69.2628 H   0  0  0  0  0  0
    1.5183   70.4767   68.7678 H   0  0  0  0  0  0
    4.3187   70.1306   66.8216 H   0  0  0  0  0  0
    4.5382   69.4732   64.5171 H   0  0  0  0  0  0
    0.6935   67.6640   64.5794 H   0  0  0  0  0  0
   -1.8787   67.0774   66.9414 H   0  0  0  0  0  0
   -1.2676   67.8373   65.4582 H   0  0  0  0  0  0
   -0.4359   66.3896   66.1381 H   0  0  0  0  0  0
   -0.7160   66.9082   68.7993 H   0  0  0  0  0  0
    0.9920   66.6933   68.3068 H   0  0  0  0  0  0
    0.4713   68.1052   69.2956 H   0  0  0  0  0  0
   -1.8766   69.1434   67.8859 H   0  0  0  0  0  0
   -0.4308   70.0893   68.2531 H   0  0  0  0  0  0
   -1.0332   70.0209   66.5689 H   0  0  0  0  0  0
    3.5883   68.1168   61.2490 H   0  0  0  0  0  0
    3.8595   69.5646   62.2096 H   0  0  0  0  0  0
    4.6777   68.0422   62.6265 H   0  0  0  0  0  0
  1  2  1  0  0  0
  1 14  1  0  0  0
  1 15  1  0  0  0
  1 16  1  0  0  0
  2  7  1  0  0  0
  2  3  2  0  0  0
  3  4  1  0  0  0
  3 17  1  0  0  0
  4  5  2  0  0  0
  4 18  1  0  0  0
  5  6  1  0  0  0
  5 12  1  0  0  0
  6  7  2  0  0  0
  6 19  1  0  0  0
  7  8  1  0  0  0
  8  9  1  0  0  0
  8 10  1  0  0  0
  8 11  1  0  0  0
  9 20  1  0  0  0
  9 21  1  0  0  0
  9 22  1  0  0  0
 10 23  1  0  0  0
 10 24  1  0  0  0
 10 25  1  0  0  0
 11 26  1  0  0  0
 11 27  1  0  0  0
 11 28  1  0  0  0
 12 13  1  0  0  0
 13 29  1  0  0  0
 13 30  1  0  0  0
 13 31  1  0  0  0
M  CHG  1   8   1
M  END
> <s_m_entry_id>
9915

> <s_m_entry_name>
ligand_docking-pose.357

> <s_m_Source_Path>
/home/csk/Desktop/cluster/DUD-E-result/aces

> <s_m_Source_File>
ligand_docking-pose.sdf

> <i_m_Source_File_Index>
357

> <i_lp_mmshare_version>
53161

> <r_lp_tautomer_probability>
1

> <s_lp_Force_Field>
OPLS_2005

> <r_lp_Energy>
27.903151

> <b_lp_Chiralities_Consistent>
1

> <s_lp_Variant>
226716-1

> <s_i_glide_gridfile>
glide-grid_1e66

> <i_i_glide_lignum>
761

> <i_i_glide_rotatable_bonds>
2

> <r_i_docking_score>
-6.97536609309982

> <r_i_glide_ligand_efficiency>
-0.53656662254614

> <r_i_glide_ligand_efficiency_sa>
-1.26164771078722

> <r_i_glide_ligand_efficiency_ln>
-1.95665222522732

> <r_i_glide_gscore>
-6.97536609309982

> <r_i_glide_lipo>
-2.32939442591064

> <r_i_glide_hbond>
0

> <r_i_glide_metal>
0

> <r_i_glide_rewards>
-2.67071222009141

> <r_i_glide_evdw>
-23.3133411407471

> <r_i_glide_ecoul>
-5.39728260040283

> <r_i_glide_erotb>
0

> <r_i_glide_esite>
0

> <r_i_glide_emodel>
-44.8545200337612

> <r_i_glide_energy>
-28.7106237411499

> <r_i_glide_einternal>
3.42505717277527

> <i_i_glide_confnum>
1

> <i_i_glide_posenum>
299

> <r_i_glide_eff_state_penalty>
0

> <i_f3d_flags>
0

> <s_user_duplicate_titles>
226716

> <s_m_subgroup_title>
dock_pv

> <s_m_subgroupid>
dock_pv1

> <b_m_subgroup_collapsed>
1

$$$$
509189
                    3D
 Schrodinger Suite 2021-1.
 29 29  0  0  1  0            999 V2000
   -0.4309   66.9320   66.8965 C   0  0  0  0  0  0
   -0.2362   68.3777   66.3901 N   0  3  0  0  0  0
   -1.0142   69.3077   67.3590 C   0  0  0  0  0  0
   -1.0043   68.5079   65.0479 C   0  0  0  0  0  0
    1.2473   68.7088   66.2780 C   0  0  0  0  0  0
    1.9096   69.3382   67.3415 C   0  0  0  0  0  0
    3.2417   69.7080   67.2005 C   0  0  0  0  0  0
    3.9341   69.4339   66.0249 C   0  0  0  0  0  0
    3.3141   68.7501   64.9677 C   0  0  0  0  0  0
    1.9631   68.3838   65.1104 C   0  0  0  0  0  0
    4.0592   68.3938   63.7079 C   0  0  0  0  0  0
    3.5459   67.7081   62.8181 O   0  0  0  0  0  0
    5.5063   68.9101   63.5156 C   0  0  0  0  0  0
    6.2815   68.4585   64.5034 F   0  0  0  0  0  0
    5.5100   70.2442   63.5234 F   0  0  0  0  0  0
    6.0118   68.4779   62.3607 F   0  0  0  0  0  0
   -1.4997   66.7266   66.9756 H   0  0  0  0  0  0
    0.0363   66.2608   66.1736 H   0  0  0  0  0  0
    0.0552   66.8499   67.8693 H   0  0  0  0  0  0
   -2.0708   69.0344   67.3598 H   0  0  0  0  0  0
   -0.6110   69.1825   68.3601 H   0  0  0  0  0  0
   -0.8834   70.3348   67.0243 H   0  0  0  0  0  0
   -2.0647   68.3167   65.2197 H   0  0  0  0  0  0
   -0.8569   69.5159   64.6667 H   0  0  0  0  0  0
   -0.6248   67.7684   64.3463 H   0  0  0  0  0  0
    1.4293   69.5836   68.2763 H   0  0  0  0  0  0
    3.7440   70.2179   68.0099 H   0  0  0  0  0  0
    4.9619   69.7595   65.9814 H   0  0  0  0  0  0
    1.4809   67.8591   64.2992 H   0  0  0  0  0  0
  1  2  1  0  0  0
  1 17  1  0  0  0
  1 18  1  0  0  0
  1 19  1  0  0  0
  2  3  1  0  0  0
  2  4  1  0  0  0
  2  5  1  0  0  0
  3 20  1  0  0  0
  3 21  1  0  0  0
  3 22  1  0  0  0
  4 23  1  0  0  0
  4 24  1  0  0  0
  4 25  1  0  0  0
  5 10  1  0  0  0
  5  6  2  0  0  0
  6  7  1  0  0  0
  6 26  1  0  0  0
  7  8  2  0  0  0
  7 27  1  0  0  0
  8  9  1  0  0  0
  8 28  1  0  0  0
  9 10  2  0  0  0
  9 11  1  0  0  0
 10 29  1  0  0  0
 11 12  2  0  0  0
 11 13  1  0  0  0
 13 14  1  0  0  0
 13 15  1  0  0  0
 13 16  1  0  0  0
M  CHG  1   2   1
M  END
> <s_m_entry_id>
9916

> <s_m_entry_name>
ligand_docking-pose.358

> <s_m_Source_Path>
/home/csk/Desktop/cluster/DUD-E-result/aces

> <s_m_Source_File>
ligand_docking-pose.sdf

> <i_m_Source_File_Index>
358

> <i_lp_mmshare_version>
53161

> <r_lp_tautomer_probability>
1

> <s_lp_Force_Field>
OPLS_2005

> <r_lp_Energy>
29.56167

> <b_lp_Chiralities_Consistent>
1

> <s_lp_Variant>
509189-1

> <s_i_glide_gridfile>
glide-grid_1e66

> <i_i_glide_lignum>
1724

> <i_i_glide_rotatable_bonds>
3

> <r_i_docking_score>
-6.96441824367698

> <r_i_glide_ligand_efficiency>
-0.435276140229811

> <r_i_glide_ligand_efficiency_sa>
-1.09682714217138

> <r_i_glide_ligand_efficiency_ln>
-1.8460581728989

> <r_i_glide_gscore>
-6.96441824367698

> <r_i_glide_lipo>
-1.92788567815357

> <r_i_glide_hbond>
0

> <r_i_glide_metal>
0

> <r_i_glide_rewards>
-2.95231578835367

> <r_i_glide_evdw>
-25.6957569122314

> <r_i_glide_ecoul>
-6.49166631698608

> <r_i_glide_erotb>
0.317565713717613

> <r_i_glide_esite>
-0.143244697727866

> <r_i_glide_emodel>
-49.3114533167451

> <r_i_glide_energy>
-32.1874232292175

> <r_i_glide_einternal>
3.63876295089722

> <i_i_glide_confnum>
2

> <i_i_glide_posenum>
332

> <r_i_glide_eff_state_penalty>
0

> <i_f3d_flags>
0

> <s_user_duplicate_titles>
509189

> <s_m_subgroup_title>
dock_pv

> <s_m_subgroupid>
dock_pv1

> <b_m_subgroup_collapsed>
1

$$$$
180222
                    3D
 Schrodinger Suite 2021-1.
 43 46  0  0  1  0            999 V2000
    0.3416   65.7927   70.6389 C   0  0  0  0  0  0
    0.2381   65.6387   69.1084 C   0  0  0  0  0  0
    0.1021   66.9080   68.2731 C   0  0  0  0  0  0
    0.5022   68.0879   68.7680 C   0  0  0  0  0  0
    0.3484   69.4218   68.0751 C   0  0  1  0  0  0
    1.7166   69.7073   67.4719 C   0  0  0  0  0  0
    1.9226   68.9666   66.1644 C   0  0  0  0  0  0
    0.8539   68.4076   65.4241 C   0  0  0  0  0  0
    1.0903   68.1425   64.0625 C   0  0  0  0  0  0
    2.4037   68.3075   63.5417 C   0  0  0  0  0  0
    2.7554   68.1082   62.1832 C   0  0  0  0  0  0
    4.0889   68.1183   61.8026 C   0  0  0  0  0  0
    5.0868   68.3627   62.7426 C   0  0  0  0  0  0
    4.7723   68.6726   64.0521 C   0  0  0  0  0  0
    3.4361   68.6566   64.4562 C   0  0  0  0  0  0
    3.1906   68.9909   65.7296 N   0  0  0  0  0  0
    6.5293   68.2817   62.3673 C   0  0  0  0  0  0
    0.0464   67.7276   63.2271 N   0  0  0  0  0  0
   -0.5090   68.1905   66.1126 C   0  0  2  0  0  0
   -0.8158   69.3428   67.0668 C   0  0  0  0  0  0
   -0.5932   66.8402   66.8979 C   0  0  0  0  0  0
    0.2793   64.8220   71.1313 H   0  0  0  0  0  0
   -0.4562   66.4224   71.0343 H   0  0  0  0  0  0
    1.2935   66.2363   70.9293 H   0  0  0  0  0  0
    1.1568   65.1652   68.7719 H   0  0  0  0  0  0
   -0.5887   64.9705   68.8728 H   0  0  0  0  0  0
    0.9889   68.1044   69.7300 H   0  0  0  0  0  0
    0.0999   70.2169   68.7680 H   0  0  0  0  0  0
    1.8457   70.7699   67.3072 H   0  0  0  0  0  0
    2.5168   69.4651   68.1763 H   0  0  0  0  0  0
    1.9921   67.8968   61.4518 H   0  0  0  0  0  0
    4.3433   67.9130   60.7733 H   0  0  0  0  0  0
    5.5430   68.9082   64.7736 H   0  0  0  0  0  0
    7.1712   68.5082   63.2073 H   0  0  0  0  0  0
    6.7429   67.2958   61.9681 H   0  0  0  0  0  0
    6.7427   68.9750   61.5682 H   0  0  0  0  0  0
    0.2474   67.6085   62.2465 H   0  0  0  0  0  0
   -0.6888   67.1554   63.6458 H   0  0  0  0  0  0
   -1.2835   68.1769   65.3457 H   0  0  0  0  0  0
   -1.7688   69.1886   67.5768 H   0  0  0  0  0  0
   -0.9225   70.2716   66.5144 H   0  0  0  0  0  0
   -0.2056   66.0140   66.3067 H   0  0  0  0  0  0
   -1.6372   66.6018   67.1047 H   0  0  0  0  0  0
  1  2  1  0  0  0
  1 22  1  0  0  0
  1 23  1  0  0  0
  1 24  1  0  0  0
  2  3  1  0  0  0
  2 25  1  0  0  0
  2 26  1  0  0  0
  3 21  1  0  0  0
  3  4  2  0  0  0
  4  5  1  0  0  0
  4 27  1  0  0  0
  5 20  1  0  0  0
  5  6  1  0  0  0
  5 28  1  0  0  0
  6  7  1  0  0  0
  6 29  1  0  0  0
  6 30  1  0  0  0
  7 16  2  0  0  0
  7  8  1  0  0  0
  8  9  2  0  0  0
  8 19  1  0  0  0
  9 10  1  0  0  0
  9 18  1  0  0  0
 10 15  2  0  0  0
 10 11  1  0  0  0
 11 12  2  0  0  0
 11 31  1  0  0  0
 12 13  1  0  0  0
 12 32  1  0  0  0
 13 14  2  0  0  0
 13 17  1  0  0  0
 14 15  1  0  0  0
 14 33  1  0  0  0
 15 16  1  0  0  0
 17 34  1  0  0  0
 17 35  1  0  0  0
 17 36  1  0  0  0
 18 37  1  0  0  0
 18 38  1  0  0  0
 19 20  1  0  0  0
 19 21  1  0  0  0
 19 39  1  0  0  0
 20 40  1  0  0  0
 20 41  1  0  0  0
 21 42  1  0  0  0
 21 43  1  0  0  0
M  END
> <s_m_entry_id>
9919

> <s_m_entry_name>
ligand_docking-pose.361

> <s_m_Source_Path>
/home/csk/Desktop/cluster/DUD-E-result/aces

> <s_m_Source_File>
ligand_docking-pose.sdf

> <i_m_Source_File_Index>
361

> <i_lp_mmshare_version>
53161

> <r_lp_tautomer_probability>
1

> <s_lp_Force_Field>
OPLS_2005

> <r_lp_Energy>
23.319476

> <b_lp_Chiralities_Consistent>
1

> <s_lp_Variant>
180222-1

> <s_i_glide_gridfile>
glide-grid_1e66

> <i_i_glide_lignum>
869

> <i_i_glide_rotatable_bonds>
1

> <r_i_docking_score>
-6.95515819353136

> <r_i_glide_ligand_efficiency>
-0.331198009215779

> <r_i_glide_ligand_efficiency_sa>
-0.913750193867399

> <r_i_glide_ligand_efficiency_ln>
-1.71964880913018

> <r_i_glide_gscore>
-6.95515819353136

> <r_i_glide_lipo>
-2.76090277163417

> <r_i_glide_hbond>
-0.32

> <r_i_glide_metal>
0

> <r_i_glide_rewards>
-1.91802442385795

> <r_i_glide_evdw>
-19.6697368621826

> <r_i_glide_ecoul>
-6.48496103286743

> <r_i_glide_erotb>
0

> <r_i_glide_esite>
0

> <r_i_glide_emodel>
-38.9255716580771

> <r_i_glide_energy>
-26.15469789505

> <r_i_glide_einternal>
0.671544432640076

> <i_i_glide_confnum>
1

> <i_i_glide_posenum>
34

> <r_i_glide_eff_state_penalty>
0

> <i_f3d_flags>
0

> <s_user_duplicate_titles>
180222

> <s_m_subgroup_title>
dock_pv

> <s_m_subgroupid>
dock_pv1

> <b_m_subgroup_collapsed>
1

$$$$
86019
                    3D
 Schrodinger Suite 2021-1.
 50 52  0  0  1  0            999 V2000
    3.3264   62.5345   69.4931 C   0  0  0  0  0  0
    1.9634   62.2560   69.5752 C   0  0  0  0  0  0
    1.0886   63.2273   70.0574 C   0  0  0  0  0  0
    1.5777   64.4728   70.4669 C   0  0  0  0  0  0
    2.9458   64.7456   70.3680 C   0  0  0  0  0  0
    3.8218   63.7762   69.8854 C   0  0  0  0  0  0
    0.6038   65.5512   70.9605 C   0  0  0  0  0  0
    0.1030   66.5080   69.9553 N   0  0  1  0  0  0
    1.1316   67.4481   69.4893 C   0  0  0  0  0  0
    0.6506   68.4243   68.3814 C   0  0  0  0  0  0
   -0.1481   67.7757   67.2390 C   0  0  0  0  0  0
   -1.1978   66.8199   67.8344 C   0  0  0  0  0  0
   -0.5523   65.8405   68.8342 C   0  0  0  0  0  0
   -0.7398   68.8711   66.3171 C   0  0  0  0  0  0
   -0.9451   68.5082   64.8403 C   0  0  0  0  0  0
    0.3203   68.1307   64.2156 N   0  0  0  0  0  0
    0.8841   68.7538   63.1680 C   0  0  0  0  0  0
    0.2487   69.4789   62.3994 O   0  0  0  0  0  0
    2.3848   68.6083   63.0407 C   0  0  0  0  0  0
    3.1451   67.8894   63.9827 C   0  0  0  0  0  0
    4.5327   67.8508   63.8880 C   0  0  0  0  0  0
    5.1705   68.5343   62.8597 C   0  0  0  0  0  0
    4.4350   69.2474   61.9237 C   0  0  0  0  0  0
    3.0482   69.2729   62.0008 C   0  0  0  0  0  0
    6.5150   68.5080   62.7680 F   0  0  0  0  0  0
    4.0041   61.7818   69.1193 H   0  0  0  0  0  0
    1.5835   61.2944   69.2635 H   0  0  0  0  0  0
    0.0310   63.0120   70.1088 H   0  0  0  0  0  0
    3.3333   65.7081   70.6709 H   0  0  0  0  0  0
    4.8788   63.9906   69.8137 H   0  0  0  0  0  0
    1.0786   66.1080   71.7594 H   0  0  0  0  0  0
   -0.2528   65.0531   71.4135 H   0  0  0  0  0  0
    1.9430   66.8469   69.1027 H   0  0  0  0  0  0
    1.5430   67.9992   70.3357 H   0  0  0  0  0  0
    1.4907   69.0012   67.9929 H   0  0  0  0  0  0
    0.0087   69.1847   68.8136 H   0  0  0  0  0  0
    0.5629   67.1508   66.6959 H   0  0  0  0  0  0
   -1.9788   67.3764   68.3528 H   0  0  0  0  0  0
   -1.7273   66.2974   67.0371 H   0  0  0  0  0  0
    0.2540   65.3080   68.3680 H   0  0  0  0  0  0
   -1.2570   65.0899   69.1682 H   0  0  0  0  0  0
   -0.0558   69.7080   66.3461 H   0  0  0  0  0  0
   -1.6740   69.2504   66.7351 H   0  0  0  0  0  0
   -1.4436   69.3080   64.3050 H   0  0  0  0  0  0
   -1.6570   67.7080   64.7744 H   0  0  0  0  0  0
    0.8102   67.3636   64.6458 H   0  0  0  0  0  0
    2.6842   67.3769   64.8144 H   0  0  0  0  0  0
    5.1154   67.3130   64.6204 H   0  0  0  0  0  0
    4.9505   69.7701   61.1316 H   0  0  0  0  0  0
    2.4975   69.8418   61.2643 H   0  0  0  0  0  0
  1  6  1  0  0  0
  1  2  2  0  0  0
  1 26  1  0  0  0
  2  3  1  0  0  0
  2 27  1  0  0  0
  3  4  2  0  0  0
  3 28  1  0  0  0
  4  5  1  0  0  0
  4  7  1  0  0  0
  5  6  2  0  0  0
  5 29  1  0  0  0
  6 30  1  0  0  0
  7  8  1  0  0  0
  7 31  1  0  0  0
  7 32  1  0  0  0
  8 13  1  0  0  0
  8  9  1  0  0  0
  9 10  1  0  0  0
  9 33  1  0  0  0
  9 34  1  0  0  0
 10 11  1  0  0  0
 10 35  1  0  0  0
 10 36  1  0  0  0
 11 12  1  0  0  0
 11 14  1  0  0  0
 11 37  1  0  0  0
 12 13  1  0  0  0
 12 38  1  0  0  0
 12 39  1  0  0  0
 13 40  1  0  0  0
 13 41  1  0  0  0
 14 15  1  0  0  0
 14 42  1  0  0  0
 14 43  1  0  0  0
 15 16  1  0  0  0
 15 44  1  0  0  0
 15 45  1  0  0  0
 16 17  1  0  0  0
 16 46  1  0  0  0
 17 18  2  0  0  0
 17 19  1  0  0  0
 19 24  1  0  0  0
 19 20  2  0  0  0
 20 21  1  0  0  0
 20 47  1  0  0  0
 21 22  2  0  0  0
 21 48  1  0  0  0
 22 23  1  0  0  0
 22 25  1  0  0  0
 23 24  2  0  0  0
 23 49  1  0  0  0
 24 50  1  0  0  0
M  END
> <s_m_entry_id>
9920

> <s_m_entry_name>
ligand_docking-pose.362

> <s_m_Source_Path>
/home/csk/Desktop/cluster/DUD-E-result/aces

> <s_m_Source_File>
ligand_docking-pose.sdf

> <i_m_Source_File_Index>
362

> <i_lp_mmshare_version>
53161

> <r_lp_tautomer_probability>
1

> <s_lp_Force_Field>
OPLS_2005

> <r_lp_Energy>
26.447339

> <b_lp_Chiralities_Consistent>
1

> <s_lp_Variant>
86019-1

> <s_i_glide_gridfile>
glide-grid_1e66

> <i_i_glide_lignum>
427

> <i_i_glide_rotatable_bonds>
7

> <r_i_docking_score>
-6.95475968703795

> <r_i_glide_ligand_efficiency>
-0.278190387481518

> <r_i_glide_ligand_efficiency_sa>
-0.813433626723488

> <r_i_glide_ligand_efficiency_ln>
-1.64848646315757

> <r_i_glide_gscore>
-6.95475968703795

> <r_i_glide_lipo>
-3.4576364636918

> <r_i_glide_hbond>
0

> <r_i_glide_metal>
0

> <r_i_glide_rewards>
-2.18278307291797

> <r_i_glide_evdw>
-39.889949798584

> <r_i_glide_ecoul>
-1.45935225486755

> <r_i_glide_erotb>
0.980398544779997

> <r_i_glide_esite>
-0.0813383670488402

> <r_i_glide_emodel>
-45.5859427328253

> <r_i_glide_energy>
-41.3493020534515

> <r_i_glide_einternal>
12.1879405975342

> <i_i_glide_confnum>
12

> <i_i_glide_posenum>
258

> <r_i_glide_eff_state_penalty>
0

> <i_f3d_flags>
0

> <s_user_duplicate_titles>
86019

> <s_m_subgroup_title>
dock_pv

> <s_m_subgroupid>
dock_pv1

> <b_m_subgroup_collapsed>
1

$$$$
552782
                    3D
 Schrodinger Suite 2021-1.
 59 62  0  0  1  0            999 V2000
    5.6988   70.1674   65.3632 C   0  0  0  0  0  0
    4.7644   69.4771   64.5439 O   0  0  0  0  0  0
    3.5594   69.0577   65.0807 C   0  0  0  0  0  0
    3.1601   69.3126   66.4030 C   0  0  0  0  0  0
    1.9671   68.8052   66.9102 C   0  0  0  0  0  0
    1.1518   68.0435   66.0896 C   0  0  0  0  0  0
    1.4957   67.8093   64.7559 C   0  0  0  0  0  0
    2.7019   68.3074   64.2530 C   0  0  0  0  0  0
    3.0519   67.9980   62.9559 O   0  0  0  0  0  0
    3.0263   69.0925   62.0382 C   0  0  0  0  0  0
   -0.0245   67.5723   66.8471 C   0  0  0  0  0  0
   -0.9655   66.9087   66.4307 O   0  0  0  0  0  0
    0.1323   68.0790   68.2779 C   0  0  2  0  0  0
    1.4099   68.9290   68.2981 C   0  0  0  0  0  0
   -0.0151   66.9095   69.3082 C   0  0  0  0  0  0
    1.0376   65.7647   69.3214 C   0  0  0  0  0  0
    2.1259   65.9610   70.3777 C   0  0  0  0  0  0
    3.1460   64.8023   70.4279 C   0  0  0  0  0  0
    2.5163   63.4890   70.6628 N   0  0  1  0  0  0
    1.3833   63.2367   69.7485 C   0  0  0  0  0  0
    0.3822   64.4147   69.6926 C   0  0  0  0  0  0
    3.5475   62.4418   70.5562 C   0  0  0  0  0  0
    3.0818   61.0013   70.8116 C   0  0  0  0  0  0
    3.7381   59.9569   70.1505 C   0  0  0  0  0  0
    3.3740   58.6356   70.3868 C   0  0  0  0  0  0
    2.3554   58.3424   71.2926 C   0  0  0  0  0  0
    1.6981   59.3694   71.9888 C   0  0  0  0  0  0
    2.1014   60.6986   71.7672 C   0  0  0  0  0  0
    0.5980   59.0565   72.9319 N   0  3  0  0  0  0
    0.2963   57.8796   73.1170 O   0  5  0  0  0  0
    0.0137   59.9869   73.4771 O   0  0  0  0  0  0
    6.5058   70.5506   64.7366 H   0  0  0  0  0  0
    5.2531   71.0263   65.8635 H   0  0  0  0  0  0
    6.1315   69.4985   66.1126 H   0  0  0  0  0  0
    3.7927   69.8846   67.0655 H   0  0  0  0  0  0
    0.8501   67.2229   64.1163 H   0  0  0  0  0  0
    3.2843   68.7288   61.0399 H   0  0  0  0  0  0
    3.7519   69.8678   62.2913 H   0  0  0  0  0  0
    2.0341   69.5475   61.9805 H   0  0  0  0  0  0
   -0.7092   68.7592   68.3677 H   0  0  0  0  0  0
    2.1087   68.5916   69.0615 H   0  0  0  0  0  0
    1.1580   69.9669   68.5334 H   0  0  0  0  0  0
   -0.0566   67.3123   70.3145 H   0  0  0  0  0  0
   -1.0080   66.4818   69.1658 H   0  0  0  0  0  0
    1.5457   65.7056   68.3676 H   0  0  0  0  0  0
    2.6590   66.9045   70.2619 H   0  0  0  0  0  0
    1.5961   66.0427   71.3282 H   0  0  0  0  0  0
    3.6655   64.7667   69.4709 H   0  0  0  0  0  0
    3.9116   65.0059   71.1740 H   0  0  0  0  0  0
    1.8125   63.0583   68.7680 H   0  0  0  0  0  0
    0.8567   62.3126   70.0041 H   0  0  0  0  0  0
   -0.1243   64.4802   70.6576 H   0  0  0  0  0  0
   -0.4338   64.1848   69.0101 H   0  0  0  0  0  0
    4.0356   62.4818   69.5801 H   0  0  0  0  0  0
    4.3350   62.6480   71.2838 H   0  0  0  0  0  0
    4.5207   60.1721   69.4380 H   0  0  0  0  0  0
    3.8649   57.8274   69.8627 H   0  0  0  0  0  0
    2.0810   57.3101   71.4487 H   0  0  0  0  0  0
    1.6310   61.5050   72.3095 H   0  0  0  0  0  0
  1  2  1  0  0  0
  1 32  1  0  0  0
  1 33  1  0  0  0
  1 34  1  0  0  0
  2  3  1  0  0  0
  3  8  1  0  0  0
  3  4  2  0  0  0
  4  5  1  0  0  0
  4 35  1  0  0  0
  5 14  1  0  0  0
  5  6  2  0  0  0
  6  7  1  0  0  0
  6 11  1  0  0  0
  7  8  2  0  0  0
  7 36  1  0  0  0
  8  9  1  0  0  0
  9 10  1  0  0  0
 10 37  1  0  0  0
 10 38  1  0  0  0
 10 39  1  0  0  0
 11 12  2  0  0  0
 11 13  1  0  0  0
 13 14  1  0  0  0
 13 15  1  0  0  0
 13 40  1  0  0  0
 14 41  1  0  0  0
 14 42  1  0  0  0
 15 16  1  0  0  0
 15 43  1  0  0  0
 15 44  1  0  0  0
 16 21  1  0  0  0
 16 17  1  0  0  0
 16 45  1  0  0  0
 17 18  1  0  0  0
 17 46  1  0  0  0
 17 47  1  0  0  0
 18 19  1  0  0  0
 18 48  1  0  0  0
 18 49  1  0  0  0
 19 20  1  0  0  0
 19 22  1  0  0  0
 20 21  1  0  0  0
 20 50  1  0  0  0
 20 51  1  0  0  0
 21 52  1  0  0  0
 21 53  1  0  0  0
 22 23  1  0  0  0
 22 54  1  0  0  0
 22 55  1  0  0  0
 23 28  1  0  0  0
 23 24  2  0  0  0
 24 25  1  0  0  0
 24 56  1  0  0  0
 25 26  2  0  0  0
 25 57  1  0  0  0
 26 27  1  0  0  0
 26 58  1  0  0  0
 27 28  2  0  0  0
 27 29  1  0  0  0
 28 59  1  0  0  0
 29 30  1  0  0  0
 29 31  2  0  0  0
M  CHG  2  29   1  30  -1
M  END
> <s_m_entry_id>
9922

> <s_m_entry_name>
ligand_docking-pose.364

> <s_m_Source_Path>
/home/csk/Desktop/cluster/DUD-E-result/aces

> <s_m_Source_File>
ligand_docking-pose.sdf

> <i_m_Source_File_Index>
364

> <i_lp_mmshare_version>
53161

> <r_lp_tautomer_probability>
0.99995

> <s_lp_Force_Field>
OPLS_2005

> <r_lp_Energy>
52.184459

> <b_lp_Chiralities_Consistent>
1

> <s_lp_Variant>
552782-2

> <s_i_glide_gridfile>
glide-grid_1e66

> <i_i_glide_lignum>
1931

> <i_i_glide_rotatable_bonds>
7

> <r_i_docking_score>
-6.94585245465218

> <r_i_glide_ligand_efficiency>
-0.224059756601683

> <r_i_glide_ligand_efficiency_sa>
-0.703856983562373

> <r_i_glide_ligand_efficiency_ln>
-1.5665025933377

> <r_i_glide_gscore>
-6.94585245465218

> <r_i_glide_lipo>
-3.56717813862516

> <r_i_glide_hbond>
0

> <r_i_glide_metal>
0

> <r_i_glide_rewards>
-1.86054185589446

> <r_i_glide_evdw>
-43.547607421875

> <r_i_glide_ecoul>
1.46050691604614

> <r_i_glide_erotb>
0.440171873554274

> <r_i_glide_esite>
0

> <r_i_glide_emodel>
-50.3477889339593

> <r_i_glide_energy>
-42.0871005058289

> <r_i_glide_einternal>
10.6314744949341

> <i_i_glide_confnum>
7

> <i_i_glide_posenum>
365

> <r_i_glide_eff_state_penalty>
0

> <i_f3d_flags>
0

> <s_user_duplicate_titles>
552782

> <s_m_subgroup_title>
dock_pv

> <s_m_subgroupid>
dock_pv1

> <b_m_subgroup_collapsed>
1

$$$$
208446
                    3D
 Schrodinger Suite 2021-1.
 59 62  0  0  1  0            999 V2000
    3.6782   68.6049   62.9119 C   0  0  0  0  0  0
    2.2689   68.6798   62.7250 O   0  0  0  0  0  0
    1.4235   68.5068   63.8073 C   0  0  0  0  0  0
    1.8632   68.1488   65.0899 C   0  0  0  0  0  0
    0.9458   67.9677   66.1237 C   0  0  0  0  0  0
   -0.4200   68.1287   65.9134 C   0  0  0  0  0  0
   -0.8671   68.5081   64.6475 C   0  0  0  0  0  0
    0.0443   68.6822   63.6019 C   0  0  0  0  0  0
   -0.4569   68.9852   62.3674 O   0  0  0  0  0  0
   -0.1801   70.2913   61.8840 C   0  0  0  0  0  0
   -1.2075   67.8045   67.1760 C   0  0  2  0  0  0
   -0.1180   67.5799   68.2537 C   0  0  2  0  0  0
    1.2103   67.4902   67.5176 C   0  0  0  0  0  0
   -0.3607   66.4275   69.2862 C   0  0  0  0  0  0
    0.6126   66.3767   70.5088 C   0  0  0  0  0  0
   -0.0568   65.7961   71.7859 C   0  0  0  0  0  0
   -0.1413   64.2449   71.8123 C   0  0  0  0  0  0
    1.1383   63.5861   71.5312 N   0  0  2  0  0  0
    1.6872   64.0372   70.2450 C   0  0  0  0  0  0
    1.8975   65.5567   70.2383 C   0  0  0  0  0  0
    0.9712   62.1268   71.5739 C   0  0  0  0  0  0
    2.2948   61.3813   71.4482 C   0  0  0  0  0  0
    3.2085   61.4076   72.5051 C   0  0  0  0  0  0
    4.4513   60.8008   72.3586 C   0  0  0  0  0  0
    4.7744   60.1724   71.1587 C   0  0  0  0  0  0
    3.8712   60.1480   70.0969 C   0  0  0  0  0  0
    2.6304   60.7590   70.2417 C   0  0  0  0  0  0
   -2.1012   66.7209   67.0127 O   0  0  0  0  0  0
    4.1812   68.8106   61.9668 H   0  0  0  0  0  0
    4.0253   69.3431   63.6365 H   0  0  0  0  0  0
    3.9844   67.6101   63.2356 H   0  0  0  0  0  0
    2.9111   67.9903   65.2894 H   0  0  0  0  0  0
   -1.9206   68.6390   64.4499 H   0  0  0  0  0  0
   -0.7969   70.4954   61.0097 H   0  0  0  0  0  0
    0.8573   70.3980   61.5731 H   0  0  0  0  0  0
   -0.4173   71.0530   62.6258 H   0  0  0  0  0  0
   -1.8060   68.6725   67.4641 H   0  0  0  0  0  0
   -0.0569   68.5282   68.7842 H   0  0  0  0  0  0
    1.5426   66.4582   67.4475 H   0  0  0  0  0  0
    1.9431   68.1070   68.0366 H   0  0  0  0  0  0
   -1.3854   66.5081   69.6419 H   0  0  0  0  0  0
   -0.3460   65.4720   68.7638 H   0  0  0  0  0  0
    0.9343   67.3851   70.7675 H   0  0  0  0  0  0
    0.4457   66.1079   72.6899 H   0  0  0  0  0  0
   -1.0075   66.2870   71.9680 H   0  0  0  0  0  0
   -0.5002   63.9180   72.7897 H   0  0  0  0  0  0
   -0.8569   63.8775   71.0770 H   0  0  0  0  0  0
    2.6493   63.5588   70.0597 H   0  0  0  0  0  0
    1.0266   63.7233   69.4354 H   0  0  0  0  0  0
    2.3428   65.8239   69.2908 H   0  0  0  0  0  0
    2.6765   65.7977   70.9583 H   0  0  0  0  0  0
    0.5063   61.8354   72.5169 H   0  0  0  0  0  0
    0.2927   61.8103   70.7781 H   0  0  0  0  0  0
    2.9597   61.9142   73.4264 H   0  0  0  0  0  0
    5.1655   60.8237   73.1674 H   0  0  0  0  0  0
    5.7422   59.7105   71.0573 H   0  0  0  0  0  0
    4.1319   59.6667   69.1660 H   0  0  0  0  0  0
    1.9362   60.7560   69.4148 H   0  0  0  0  0  0
   -2.8987   67.0283   66.5704 H   0  0  0  0  0  0
  1  2  1  0  0  0
  1 29  1  0  0  0
  1 30  1  0  0  0
  1 31  1  0  0  0
  2  3  1  0  0  0
  3  8  1  0  0  0
  3  4  2  0  0  0
  4  5  1  0  0  0
  4 32  1  0  0  0
  5 13  1  0  0  0
  5  6  2  0  0  0
  6  7  1  0  0  0
  6 11  1  0  0  0
  7  8  2  0  0  0
  7 33  1  0  0  0
  8  9  1  0  0  0
  9 10  1  0  0  0
 10 34  1  0  0  0
 10 35  1  0  0  0
 10 36  1  0  0  0
 11 12  1  0  0  0
 11 28  1  0  0  0
 11 37  1  0  0  0
 12 13  1  0  0  0
 12 14  1  0  0  0
 12 38  1  0  0  0
 13 39  1  0  0  0
 13 40  1  0  0  0
 14 15  1  0  0  0
 14 41  1  0  0  0
 14 42  1  0  0  0
 15 20  1  0  0  0
 15 16  1  0  0  0
 15 43  1  0  0  0
 16 17  1  0  0  0
 16 44  1  0  0  0
 16 45  1  0  0  0
 17 18  1  0  0  0
 17 46  1  0  0  0
 17 47  1  0  0  0
 18 19  1  0  0  0
 18 21  1  0  0  0
 19 20  1  0  0  0
 19 48  1  0  0  0
 19 49  1  0  0  0
 20 50  1  0  0  0
 20 51  1  0  0  0
 21 22  1  0  0  0
 21 52  1  0  0  0
 21 53  1  0  0  0
 22 27  1  0  0  0
 22 23  2  0  0  0
 23 24  1  0  0  0
 23 54  1  0  0  0
 24 25  2  0  0  0
 24 55  1  0  0  0
 25 26  1  0  0  0
 25 56  1  0  0  0
 26 27  2  0  0  0
 26 57  1  0  0  0
 27 58  1  0  0  0
 28 59  1  0  0  0
M  END
> <s_m_entry_id>
9924

> <s_m_entry_name>
ligand_docking-pose.366

> <s_m_Source_Path>
/home/csk/Desktop/cluster/DUD-E-result/aces

> <s_m_Source_File>
ligand_docking-pose.sdf

> <i_m_Source_File_Index>
366

> <i_lp_mmshare_version>
53161

> <r_lp_tautomer_probability>
1

> <s_lp_Force_Field>
OPLS_2005

> <r_lp_Energy>
47.02368

> <b_lp_Chiralities_Consistent>
1

> <s_lp_Variant>
208446-4

> <s_i_glide_gridfile>
glide-grid_1e66

> <i_i_glide_lignum>
1905

> <i_i_glide_rotatable_bonds>
7

> <r_i_docking_score>
-6.94510293222226

> <r_i_glide_ligand_efficiency>
-0.248039390436509

> <r_i_glide_ligand_efficiency_sa>
-0.753193676753667

> <r_i_glide_ligand_efficiency_ln>
-1.60313367383974

> <r_i_glide_gscore>
-6.94510293222226

> <r_i_glide_lipo>
-4.1046887071983

> <r_i_glide_hbond>
0

> <r_i_glide_metal>
0

> <r_i_glide_rewards>
-1.60974565215986

> <r_i_glide_evdw>
-38.8917655944824

> <r_i_glide_ecoul>
1.20292234420776

> <r_i_glide_erotb>
0.533481355228858

> <r_i_glide_esite>
0

> <r_i_glide_emodel>
-45.4375975940132

> <r_i_glide_energy>
-37.6888432502747

> <r_i_glide_einternal>
8.12311267852783

> <i_i_glide_confnum>
5

> <i_i_glide_posenum>
168

> <r_i_glide_eff_state_penalty>
0

> <i_f3d_flags>
0

> <s_user_duplicate_titles>
208446

> <s_m_subgroup_title>
dock_pv

> <s_m_subgroupid>
dock_pv1

> <b_m_subgroup_collapsed>
1

$$$$
630237
                    3D
 Schrodinger Suite 2021-1.
 67 71  0  0  1  0            999 V2000
    3.4387   59.4709   70.1374 C   0  0  0  0  0  0
    2.5124   59.3987   71.1710 C   0  0  0  0  0  0
    1.8967   60.5515   71.6506 C   0  0  0  0  0  0
    2.2035   61.8132   71.0863 C   0  0  0  0  0  0
    3.1513   61.8996   70.0175 C   0  0  0  0  0  0
    3.7669   60.6982   69.5675 C   0  0  0  0  0  0
    3.4187   63.1941   69.4634 C   0  0  0  0  0  0
    2.7700   64.3008   70.0134 C   0  0  0  0  0  0
    1.8608   64.1160   71.0482 C   0  0  0  0  0  0
    1.5717   62.9100   71.5853 N   0  0  0  0  0  0
    4.2798   63.3879   68.3683 N   0  0  0  0  0  0
    3.5430   63.6556   67.1326 C   0  0  0  0  0  0
    4.2748   63.7122   65.7790 C   0  0  0  0  0  0
    3.6949   64.6310   64.6905 C   0  0  0  0  0  0
    4.8418   65.1028   63.7594 C   0  0  0  0  0  0
    4.4621   65.9685   62.5493 C   0  0  0  0  0  0
    3.6160   67.2030   62.8906 C   0  0  0  0  0  0
    4.3531   68.3002   63.6548 C   0  0  0  0  0  0
    3.4075   69.2662   64.1877 N   0  0  0  0  0  0
    3.1399   69.2660   65.5694 C   0  0  0  0  0  0
    4.1107   69.7751   66.4886 C   0  0  0  0  0  0
    5.4772   70.0243   66.1669 C   0  0  0  0  0  0
    6.3489   70.5272   67.1253 C   0  0  0  0  0  0
    5.8845   70.9081   68.3789 C   0  0  0  0  0  0
    4.5491   70.7139   68.7218 C   0  0  0  0  0  0
    3.6615   70.1075   67.7999 C   0  0  0  0  0  0
    2.3986   69.8475   68.2084 N   0  0  0  0  0  0
    1.5392   69.2115   67.3777 C   0  0  0  0  0  0
    1.8533   68.9090   66.0348 C   0  0  0  0  0  0
    0.7824   68.2974   65.1040 C   0  0  0  0  0  0
   -0.6222   68.1099   65.7249 C   0  0  0  0  0  0
   -0.9268   69.0847   66.8646 C   0  0  0  0  0  0
    0.1517   68.9383   67.9435 C   0  0  0  0  0  0
    3.8989   58.5641   69.7751 H   0  0  0  0  0  0
    2.2662   58.4398   71.6040 H   0  0  0  0  0  0
    1.1759   60.4894   72.4533 H   0  0  0  0  0  0
    4.4898   60.7397   68.7675 H   0  0  0  0  0  0
    2.9432   65.2928   69.6223 H   0  0  0  0  0  0
    1.3336   64.9604   71.4683 H   0  0  0  0  0  0
    4.9286   64.1495   68.5218 H   0  0  0  0  0  0
    2.7430   62.9085   67.0589 H   0  0  0  0  0  0
    3.1427   64.6511   67.3078 H   0  0  0  0  0  0
    5.2627   64.1080   65.9688 H   0  0  0  0  0  0
    4.3428   62.7114   65.3573 H   0  0  0  0  0  0
    2.9166   64.1130   64.1285 H   0  0  0  0  0  0
    3.2216   65.4959   65.1576 H   0  0  0  0  0  0
    5.5427   65.6728   64.3646 H   0  0  0  0  0  0
    5.3953   64.2326   63.4024 H   0  0  0  0  0  0
    5.3663   66.2981   62.0349 H   0  0  0  0  0  0
    3.9428   65.3412   61.8336 H   0  0  0  0  0  0
    3.1931   67.6251   61.9777 H   0  0  0  0  0  0
    2.7700   66.9080   63.4979 H   0  0  0  0  0  0
    4.9583   67.8728   64.4551 H   0  0  0  0  0  0
    5.0605   68.7910   62.9851 H   0  0  0  0  0  0
    2.5964   69.3779   63.5977 H   0  0  0  0  0  0
    5.8581   69.8063   65.1810 H   0  0  0  0  0  0
    7.3902   70.6667   66.8749 H   0  0  0  0  0  0
    6.5681   71.3351   69.0985 H   0  0  0  0  0  0
    4.1920   70.9654   69.7104 H   0  0  0  0  0  0
    0.6897   68.9076   64.2063 H   0  0  0  0  0  0
    1.1154   67.3198   64.7640 H   0  0  0  0  0  0
   -1.3852   68.1845   64.9485 H   0  0  0  0  0  0
   -0.7044   67.0917   66.1107 H   0  0  0  0  0  0
   -0.9633   70.1078   66.4913 H   0  0  0  0  0  0
   -1.9107   68.8752   67.2871 H   0  0  0  0  0  0
   -0.0577   69.6206   68.7670 H   0  0  0  0  0  0
    0.1313   67.9324   68.3649 H   0  0  0  0  0  0
  1  6  1  0  0  0
  1  2  2  0  0  0
  1 34  1  0  0  0
  2  3  1  0  0  0
  2 35  1  0  0  0
  3  4  2  0  0  0
  3 36  1  0  0  0
  4 10  1  0  0  0
  4  5  1  0  0  0
  5  6  2  0  0  0
  5  7  1  0  0  0
  6 37  1  0  0  0
  7  8  2  0  0  0
  7 11  1  0  0  0
  8  9  1  0  0  0
  8 38  1  0  0  0
  9 10  2  0  0  0
  9 39  1  0  0  0
 11 12  1  0  0  0
 11 40  1  0  0  0
 12 13  1  0  0  0
 12 41  1  0  0  0
 12 42  1  0  0  0
 13 14  1  0  0  0
 13 43  1  0  0  0
 13 44  1  0  0  0
 14 15  1  0  0  0
 14 45  1  0  0  0
 14 46  1  0  0  0
 15 16  1  0  0  0
 15 47  1  0  0  0
 15 48  1  0  0  0
 16 17  1  0  0  0
 16 49  1  0  0  0
 16 50  1  0  0  0
 17 18  1  0  0  0
 17 51  1  0  0  0
 17 52  1  0  0  0
 18 19  1  0  0  0
 18 53  1  0  0  0
 18 54  1  0  0  0
 19 20  1  0  0  0
 19 55  1  0  0  0
 20 29  1  0  0  0
 20 21  2  0  0  0
 21 26  1  0  0  0
 21 22  1  0  0  0
 22 23  2  0  0  0
 22 56  1  0  0  0
 23 24  1  0  0  0
 23 57  1  0  0  0
 24 25  2  0  0  0
 24 58  1  0  0  0
 25 26  1  0  0  0
 25 59  1  0  0  0
 26 27  2  0  0  0
 27 28  1  0  0  0
 28 33  1  0  0  0
 28 29  2  0  0  0
 29 30  1  0  0  0
 30 31  1  0  0  0
 30 60  1  0  0  0
 30 61  1  0  0  0
 31 32  1  0  0  0
 31 62  1  0  0  0
 31 63  1  0  0  0
 32 33  1  0  0  0
 32 64  1  0  0  0
 32 65  1  0  0  0
 33 66  1  0  0  0
 33 67  1  0  0  0
M  END
> <s_m_entry_id>
9925

> <s_m_entry_name>
ligand_docking-pose.367

> <s_m_Source_Path>
/home/csk/Desktop/cluster/DUD-E-result/aces

> <s_m_Source_File>
ligand_docking-pose.sdf

> <i_m_Source_File_Index>
367

> <i_lp_mmshare_version>
53161

> <r_lp_tautomer_probability>
1

> <s_lp_Force_Field>
OPLS_2005

> <r_lp_Energy>
34.117487

> <b_lp_Chiralities_Consistent>
1

> <s_lp_Variant>
630237-1

> <s_i_glide_gridfile>
glide-grid_1e66

> <i_i_glide_lignum>
250

> <i_i_glide_rotatable_bonds>
10

> <r_i_docking_score>
-6.91552465567202

> <r_i_glide_ligand_efficiency>
-0.209561353202182

> <r_i_glide_ligand_efficiency_sa>
-0.672175233852959

> <r_i_glide_ligand_efficiency_ln>
-1.53797687675112

> <r_i_glide_gscore>
-6.91552465567202

> <r_i_glide_lipo>
-4.90487688987908

> <r_i_glide_hbond>
0

> <r_i_glide_metal>
0

> <r_i_glide_rewards>
-1.1386324858126

> <r_i_glide_evdw>
-41.6503067016602

> <r_i_glide_ecoul>
2.69802117347717

> <r_i_glide_erotb>
0.829675778630701

> <r_i_glide_esite>
-0.0238788995496043

> <r_i_glide_emodel>
-30.182910383681

> <r_i_glide_energy>
-38.952285528183

> <r_i_glide_einternal>
24.8261165618896

> <i_i_glide_confnum>
13

> <i_i_glide_posenum>
123

> <r_i_glide_eff_state_penalty>
0

> <i_f3d_flags>
0

> <s_user_duplicate_titles>
630237

> <s_m_subgroup_title>
dock_pv

> <s_m_subgroupid>
dock_pv1

> <b_m_subgroup_collapsed>
1

$$$$
165029
                    3D
 Schrodinger Suite 2021-1.
 65 68  0  0  1  0            999 V2000
    6.2934   68.5061   62.7682 C   0  0  0  0  0  0
    4.9561   68.2942   63.3065 N   0  0  1  0  0  0
    4.8924   67.0867   64.1359 C   0  0  0  0  0  0
    3.4701   66.5165   64.1895 C   0  0  0  0  0  0
    2.6043   67.3237   64.9678 O   0  0  0  0  0  0
    1.2220   67.2083   64.6679 C   0  0  0  0  0  0
    0.5787   68.5079   65.1372 C   0  0  0  0  0  0
   -0.8786   68.5132   65.1125 N   0  0  0  0  0  0
   -1.6282   68.0679   66.1547 C   0  0  0  0  0  0
   -3.2318   68.5080   66.1013 S   0  0  0  0  0  0
   -0.9664   67.3280   67.1088 N   0  0  0  0  0  0
   -1.3545   66.8129   68.2976 C   0  0  0  0  0  0
   -2.4838   66.9080   68.7653 O   0  0  0  0  0  0
   -0.2985   66.1276   69.0169 C   0  0  0  0  0  0
   -0.4564   64.8479   69.4353 C   0  0  0  0  0  0
    0.6915   64.0257   70.0212 C   0  0  1  0  0  0
    1.7816   64.9051   70.6901 C   0  0  2  0  0  0
    1.9388   66.2589   70.0033 C   0  0  0  0  0  0
    0.9616   66.8109   69.2667 C   0  0  0  0  0  0
    3.0760   64.0885   70.9008 C   0  0  0  0  0  0
    4.2172   64.5084   70.7008 O   0  0  0  0  0  0
    2.8114   62.7080   71.4530 C   0  0  0  0  0  0
    3.8970   61.9393   71.9054 C   0  0  0  0  0  0
    3.6998   60.6928   72.4933 C   0  0  0  0  0  0
    2.4112   60.1877   72.6308 C   0  0  0  0  0  0
    1.3230   60.9133   72.1513 C   0  0  0  0  0  0
    1.5025   62.1509   71.5134 C   0  0  0  0  0  0
    0.2981   62.8635   70.9492 C   0  0  0  0  0  0
   -0.8570   62.5004   71.1667 O   0  0  0  0  0  0
    4.3563   69.5044   63.8982 C   0  0  0  0  0  0
    4.7373   69.8056   65.3516 C   0  0  0  0  0  0
    6.0254   70.2152   65.6695 C   0  0  0  0  0  0
    6.3741   70.5127   66.9822 C   0  0  0  0  0  0
    5.3945   70.5082   67.9686 C   0  0  0  0  0  0
    4.0964   70.1080   67.6654 C   0  0  0  0  0  0
    3.7876   69.7129   66.3686 C   0  0  0  0  0  0
    6.3403   69.4341   62.2054 H   0  0  0  0  0  0
    7.0483   68.5080   63.5509 H   0  0  0  0  0  0
    6.5450   67.7082   62.0690 H   0  0  0  0  0  0
    5.5424   66.3178   63.7152 H   0  0  0  0  0  0
    5.2729   67.3083   65.1324 H   0  0  0  0  0  0
    3.1431   66.5083   63.1580 H   0  0  0  0  0  0
    3.4623   65.4927   64.5658 H   0  0  0  0  0  0
    1.0201   67.1502   63.5991 H   0  0  0  0  0  0
    0.7995   66.3258   65.1508 H   0  0  0  0  0  0
    0.9119   68.7828   66.1359 H   0  0  0  0  0  0
    0.9355   69.3032   64.4812 H   0  0  0  0  0  0
   -1.3403   69.0551   64.3936 H   0  0  0  0  0  0
   -0.0112   67.1088   66.8736 H   0  0  0  0  0  0
   -1.3420   64.3041   69.1701 H   0  0  0  0  0  0
    1.1344   63.5163   69.1680 H   0  0  0  0  0  0
    1.4322   65.1444   71.6900 H   0  0  0  0  0  0
    2.7843   66.8777   70.2338 H   0  0  0  0  0  0
    1.1136   67.8170   68.8960 H   0  0  0  0  0  0
    4.9079   62.3204   71.8442 H   0  0  0  0  0  0
    4.5430   60.1258   72.8598 H   0  0  0  0  0  0
    2.2546   59.2275   73.1010 H   0  0  0  0  0  0
    0.3350   60.4829   72.2504 H   0  0  0  0  0  0
    4.5535   70.3820   63.2800 H   0  0  0  0  0  0
    3.2756   69.3786   63.8523 H   0  0  0  0  0  0
    6.7430   70.3324   64.8828 H   0  0  0  0  0  0
    7.3827   70.8148   67.2205 H   0  0  0  0  0  0
    5.6459   70.7909   68.9809 H   0  0  0  0  0  0
    3.3389   70.0890   68.4356 H   0  0  0  0  0  0
    2.7843   69.4280   66.1423 H   0  0  0  0  0  0
  1  2  1  0  0  0
  1 37  1  0  0  0
  1 38  1  0  0  0
  1 39  1  0  0  0
  2  3  1  0  0  0
  2 30  1  0  0  0
  3  4  1  0  0  0
  3 40  1  0  0  0
  3 41  1  0  0  0
  4  5  1  0  0  0
  4 42  1  0  0  0
  4 43  1  0  0  0
  5  6  1  0  0  0
  6  7  1  0  0  0
  6 44  1  0  0  0
  6 45  1  0  0  0
  7  8  1  0  0  0
  7 46  1  0  0  0
  7 47  1  0  0  0
  8  9  1  0  0  0
  8 48  1  0  0  0
  9 10  2  0  0  0
  9 11  1  0  0  0
 11 12  1  0  0  0
 11 49  1  0  0  0
 12 13  2  0  0  0
 12 14  1  0  0  0
 14 19  1  0  0  0
 14 15  2  0  0  0
 15 16  1  0  0  0
 15 50  1  0  0  0
 16 28  1  0  0  0
 16 17  1  0  0  0
 16 51  1  0  0  0
 17 18  1  0  0  0
 17 20  1  0  0  0
 17 52  1  0  0  0
 18 19  2  0  0  0
 18 53  1  0  0  0
 19 54  1  0  0  0
 20 21  2  0  0  0
 20 22  1  0  0  0
 22 27  2  0  0  0
 22 23  1  0  0  0
 23 24  2  0  0  0
 23 55  1  0  0  0
 24 25  1  0  0  0
 24 56  1  0  0  0
 25 26  2  0  0  0
 25 57  1  0  0  0
 26 27  1  0  0  0
 26 58  1  0  0  0
 27 28  1  0  0  0
 28 29  2  0  0  0
 30 31  1  0  0  0
 30 59  1  0  0  0
 30 60  1  0  0  0
 31 36  1  0  0  0
 31 32  2  0  0  0
 32 33  1  0  0  0
 32 61  1  0  0  0
 33 34  2  0  0  0
 33 62  1  0  0  0
 34 35  1  0  0  0
 34 63  1  0  0  0
 35 36  2  0  0  0
 35 64  1  0  0  0
 36 65  1  0  0  0
M  END
> <s_m_entry_id>
9927

> <s_m_entry_name>
ligand_docking-pose.369

> <s_m_Source_Path>
/home/csk/Desktop/cluster/DUD-E-result/aces

> <s_m_Source_File>
ligand_docking-pose.sdf

> <i_m_Source_File_Index>
369

> <i_lp_mmshare_version>
53161

> <r_lp_tautomer_probability>
1

> <s_lp_Force_Field>
OPLS_2005

> <r_lp_Energy>
60.917129

> <b_lp_Chiralities_Consistent>
1

> <s_lp_Variant>
165029-2

> <s_i_glide_gridfile>
glide-grid_1e66

> <i_i_glide_lignum>
1814

> <i_i_glide_rotatable_bonds>
12

> <r_i_docking_score>
-6.91449635963685

> <r_i_glide_ligand_efficiency>
-0.192069343323246

> <r_i_glide_ligand_efficiency_sa>
-0.634198997638768

> <r_i_glide_ligand_efficiency_ln>
-1.50855629756946

> <r_i_glide_gscore>
-6.91449635963685

> <r_i_glide_lipo>
-3.61566965982375

> <r_i_glide_hbond>
-0.0161128477226534

> <r_i_glide_metal>
0

> <r_i_glide_rewards>
-2.52976011368697

> <r_i_glide_evdw>
-37.5814018249512

> <r_i_glide_ecoul>
2.13442277908325

> <r_i_glide_erotb>
0.805952935981596

> <r_i_glide_esite>
0

> <r_i_glide_emodel>
-32.280512186797

> <r_i_glide_energy>
-35.4469790458679

> <r_i_glide_einternal>
15.0235538482666

> <i_i_glide_confnum>
4

> <i_i_glide_posenum>
2

> <r_i_glide_eff_state_penalty>
0

> <i_f3d_flags>
0

> <s_user_duplicate_titles>
165029

> <s_m_subgroup_title>
dock_pv

> <s_m_subgroupid>
dock_pv1

> <b_m_subgroup_collapsed>
1

$$$$
313481
                    3D
 Schrodinger Suite 2021-1.
 63 66  0  0  1  0            999 V2000
    2.3291   66.7478   65.9085 C   0  0  0  0  0  0
    1.8239   68.1866   66.1622 N   0  3  2  0  0  0
    1.9431   68.6470   67.6499 C   0  0  0  0  0  0
    1.4559   67.6571   68.7358 C   0  0  0  0  0  0
   -0.0296   67.3487   68.7679 C   0  0  1  0  0  0
   -0.7445   66.8450   67.5411 C   0  0  0  0  0  0
   -0.6391   67.3080   66.2928 C   0  0  0  0  0  0
    0.3443   68.2949   65.7075 C   0  0  0  0  0  0
   -0.3948   66.5249   70.0267 C   0  0  0  0  0  0
    0.1510   65.0826   70.1046 C   0  0  0  0  0  0
   -0.4570   64.1600   69.5680 O   0  0  0  0  0  0
    1.3446   64.7971   71.0256 C   0  0  1  0  0  0
    1.0679   63.6892   72.0629 C   0  0  0  0  0  0
    1.9444   62.5006   71.7554 C   0  0  0  0  0  0
    1.9495   61.2931   72.4556 C   0  0  0  0  0  0
    2.7741   60.2312   72.0469 C   0  0  0  0  0  0
    3.5806   60.4029   70.9100 C   0  0  0  0  0  0
    3.6218   61.6315   70.2513 C   0  0  0  0  0  0
    2.8085   62.6779   70.6756 C   0  0  0  0  0  0
    2.7318   64.2889   69.9683 S   0  0  0  0  0  0
    4.3432   59.3725   70.4205 O   0  0  0  0  0  0
    3.5838   58.3826   69.7387 C   0  0  0  0  0  0
    2.8367   59.0078   72.6900 O   0  0  0  0  0  0
    2.0670   58.7917   73.8677 C   0  0  0  0  0  0
    2.7423   69.1256   65.3248 C   0  0  0  0  0  0
    2.9181   68.8611   63.8317 C   0  0  0  0  0  0
    1.9398   69.2604   62.9166 C   0  0  0  0  0  0
    2.1603   69.1115   61.5537 C   0  0  0  0  0  0
    3.3683   68.5854   61.1078 C   0  0  0  0  0  0
    4.3433   68.1732   62.0088 C   0  0  0  0  0  0
    4.1192   68.3107   63.3740 C   0  0  0  0  0  0
    3.4121   66.7599   65.9680 H   0  0  0  0  0  0
    1.8796   66.1080   66.6557 H   0  0  0  0  0  0
    2.0137   66.4490   64.9079 H   0  0  0  0  0  0
    2.9869   68.9081   67.8294 H   0  0  0  0  0  0
    1.3937   69.5886   67.7133 H   0  0  0  0  0  0
    1.9430   66.6934   68.7675 H   0  0  0  0  0  0
    1.7237   68.1079   69.6936 H   0  0  0  0  0  0
   -0.4569   68.3434   68.7680 H   0  0  0  0  0  0
   -1.5363   66.1285   67.7139 H   0  0  0  0  0  0
   -1.3487   66.9082   65.5904 H   0  0  0  0  0  0
    0.0028   69.3081   65.8850 H   0  0  0  0  0  0
    0.3623   68.1077   64.6366 H   0  0  0  0  0  0
   -0.0791   67.0598   70.9223 H   0  0  0  0  0  0
   -1.4804   66.5081   70.0478 H   0  0  0  0  0  0
    1.6048   65.7314   71.5128 H   0  0  0  0  0  0
    1.2802   64.0652   73.0615 H   0  0  0  0  0  0
    0.0196   63.3827   72.0648 H   0  0  0  0  0  0
    1.2964   61.1822   73.3072 H   0  0  0  0  0  0
    4.2720   61.7556   69.3988 H   0  0  0  0  0  0
    4.2094   57.5091   69.5686 H   0  0  0  0  0  0
    2.7109   58.0422   70.2985 H   0  0  0  0  0  0
    3.2465   58.7545   68.7701 H   0  0  0  0  0  0
    2.2632   57.7878   74.2446 H   0  0  0  0  0  0
    2.3349   59.4969   74.6567 H   0  0  0  0  0  0
    0.9971   58.8651   73.6662 H   0  0  0  0  0  0
    2.3430   70.1080   65.4955 H   0  0  0  0  0  0
    3.7206   69.0989   65.8099 H   0  0  0  0  0  0
    1.0142   69.7070   63.2440 H   0  0  0  0  0  0
    1.4102   69.4276   60.8428 H   0  0  0  0  0  0
    3.5624   68.5079   60.0478 H   0  0  0  0  0  0
    5.2828   67.7831   61.6414 H   0  0  0  0  0  0
    4.8959   68.0250   64.0682 H   0  0  0  0  0  0
  1  2  1  0  0  0
  1 32  1  0  0  0
  1 33  1  0  0  0
  1 34  1  0  0  0
  2  8  1  0  0  0
  2  3  1  0  0  0
  2 25  1  0  0  0
  3  4  1  0  0  0
  3 35  1  0  0  0
  3 36  1  0  0  0
  4  5  1  0  0  0
  4 37  1  0  0  0
  4 38  1  0  0  0
  5  6  1  0  0  0
  5  9  1  0  0  0
  5 39  1  0  0  0
  6  7  2  0  0  0
  6 40  1  0  0  0
  7  8  1  0  0  0
  7 41  1  0  0  0
  8 42  1  0  0  0
  8 43  1  0  0  0
  9 10  1  0  0  0
  9 44  1  0  0  0
  9 45  1  0  0  0
 10 11  2  0  0  0
 10 12  1  0  0  0
 12 20  1  0  0  0
 12 13  1  0  0  0
 12 46  1  0  0  0
 13 14  1  0  0  0
 13 47  1  0  0  0
 13 48  1  0  0  0
 14 19  2  0  0  0
 14 15  1  0  0  0
 15 16  2  0  0  0
 15 49  1  0  0  0
 16 17  1  0  0  0
 16 23  1  0  0  0
 17 18  2  0  0  0
 17 21  1  0  0  0
 18 19  1  0  0  0
 18 50  1  0  0  0
 19 20  1  0  0  0
 21 22  1  0  0  0
 22 51  1  0  0  0
 22 52  1  0  0  0
 22 53  1  0  0  0
 23 24  1  0  0  0
 24 54  1  0  0  0
 24 55  1  0  0  0
 24 56  1  0  0  0
 25 26  1  0  0  0
 25 57  1  0  0  0
 25 58  1  0  0  0
 26 31  1  0  0  0
 26 27  2  0  0  0
 27 28  1  0  0  0
 27 59  1  0  0  0
 28 29  2  0  0  0
 28 60  1  0  0  0
 29 30  1  0  0  0
 29 61  1  0  0  0
 30 31  2  0  0  0
 30 62  1  0  0  0
 31 63  1  0  0  0
M  CHG  1   2   1
M  END
> <s_m_entry_id>
9928

> <s_m_entry_name>
ligand_docking-pose.370

> <s_m_Source_Path>
/home/csk/Desktop/cluster/DUD-E-result/aces

> <s_m_Source_File>
ligand_docking-pose.sdf

> <i_m_Source_File_Index>
370

> <i_lp_mmshare_version>
53161

> <r_lp_tautomer_probability>
0.999999960000001

> <s_lp_Force_Field>
OPLS_2005

> <r_lp_Energy>
49.42119

> <b_lp_Chiralities_Consistent>
1

> <s_lp_Variant>
313481-5

> <s_i_glide_gridfile>
glide-grid_1e66

> <i_i_glide_lignum>
1619

> <i_i_glide_rotatable_bonds>
7

> <r_i_docking_score>
-6.9142206038946

> <r_i_glide_ligand_efficiency>
-0.223039374319181

> <r_i_glide_ligand_efficiency_sa>
-0.700651574405746

> <r_i_glide_ligand_efficiency_ln>
-1.55936864159206

> <r_i_glide_gscore>
-6.9142206038946

> <r_i_glide_lipo>
-3.61817526959163

> <r_i_glide_hbond>
-0.32

> <r_i_glide_metal>
0

> <r_i_glide_rewards>
-1.49368394164462

> <r_i_glide_evdw>
-30.2708320617676

> <r_i_glide_ecoul>
-3.24916982650757

> <r_i_glide_erotb>
0.518555684406165

> <r_i_glide_esite>
0

> <r_i_glide_emodel>
-28.996962880665

> <r_i_glide_energy>
-33.5200018882751

> <r_i_glide_einternal>
12.0256729125977

> <i_i_glide_confnum>
27

> <i_i_glide_posenum>
338

> <r_i_glide_eff_state_penalty>
0

> <i_f3d_flags>
0

> <s_user_duplicate_titles>
313481

> <s_m_subgroup_title>
dock_pv

> <s_m_subgroupid>
dock_pv1

> <b_m_subgroup_collapsed>
1

$$$$
331726
                    3D
 Schrodinger Suite 2021-1.
 53 57  0  0  1  0            999 V2000
    0.3723   69.2671   60.3092 C   0  0  0  0  0  0
    1.3972   69.1307   61.3392 N   0  0  0  0  0  0
    2.8003   68.9391   60.8578 C   0  0  0  0  0  0
    3.9219   68.6981   61.8790 C   0  0  0  0  0  0
    4.1115   67.4402   62.4581 C   0  0  0  0  0  0
    4.9626   67.3051   63.5513 C   0  0  0  0  0  0
    5.6454   68.4181   64.0409 C   0  0  0  0  0  0
    5.5415   69.6468   63.4052 C   0  0  0  0  0  0
    4.6939   69.7757   62.3152 C   0  0  0  0  0  0
    0.9275   68.9731   62.6452 C   0  0  0  0  0  0
    1.7297   68.8979   63.6174 N   0  0  0  0  0  0
    1.2361   68.5028   64.7952 C   0  0  0  0  0  0
   -0.0746   68.2545   65.1514 C   0  0  0  0  0  0
   -0.2151   67.7521   66.4664 C   0  0  0  0  0  0
    1.0410   67.6391   67.0509 C   0  0  0  0  0  0
    2.3434   68.1084   65.9825 S   0  0  0  0  0  0
    1.2750   67.0410   68.4178 C   0  0  0  0  0  0
    0.0703   66.9084   69.2214 N   0  0  1  0  0  0
   -1.1054   66.4303   68.5082 C   0  0  0  0  0  0
   -1.4577   67.2569   67.2148 C   0  0  0  0  0  0
    0.3440   66.2918   70.5291 C   0  0  0  0  0  0
    0.9986   64.9050   70.4863 C   0  0  0  0  0  0
    0.2258   63.7420   70.4165 C   0  0  0  0  0  0
    0.8457   62.4969   70.3722 C   0  0  0  0  0  0
    2.2353   62.4116   70.3535 C   0  0  0  0  0  0
    3.0151   63.5645   70.3862 C   0  0  0  0  0  0
    2.3953   64.8088   70.4508 C   0  0  0  0  0  0
   -1.0530   68.5082   64.0942 C   0  0  0  0  0  0
   -2.2731   68.5080   64.1611 O   0  0  0  0  0  0
   -0.4502   68.8387   62.8628 O   0  0  0  0  0  0
   -0.2245   68.3683   60.3679 H   0  0  0  0  0  0
   -0.2615   70.1384   60.4798 H   0  0  0  0  0  0
    0.7431   69.3076   59.2906 H   0  0  0  0  0  0
    3.1056   69.8535   60.3677 H   0  0  0  0  0  0
    2.8303   68.1388   60.1217 H   0  0  0  0  0  0
    3.5428   66.5915   62.1192 H   0  0  0  0  0  0
    5.0616   66.3495   64.0430 H   0  0  0  0  0  0
    6.2894   68.3234   64.9026 H   0  0  0  0  0  0
    6.1047   70.4970   63.7631 H   0  0  0  0  0  0
    4.6117   70.7378   61.8410 H   0  0  0  0  0  0
    1.7238   66.0618   68.2629 H   0  0  0  0  0  0
    1.9425   67.6882   68.9844 H   0  0  0  0  0  0
   -0.9352   65.3677   68.3682 H   0  0  0  0  0  0
   -1.9688   66.4838   69.1721 H   0  0  0  0  0  0
   -2.0303   68.1335   67.5238 H   0  0  0  0  0  0
   -2.1618   66.7110   66.5850 H   0  0  0  0  0  0
    1.0303   66.9537   71.0520 H   0  0  0  0  0  0
   -0.5513   66.2799   71.1420 H   0  0  0  0  0  0
   -0.8529   63.7845   70.4118 H   0  0  0  0  0  0
    0.2501   61.5972   70.3563 H   0  0  0  0  0  0
    2.7094   61.4424   70.3145 H   0  0  0  0  0  0
    4.0931   63.4973   70.3679 H   0  0  0  0  0  0
    3.0029   65.7024   70.4750 H   0  0  0  0  0  0
  1  2  1  0  0  0
  1 31  1  0  0  0
  1 32  1  0  0  0
  1 33  1  0  0  0
  2  3  1  0  0  0
  2 10  1  0  0  0
  3  4  1  0  0  0
  3 34  1  0  0  0
  3 35  1  0  0  0
  4  9  1  0  0  0
  4  5  2  0  0  0
  5  6  1  0  0  0
  5 36  1  0  0  0
  6  7  2  0  0  0
  6 37  1  0  0  0
  7  8  1  0  0  0
  7 38  1  0  0  0
  8  9  2  0  0  0
  8 39  1  0  0  0
  9 40  1  0  0  0
 10 30  1  0  0  0
 10 11  2  0  0  0
 11 12  1  0  0  0
 12 16  1  0  0  0
 12 13  2  0  0  0
 13 14  1  0  0  0
 13 28  1  0  0  0
 14 20  1  0  0  0
 14 15  2  0  0  0
 15 16  1  0  0  0
 15 17  1  0  0  0
 17 18  1  0  0  0
 17 41  1  0  0  0
 17 42  1  0  0  0
 18 19  1  0  0  0
 18 21  1  0  0  0
 19 20  1  0  0  0
 19 43  1  0  0  0
 19 44  1  0  0  0
 20 45  1  0  0  0
 20 46  1  0  0  0
 21 22  1  0  0  0
 21 47  1  0  0  0
 21 48  1  0  0  0
 22 27  1  0  0  0
 22 23  2  0  0  0
 23 24  1  0  0  0
 23 49  1  0  0  0
 24 25  2  0  0  0
 24 50  1  0  0  0
 25 26  1  0  0  0
 25 51  1  0  0  0
 26 27  2  0  0  0
 26 52  1  0  0  0
 27 53  1  0  0  0
 28 29  2  0  0  0
 28 30  1  0  0  0
M  END
> <s_m_entry_id>
9930

> <s_m_entry_name>
ligand_docking-pose.372

> <s_m_Source_Path>
/home/csk/Desktop/cluster/DUD-E-result/aces

> <s_m_Source_File>
ligand_docking-pose.sdf

> <i_m_Source_File_Index>
372

> <i_lp_mmshare_version>
53161

> <r_lp_tautomer_probability>
1

> <s_lp_Force_Field>
OPLS_2005

> <r_lp_Energy>
37.833511

> <b_lp_Chiralities_Consistent>
1

> <s_lp_Variant>
331726-1

> <s_i_glide_gridfile>
glide-grid_1e66

> <i_i_glide_lignum>
1703

> <i_i_glide_rotatable_bonds>
5

> <r_i_docking_score>
-6.91044477025351

> <r_i_glide_ligand_efficiency>
-0.23034815900845

> <r_i_glide_ligand_efficiency_sa>
-0.715745286546221

> <r_i_glide_ligand_efficiency_ln>
-1.57012834712805

> <r_i_glide_gscore>
-6.91044477025351

> <r_i_glide_lipo>
-4.45506932959961

> <r_i_glide_hbond>
0

> <r_i_glide_metal>
0

> <r_i_glide_rewards>
-1.75513758518182

> <r_i_glide_evdw>
-34.8869743347168

> <r_i_glide_ecoul>
3.18125700950623

> <r_i_glide_erotb>
0.566922309837826

> <r_i_glide_esite>
0

> <r_i_glide_emodel>
-33.5432264561571

> <r_i_glide_energy>
-31.7057173252106

> <r_i_glide_einternal>
12.1126270294189

> <i_i_glide_confnum>
86

> <i_i_glide_posenum>
42

> <r_i_glide_eff_state_penalty>
0

> <i_f3d_flags>
0

> <s_user_duplicate_titles>
331726

> <s_m_subgroup_title>
dock_pv

> <s_m_subgroupid>
dock_pv1

> <b_m_subgroup_collapsed>
1

$$$$
676827
                    3D
 Schrodinger Suite 2021-1.
 56 59  0  0  1  0            999 V2000
    2.0628   58.0440   74.1357 C   0  0  0  0  0  0
    1.4738   57.8238   72.8915 C   0  0  0  0  0  0
    2.0727   58.3387   71.7437 C   0  0  0  0  0  0
    3.2649   59.0623   71.8444 C   0  0  0  0  0  0
    3.8362   59.2983   73.0980 C   0  0  0  0  0  0
    3.2398   58.7808   74.2443 C   0  0  0  0  0  0
    3.9012   59.6607   70.5934 C   0  0  0  0  0  0
    3.5412   61.0581   70.3248 N   0  0  1  0  0  0
    2.1126   61.2722   70.0448 C   0  0  0  0  0  0
    1.8633   62.7159   69.5626 C   0  0  0  0  0  0
    2.3858   63.7704   70.5583 C   0  0  0  0  0  0
    3.8819   63.4666   70.7862 C   0  0  0  0  0  0
    4.1151   62.0248   71.2743 C   0  0  0  0  0  0
    2.2099   65.2247   70.0685 C   0  0  0  0  0  0
    0.7716   65.7412   69.8535 C   0  0  0  0  0  0
    0.7429   67.1774   69.5679 N   0  0  0  0  0  0
    0.9121   67.6732   68.2659 C   0  0  0  0  0  0
    1.5439   68.9071   68.1069 C   0  0  0  0  0  0
    1.9511   69.2797   66.8283 C   0  0  0  0  0  0
    1.6540   68.4301   65.7584 C   0  0  0  0  0  0
    0.9350   67.2894   65.9507 N   0  0  0  0  0  0
    0.5877   66.9084   67.1903 N   0  0  0  0  0  0
    2.1361   68.6849   64.3722 C   0  0  0  0  0  0
    3.4576   69.0992   64.1537 C   0  0  0  0  0  0
    3.9329   69.3024   62.8604 C   0  0  0  0  0  0
    3.0819   69.1140   61.7763 C   0  0  0  0  0  0
    1.7576   68.7289   61.9745 C   0  0  0  0  0  0
    1.2899   68.5079   63.2689 C   0  0  0  0  0  0
    3.5430   69.3079   60.5216 F   0  0  0  0  0  0
    1.5951   57.6449   75.0250 H   0  0  0  0  0  0
    0.5525   57.2614   72.8162 H   0  0  0  0  0  0
    1.6106   58.1784   70.7790 H   0  0  0  0  0  0
    4.7383   59.8822   73.1831 H   0  0  0  0  0  0
    3.6849   58.9513   75.2144 H   0  0  0  0  0  0
    4.9866   59.5915   70.6808 H   0  0  0  0  0  0
    3.6094   59.0649   69.7263 H   0  0  0  0  0  0
    1.7979   60.5789   69.2640 H   0  0  0  0  0  0
    1.5187   61.0400   70.9308 H   0  0  0  0  0  0
    2.3432   62.8427   68.5910 H   0  0  0  0  0  0
    0.8029   62.8748   69.3645 H   0  0  0  0  0  0
    1.8614   63.6346   71.5061 H   0  0  0  0  0  0
    4.2876   64.1750   71.5066 H   0  0  0  0  0  0
    4.4702   63.6477   69.8836 H   0  0  0  0  0  0
    3.6922   61.8741   72.2688 H   0  0  0  0  0  0
    5.1891   61.8513   71.3569 H   0  0  0  0  0  0
    2.7194   65.8917   70.7658 H   0  0  0  0  0  0
    2.7457   65.3096   69.1248 H   0  0  0  0  0  0
    0.2746   65.1630   69.0740 H   0  0  0  0  0  0
    0.1672   65.5611   70.7416 H   0  0  0  0  0  0
    0.9868   67.8153   70.3168 H   0  0  0  0  0  0
    1.7964   69.5192   68.9621 H   0  0  0  0  0  0
    2.5130   70.1886   66.6816 H   0  0  0  0  0  0
    4.1303   69.2449   64.9868 H   0  0  0  0  0  0
    4.9541   69.6104   62.6923 H   0  0  0  0  0  0
    1.1010   68.5887   61.1288 H   0  0  0  0  0  0
    0.2638   68.1964   63.4126 H   0  0  0  0  0  0
  1  6  1  0  0  0
  1  2  2  0  0  0
  1 30  1  0  0  0
  2  3  1  0  0  0
  2 31  1  0  0  0
  3  4  2  0  0  0
  3 32  1  0  0  0
  4  5  1  0  0  0
  4  7  1  0  0  0
  5  6  2  0  0  0
  5 33  1  0  0  0
  6 34  1  0  0  0
  7  8  1  0  0  0
  7 35  1  0  0  0
  7 36  1  0  0  0
  8 13  1  0  0  0
  8  9  1  0  0  0
  9 10  1  0  0  0
  9 37  1  0  0  0
  9 38  1  0  0  0
 10 11  1  0  0  0
 10 39  1  0  0  0
 10 40  1  0  0  0
 11 12  1  0  0  0
 11 14  1  0  0  0
 11 41  1  0  0  0
 12 13  1  0  0  0
 12 42  1  0  0  0
 12 43  1  0  0  0
 13 44  1  0  0  0
 13 45  1  0  0  0
 14 15  1  0  0  0
 14 46  1  0  0  0
 14 47  1  0  0  0
 15 16  1  0  0  0
 15 48  1  0  0  0
 15 49  1  0  0  0
 16 17  1  0  0  0
 16 50  1  0  0  0
 17 22  1  0  0  0
 17 18  2  0  0  0
 18 19  1  0  0  0
 18 51  1  0  0  0
 19 20  2  0  0  0
 19 52  1  0  0  0
 20 21  1  0  0  0
 20 23  1  0  0  0
 21 22  2  0  0  0
 23 28  1  0  0  0
 23 24  2  0  0  0
 24 25  1  0  0  0
 24 53  1  0  0  0
 25 26  2  0  0  0
 25 54  1  0  0  0
 26 27  1  0  0  0
 26 29  1  0  0  0
 27 28  2  0  0  0
 27 55  1  0  0  0
 28 56  1  0  0  0
M  END
> <s_m_entry_id>
9931

> <s_m_entry_name>
ligand_docking-pose.373

> <s_m_Source_Path>
/home/csk/Desktop/cluster/DUD-E-result/aces

> <s_m_Source_File>
ligand_docking-pose.sdf

> <i_m_Source_File_Index>
373

> <i_lp_mmshare_version>
53161

> <r_lp_tautomer_probability>
0.999978240473126

> <s_lp_Force_Field>
OPLS_2005

> <r_lp_Energy>
33.12041

> <b_lp_Chiralities_Consistent>
1

> <s_lp_Variant>
676827-1

> <s_i_glide_gridfile>
glide-grid_1e66

> <i_i_glide_lignum>
414

> <i_i_glide_rotatable_bonds>
7

> <r_i_docking_score>
-6.90934410952332

> <r_i_glide_ligand_efficiency>
-0.238253245155977

> <r_i_glide_ligand_efficiency_sa>
-0.731989453045354

> <r_i_glide_ligand_efficiency_ln>
-1.5820645952314

> <r_i_glide_gscore>
-6.90934410952332

> <r_i_glide_lipo>
-4.0921053083693

> <r_i_glide_hbond>
-0.0535418704039377

> <r_i_glide_metal>
0

> <r_i_glide_rewards>
-1.34938135318888

> <r_i_glide_evdw>
-44.5061302185059

> <r_i_glide_ecoul>
-0.127934351563454

> <r_i_glide_erotb>
0.89538806183708

> <r_i_glide_esite>
-0.0652069757384764

> <r_i_glide_emodel>
-53.3504249226402

> <r_i_glide_energy>
-44.6340645700693

> <r_i_glide_einternal>
15.6280422210693

> <i_i_glide_confnum>
40

> <i_i_glide_posenum>
279

> <r_i_glide_eff_state_penalty>
0

> <i_f3d_flags>
0

> <s_user_duplicate_titles>
676827

> <s_m_subgroup_title>
dock_pv

> <s_m_subgroupid>
dock_pv1

> <b_m_subgroup_collapsed>
1

$$$$
458443
                    3D
 Schrodinger Suite 2021-1.
 50 53  0  0  1  0            999 V2000
    2.6663   61.2350   74.0754 C   0  0  0  0  0  0
    3.5345   61.5145   72.9816 O   0  0  0  0  0  0
    3.1430   62.4175   72.0076 C   0  0  0  0  0  0
    2.0025   63.2321   72.1269 C   0  0  0  0  0  0
    1.7365   64.1729   71.1386 C   0  0  0  0  0  0
    2.5342   64.2875   70.0329 C   0  0  0  0  0  0
    3.6732   63.5030   69.8793 C   0  0  0  0  0  0
    3.9775   62.5676   70.8794 C   0  0  0  0  0  0
    5.1430   61.8515   70.7680 O   0  0  0  0  0  0
    4.9871   60.4535   70.5665 C   0  0  0  0  0  0
    2.0696   65.2385   69.1680 O   0  0  0  0  0  0
    0.9286   65.7638   69.6875 C   0  0  0  0  0  0
    0.0827   66.6196   69.0634 C   0  0  0  0  0  0
    0.1118   67.2130   67.6979 C   0  0  0  0  0  0
   -0.9556   68.0325   67.3023 C   0  0  0  0  0  0
   -0.9884   68.6202   66.0396 C   0  0  0  0  0  0
    0.0484   68.3919   65.1405 C   0  0  0  0  0  0
    1.1127   67.5608   65.4953 C   0  0  0  0  0  0
    1.1338   66.9768   66.7680 C   0  0  0  0  0  0
    2.2454   67.3141   64.5048 C   0  0  0  0  0  0
    3.5127   67.9117   64.9278 N   0  0  0  0  0  0
    3.5160   69.3694   64.9564 C   0  0  0  0  0  0
    4.9924   69.7644   65.0381 C   0  0  0  0  0  0
    5.7350   68.5678   64.4380 C   0  0  0  0  0  0
    4.6182   67.6040   64.0322 C   0  0  0  0  0  0
    0.7430   65.2229   71.0343 C   0  0  0  0  0  0
   -0.0570   65.6025   71.8822 O   0  0  0  0  0  0
    3.1264   60.4811   74.7142 H   0  0  0  0  0  0
    2.4873   62.1172   74.6903 H   0  0  0  0  0  0
    1.7088   60.8399   73.7329 H   0  0  0  0  0  0
    1.3621   63.1755   72.9945 H   0  0  0  0  0  0
    4.3228   63.6187   69.0250 H   0  0  0  0  0  0
    5.9431   59.9740   70.7680 H   0  0  0  0  0  0
    4.2479   59.9835   71.2158 H   0  0  0  0  0  0
    4.7127   60.2455   69.5314 H   0  0  0  0  0  0
   -0.7783   66.9080   69.6461 H   0  0  0  0  0  0
   -1.7826   68.2262   67.9680 H   0  0  0  0  0  0
   -1.8173   69.2541   65.7582 H   0  0  0  0  0  0
    0.0135   68.8543   64.1649 H   0  0  0  0  0  0
    1.9430   66.3139   67.0153 H   0  0  0  0  0  0
    1.9700   67.7080   63.5241 H   0  0  0  0  0  0
    2.3691   66.2366   64.3919 H   0  0  0  0  0  0
    2.9478   69.7083   65.8241 H   0  0  0  0  0  0
    3.0107   69.8046   64.0918 H   0  0  0  0  0  0
    5.2912   69.9428   66.0720 H   0  0  0  0  0  0
    5.1853   70.6804   64.4789 H   0  0  0  0  0  0
    6.3422   68.8568   63.5785 H   0  0  0  0  0  0
    6.4028   68.1086   65.1680 H   0  0  0  0  0  0
    4.3408   67.6986   62.9799 H   0  0  0  0  0  0
    4.8976   66.5584   64.1655 H   0  0  0  0  0  0
  1  2  1  0  0  0
  1 28  1  0  0  0
  1 29  1  0  0  0
  1 30  1  0  0  0
  2  3  1  0  0  0
  3  8  1  0  0  0
  3  4  2  0  0  0
  4  5  1  0  0  0
  4 31  1  0  0  0
  5 26  1  0  0  0
  5  6  2  0  0  0
  6  7  1  0  0  0
  6 11  1  0  0  0
  7  8  2  0  0  0
  7 32  1  0  0  0
  8  9  1  0  0  0
  9 10  1  0  0  0
 10 33  1  0  0  0
 10 34  1  0  0  0
 10 35  1  0  0  0
 11 12  1  0  0  0
 12 13  2  0  0  0
 12 26  1  0  0  0
 13 14  1  0  0  0
 13 36  1  0  0  0
 14 19  1  0  0  0
 14 15  2  0  0  0
 15 16  1  0  0  0
 15 37  1  0  0  0
 16 17  2  0  0  0
 16 38  1  0  0  0
 17 18  1  0  0  0
 17 39  1  0  0  0
 18 19  2  0  0  0
 18 20  1  0  0  0
 19 40  1  0  0  0
 20 21  1  0  0  0
 20 41  1  0  0  0
 20 42  1  0  0  0
 21 25  1  0  0  0
 21 22  1  0  0  0
 22 23  1  0  0  0
 22 43  1  0  0  0
 22 44  1  0  0  0
 23 24  1  0  0  0
 23 45  1  0  0  0
 23 46  1  0  0  0
 24 25  1  0  0  0
 24 47  1  0  0  0
 24 48  1  0  0  0
 25 49  1  0  0  0
 25 50  1  0  0  0
 26 27  2  0  0  0
M  END
> <s_m_entry_id>
9933

> <s_m_entry_name>
ligand_docking-pose.375

> <s_m_Source_Path>
/home/csk/Desktop/cluster/DUD-E-result/aces

> <s_m_Source_File>
ligand_docking-pose.sdf

> <i_m_Source_File_Index>
375

> <i_lp_mmshare_version>
53161

> <r_lp_tautomer_probability>
1

> <s_lp_Force_Field>
OPLS_2005

> <r_lp_Energy>
55.825987

> <b_lp_Chiralities_Consistent>
1

> <s_lp_Variant>
458443-1

> <s_i_glide_gridfile>
glide-grid_1e66

> <i_i_glide_lignum>
2006

> <i_i_glide_rotatable_bonds>
5

> <r_i_docking_score>
-6.90284383949285

> <r_i_glide_ligand_efficiency>
-0.25566088294418

> <r_i_glide_ligand_efficiency_sa>
-0.766982647989922

> <r_i_glide_ligand_efficiency_ln>
-1.60686824355911

> <r_i_glide_gscore>
-6.90284383949285

> <r_i_glide_lipo>
-3.51762299143645

> <r_i_glide_hbond>
0

> <r_i_glide_metal>
0

> <r_i_glide_rewards>
-1.98874790111476

> <r_i_glide_evdw>
-36.9259872436523

> <r_i_glide_ecoul>
0.117772817611694

> <r_i_glide_erotb>
0.432160492599228

> <r_i_glide_esite>
0

> <r_i_glide_emodel>
-45.4998022770126

> <r_i_glide_energy>
-36.8082144260406

> <r_i_glide_einternal>
6.52107095718384

> <i_i_glide_confnum>
10

> <i_i_glide_posenum>
129

> <r_i_glide_eff_state_penalty>
0

> <i_f3d_flags>
0

> <s_user_duplicate_titles>
458443

> <s_m_subgroup_title>
dock_pv

> <s_m_subgroupid>
dock_pv1

> <b_m_subgroup_collapsed>
1

$$$$
175885
                    3D
 Schrodinger Suite 2021-1.
 66 68  0  0  1  0            999 V2000
    1.5313   63.4907   75.2612 C   0  0  0  0  0  0
    0.7184   63.3569   73.9644 C   0  0  0  0  0  0
    1.4764   62.9614   72.7577 N   0  0  2  0  0  0
    0.5461   62.8538   71.6144 C   0  0  0  0  0  0
   -0.0458   64.1900   71.1254 C   0  0  0  0  0  0
    0.8859   65.1611   70.3734 C   0  0  0  0  0  0
    0.2462   66.5636   70.2366 C   0  0  0  0  0  0
    0.8588   67.4606   69.1368 C   0  0  0  0  0  0
    0.1424   67.4322   67.7710 C   0  0  0  0  0  0
   -0.9706   66.9080   67.6741 O   0  0  0  0  0  0
    0.8724   67.9901   66.5878 C   0  0  0  0  0  0
    2.0791   68.6861   66.7191 C   0  0  0  0  0  0
    2.8038   69.0498   65.5879 C   0  0  0  0  0  0
    2.3168   68.7770   64.3048 C   0  0  0  0  0  0
    1.0585   68.1795   64.1800 C   0  0  0  0  0  0
    0.3464   67.7933   65.3089 C   0  0  0  0  0  0
    3.0804   69.0819   63.1696 N   0  0  0  0  0  0
    4.4697   69.5510   63.1712 C   0  0  0  0  0  0
    4.9203   69.7370   61.7254 C   0  0  0  0  0  0
    3.9424   68.8842   60.9463 C   0  0  0  0  0  0
    2.6681   68.9553   61.7718 C   0  0  0  0  0  0
    2.2056   61.6958   72.9886 C   0  0  0  0  0  0
    2.8559   61.0355   71.7623 C   0  0  0  0  0  0
    2.7640   59.6414   71.6544 C   0  0  0  0  0  0
    3.2412   58.9805   70.5269 C   0  0  0  0  0  0
    3.8110   59.7107   69.4910 C   0  0  0  0  0  0
    3.9427   61.0936   69.6018 C   0  0  0  0  0  0
    3.5203   61.7707   70.7592 C   0  0  0  0  0  0
    3.7059   63.1280   70.9552 O   0  0  0  0  0  0
    4.3785   63.9120   69.9767 C   0  0  0  0  0  0
    0.8951   63.8505   76.0699 H   0  0  0  0  0  0
    1.9430   62.5364   75.5861 H   0  0  0  0  0  0
    2.3430   64.2088   75.1592 H   0  0  0  0  0  0
    0.2657   64.3338   73.8121 H   0  0  0  0  0  0
   -0.1023   62.6567   74.1342 H   0  0  0  0  0  0
   -0.2547   62.1455   71.8349 H   0  0  0  0  0  0
    1.0605   62.4406   70.7496 H   0  0  0  0  0  0
   -0.4712   64.7266   71.9655 H   0  0  0  0  0  0
   -0.8544   63.9396   70.4407 H   0  0  0  0  0  0
    1.1102   64.7477   69.3897 H   0  0  0  0  0  0
    1.8396   65.2474   70.8953 H   0  0  0  0  0  0
    0.3429   67.0801   71.1858 H   0  0  0  0  0  0
   -0.8340   66.4892   70.1055 H   0  0  0  0  0  0
    1.9085   67.2013   69.0335 H   0  0  0  0  0  0
    0.8542   68.5047   69.4525 H   0  0  0  0  0  0
    2.5025   68.9080   67.6879 H   0  0  0  0  0  0
    3.7548   69.5427   65.7213 H   0  0  0  0  0  0
    0.6245   67.9806   63.2125 H   0  0  0  0  0  0
   -0.6090   67.3083   65.1772 H   0  0  0  0  0  0
    5.1258   68.8427   63.6789 H   0  0  0  0  0  0
    4.5296   70.5077   63.6928 H   0  0  0  0  0  0
    5.9430   69.3958   61.5742 H   0  0  0  0  0  0
    4.8731   70.7816   61.4206 H   0  0  0  0  0  0
    3.8007   69.2502   59.9298 H   0  0  0  0  0  0
    4.2842   67.8506   60.8673 H   0  0  0  0  0  0
    2.0274   69.7857   61.4671 H   0  0  0  0  0  0
    2.1273   68.0205   61.6275 H   0  0  0  0  0  0
    2.9861   61.8355   73.7379 H   0  0  0  0  0  0
    1.4944   60.9814   73.4070 H   0  0  0  0  0  0
    2.2829   59.0650   72.4318 H   0  0  0  0  0  0
    3.1370   57.9080   70.4432 H   0  0  0  0  0  0
    4.1422   59.2072   68.5954 H   0  0  0  0  0  0
    4.3678   61.6340   68.7747 H   0  0  0  0  0  0
    4.4358   64.9428   70.3270 H   0  0  0  0  0  0
    5.3988   63.5656   69.8136 H   0  0  0  0  0  0
    3.8403   63.9176   69.0274 H   0  0  0  0  0  0
  1  2  1  0  0  0
  1 31  1  0  0  0
  1 32  1  0  0  0
  1 33  1  0  0  0
  2  3  1  0  0  0
  2 34  1  0  0  0
  2 35  1  0  0  0
  3  4  1  0  0  0
  3 22  1  0  0  0
  4  5  1  0  0  0
  4 36  1  0  0  0
  4 37  1  0  0  0
  5  6  1  0  0  0
  5 38  1  0  0  0
  5 39  1  0  0  0
  6  7  1  0  0  0
  6 40  1  0  0  0
  6 41  1  0  0  0
  7  8  1  0  0  0
  7 42  1  0  0  0
  7 43  1  0  0  0
  8  9  1  0  0  0
  8 44  1  0  0  0
  8 45  1  0  0  0
  9 10  2  0  0  0
  9 11  1  0  0  0
 11 16  1  0  0  0
 11 12  2  0  0  0
 12 13  1  0  0  0
 12 46  1  0  0  0
 13 14  2  0  0  0
 13 47  1  0  0  0
 14 15  1  0  0  0
 14 17  1  0  0  0
 15 16  2  0  0  0
 15 48  1  0  0  0
 16 49  1  0  0  0
 17 21  1  0  0  0
 17 18  1  0  0  0
 18 19  1  0  0  0
 18 50  1  0  0  0
 18 51  1  0  0  0
 19 20  1  0  0  0
 19 52  1  0  0  0
 19 53  1  0  0  0
 20 21  1  0  0  0
 20 54  1  0  0  0
 20 55  1  0  0  0
 21 56  1  0  0  0
 21 57  1  0  0  0
 22 23  1  0  0  0
 22 58  1  0  0  0
 22 59  1  0  0  0
 23 28  1  0  0  0
 23 24  2  0  0  0
 24 25  1  0  0  0
 24 60  1  0  0  0
 25 26  2  0  0  0
 25 61  1  0  0  0
 26 27  1  0  0  0
 26 62  1  0  0  0
 27 28  2  0  0  0
 27 63  1  0  0  0
 28 29  1  0  0  0
 29 30  1  0  0  0
 30 64  1  0  0  0
 30 65  1  0  0  0
 30 66  1  0  0  0
M  END
> <s_m_entry_id>
9934

> <s_m_entry_name>
ligand_docking-pose.376

> <s_m_Source_Path>
/home/csk/Desktop/cluster/DUD-E-result/aces

> <s_m_Source_File>
ligand_docking-pose.sdf

> <i_m_Source_File_Index>
376

> <i_lp_mmshare_version>
53161

> <r_lp_tautomer_probability>
0.99990000499975

> <s_lp_Force_Field>
OPLS_2005

> <r_lp_Energy>
58.873538

> <b_lp_Chiralities_Consistent>
1

> <s_lp_Variant>
175885-1

> <s_i_glide_gridfile>
glide-grid_1e66

> <i_i_glide_lignum>
1320

> <i_i_glide_rotatable_bonds>
12

> <r_i_docking_score>
-6.89794243513779

> <r_i_glide_ligand_efficiency>
-0.229931414504593

> <r_i_glide_ligand_efficiency_sa>
-0.714450364478626

> <r_i_glide_ligand_efficiency_ln>
-1.56728768036591

> <r_i_glide_gscore>
-6.89794243513779

> <r_i_glide_lipo>
-3.61425563347706

> <r_i_glide_hbond>
0

> <r_i_glide_metal>
0

> <r_i_glide_rewards>
-1.94981584466562

> <r_i_glide_evdw>
-46.080135345459

> <r_i_glide_ecoul>
-1.39284610748291

> <r_i_glide_erotb>
1.17906272640028

> <r_i_glide_esite>
0

> <r_i_glide_emodel>
-61.4709520265691

> <r_i_glide_energy>
-47.4729814529419

> <r_i_glide_einternal>
10.0980396270752

> <i_i_glide_confnum>
27

> <i_i_glide_posenum>
290

> <r_i_glide_eff_state_penalty>
0

> <i_f3d_flags>
0

> <s_user_duplicate_titles>
175885

> <s_m_subgroup_title>
dock_pv

> <s_m_subgroupid>
dock_pv1

> <b_m_subgroup_collapsed>
1

$$$$
569629
                    3D
 Schrodinger Suite 2021-1.
 39 42  0  0  1  0            999 V2000
    4.8206   63.4559   63.5180 C   0  0  0  0  0  0
    3.9597   64.3613   64.4104 C   0  0  0  0  0  0
    3.7784   65.8135   63.9682 C   0  0  0  0  0  0
    4.5410   66.4213   63.0235 C   0  0  0  0  0  0
    4.2943   67.8344   62.4868 C   0  0  2  0  0  0
    5.1319   68.8929   63.2374 C   0  0  0  0  0  0
    4.6052   69.2032   64.6404 C   0  0  0  0  0  0
    3.2853   68.8758   65.0256 C   0  0  0  0  0  0
    2.8361   69.2562   66.2991 C   0  0  0  0  0  0
    3.7315   69.9118   67.1729 C   0  0  0  0  0  0
    3.3888   70.3554   68.4756 C   0  0  0  0  0  0
    4.3782   70.9080   69.2711 C   0  0  0  0  0  0
    5.6725   71.0347   68.7679 C   0  0  0  0  0  0
    6.0300   70.6615   67.5205 N   0  0  0  0  0  0
    5.0724   70.1082   66.7325 C   0  0  0  0  0  0
    5.4906   69.7584   65.4964 N   0  0  0  0  0  0
    1.5436   68.9145   66.7240 N   0  0  0  0  0  0
    2.4274   68.0040   64.1105 C   0  0  1  0  0  0
    2.8002   68.1731   62.6278 C   0  0  0  0  0  0
    2.5612   66.5270   64.5839 C   0  0  0  0  0  0
    4.9286   62.4742   63.9681 H   0  0  0  0  0  0
    5.8279   63.8433   63.3724 H   0  0  0  0  0  0
    4.3424   63.3109   62.5484 H   0  0  0  0  0  0
    2.9687   63.9078   64.4719 H   0  0  0  0  0  0
    4.3437   64.3498   65.4292 H   0  0  0  0  0  0
    5.3790   65.8901   62.6075 H   0  0  0  0  0  0
    4.5607   67.8435   61.4285 H   0  0  0  0  0  0
    6.1862   68.6136   63.2641 H   0  0  0  0  0  0
    5.0911   69.8238   62.6707 H   0  0  0  0  0  0
    2.3865   70.2299   68.8606 H   0  0  0  0  0  0
    4.1317   71.1999   70.2815 H   0  0  0  0  0  0
    6.4643   71.4471   69.3758 H   0  0  0  0  0  0
    1.2347   69.1783   67.6497 H   0  0  0  0  0  0
    0.9257   68.4325   66.0888 H   0  0  0  0  0  0
    1.3908   68.3234   64.2261 H   0  0  0  0  0  0
    2.6228   69.2064   62.3218 H   0  0  0  0  0  0
    2.1768   67.5817   61.9684 H   0  0  0  0  0  0
    1.6538   65.9665   64.3681 H   0  0  0  0  0  0
    2.6221   66.4545   65.6707 H   0  0  0  0  0  0
  1  2  1  0  0  0
  1 21  1  0  0  0
  1 22  1  0  0  0
  1 23  1  0  0  0
  2  3  1  0  0  0
  2 24  1  0  0  0
  2 25  1  0  0  0
  3 20  1  0  0  0
  3  4  2  0  0  0
  4  5  1  0  0  0
  4 26  1  0  0  0
  5 19  1  0  0  0
  5  6  1  0  0  0
  5 27  1  0  0  0
  6  7  1  0  0  0
  6 28  1  0  0  0
  6 29  1  0  0  0
  7 16  2  0  0  0
  7  8  1  0  0  0
  8  9  2  0  0  0
  8 18  1  0  0  0
  9 10  1  0  0  0
  9 17  1  0  0  0
 10 15  2  0  0  0
 10 11  1  0  0  0
 11 12  2  0  0  0
 11 30  1  0  0  0
 12 13  1  0  0  0
 12 31  1  0  0  0
 13 14  2  0  0  0
 13 32  1  0  0  0
 14 15  1  0  0  0
 15 16  1  0  0  0
 17 33  1  0  0  0
 17 34  1  0  0  0
 18 19  1  0  0  0
 18 20  1  0  0  0
 18 35  1  0  0  0
 19 36  1  0  0  0
 19 37  1  0  0  0
 20 38  1  0  0  0
 20 39  1  0  0  0
M  END
> <s_m_entry_id>
9935

> <s_m_entry_name>
ligand_docking-pose.377

> <s_m_Source_Path>
/home/csk/Desktop/cluster/DUD-E-result/aces

> <s_m_Source_File>
ligand_docking-pose.sdf

> <i_m_Source_File_Index>
377

> <i_lp_mmshare_version>
53161

> <r_lp_tautomer_probability>
1

> <s_lp_Force_Field>
OPLS_2005

> <r_lp_Energy>
21.610413

> <b_lp_Chiralities_Consistent>
1

> <s_lp_Variant>
569629-2

> <s_i_glide_gridfile>
glide-grid_1e66

> <i_i_glide_lignum>
878

> <i_i_glide_rotatable_bonds>
1

> <r_i_docking_score>
-6.89785029095916

> <r_i_glide_ligand_efficiency>
-0.344892514547958

> <r_i_glide_ligand_efficiency_sa>
-0.936182316385841

> <r_i_glide_ligand_efficiency_ln>
-1.72630442149816

> <r_i_glide_gscore>
-6.89785029095916

> <r_i_glide_lipo>
-2.9525436760221

> <r_i_glide_hbond>
0

> <r_i_glide_metal>
0

> <r_i_glide_rewards>
-2.48524618089365

> <r_i_glide_evdw>
-29.8988819122314

> <r_i_glide_ecoul>
0.232557743787766

> <r_i_glide_erotb>
0

> <r_i_glide_esite>
0

> <r_i_glide_emodel>
-38.2112403695276

> <r_i_glide_energy>
-29.6663241684437

> <r_i_glide_einternal>
0.787654459476471

> <i_i_glide_confnum>
1

> <i_i_glide_posenum>
90

> <r_i_glide_eff_state_penalty>
0

> <i_f3d_flags>
0

> <s_user_duplicate_titles>
569629

> <s_m_subgroup_title>
dock_pv

> <s_m_subgroupid>
dock_pv1

> <b_m_subgroup_collapsed>
1

$$$$
512535
                    3D
 Schrodinger Suite 2021-1.
 49 51  0  0  1  0            999 V2000
    5.9453   70.0973   66.3395 C   0  0  0  0  0  0
    5.7152   70.6137   67.6073 C   0  0  0  0  0  0
    4.4535   70.5177   68.1853 C   0  0  0  0  0  0
    3.3912   69.9062   67.4786 C   0  0  0  0  0  0
    3.6048   69.3851   66.1709 C   0  0  0  0  0  0
    4.9164   69.4868   65.6266 C   0  0  0  0  0  0
    2.4753   68.8103   65.4978 C   0  0  0  0  0  0
    1.2448   68.6897   66.1604 C   0  0  0  0  0  0
    1.1524   69.2367   67.4499 C   0  0  0  0  0  0
    2.1834   69.8469   68.0781 N   0  0  0  0  0  0
   -0.1512   69.2222   68.2083 C   0  0  0  0  0  0
   -1.3959   69.0480   67.3269 C   0  0  0  0  0  0
   -1.1925   67.8568   66.3905 C   0  0  0  0  0  0
   -0.0018   68.1162   65.4550 C   0  0  0  0  0  0
    2.5038   68.4507   64.1442 N   0  0  0  0  0  0
    2.3882   69.6207   63.2806 C   0  0  0  0  0  0
    2.4455   69.3563   61.7596 C   0  0  0  0  0  0
    3.5221   68.4694   61.3398 N   0  0  1  0  0  0
    4.8325   68.7668   61.9064 C   0  0  0  0  0  0
    5.5095   67.4482   62.3312 C   0  0  0  0  0  0
    4.7042   66.5142   63.2749 C   0  0  0  0  0  0
    5.1483   65.1603   63.1685 O   0  0  0  0  0  0
    4.3929   64.2177   63.9436 N   0  3  0  0  0  0
    4.7503   63.0825   63.7496 O   0  5  0  0  0  0
    3.5129   64.6436   64.6575 O   0  0  0  0  0  0
    6.9351   70.1625   65.9111 H   0  0  0  0  0  0
    6.5221   71.0813   68.1524 H   0  0  0  0  0  0
    4.2745   70.9108   69.1757 H   0  0  0  0  0  0
    5.1312   69.0707   64.6628 H   0  0  0  0  0  0
   -0.2536   70.1497   68.7686 H   0  0  0  0  0  0
   -0.0569   68.3885   68.9023 H   0  0  0  0  0  0
   -1.5846   69.9570   66.7512 H   0  0  0  0  0  0
   -2.2747   68.8952   67.9571 H   0  0  0  0  0  0
   -2.0949   67.6799   65.8049 H   0  0  0  0  0  0
   -1.0211   66.9483   66.9707 H   0  0  0  0  0  0
   -0.3185   68.8287   64.6916 H   0  0  0  0  0  0
    0.2528   67.1954   64.9310 H   0  0  0  0  0  0
    1.7716   67.7907   63.9265 H   0  0  0  0  0  0
    3.1513   70.3418   63.5693 H   0  0  0  0  0  0
    1.4504   70.1082   63.5169 H   0  0  0  0  0  0
    2.5346   70.2975   61.2162 H   0  0  0  0  0  0
    1.5057   68.9127   61.4283 H   0  0  0  0  0  0
    3.2683   67.5138   61.5282 H   0  0  0  0  0  0
    4.7906   69.4542   62.7400 H   0  0  0  0  0  0
    5.4216   69.3078   61.1686 H   0  0  0  0  0  0
    6.4697   67.7096   62.7687 H   0  0  0  0  0  0
    5.7397   66.9082   61.4250 H   0  0  0  0  0  0
    3.6541   66.5082   62.9913 H   0  0  0  0  0  0
    4.7697   66.8605   64.3074 H   0  0  0  0  0  0
  1  6  1  0  0  0
  1  2  2  0  0  0
  1 26  1  0  0  0
  2  3  1  0  0  0
  2 27  1  0  0  0
  3  4  2  0  0  0
  3 28  1  0  0  0
  4 10  1  0  0  0
  4  5  1  0  0  0
  5  6  2  0  0  0
  5  7  1  0  0  0
  6 29  1  0  0  0
  7  8  2  0  0  0
  7 15  1  0  0  0
  8 14  1  0  0  0
  8  9  1  0  0  0
  9 10  2  0  0  0
  9 11  1  0  0  0
 11 12  1  0  0  0
 11 30  1  0  0  0
 11 31  1  0  0  0
 12 13  1  0  0  0
 12 32  1  0  0  0
 12 33  1  0  0  0
 13 14  1  0  0  0
 13 34  1  0  0  0
 13 35  1  0  0  0
 14 36  1  0  0  0
 14 37  1  0  0  0
 15 16  1  0  0  0
 15 38  1  0  0  0
 16 17  1  0  0  0
 16 39  1  0  0  0
 16 40  1  0  0  0
 17 18  1  0  0  0
 17 41  1  0  0  0
 17 42  1  0  0  0
 18 19  1  0  0  0
 18 43  1  0  0  0
 19 20  1  0  0  0
 19 44  1  0  0  0
 19 45  1  0  0  0
 20 21  1  0  0  0
 20 46  1  0  0  0
 20 47  1  0  0  0
 21 22  1  0  0  0
 21 48  1  0  0  0
 21 49  1  0  0  0
 22 23  1  0  0  0
 23 24  1  0  0  0
 23 25  2  0  0  0
M  CHG  2  23   1  24  -1
M  END
> <s_m_entry_id>
9936

> <s_m_entry_name>
ligand_docking-pose.378

> <s_m_Source_Path>
/home/csk/Desktop/cluster/DUD-E-result/aces

> <s_m_Source_File>
ligand_docking-pose.sdf

> <i_m_Source_File_Index>
378

> <i_lp_mmshare_version>
53161

> <r_lp_tautomer_probability>
1

> <s_lp_Force_Field>
OPLS_2005

> <r_lp_Energy>
23.841

> <b_lp_Chiralities_Consistent>
1

> <s_lp_Variant>
512535-1

> <s_i_glide_gridfile>
glide-grid_1e66

> <i_i_glide_lignum>
227

> <i_i_glide_rotatable_bonds>
9

> <r_i_docking_score>
-6.89689680512563

> <r_i_glide_ligand_efficiency>
-0.275875872205025

> <r_i_glide_ligand_efficiency_sa>
-0.80666594300692

> <r_i_glide_ligand_efficiency_ln>
-1.6347712261337

> <r_i_glide_gscore>
-6.89689680512563

> <r_i_glide_lipo>
-3.53601711137298

> <r_i_glide_hbond>
-0.325539523782676

> <r_i_glide_metal>
0

> <r_i_glide_rewards>
-1.71085345454545

> <r_i_glide_evdw>
-39.5607872009277

> <r_i_glide_ecoul>
-3.11292743682861

> <r_i_glide_erotb>
1.12049176014616

> <r_i_glide_esite>
0

> <r_i_glide_emodel>
-55.2829559292476

> <r_i_glide_energy>
-42.6737146377563

> <r_i_glide_einternal>
10.8439865112305

> <i_i_glide_confnum>
68

> <i_i_glide_posenum>
119

> <r_i_glide_eff_state_penalty>
0

> <i_f3d_flags>
0

> <s_user_duplicate_titles>
512535

> <s_m_subgroup_title>
dock_pv

> <s_m_subgroupid>
dock_pv1

> <b_m_subgroup_collapsed>
1

$$$$
117474
                    3D
 Schrodinger Suite 2021-1.
 69 72  0  0  1  0            999 V2000
    6.5833   69.9258   66.5300 C   0  0  0  0  0  0
    5.9226   70.3532   65.2105 C   0  0  0  0  0  0
    5.5427   69.1697   64.3012 C   0  0  0  0  0  0
    4.8586   69.5999   62.9819 C   0  0  0  0  0  0
    4.1834   68.4339   62.2118 C   0  0  0  0  0  0
    2.7419   68.3297   62.4555 N   0  0  0  0  0  0
    1.9714   69.2612   61.6507 C   0  0  0  0  0  0
    0.5776   69.2596   62.2614 C   0  0  0  0  0  0
    0.8255   68.6446   63.6163 C   0  0  0  0  0  0
    2.1123   68.1072   63.6808 C   0  0  0  0  0  0
    2.4918   67.3322   64.7732 C   0  0  0  0  0  0
    1.6316   67.2067   65.8604 C   0  0  0  0  0  0
    0.3880   67.8486   65.8773 C   0  0  0  0  0  0
   -0.0390   68.5080   64.7088 C   0  0  0  0  0  0
   -0.4827   67.8109   67.0999 C   0  0  0  0  0  0
   -1.6684   68.1459   67.0981 O   0  0  0  0  0  0
    0.1731   67.4408   68.4491 C   0  0  0  0  0  0
   -0.2960   66.0692   69.0021 C   0  0  0  0  0  0
    0.6346   65.3391   70.0127 C   0  0  0  0  0  0
    0.2868   63.8345   70.1512 C   0  0  0  0  0  0
    1.2861   63.0269   71.0029 C   0  0  0  0  0  0
    2.6669   63.1741   70.5161 N   0  0  1  0  0  0
    3.0800   64.5799   70.5338 C   0  0  0  0  0  0
    2.1449   65.5060   69.7337 C   0  0  0  0  0  0
    3.6062   62.3765   71.3137 C   0  0  0  0  0  0
    3.4988   60.8743   71.0757 C   0  0  0  0  0  0
    3.5747   59.9987   72.1634 C   0  0  0  0  0  0
    3.5116   58.6239   71.9560 C   0  0  0  0  0  0
    3.4102   58.1276   70.6569 C   0  0  0  0  0  0
    3.3728   58.9938   69.5685 C   0  0  0  0  0  0
    3.4276   60.3663   69.7753 C   0  0  0  0  0  0
    6.8285   70.7923   67.1441 H   0  0  0  0  0  0
    7.5058   69.3695   66.3649 H   0  0  0  0  0  0
    5.9142   69.2980   67.1181 H   0  0  0  0  0  0
    5.0168   70.9077   65.4488 H   0  0  0  0  0  0
    6.5779   71.0428   64.6771 H   0  0  0  0  0  0
    6.4306   68.5802   64.0707 H   0  0  0  0  0  0
    4.8859   68.5125   64.8679 H   0  0  0  0  0  0
    4.1083   70.3404   63.2567 H   0  0  0  0  0  0
    5.5697   70.1128   62.3335 H   0  0  0  0  0  0
    4.3689   68.5250   61.1405 H   0  0  0  0  0  0
    4.6373   67.4891   62.5150 H   0  0  0  0  0  0
    2.4041   70.2583   61.6689 H   0  0  0  0  0  0
    1.9523   68.9246   60.6116 H   0  0  0  0  0  0
    0.1518   70.2615   62.3006 H   0  0  0  0  0  0
   -0.0793   68.6256   61.6664 H   0  0  0  0  0  0
    3.4408   66.8170   64.7812 H   0  0  0  0  0  0
    1.9448   66.5808   66.6802 H   0  0  0  0  0  0
   -1.0289   68.9436   64.6690 H   0  0  0  0  0  0
    1.2505   67.4915   68.3504 H   0  0  0  0  0  0
   -0.0446   68.2256   69.1657 H   0  0  0  0  0  0
   -1.2771   66.1978   69.4570 H   0  0  0  0  0  0
   -0.4564   65.3944   68.1685 H   0  0  0  0  0  0
    0.4817   65.7649   71.0060 H   0  0  0  0  0  0
   -0.7301   63.7086   70.5238 H   0  0  0  0  0  0
    0.2651   63.3631   69.1685 H   0  0  0  0  0  0
    1.2311   63.3259   72.0496 H   0  0  0  0  0  0
    1.0058   61.9716   70.9706 H   0  0  0  0  0  0
    3.1469   64.9108   71.5671 H   0  0  0  0  0  0
    4.0893   64.6622   70.1257 H   0  0  0  0  0  0
    2.3438   65.3038   68.6837 H   0  0  0  0  0  0
    2.4287   66.5448   69.8960 H   0  0  0  0  0  0
    4.6370   62.6548   71.0749 H   0  0  0  0  0  0
    3.4828   62.5972   72.3753 H   0  0  0  0  0  0
    3.6624   60.3796   73.1724 H   0  0  0  0  0  0
    3.5459   57.9416   72.7930 H   0  0  0  0  0  0
    3.3556   57.0595   70.4946 H   0  0  0  0  0  0
    3.2893   58.5998   68.5670 H   0  0  0  0  0  0
    3.3904   61.0443   68.9343 H   0  0  0  0  0  0
  1  2  1  0  0  0
  1 32  1  0  0  0
  1 33  1  0  0  0
  1 34  1  0  0  0
  2  3  1  0  0  0
  2 35  1  0  0  0
  2 36  1  0  0  0
  3  4  1  0  0  0
  3 37  1  0  0  0
  3 38  1  0  0  0
  4  5  1  0  0  0
  4 39  1  0  0  0
  4 40  1  0  0  0
  5  6  1  0  0  0
  5 41  1  0  0  0
  5 42  1  0  0  0
  6 10  1  0  0  0
  6  7  1  0  0  0
  7  8  1  0  0  0
  7 43  1  0  0  0
  7 44  1  0  0  0
  8  9  1  0  0  0
  8 45  1  0  0  0
  8 46  1  0  0  0
  9 14  2  0  0  0
  9 10  1  0  0  0
 10 11  2  0  0  0
 11 12  1  0  0  0
 11 47  1  0  0  0
 12 13  2  0  0  0
 12 48  1  0  0  0
 13 14  1  0  0  0
 13 15  1  0  0  0
 14 49  1  0  0  0
 15 16  2  0  0  0
 15 17  1  0  0  0
 17 18  1  0  0  0
 17 50  1  0  0  0
 17 51  1  0  0  0
 18 19  1  0  0  0
 18 52  1  0  0  0
 18 53  1  0  0  0
 19 24  1  0  0  0
 19 20  1  0  0  0
 19 54  1  0  0  0
 20 21  1  0  0  0
 20 55  1  0  0  0
 20 56  1  0  0  0
 21 22  1  0  0  0
 21 57  1  0  0  0
 21 58  1  0  0  0
 22 23  1  0  0  0
 22 25  1  0  0  0
 23 24  1  0  0  0
 23 59  1  0  0  0
 23 60  1  0  0  0
 24 61  1  0  0  0
 24 62  1  0  0  0
 25 26  1  0  0  0
 25 63  1  0  0  0
 25 64  1  0  0  0
 26 31  1  0  0  0
 26 27  2  0  0  0
 27 28  1  0  0  0
 27 65  1  0  0  0
 28 29  2  0  0  0
 28 66  1  0  0  0
 29 30  1  0  0  0
 29 67  1  0  0  0
 30 31  2  0  0  0
 30 68  1  0  0  0
 31 69  1  0  0  0
M  END
> <s_m_entry_id>
9937

> <s_m_entry_name>
ligand_docking-pose.379

> <s_m_Source_Path>
/home/csk/Desktop/cluster/DUD-E-result/aces

> <s_m_Source_File>
ligand_docking-pose.sdf

> <i_m_Source_File_Index>
379

> <i_lp_mmshare_version>
53161

> <r_lp_tautomer_probability>
0.99990000499975

> <s_lp_Force_Field>
OPLS_2005

> <r_lp_Energy>
44.915964

> <b_lp_Chiralities_Consistent>
1

> <s_lp_Variant>
117474-1

> <s_i_glide_gridfile>
glide-grid_1e66

> <i_i_glide_lignum>
1081

> <i_i_glide_rotatable_bonds>
10

> <r_i_docking_score>
-6.89234562831054

> <r_i_glide_ligand_efficiency>
-0.222333729945501

> <r_i_glide_ligand_efficiency_sa>
-0.698434876825338

> <r_i_glide_ligand_efficiency_ln>
-1.55443516421037

> <r_i_glide_gscore>
-6.89234562831054

> <r_i_glide_lipo>
-4.77264560320654

> <r_i_glide_hbond>
0

> <r_i_glide_metal>
0

> <r_i_glide_rewards>
-0.548834172030226

> <r_i_glide_evdw>
-51.945987701416

> <r_i_glide_ecoul>
0.0717918202280998

> <r_i_glide_erotb>
1.01566475896282

> <r_i_glide_esite>
0

> <r_i_glide_emodel>
-65.5191122663228

> <r_i_glide_energy>
-51.8741958811879

> <r_i_glide_einternal>
13.3830213546753

> <i_i_glide_confnum>
29

> <i_i_glide_posenum>
83

> <r_i_glide_eff_state_penalty>
0

> <i_f3d_flags>
0

> <s_user_duplicate_titles>
117474

> <s_m_subgroup_title>
dock_pv

> <s_m_subgroupid>
dock_pv1

> <b_m_subgroup_collapsed>
1

$$$$
283595
                    3D
 Schrodinger Suite 2021-1.
 30 33  0  0  1  0            999 V2000
    2.9412   68.7381   61.9459 C   0  0  0  0  0  0
    1.6312   68.5081   62.3586 C   0  0  0  0  0  0
    1.3032   68.5387   63.7348 C   0  0  0  0  0  0
    2.3287   68.8348   64.6971 C   0  0  0  0  0  0
    3.6478   69.0653   64.2349 C   0  0  0  0  0  0
    3.9344   69.0136   62.8786 C   0  0  0  0  0  0
    5.5430   69.3081   62.3682 Cl  0  0  0  0  0  0
    1.9613   68.9078   66.0756 C   0  0  0  0  0  0
    0.6457   68.6302   66.4092 C   0  0  0  0  0  0
   -0.2807   68.3578   65.4146 C   0  0  0  0  0  0
    0.0048   68.3199   64.0929 N   0  0  0  0  0  0
   -1.6310   68.2119   66.1089 C   0  0  1  0  0  0
   -1.6494   66.9102   66.9493 C   0  0  0  0  0  0
   -0.5161   67.1214   67.9732 C   0  0  0  0  0  0
   -0.1210   68.5998   67.7168 C   0  0  2  0  0  0
   -1.4235   69.2343   67.2197 C   0  0  0  0  0  0
    2.8392   69.3083   67.0805 N   0  0  0  0  0  0
    3.1933   68.7063   60.8954 H   0  0  0  0  0  0
    0.8581   68.2945   61.6327 H   0  0  0  0  0  0
    4.4354   69.2889   64.9389 H   0  0  0  0  0  0
   -2.5128   68.3789   65.4891 H   0  0  0  0  0  0
   -2.6131   66.7862   67.4479 H   0  0  0  0  0  0
   -1.4701   66.0161   66.3673 H   0  0  0  0  0  0
   -0.8653   66.9088   68.9849 H   0  0  0  0  0  0
    0.3259   66.4491   67.7968 H   0  0  0  0  0  0
    0.3450   69.1080   68.5617 H   0  0  0  0  0  0
   -1.3124   70.2622   66.8636 H   0  0  0  0  0  0
   -2.2170   69.2280   67.9677 H   0  0  0  0  0  0
    2.4808   69.4199   68.0190 H   0  0  0  0  0  0
    3.7635   69.6335   66.8373 H   0  0  0  0  0  0
  1  6  1  0  0  0
  1  2  2  0  0  0
  1 18  1  0  0  0
  2  3  1  0  0  0
  2 19  1  0  0  0
  3 11  2  0  0  0
  3  4  1  0  0  0
  4  5  1  0  0  0
  4  8  2  0  0  0
  5  6  2  0  0  0
  5 20  1  0  0  0
  6  7  1  0  0  0
  8  9  1  0  0  0
  8 17  1  0  0  0
  9 15  1  0  0  0
  9 10  2  0  0  0
 10 11  1  0  0  0
 10 12  1  0  0  0
 12 16  1  0  0  0
 12 13  1  0  0  0
 12 21  1  0  0  0
 13 14  1  0  0  0
 13 22  1  0  0  0
 13 23  1  0  0  0
 14 15  1  0  0  0
 14 24  1  0  0  0
 14 25  1  0  0  0
 15 16  1  0  0  0
 15 26  1  0  0  0
 16 27  1  0  0  0
 16 28  1  0  0  0
 17 29  1  0  0  0
 17 30  1  0  0  0
M  END
> <s_m_entry_id>
9939

> <s_m_entry_name>
ligand_docking-pose.381

> <s_m_Source_Path>
/home/csk/Desktop/cluster/DUD-E-result/aces

> <s_m_Source_File>
ligand_docking-pose.sdf

> <i_m_Source_File_Index>
381

> <i_lp_mmshare_version>
53161

> <r_lp_tautomer_probability>
1

> <s_lp_Force_Field>
OPLS_2005

> <r_lp_Energy>
62.009724

> <b_lp_Chiralities_Consistent>
1

> <s_lp_Variant>
283595-2

> <s_i_glide_gridfile>
glide-grid_1e66

> <i_i_glide_lignum>
13

> <i_i_glide_rotatable_bonds>
0

> <r_i_docking_score>
-6.89056382927606

> <r_i_glide_ligand_efficiency>
-0.405327284075062

> <r_i_glide_ligand_efficiency_sa>
-1.04221058274944

> <r_i_glide_ligand_efficiency_ln>
-1.79759465774598

> <r_i_glide_gscore>
-6.89056382927606

> <r_i_glide_lipo>
-3.52662562212516

> <r_i_glide_hbond>
0

> <r_i_glide_metal>
0

> <r_i_glide_rewards>
-1.74055145454546

> <r_i_glide_evdw>
-31.4177188873291

> <r_i_glide_ecoul>
-0.350005388259888

> <r_i_glide_erotb>
0

> <r_i_glide_esite>
0

> <r_i_glide_emodel>
-45.3491810876072

> <r_i_glide_energy>
-31.767724275589

> <r_i_glide_einternal>
0

> <i_i_glide_confnum>
1

> <i_i_glide_posenum>
381

> <r_i_glide_eff_state_penalty>
0

> <i_f3d_flags>
0

> <s_user_duplicate_titles>
283595

> <s_m_subgroup_title>
dock_pv

> <s_m_subgroupid>
dock_pv1

> <b_m_subgroup_collapsed>
1

$$$$
651056
                    3D
 Schrodinger Suite 2021-1.
 71 75  0  0  1  0            999 V2000
    4.1596   70.8982   69.0605 C   0  0  0  0  0  0
    5.4444   70.9411   68.5323 C   0  0  0  0  0  0
    5.7070   70.4222   67.2683 C   0  0  0  0  0  0
    4.6658   69.8200   66.5180 C   0  0  0  0  0  0
    3.3543   69.7089   67.0703 C   0  0  0  0  0  0
    3.1283   70.2845   68.3592 C   0  0  0  0  0  0
    2.3403   69.1070   66.2517 C   0  0  0  0  0  0
    2.6410   68.7869   64.9088 C   0  0  0  0  0  0
    3.9579   69.0018   64.4478 C   0  0  0  0  0  0
    4.9531   69.4262   65.2561 N   0  0  0  0  0  0
    4.3475   68.8044   62.9809 C   0  0  0  0  0  0
    3.3996   67.8564   62.2358 C   0  0  0  0  0  0
    1.9501   68.3012   62.4715 C   0  0  0  0  0  0
    1.5839   68.1826   63.9630 C   0  0  0  0  0  0
    1.0134   68.9076   66.6911 N   0  0  0  0  0  0
    0.7045   68.2644   67.9638 C   0  0  0  0  0  0
    0.4294   66.7624   67.8353 C   0  0  0  0  0  0
   -0.0817   66.1070   69.1367 C   0  0  0  0  0  0
    0.9006   66.1571   70.3315 C   0  0  0  0  0  0
    2.2008   65.3395   70.1497 C   0  0  0  0  0  0
    1.9505   63.8298   70.0370 C   0  0  0  0  0  0
    3.2321   62.9714   69.9736 C   0  0  0  0  0  0
    3.0498   61.7471   69.1915 N   0  0  1  0  0  0
    1.9991   60.8502   69.6791 C   0  0  0  0  0  0
    2.2954   60.2226   71.0389 C   0  0  0  0  0  0
    3.2263   59.1882   71.0931 C   0  0  0  0  0  0
    3.5453   58.5787   72.2985 C   0  0  0  0  0  0
    2.9778   59.0349   73.5050 C   0  0  0  0  0  0
    3.3370   58.4902   74.7628 C   0  0  0  0  0  0
    2.7411   58.9875   75.9174 C   0  0  0  0  0  0
    1.8043   60.0092   75.8028 C   0  0  0  0  0  0
    1.4263   60.5472   74.6172 N   0  0  0  0  0  0
    2.0059   60.0803   73.4678 C   0  0  0  0  0  0
    1.6407   60.6421   72.2098 C   0  0  0  0  0  0
    0.6383   61.5801   72.1527 O   0  0  0  0  0  0
    3.9459   71.3080   70.0370 H   0  0  0  0  0  0
    6.2422   71.4003   69.0972 H   0  0  0  0  0  0
    6.6962   70.4928   66.8422 H   0  0  0  0  0  0
    2.1366   70.3146   68.7872 H   0  0  0  0  0  0
    5.3801   68.4627   62.8903 H   0  0  0  0  0  0
    4.3148   69.7818   62.4965 H   0  0  0  0  0  0
    3.5445   66.8319   62.5805 H   0  0  0  0  0  0
    3.6321   67.8624   61.1689 H   0  0  0  0  0  0
    1.2605   67.7103   61.8700 H   0  0  0  0  0  0
    1.8225   69.3335   62.1395 H   0  0  0  0  0  0
    1.4645   67.1287   64.2243 H   0  0  0  0  0  0
    0.6073   68.6427   64.1137 H   0  0  0  0  0  0
    0.3471   68.6895   65.9641 H   0  0  0  0  0  0
   -0.1718   68.7681   68.3683 H   0  0  0  0  0  0
    1.4748   68.4017   68.7148 H   0  0  0  0  0  0
    1.3403   66.2714   67.4948 H   0  0  0  0  0  0
   -0.3031   66.5909   67.0433 H   0  0  0  0  0  0
   -0.3610   65.0760   68.9314 H   0  0  0  0  0  0
   -1.0175   66.5804   69.4293 H   0  0  0  0  0  0
    0.3841   65.7995   71.2239 H   0  0  0  0  0  0
    1.1551   67.1947   70.5544 H   0  0  0  0  0  0
    2.8676   65.5247   70.9908 H   0  0  0  0  0  0
    2.7398   65.6850   69.2690 H   0  0  0  0  0  0
    1.3274   63.6373   69.1680 H   0  0  0  0  0  0
    1.3549   63.5221   70.8904 H   0  0  0  0  0  0
    3.6067   62.7437   70.9725 H   0  0  0  0  0  0
    4.0218   63.5356   69.4737 H   0  0  0  0  0  0
    2.8466   62.0008   68.2387 H   0  0  0  0  0  0
    1.9383   60.0382   68.9532 H   0  0  0  0  0  0
    1.0257   61.3377   69.6625 H   0  0  0  0  0  0
    3.6999   58.8459   70.1859 H   0  0  0  0  0  0
    4.2564   57.7670   72.3277 H   0  0  0  0  0  0
    4.0724   57.7014   74.8164 H   0  0  0  0  0  0
    3.0087   58.5911   76.8870 H   0  0  0  0  0  0
    1.3323   60.4207   76.6848 H   0  0  0  0  0  0
    0.2787   61.7626   73.0257 H   0  0  0  0  0  0
  1  6  1  0  0  0
  1  2  2  0  0  0
  1 36  1  0  0  0
  2  3  1  0  0  0
  2 37  1  0  0  0
  3  4  2  0  0  0
  3 38  1  0  0  0
  4 10  1  0  0  0
  4  5  1  0  0  0
  5  6  2  0  0  0
  5  7  1  0  0  0
  6 39  1  0  0  0
  7  8  2  0  0  0
  7 15  1  0  0  0
  8 14  1  0  0  0
  8  9  1  0  0  0
  9 10  2  0  0  0
  9 11  1  0  0  0
 11 12  1  0  0  0
 11 40  1  0  0  0
 11 41  1  0  0  0
 12 13  1  0  0  0
 12 42  1  0  0  0
 12 43  1  0  0  0
 13 14  1  0  0  0
 13 44  1  0  0  0
 13 45  1  0  0  0
 14 46  1  0  0  0
 14 47  1  0  0  0
 15 16  1  0  0  0
 15 48  1  0  0  0
 16 17  1  0  0  0
 16 49  1  0  0  0
 16 50  1  0  0  0
 17 18  1  0  0  0
 17 51  1  0  0  0
 17 52  1  0  0  0
 18 19  1  0  0  0
 18 53  1  0  0  0
 18 54  1  0  0  0
 19 20  1  0  0  0
 19 55  1  0  0  0
 19 56  1  0  0  0
 20 21  1  0  0  0
 20 57  1  0  0  0
 20 58  1  0  0  0
 21 22  1  0  0  0
 21 59  1  0  0  0
 21 60  1  0  0  0
 22 23  1  0  0  0
 22 61  1  0  0  0
 22 62  1  0  0  0
 23 24  1  0  0  0
 23 63  1  0  0  0
 24 25  1  0  0  0
 24 64  1  0  0  0
 24 65  1  0  0  0
 25 34  1  0  0  0
 25 26  2  0  0  0
 26 27  1  0  0  0
 26 66  1  0  0  0
 27 28  2  0  0  0
 27 67  1  0  0  0
 28 33  1  0  0  0
 28 29  1  0  0  0
 29 30  2  0  0  0
 29 68  1  0  0  0
 30 31  1  0  0  0
 30 69  1  0  0  0
 31 32  2  0  0  0
 31 70  1  0  0  0
 32 33  1  0  0  0
 33 34  2  0  0  0
 34 35  1  0  0  0
 35 71  1  0  0  0
M  END
> <s_m_entry_id>
9940

> <s_m_entry_name>
ligand_docking-pose.382

> <s_m_Source_Path>
/home/csk/Desktop/cluster/DUD-E-result/aces

> <s_m_Source_File>
ligand_docking-pose.sdf

> <i_m_Source_File_Index>
382

> <i_lp_mmshare_version>
53161

> <r_lp_tautomer_probability>
1

> <s_lp_Force_Field>
OPLS_2005

> <r_lp_Energy>
32.7498

> <b_lp_Chiralities_Consistent>
1

> <s_lp_Variant>
651056-1

> <s_i_glide_gridfile>
glide-grid_1e66

> <i_i_glide_lignum>
175

> <i_i_glide_rotatable_bonds>
12

> <r_i_docking_score>
-6.88976410074892

> <r_i_glide_ligand_efficiency>
-0.19685040287854

> <r_i_glide_ligand_efficiency_sa>
-0.643910720239936

> <r_i_glide_ligand_efficiency_ln>
-1.51245613019003

> <r_i_glide_gscore>
-6.88976410074892

> <r_i_glide_lipo>
-4.5719476766963

> <r_i_glide_hbond>
0

> <r_i_glide_metal>
0

> <r_i_glide_rewards>
-1.11386563636363

> <r_i_glide_evdw>
-48.2645416259766

> <r_i_glide_ecoul>
1.9325567483902

> <r_i_glide_erotb>
0.919392781351317

> <r_i_glide_esite>
0

> <r_i_glide_emodel>
-61.9329526576834

> <r_i_glide_energy>
-46.3319848775864

> <r_i_glide_einternal>
8.30842781066895

> <i_i_glide_confnum>
5

> <i_i_glide_posenum>
288

> <r_i_glide_eff_state_penalty>
0

> <i_f3d_flags>
0

> <s_user_duplicate_titles>
651056

> <s_m_subgroup_title>
dock_pv

> <s_m_subgroupid>
dock_pv1

> <b_m_subgroup_collapsed>
1

$$$$
257532
                    3D
 Schrodinger Suite 2021-1.
 26 27  0  0  1  0            999 V2000
    6.2327   68.5087   62.7661 C   0  0  0  0  0  0
    5.0750   69.3764   63.2944 C   0  0  2  0  0  0
    4.5348   68.9528   64.6679 C   0  0  0  0  0  0
    3.0715   68.6864   64.4467 C   0  0  0  0  0  0
    2.1023   68.2853   65.3665 C   0  0  0  0  0  0
    0.7773   68.1083   64.9604 C   0  0  0  0  0  0
    0.4338   68.3170   63.6131 C   0  0  0  0  0  0
    1.4003   68.7209   62.6941 C   0  0  0  0  0  0
    2.7163   68.8983   63.1182 C   0  0  0  0  0  0
    3.8883   69.3085   62.3262 C   0  0  0  0  0  0
    3.9028   69.5676   61.1238 O   0  0  0  0  0  0
   -0.8418   68.1081   63.1683 O   0  0  0  0  0  0
   -0.1475   67.7186   65.9014 O   0  0  0  0  0  0
   -1.0505   68.7447   66.3027 C   0  0  0  0  0  0
    6.6219   68.9075   61.8310 H   0  0  0  0  0  0
    7.0593   68.5060   63.4736 H   0  0  0  0  0  0
    5.9325   67.4744   62.5866 H   0  0  0  0  0  0
    5.4058   70.4141   63.3332 H   0  0  0  0  0  0
    5.0514   68.0650   65.0376 H   0  0  0  0  0  0
    4.6955   69.7603   65.3850 H   0  0  0  0  0  0
    2.3591   68.1222   66.4033 H   0  0  0  0  0  0
    1.1214   68.8774   61.6605 H   0  0  0  0  0  0
   -1.2570   67.3803   63.6540 H   0  0  0  0  0  0
   -1.7074   68.3629   67.0858 H   0  0  0  0  0  0
   -0.5207   69.6110   66.7108 H   0  0  0  0  0  0
   -1.6850   69.0844   65.4806 H   0  0  0  0  0  0
  1  2  1  0  0  0
  1 15  1  0  0  0
  1 16  1  0  0  0
  1 17  1  0  0  0
  2 10  1  0  0  0
  2  3  1  0  0  0
  2 18  1  0  0  0
  3  4  1  0  0  0
  3 19  1  0  0  0
  3 20  1  0  0  0
  4  9  2  0  0  0
  4  5  1  0  0  0
  5  6  2  0  0  0
  5 21  1  0  0  0
  6  7  1  0  0  0
  6 13  1  0  0  0
  7  8  2  0  0  0
  7 12  1  0  0  0
  8  9  1  0  0  0
  8 22  1  0  0  0
  9 10  1  0  0  0
 10 11  2  0  0  0
 12 23  1  0  0  0
 13 14  1  0  0  0
 14 24  1  0  0  0
 14 25  1  0  0  0
 14 26  1  0  0  0
M  END
> <s_m_entry_id>
9941

> <s_m_entry_name>
ligand_docking-pose.383

> <s_m_Source_Path>
/home/csk/Desktop/cluster/DUD-E-result/aces

> <s_m_Source_File>
ligand_docking-pose.sdf

> <i_m_Source_File_Index>
383

> <i_lp_mmshare_version>
53161

> <r_lp_tautomer_probability>
0.99995

> <s_lp_Force_Field>
OPLS_2005

> <r_lp_Energy>
26.221936

> <b_lp_Chiralities_Consistent>
1

> <s_lp_Variant>
257532-1

> <s_i_glide_gridfile>
glide-grid_1e66

> <i_i_glide_lignum>
667

> <i_i_glide_rotatable_bonds>
2

> <r_i_docking_score>
-6.88897262841845

> <r_i_glide_ligand_efficiency>
-0.492069473458461

> <r_i_glide_ligand_efficiency_sa>
-1.18595743384942

> <r_i_glide_ligand_efficiency_ln>
-1.89306515518589

> <r_i_glide_gscore>
-6.88897262841845

> <r_i_glide_lipo>
-2.32477878205627

> <r_i_glide_hbond>
0

> <r_i_glide_metal>
0

> <r_i_glide_rewards>
-2.4656398788863

> <r_i_glide_evdw>
-25.0780334472656

> <r_i_glide_ecoul>
-5.63101530075073

> <r_i_glide_erotb>
0

> <r_i_glide_esite>
0

> <r_i_glide_emodel>
-40.3773037183204

> <r_i_glide_energy>
-30.7090487480164

> <r_i_glide_einternal>
5.15007448196411

> <i_i_glide_confnum>
1

> <i_i_glide_posenum>
181

> <r_i_glide_eff_state_penalty>
0

> <i_f3d_flags>
0

> <s_user_duplicate_titles>
257532

> <s_m_subgroup_title>
dock_pv

> <s_m_subgroupid>
dock_pv1

> <b_m_subgroup_collapsed>
1

$$$$
164384
                    3D
 Schrodinger Suite 2021-1.
 61 63  0  0  1  0            999 V2000
    0.3096   60.5475   72.5585 C   0  0  0  0  0  0
    1.3008   60.3129   73.6131 N   0  0  2  0  0  0
    1.9510   61.5396   74.0992 C   0  0  0  0  0  0
    0.9710   62.5842   74.6796 C   0  0  0  0  0  0
    0.9093   63.7080   73.8054 O   0  0  0  0  0  0
   -0.3871   64.2033   73.4884 C   0  0  0  0  0  0
   -0.3536   65.6890   73.0397 C   0  0  0  0  0  0
   -0.0570   66.1051   71.6470 N   0  0  0  0  0  0
    0.7432   65.5211   70.6954 C   0  0  0  0  0  0
    1.6282   64.1095   70.7678 S   0  0  0  0  0  0
    0.9061   66.2449   69.5566 N   0  0  0  0  0  0
   -0.0279   66.7426   68.7156 C   0  0  0  0  0  0
   -1.2373   66.5079   68.7669 O   0  0  0  0  0  0
    0.5800   67.4897   67.5637 C   0  0  0  0  0  0
    0.3577   67.0384   66.2636 C   0  0  0  0  0  0
    1.1212   67.5379   65.2146 C   0  0  0  0  0  0
    2.1023   68.5116   65.4404 C   0  0  0  0  0  0
    2.2138   69.0584   66.7267 C   0  0  0  0  0  0
    1.4605   68.5547   67.7844 C   0  0  0  0  0  0
    3.0479   68.9081   64.3504 C   0  0  0  0  0  0
    4.3774   69.2446   64.6524 C   0  0  0  0  0  0
    5.2882   69.5387   63.6417 C   0  0  0  0  0  0
    4.8744   69.4984   62.3155 C   0  0  0  0  0  0
    3.5591   69.1813   61.9910 C   0  0  0  0  0  0
    2.6500   68.8929   63.0055 C   0  0  0  0  0  0
    2.2639   59.2525   73.2706 C   0  0  0  0  0  0
    3.0506   59.4919   71.9813 C   0  0  0  0  0  0
    2.5545   58.9967   70.7718 C   0  0  0  0  0  0
    3.1958   59.3029   69.5757 C   0  0  0  0  0  0
    4.3296   60.1099   69.5911 C   0  0  0  0  0  0
    4.8376   60.5992   70.7938 C   0  0  0  0  0  0
    4.1965   60.2921   71.9899 C   0  0  0  0  0  0
   -0.1395   59.6087   72.2311 H   0  0  0  0  0  0
   -0.5061   61.1802   72.9088 H   0  0  0  0  0  0
    0.7560   61.0324   71.6892 H   0  0  0  0  0  0
    2.5311   61.9951   73.2951 H   0  0  0  0  0  0
    2.6661   61.2748   74.8798 H   0  0  0  0  0  0
    1.3499   62.9465   75.6363 H   0  0  0  0  0  0
   -0.0072   62.1459   74.8925 H   0  0  0  0  0  0
   -1.0015   64.1541   74.3889 H   0  0  0  0  0  0
   -0.8553   63.5679   72.7366 H   0  0  0  0  0  0
    0.3429   66.2161   73.6866 H   0  0  0  0  0  0
   -1.3080   66.1470   73.2918 H   0  0  0  0  0  0
   -0.3848   67.0340   71.4231 H   0  0  0  0  0  0
    1.8598   66.3585   69.2530 H   0  0  0  0  0  0
   -0.3357   66.2310   66.0701 H   0  0  0  0  0  0
    0.9812   67.1030   64.2370 H   0  0  0  0  0  0
    2.9264   69.8453   66.9289 H   0  0  0  0  0  0
    1.6156   68.9493   68.7805 H   0  0  0  0  0  0
    4.7273   69.2531   65.6743 H   0  0  0  0  0  0
    6.3145   69.7835   63.8821 H   0  0  0  0  0  0
    5.5817   69.7109   61.5266 H   0  0  0  0  0  0
    3.2490   69.1548   60.9572 H   0  0  0  0  0  0
    1.6327   68.6512   62.7346 H   0  0  0  0  0  0
    2.9586   59.1080   74.0995 H   0  0  0  0  0  0
    1.7065   58.3200   73.1696 H   0  0  0  0  0  0
    1.6581   58.3929   70.7591 H   0  0  0  0  0  0
    2.8032   58.9258   68.6425 H   0  0  0  0  0  0
    4.8060   60.3656   68.6576 H   0  0  0  0  0  0
    5.7122   61.2331   70.7997 H   0  0  0  0  0  0
    4.5760   60.6938   72.9185 H   0  0  0  0  0  0
  1  2  1  0  0  0
  1 33  1  0  0  0
  1 34  1  0  0  0
  1 35  1  0  0  0
  2  3  1  0  0  0
  2 26  1  0  0  0
  3  4  1  0  0  0
  3 36  1  0  0  0
  3 37  1  0  0  0
  4  5  1  0  0  0
  4 38  1  0  0  0
  4 39  1  0  0  0
  5  6  1  0  0  0
  6  7  1  0  0  0
  6 40  1  0  0  0
  6 41  1  0  0  0
  7  8  1  0  0  0
  7 42  1  0  0  0
  7 43  1  0  0  0
  8  9  1  0  0  0
  8 44  1  0  0  0
  9 10  2  0  0  0
  9 11  1  0  0  0
 11 12  1  0  0  0
 11 45  1  0  0  0
 12 13  2  0  0  0
 12 14  1  0  0  0
 14 19  1  0  0  0
 14 15  2  0  0  0
 15 16  1  0  0  0
 15 46  1  0  0  0
 16 17  2  0  0  0
 16 47  1  0  0  0
 17 18  1  0  0  0
 17 20  1  0  0  0
 18 19  2  0  0  0
 18 48  1  0  0  0
 19 49  1  0  0  0
 20 25  1  0  0  0
 20 21  2  0  0  0
 21 22  1  0  0  0
 21 50  1  0  0  0
 22 23  2  0  0  0
 22 51  1  0  0  0
 23 24  1  0  0  0
 23 52  1  0  0  0
 24 25  2  0  0  0
 24 53  1  0  0  0
 25 54  1  0  0  0
 26 27  1  0  0  0
 26 55  1  0  0  0
 26 56  1  0  0  0
 27 32  1  0  0  0
 27 28  2  0  0  0
 28 29  1  0  0  0
 28 57  1  0  0  0
 29 30  2  0  0  0
 29 58  1  0  0  0
 30 31  1  0  0  0
 30 59  1  0  0  0
 31 32  2  0  0  0
 31 60  1  0  0  0
 32 61  1  0  0  0
M  END
> <s_m_entry_id>
9942

> <s_m_entry_name>
ligand_docking-pose.384

> <s_m_Source_Path>
/home/csk/Desktop/cluster/DUD-E-result/aces

> <s_m_Source_File>
ligand_docking-pose.sdf

> <i_m_Source_File_Index>
384

> <i_lp_mmshare_version>
53161

> <r_lp_tautomer_probability>
1

> <s_lp_Force_Field>
OPLS_2005

> <r_lp_Energy>
41.698107

> <b_lp_Chiralities_Consistent>
1

> <s_lp_Variant>
164384-1

> <s_i_glide_gridfile>
glide-grid_1e66

> <i_i_glide_lignum>
1822

> <i_i_glide_rotatable_bonds>
13

> <r_i_docking_score>
-6.88339970442949

> <r_i_glide_ligand_efficiency>
-0.215106240763422

> <r_i_glide_ligand_efficiency_sa>
-0.68291974495662

> <r_i_glide_ligand_efficiency_ln>
-1.5413808282111

> <r_i_glide_gscore>
-6.88339970442949

> <r_i_glide_lipo>
-3.6894891680335

> <r_i_glide_hbond>
0

> <r_i_glide_metal>
0

> <r_i_glide_rewards>
-1.53831762245202

> <r_i_glide_evdw>
-53.0376625061035

> <r_i_glide_ecoul>
-1.35482895374298

> <r_i_glide_erotb>
1.19951455442266

> <r_i_glide_esite>
0

> <r_i_glide_emodel>
-63.9607032189492

> <r_i_glide_energy>
-54.3924914598465

> <r_i_glide_einternal>
21.6535263061523

> <i_i_glide_confnum>
168

> <i_i_glide_posenum>
295

> <r_i_glide_eff_state_penalty>
0

> <i_f3d_flags>
0

> <s_user_duplicate_titles>
164384

> <s_m_subgroup_title>
dock_pv

> <s_m_subgroupid>
dock_pv1

> <b_m_subgroup_collapsed>
1

$$$$
121747
                    3D
 Schrodinger Suite 2021-1.
 78 82  0  0  1  0            999 V2000
    6.2136   70.5076   66.3709 C   0  0  0  0  0  0
    5.9417   70.7689   67.7081 C   0  0  0  0  0  0
    4.6798   70.5083   68.2314 C   0  0  0  0  0  0
    3.6688   69.9532   67.4107 C   0  0  0  0  0  0
    3.9245   69.7072   66.0305 C   0  0  0  0  0  0
    5.2208   70.0170   65.5267 C   0  0  0  0  0  0
    2.8413   69.2221   65.2325 C   0  0  0  0  0  0
    1.6152   68.8902   65.8490 C   0  0  0  0  0  0
    1.4739   69.1541   67.2287 C   0  0  0  0  0  0
    2.4712   69.6782   67.9766 N   0  0  0  0  0  0
    0.1643   68.8883   67.9720 C   0  0  0  0  0  0
   -0.7664   67.9117   67.2388 C   0  0  0  0  0  0
   -0.9050   68.3393   65.7757 C   0  0  0  0  0  0
    0.4540   68.2454   65.0638 C   0  0  0  0  0  0
    2.9376   69.1860   63.8279 N   0  0  0  0  0  0
    3.2419   67.8920   63.2410 C   0  0  0  0  0  0
    4.7340   67.5347   63.2419 C   0  0  0  0  0  0
    5.0175   66.1397   62.6702 C   0  0  0  0  0  0
    5.1427   65.0368   63.7382 C   0  0  0  0  0  0
    3.8334   64.7424   64.4861 C   0  0  0  0  0  0
    3.9509   63.5665   65.4665 C   0  0  0  0  0  0
    3.9419   63.9393   66.9742 C   0  0  0  0  0  0
    3.4147   62.8847   67.9582 C   0  0  0  0  0  0
    3.0910   63.4517   69.3599 C   0  0  0  0  0  0
    3.9729   62.9665   70.4215 N   0  0  1  0  0  0
    3.6729   61.6574   71.0146 C   0  0  2  0  0  0
    3.9828   60.4213   70.1378 C   0  0  0  0  0  0
    3.6554   59.1197   70.8833 C   0  0  0  0  0  0
    2.1535   59.0444   71.2176 C   0  0  0  0  0  0
    1.5983   60.3686   71.7468 C   0  0  0  0  0  0
    2.2774   61.5512   71.6640 C   0  0  0  0  0  0
    1.5772   62.7127   72.2192 C   0  0  0  0  0  0
    0.3308   62.5958   72.7313 C   0  0  0  0  0  0
   -0.3851   61.3324   72.7566 C   0  0  0  0  0  0
    0.3283   60.2848   72.2717 N   0  0  0  0  0  0
   -1.5328   61.1970   73.1661 O   0  0  0  0  0  0
    7.1963   70.7137   65.9771 H   0  0  0  0  0  0
    6.7158   71.1705   68.3464 H   0  0  0  0  0  0
    4.4713   70.7006   69.2736 H   0  0  0  0  0  0
    5.4415   69.8786   64.4783 H   0  0  0  0  0  0
   -0.3486   69.8420   68.1093 H   0  0  0  0  0  0
    0.3721   68.5078   68.9732 H   0  0  0  0  0  0
   -1.7447   67.8939   67.7208 H   0  0  0  0  0  0
   -0.3730   66.8945   67.3000 H   0  0  0  0  0  0
   -1.2892   69.3597   65.7172 H   0  0  0  0  0  0
   -1.6377   67.7100   65.2693 H   0  0  0  0  0  0
    0.3575   68.6736   64.0653 H   0  0  0  0  0  0
    0.6906   67.1905   64.9212 H   0  0  0  0  0  0
    2.0217   69.4447   63.4904 H   0  0  0  0  0  0
    2.8615   67.8710   62.2179 H   0  0  0  0  0  0
    2.6771   67.1207   63.7572 H   0  0  0  0  0  0
    5.1482   67.6102   64.2472 H   0  0  0  0  0  0
    5.2652   68.2817   62.6495 H   0  0  0  0  0  0
    5.9429   66.2014   62.1053 H   0  0  0  0  0  0
    4.2599   65.8726   61.9334 H   0  0  0  0  0  0
    5.9024   65.3069   64.4705 H   0  0  0  0  0  0
    5.4959   64.1222   63.2593 H   0  0  0  0  0  0
    3.0633   64.5069   63.7522 H   0  0  0  0  0  0
    3.4841   65.6287   65.0128 H   0  0  0  0  0  0
    4.7927   62.9489   65.1680 H   0  0  0  0  0  0
    3.1458   62.9074   65.2581 H   0  0  0  0  0  0
    3.3868   64.8673   67.1210 H   0  0  0  0  0  0
    4.9611   64.1080   67.2997 H   0  0  0  0  0  0
    4.1684   62.1083   68.0180 H   0  0  0  0  0  0
    2.5129   62.4168   67.5680 H   0  0  0  0  0  0
    2.0484   63.2611   69.6129 H   0  0  0  0  0  0
    3.1872   64.5377   69.3438 H   0  0  0  0  0  0
    4.9342   63.0114   70.1158 H   0  0  0  0  0  0
    4.3619   61.5958   71.8595 H   0  0  0  0  0  0
    5.0292   60.4342   69.8346 H   0  0  0  0  0  0
    3.3890   60.4422   69.2247 H   0  0  0  0  0  0
    4.2414   59.0645   71.8024 H   0  0  0  0  0  0
    3.9414   58.2514   70.2869 H   0  0  0  0  0  0
    2.0039   58.2559   71.9577 H   0  0  0  0  0  0
    1.5544   58.7143   70.3691 H   0  0  0  0  0  0
    2.0690   63.6748   72.2276 H   0  0  0  0  0  0
   -0.1695   63.4577   73.1438 H   0  0  0  0  0  0
   -0.1712   59.4109   72.2951 H   0  0  0  0  0  0
  1  6  1  0  0  0
  1  2  2  0  0  0
  1 37  1  0  0  0
  2  3  1  0  0  0
  2 38  1  0  0  0
  3  4  2  0  0  0
  3 39  1  0  0  0
  4 10  1  0  0  0
  4  5  1  0  0  0
  5  6  2  0  0  0
  5  7  1  0  0  0
  6 40  1  0  0  0
  7  8  2  0  0  0
  7 15  1  0  0  0
  8 14  1  0  0  0
  8  9  1  0  0  0
  9 10  2  0  0  0
  9 11  1  0  0  0
 11 12  1  0  0  0
 11 41  1  0  0  0
 11 42  1  0  0  0
 12 13  1  0  0  0
 12 43  1  0  0  0
 12 44  1  0  0  0
 13 14  1  0  0  0
 13 45  1  0  0  0
 13 46  1  0  0  0
 14 47  1  0  0  0
 14 48  1  0  0  0
 15 16  1  0  0  0
 15 49  1  0  0  0
 16 17  1  0  0  0
 16 50  1  0  0  0
 16 51  1  0  0  0
 17 18  1  0  0  0
 17 52  1  0  0  0
 17 53  1  0  0  0
 18 19  1  0  0  0
 18 54  1  0  0  0
 18 55  1  0  0  0
 19 20  1  0  0  0
 19 56  1  0  0  0
 19 57  1  0  0  0
 20 21  1  0  0  0
 20 58  1  0  0  0
 20 59  1  0  0  0
 21 22  1  0  0  0
 21 60  1  0  0  0
 21 61  1  0  0  0
 22 23  1  0  0  0
 22 62  1  0  0  0
 22 63  1  0  0  0
 23 24  1  0  0  0
 23 64  1  0  0  0
 23 65  1  0  0  0
 24 25  1  0  0  0
 24 66  1  0  0  0
 24 67  1  0  0  0
 25 26  1  0  0  0
 25 68  1  0  0  0
 26 27  1  0  0  0
 26 69  1  0  0  0
 26 31  1  0  0  0
 27 28  1  0  0  0
 27 70  1  0  0  0
 27 71  1  0  0  0
 28 29  1  0  0  0
 28 72  1  0  0  0
 28 73  1  0  0  0
 29 74  1  0  0  0
 29 75  1  0  0  0
 29 30  1  0  0  0
 30 35  1  0  0  0
 30 31  2  0  0  0
 31 32  1  0  0  0
 32 76  1  0  0  0
 32 33  2  0  0  0
 33 34  1  0  0  0
 33 77  1  0  0  0
 34 36  2  0  0  0
 34 35  1  0  0  0
 35 78  1  0  0  0
M  END
> <s_m_entry_id>
9943

> <s_m_entry_name>
ligand_docking-pose.385

> <s_m_Source_Path>
/home/csk/Desktop/cluster/DUD-E-result/aces

> <s_m_Source_File>
ligand_docking-pose.sdf

> <i_m_Source_File_Index>
385

> <i_lp_mmshare_version>
53161

> <r_lp_tautomer_probability>
0.999

> <s_lp_Force_Field>
OPLS_2005

> <r_lp_Energy>
38.111727

> <b_lp_Chiralities_Consistent>
1

> <s_lp_Variant>
121747-1

> <s_i_glide_gridfile>
glide-grid_1e66

> <i_i_glide_lignum>
148

> <i_i_glide_rotatable_bonds>
12

> <r_i_docking_score>
-6.87995717347494

> <r_i_glide_ligand_efficiency>
-0.191109921485415

> <r_i_glide_ligand_efficiency_sa>
-0.631031056533034

> <r_i_glide_ligand_efficiency_ln>
-1.5010207802899

> <r_i_glide_gscore>
-6.87995717347494

> <r_i_glide_lipo>
-4.75962808169542

> <r_i_glide_hbond>
0

> <r_i_glide_metal>
0

> <r_i_glide_rewards>
-0.990740590909089

> <r_i_glide_evdw>
-46.7419319152832

> <r_i_glide_ecoul>
2.32985067367554

> <r_i_glide_erotb>
0.858030493842391

> <r_i_glide_esite>
0

> <r_i_glide_emodel>
-50.1525465190781

> <r_i_glide_energy>
-44.4120812416077

> <r_i_glide_einternal>
13.1060266494751

> <i_i_glide_confnum>
43

> <i_i_glide_posenum>
196

> <r_i_glide_eff_state_penalty>
0

> <i_f3d_flags>
0

> <s_user_duplicate_titles>
121747

> <s_m_subgroup_title>
dock_pv

> <s_m_subgroupid>
dock_pv1

> <b_m_subgroup_collapsed>
1

$$$$
182814
                    3D
 Schrodinger Suite 2021-1.
 50 52  0  0  1  0            999 V2000
    1.0618   68.5079   62.1127 C   0  0  0  0  0  0
    1.2039   68.5071   63.5292 O   0  0  0  0  0  0
    2.4101   68.8650   64.1085 C   0  0  0  0  0  0
    3.5915   68.9836   63.3557 C   0  0  0  0  0  0
    4.7980   69.3338   63.9556 C   0  0  0  0  0  0
    4.8420   69.6121   65.3230 C   0  0  0  0  0  0
    3.6851   69.4845   66.0782 C   0  0  0  0  0  0
    2.4668   69.0795   65.5044 C   0  0  0  0  0  0
    1.2556   68.8710   66.3951 C   0  0  0  0  0  0
    0.0994   68.9078   65.9749 O   0  0  0  0  0  0
    1.5527   68.5257   67.6556 N   0  0  0  0  0  0
    0.7288   67.8021   68.6049 C   0  0  0  0  0  0
    0.0017   66.5850   67.9967 C   0  0  0  0  0  0
   -0.4575   65.5157   68.9996 C   0  0  0  0  0  0
    0.4937   65.2382   70.0570 N   0  0  1  0  0  0
    0.8113   66.4392   70.8011 C   0  0  0  0  0  0
    1.5430   67.3970   69.8562 C   0  0  0  0  0  0
    0.1931   64.0522   70.8687 C   0  0  0  0  0  0
    1.3566   63.0575   70.9357 C   0  0  0  0  0  0
    2.6953   63.4762   70.9009 C   0  0  0  0  0  0
    3.7265   62.5508   71.0423 C   0  0  0  0  0  0
    3.4230   61.2062   71.2415 C   0  0  0  0  0  0
    2.0978   60.7816   71.3067 C   0  0  0  0  0  0
    1.0679   61.7088   71.1676 C   0  0  0  0  0  0
    6.2933   70.1043   66.1305 Cl  0  0  0  0  0  0
    5.9430   69.3852   63.1681 N   0  0  0  0  0  0
    0.0322   68.2587   61.8556 H   0  0  0  0  0  0
    1.2818   69.4894   61.6898 H   0  0  0  0  0  0
    1.7043   67.7641   61.6425 H   0  0  0  0  0  0
    3.5901   68.7947   62.2938 H   0  0  0  0  0  0
    3.7606   69.7066   67.1332 H   0  0  0  0  0  0
    2.4906   68.7086   67.9714 H   0  0  0  0  0  0
   -0.0537   68.4799   68.9366 H   0  0  0  0  0  0
   -0.8726   66.9125   67.4326 H   0  0  0  0  0  0
    0.6658   66.1082   67.2845 H   0  0  0  0  0  0
   -1.4627   65.7144   69.3553 H   0  0  0  0  0  0
   -0.4570   64.5686   68.4853 H   0  0  0  0  0  0
   -0.0684   66.8653   71.2871 H   0  0  0  0  0  0
    1.5058   66.1164   71.5680 H   0  0  0  0  0  0
    2.4198   66.8338   69.5687 H   0  0  0  0  0  0
    1.9361   68.2739   70.3680 H   0  0  0  0  0  0
   -0.0571   64.3472   71.8893 H   0  0  0  0  0  0
   -0.6871   63.5264   70.4929 H   0  0  0  0  0  0
    2.9450   64.5174   70.7596 H   0  0  0  0  0  0
    4.7553   62.8779   71.0070 H   0  0  0  0  0  0
    4.2211   60.4883   71.3592 H   0  0  0  0  0  0
    1.8677   59.7392   71.4740 H   0  0  0  0  0  0
    0.0425   61.3722   71.2327 H   0  0  0  0  0  0
    5.8795   69.2224   62.1717 H   0  0  0  0  0  0
    6.8168   69.7060   63.5815 H   0  0  0  0  0  0
  1  2  1  0  0  0
  1 27  1  0  0  0
  1 28  1  0  0  0
  1 29  1  0  0  0
  2  3  1  0  0  0
  3  8  1  0  0  0
  3  4  2  0  0  0
  4  5  1  0  0  0
  4 30  1  0  0  0
  5  6  2  0  0  0
  5 26  1  0  0  0
  6  7  1  0  0  0
  6 25  1  0  0  0
  7  8  2  0  0  0
  7 31  1  0  0  0
  8  9  1  0  0  0
  9 10  2  0  0  0
  9 11  1  0  0  0
 11 12  1  0  0  0
 11 32  1  0  0  0
 12 17  1  0  0  0
 12 13  1  0  0  0
 12 33  1  0  0  0
 13 14  1  0  0  0
 13 34  1  0  0  0
 13 35  1  0  0  0
 14 15  1  0  0  0
 14 36  1  0  0  0
 14 37  1  0  0  0
 15 16  1  0  0  0
 15 18  1  0  0  0
 16 17  1  0  0  0
 16 38  1  0  0  0
 16 39  1  0  0  0
 17 40  1  0  0  0
 17 41  1  0  0  0
 18 19  1  0  0  0
 18 42  1  0  0  0
 18 43  1  0  0  0
 19 24  1  0  0  0
 19 20  2  0  0  0
 20 21  1  0  0  0
 20 44  1  0  0  0
 21 22  2  0  0  0
 21 45  1  0  0  0
 22 23  1  0  0  0
 22 46  1  0  0  0
 23 24  2  0  0  0
 23 47  1  0  0  0
 24 48  1  0  0  0
 26 49  1  0  0  0
 26 50  1  0  0  0
M  END
> <s_m_entry_id>
9944

> <s_m_entry_name>
ligand_docking-pose.386

> <s_m_Source_Path>
/home/csk/Desktop/cluster/DUD-E-result/aces

> <s_m_Source_File>
ligand_docking-pose.sdf

> <i_m_Source_File_Index>
386

> <i_lp_mmshare_version>
53161

> <r_lp_tautomer_probability>
1

> <s_lp_Force_Field>
OPLS_2005

> <r_lp_Energy>
33.309915

> <b_lp_Chiralities_Consistent>
1

> <s_lp_Variant>
182814-1

> <s_i_glide_gridfile>
glide-grid_1e66

> <i_i_glide_lignum>
2111

> <i_i_glide_rotatable_bonds>
6

> <r_i_docking_score>
-6.87483092242377

> <r_i_glide_ligand_efficiency>
-0.264416573939376

> <r_i_glide_ligand_efficiency_sa>
-0.783333059866423

> <r_i_glide_ligand_efficiency_ln>
-1.61453148397104

> <r_i_glide_gscore>
-6.87483092242377

> <r_i_glide_lipo>
-3.54082660352021

> <r_i_glide_hbond>
-0.32

> <r_i_glide_metal>
0

> <r_i_glide_rewards>
-1.90147862053703

> <r_i_glide_evdw>
-33.4501762390137

> <r_i_glide_ecoul>
-0.876262009143829

> <r_i_glide_erotb>
0.691422414955724

> <r_i_glide_esite>
0

> <r_i_glide_emodel>
-37.3743531660922

> <r_i_glide_energy>
-34.3264382481575

> <r_i_glide_einternal>
11.8042068481445

> <i_i_glide_confnum>
17

> <i_i_glide_posenum>
278

> <r_i_glide_eff_state_penalty>
0

> <i_f3d_flags>
0

> <s_user_duplicate_titles>
182814

> <s_m_subgroup_title>
dock_pv

> <s_m_subgroupid>
dock_pv1

> <b_m_subgroup_collapsed>
1

$$$$
181205
                    3D
 Schrodinger Suite 2021-1.
 40 43  0  0  1  0            999 V2000
    6.0888   68.5573   62.4031 C   0  0  0  0  0  0
    5.2030   68.8408   63.5993 C   0  0  0  0  0  0
    5.7165   69.4676   64.7326 C   0  0  0  0  0  0
    4.9282   69.7071   65.8474 C   0  0  0  0  0  0
    3.5675   69.3118   65.8537 C   0  0  0  0  0  0
    3.0368   68.6883   64.6870 C   0  0  0  0  0  0
    3.8671   68.4544   63.5686 C   0  0  0  0  0  0
    1.7433   68.3054   64.6050 N   0  0  0  0  0  0
    0.9231   68.5062   65.6627 C   0  0  0  0  0  0
    1.3656   69.0720   66.8707 C   0  0  0  0  0  0
    2.6964   69.5052   66.9620 C   0  0  0  0  0  0
    3.1440   70.1080   68.1460 N   0  0  0  0  0  0
    0.3907   69.1583   68.0407 C   0  0  1  0  0  0
   -1.0539   69.3920   67.5583 C   0  0  0  0  0  0
   -1.4400   68.1770   66.7067 C   0  0  1  0  0  0
   -0.5255   68.0719   65.4633 C   0  0  0  0  0  0
   -1.3292   66.9154   67.5635 C   0  0  0  0  0  0
   -0.4061   66.7507   68.5340 C   0  0  0  0  0  0
    0.5474   67.8810   68.9195 C   0  0  0  0  0  0
   -0.3136   65.4917   69.3741 C   0  0  0  0  0  0
    7.1426   68.5123   62.6772 H   0  0  0  0  0  0
    5.9438   69.3184   61.6360 H   0  0  0  0  0  0
    5.8448   67.5893   61.9671 H   0  0  0  0  0  0
    6.7428   69.7859   64.7730 H   0  0  0  0  0  0
    5.3593   70.1930   66.7098 H   0  0  0  0  0  0
    3.4524   67.9780   62.6917 H   0  0  0  0  0  0
    2.5143   70.1611   68.9356 H   0  0  0  0  0  0
    4.1115   70.3800   68.2320 H   0  0  0  0  0  0
    0.6670   70.0304   68.6325 H   0  0  0  0  0  0
   -1.7577   69.5518   68.3674 H   0  0  0  0  0  0
   -1.1147   70.3009   66.9589 H   0  0  0  0  0  0
   -2.4813   68.2769   66.3952 H   0  0  0  0  0  0
   -0.9572   68.6350   64.6349 H   0  0  0  0  0  0
   -0.4562   67.0357   65.1682 H   0  0  0  0  0  0
   -2.0108   66.1083   67.3508 H   0  0  0  0  0  0
    1.5730   67.5183   68.9484 H   0  0  0  0  0  0
    0.3539   68.1074   69.9585 H   0  0  0  0  0  0
    0.6351   64.9865   69.1898 H   0  0  0  0  0  0
   -0.3728   65.7514   70.4309 H   0  0  0  0  0  0
   -1.1143   64.7838   69.1678 H   0  0  0  0  0  0
  1  2  1  0  0  0
  1 21  1  0  0  0
  1 22  1  0  0  0
  1 23  1  0  0  0
  2  7  1  0  0  0
  2  3  2  0  0  0
  3  4  1  0  0  0
  3 24  1  0  0  0
  4  5  2  0  0  0
  4 25  1  0  0  0
  5 11  1  0  0  0
  5  6  1  0  0  0
  6  7  2  0  0  0
  6  8  1  0  0  0
  7 26  1  0  0  0
  8  9  2  0  0  0
  9 16  1  0  0  0
  9 10  1  0  0  0
 10 11  2  0  0  0
 10 13  1  0  0  0
 11 12  1  0  0  0
 12 27  1  0  0  0
 12 28  1  0  0  0
 13 19  1  0  0  0
 13 14  1  0  0  0
 13 29  1  0  0  0
 14 15  1  0  0  0
 14 30  1  0  0  0
 14 31  1  0  0  0
 15 16  1  0  0  0
 15 17  1  0  0  0
 15 32  1  0  0  0
 16 33  1  0  0  0
 16 34  1  0  0  0
 17 18  2  0  0  0
 17 35  1  0  0  0
 18 19  1  0  0  0
 18 20  1  0  0  0
 19 36  1  0  0  0
 19 37  1  0  0  0
 20 38  1  0  0  0
 20 39  1  0  0  0
 20 40  1  0  0  0
M  END
> <s_m_entry_id>
9945

> <s_m_entry_name>
ligand_docking-pose.387

> <s_m_Source_Path>
/home/csk/Desktop/cluster/DUD-E-result/aces

> <s_m_Source_File>
ligand_docking-pose.sdf

> <i_m_Source_File_Index>
387

> <i_lp_mmshare_version>
53161

> <r_lp_tautomer_probability>
1

> <s_lp_Force_Field>
OPLS_2005

> <r_lp_Energy>
25.22974

> <b_lp_Chiralities_Consistent>
1

> <s_lp_Variant>
181205-2

> <s_i_glide_gridfile>
glide-grid_1e66

> <i_i_glide_lignum>
679

> <i_i_glide_rotatable_bonds>
0

> <r_i_docking_score>
-6.87410827097121

> <r_i_glide_ligand_efficiency>
-0.343705413548561

> <r_i_glide_ligand_efficiency_sa>
-0.932960028523618

> <r_i_glide_ligand_efficiency_ln>
-1.72036257695941

> <r_i_glide_gscore>
-6.87410827097121

> <r_i_glide_lipo>
-3.01591983616675

> <r_i_glide_hbond>
0

> <r_i_glide_metal>
0

> <r_i_glide_rewards>
-2.20891731616356

> <r_i_glide_evdw>
-24.3800182342529

> <r_i_glide_ecoul>
-2.86846804618835

> <r_i_glide_erotb>
0

> <r_i_glide_esite>
0

> <r_i_glide_emodel>
-32.1131778801027

> <r_i_glide_energy>
-27.2484862804413

> <r_i_glide_einternal>
0

> <i_i_glide_confnum>
1

> <i_i_glide_posenum>
164

> <r_i_glide_eff_state_penalty>
0

> <i_f3d_flags>
0

> <s_user_duplicate_titles>
181205

> <s_m_subgroup_title>
dock_pv

> <s_m_subgroupid>
dock_pv1

> <b_m_subgroup_collapsed>
1

$$$$
226963
                    3D
 Schrodinger Suite 2021-1.
 31 31  0  0  1  0            999 V2000
    4.4468   69.2012   62.5092 C   0  0  0  0  0  0
    3.3946   68.9412   63.5812 C   0  0  0  0  0  0
    3.7586   68.9986   64.9271 C   0  0  0  0  0  0
    2.8091   68.8108   65.9272 C   0  0  0  0  0  0
    1.4772   68.5298   65.5885 C   0  0  0  0  0  0
    1.1154   68.4378   64.2357 C   0  0  0  0  0  0
    2.0636   68.6802   63.2243 C   0  0  0  0  0  0
    1.7567   68.6961   61.8755 O   0  0  0  0  0  0
    0.3925   68.6819   61.4699 C   0  0  0  0  0  0
    0.4237   68.3672   66.6789 N   0  3  0  0  0  0
   -0.9798   68.9055   66.2824 C   0  0  0  0  0  0
    0.2342   66.8778   67.0328 C   0  0  0  0  0  0
    0.7792   69.1003   68.0030 C   0  0  0  0  0  0
    5.4414   69.3674   62.9263 H   0  0  0  0  0  0
    4.1743   70.0788   61.9210 H   0  0  0  0  0  0
    4.5077   68.3593   61.8165 H   0  0  0  0  0  0
    4.7786   69.2182   65.2054 H   0  0  0  0  0  0
    3.1428   68.9082   66.9477 H   0  0  0  0  0  0
    0.0992   68.2045   63.9592 H   0  0  0  0  0  0
    0.3418   68.8635   60.3949 H   0  0  0  0  0  0
   -0.0727   67.7138   61.6692 H   0  0  0  0  0  0
   -0.1864   69.4711   61.9564 H   0  0  0  0  0  0
   -1.6478   68.8474   67.1434 H   0  0  0  0  0  0
   -0.8586   69.9420   65.9679 H   0  0  0  0  0  0
   -1.3851   68.2976   65.4739 H   0  0  0  0  0  0
   -0.5372   66.7900   67.8003 H   0  0  0  0  0  0
   -0.0575   66.3505   66.1220 H   0  0  0  0  0  0
    1.1919   66.5073   67.3990 H   0  0  0  0  0  0
   -0.0570   69.0407   68.6964 H   0  0  0  0  0  0
    1.6443   68.6203   68.4577 H   0  0  0  0  0  0
    0.9946   70.1409   67.7601 H   0  0  0  0  0  0
  1  2  1  0  0  0
  1 14  1  0  0  0
  1 15  1  0  0  0
  1 16  1  0  0  0
  2  7  1  0  0  0
  2  3  2  0  0  0
  3  4  1  0  0  0
  3 17  1  0  0  0
  4  5  2  0  0  0
  4 18  1  0  0  0
  5  6  1  0  0  0
  5 10  1  0  0  0
  6  7  2  0  0  0
  6 19  1  0  0  0
  7  8  1  0  0  0
  8  9  1  0  0  0
  9 20  1  0  0  0
  9 21  1  0  0  0
  9 22  1  0  0  0
 10 11  1  0  0  0
 10 12  1  0  0  0
 10 13  1  0  0  0
 11 23  1  0  0  0
 11 24  1  0  0  0
 11 25  1  0  0  0
 12 26  1  0  0  0
 12 27  1  0  0  0
 12 28  1  0  0  0
 13 29  1  0  0  0
 13 30  1  0  0  0
 13 31  1  0  0  0
M  CHG  1  10   1
M  END
> <s_m_entry_id>
9948

> <s_m_entry_name>
ligand_docking-pose.390

> <s_m_Source_Path>
/home/csk/Desktop/cluster/DUD-E-result/aces

> <s_m_Source_File>
ligand_docking-pose.sdf

> <i_m_Source_File_Index>
390

> <i_lp_mmshare_version>
53161

> <r_lp_tautomer_probability>
1

> <s_lp_Force_Field>
OPLS_2005

> <r_lp_Energy>
19.198825

> <b_lp_Chiralities_Consistent>
1

> <s_lp_Variant>
226963-1

> <s_i_glide_gridfile>
glide-grid_1e66

> <i_i_glide_lignum>
798

> <i_i_glide_rotatable_bonds>
2

> <r_i_docking_score>
-6.86605680320018

> <r_i_glide_ligand_efficiency>
-0.528158215630783

> <r_i_glide_ligand_efficiency_sa>
-1.24187673195558

> <r_i_glide_ligand_efficiency_ln>
-1.92598999725742

> <r_i_glide_gscore>
-6.86605680320018

> <r_i_glide_lipo>
-2.32115603975935

> <r_i_glide_hbond>
0

> <r_i_glide_metal>
0

> <r_i_glide_rewards>
-2.57331467907498

> <r_i_glide_evdw>
-23.4256572723389

> <r_i_glide_ecoul>
-5.33535480499268

> <r_i_glide_erotb>
0

> <r_i_glide_esite>
0

> <r_i_glide_emodel>
-44.7084215299004

> <r_i_glide_energy>
-28.7610120773315

> <r_i_glide_einternal>
1.51020801067352

> <i_i_glide_confnum>
1

> <i_i_glide_posenum>
46

> <r_i_glide_eff_state_penalty>
0

> <i_f3d_flags>
0

> <s_user_duplicate_titles>
226963

> <s_m_subgroup_title>
dock_pv

> <s_m_subgroupid>
dock_pv1

> <b_m_subgroup_collapsed>
1

$$$$
449810
                    3D
 Schrodinger Suite 2021-1.
 59 63  0  0  1  0            999 V2000
    4.1385   68.9265   61.9515 C   0  0  0  0  0  0
    4.7956   68.1924   62.9365 C   0  0  0  0  0  0
    4.0757   67.6886   64.0185 C   0  0  0  0  0  0
    2.7110   67.9498   64.1302 C   0  0  0  0  0  0
    2.0533   68.6622   63.1221 C   0  0  0  0  0  0
    2.7615   69.1439   62.0177 C   0  0  0  0  0  0
    0.5652   68.9069   63.2681 C   0  0  0  0  0  0
   -0.1186   69.4752   62.4163 O   0  0  0  0  0  0
    0.0699   68.4487   64.4662 N   0  0  0  0  0  0
    0.7852   67.7351   65.4054 C   0  0  0  0  0  0
    2.0322   67.4663   65.2566 N   0  0  0  0  0  0
   -0.1067   67.3450   66.5738 C   0  0  2  0  0  0
   -1.4999   67.8131   66.1539 C   0  0  0  0  0  0
   -1.3150   68.6615   64.8988 C   0  0  0  0  0  0
    0.3257   67.8732   67.9733 C   0  0  0  0  0  0
    0.5228   66.7708   69.0117 C   0  0  0  0  0  0
   -0.3672   65.7080   69.1332 C   0  0  0  0  0  0
   -0.0663   64.6299   69.9675 C   0  0  0  0  0  0
    1.0652   64.6494   70.7719 C   0  0  0  0  0  0
    1.9552   65.7014   70.6186 C   0  0  0  0  0  0
    1.6557   66.7837   69.8064 C   0  0  0  0  0  0
    1.3314   63.7334   71.7685 O   0  0  0  0  0  0
    0.5893   62.5168   71.8661 C   0  0  0  0  0  0
    0.9990   61.4773   70.7993 C   0  0  0  0  0  0
    2.3580   60.9664   71.0127 N   0  0  0  0  0  0
    3.4130   61.9351   70.6675 C   0  0  0  0  0  0
    4.7963   61.4100   71.0631 C   0  0  0  0  0  0
    5.0795   60.0616   70.4077 C   0  0  0  0  0  0
    3.9429   59.0723   70.7211 C   0  0  0  0  0  0
    2.5595   59.6604   70.3664 C   0  0  0  0  0  0
    4.7221   69.3190   61.1305 H   0  0  0  0  0  0
    5.8605   68.0256   62.8575 H   0  0  0  0  0  0
    4.5821   67.1144   64.7729 H   0  0  0  0  0  0
    2.2639   69.7037   61.2368 H   0  0  0  0  0  0
   -0.1039   66.2554   66.5783 H   0  0  0  0  0  0
   -2.1283   66.9424   65.9682 H   0  0  0  0  0  0
   -2.0275   68.3836   66.9226 H   0  0  0  0  0  0
   -2.0375   68.4400   64.1127 H   0  0  0  0  0  0
   -1.4581   69.7079   65.1650 H   0  0  0  0  0  0
   -0.3819   68.6017   68.3640 H   0  0  0  0  0  0
    1.2585   68.4332   67.8833 H   0  0  0  0  0  0
   -1.2680   65.7078   68.5444 H   0  0  0  0  0  0
   -0.7769   63.8224   70.0187 H   0  0  0  0  0  0
    2.8806   65.7078   71.1677 H   0  0  0  0  0  0
    2.3430   67.6121   69.7462 H   0  0  0  0  0  0
   -0.4844   62.7033   71.8410 H   0  0  0  0  0  0
    0.7732   62.1046   72.8590 H   0  0  0  0  0  0
    0.9071   61.8928   69.7937 H   0  0  0  0  0  0
    0.2842   60.6544   70.8582 H   0  0  0  0  0  0
    3.2934   62.8723   71.2001 H   0  0  0  0  0  0
    3.3586   62.1794   69.6039 H   0  0  0  0  0  0
    4.8748   61.3470   72.1506 H   0  0  0  0  0  0
    5.5480   62.1374   70.7682 H   0  0  0  0  0  0
    5.1489   60.1775   69.3269 H   0  0  0  0  0  0
    6.0411   59.7081   70.7690 H   0  0  0  0  0  0
    4.0908   58.1493   70.1600 H   0  0  0  0  0  0
    3.9512   58.7720   71.7706 H   0  0  0  0  0  0
    1.7897   58.9713   70.7189 H   0  0  0  0  0  0
    2.4255   59.7507   69.2868 H   0  0  0  0  0  0
  1  6  1  0  0  0
  1  2  2  0  0  0
  1 31  1  0  0  0
  2  3  1  0  0  0
  2 32  1  0  0  0
  3  4  2  0  0  0
  3 33  1  0  0  0
  4 11  1  0  0  0
  4  5  1  0  0  0
  5  6  2  0  0  0
  5  7  1  0  0  0
  6 34  1  0  0  0
  7  8  2  0  0  0
  7  9  1  0  0  0
  9 14  1  0  0  0
  9 10  1  0  0  0
 10 11  2  0  0  0
 10 12  1  0  0  0
 12 13  1  0  0  0
 12 15  1  0  0  0
 12 35  1  0  0  0
 13 14  1  0  0  0
 13 36  1  0  0  0
 13 37  1  0  0  0
 14 38  1  0  0  0
 14 39  1  0  0  0
 15 16  1  0  0  0
 15 40  1  0  0  0
 15 41  1  0  0  0
 16 21  1  0  0  0
 16 17  2  0  0  0
 17 18  1  0  0  0
 17 42  1  0  0  0
 18 19  2  0  0  0
 18 43  1  0  0  0
 19 20  1  0  0  0
 19 22  1  0  0  0
 20 21  2  0  0  0
 20 44  1  0  0  0
 21 45  1  0  0  0
 22 23  1  0  0  0
 23 24  1  0  0  0
 23 46  1  0  0  0
 23 47  1  0  0  0
 24 25  1  0  0  0
 24 48  1  0  0  0
 24 49  1  0  0  0
 25 30  1  0  0  0
 25 26  1  0  0  0
 26 27  1  0  0  0
 26 50  1  0  0  0
 26 51  1  0  0  0
 27 28  1  0  0  0
 27 52  1  0  0  0
 27 53  1  0  0  0
 28 29  1  0  0  0
 28 54  1  0  0  0
 28 55  1  0  0  0
 29 30  1  0  0  0
 29 56  1  0  0  0
 29 57  1  0  0  0
 30 58  1  0  0  0
 30 59  1  0  0  0
M  END
> <s_m_entry_id>
9949

> <s_m_entry_name>
ligand_docking-pose.391

> <s_m_Source_Path>
/home/csk/Desktop/cluster/DUD-E-result/aces

> <s_m_Source_File>
ligand_docking-pose.sdf

> <i_m_Source_File_Index>
391

> <i_lp_mmshare_version>
53161

> <r_lp_tautomer_probability>
1

> <s_lp_Force_Field>
OPLS_2005

> <r_lp_Energy>
49.190078

> <b_lp_Chiralities_Consistent>
1

> <s_lp_Variant>
449810-2

> <s_i_glide_gridfile>
glide-grid_1e66

> <i_i_glide_lignum>
298

> <i_i_glide_rotatable_bonds>
6

> <r_i_docking_score>
-6.86394635478609

> <r_i_glide_ligand_efficiency>
-0.228798211826203

> <r_i_glide_ligand_efficiency_sa>
-0.710929240284491

> <r_i_glide_ligand_efficiency_ln>
-1.55956340049304

> <r_i_glide_gscore>
-6.86394635478609

> <r_i_glide_lipo>
-3.54153190060056

> <r_i_glide_hbond>
0

> <r_i_glide_metal>
0

> <r_i_glide_rewards>
-1.58198843849472

> <r_i_glide_evdw>
-41.4494972229004

> <r_i_glide_ecoul>
-1.80581772327423

> <r_i_glide_erotb>
0.602921503945343

> <r_i_glide_esite>
0

> <r_i_glide_emodel>
-54.0913787244325

> <r_i_glide_energy>
-43.2553149461746

> <r_i_glide_einternal>
5.91689491271973

> <i_i_glide_confnum>
51

> <i_i_glide_posenum>
198

> <r_i_glide_eff_state_penalty>
0

> <i_f3d_flags>
0

> <s_user_duplicate_titles>
449810

> <s_m_subgroup_title>
dock_pv

> <s_m_subgroupid>
dock_pv1

> <b_m_subgroup_collapsed>
1

$$$$
175201
                    3D
 Schrodinger Suite 2021-1.
 69 71  0  0  1  0            999 V2000
   -0.4954   68.6581   62.9640 C   0  0  0  0  0  0
    0.9183   68.4666   63.5357 C   0  0  0  0  0  0
    0.9620   67.7728   64.8347 N   0  0  2  0  0  0
    0.3254   68.5066   65.9426 C   0  0  0  0  0  0
    0.0443   67.6334   67.1968 C   0  0  0  0  0  0
    0.9085   68.0220   68.4204 C   0  0  0  0  0  0
    0.8430   67.0978   69.6608 C   0  0  0  0  0  0
    0.8762   65.5863   69.3867 C   0  0  0  0  0  0
    0.7564   64.7422   70.6673 C   0  0  0  0  0  0
    0.4693   63.2440   70.3769 C   0  0  2  0  0  0
   -0.4251   62.5498   71.4202 C   0  0  0  0  0  0
    0.3476   61.3404   71.8620 C   0  0  0  0  0  0
   -0.0289   60.3466   72.7648 C   0  0  0  0  0  0
    0.8604   59.3122   73.1016 C   0  0  0  0  0  0
    2.1465   59.3127   72.5316 C   0  0  0  0  0  0
    2.5062   60.2876   71.5988 C   0  0  0  0  0  0
    1.6036   61.2989   71.2680 C   0  0  0  0  0  0
    1.7704   62.4280   70.3272 C   0  0  0  0  0  0
    2.7625   62.6756   69.6398 O   0  0  0  0  0  0
    3.0754   58.3579   72.8644 O   0  0  0  0  0  0
    3.6684   58.5461   74.1447 C   0  0  0  0  0  0
    0.5475   58.2848   73.9742 O   0  0  0  0  0  0
   -0.7450   58.2378   74.5676 C   0  0  0  0  0  0
    2.3129   67.2713   65.1546 C   0  0  0  0  0  0
    3.4618   68.2705   64.9577 C   0  0  0  0  0  0
    3.7486   69.2090   65.9555 C   0  0  0  0  0  0
    4.7971   70.1077   65.8040 C   0  0  0  0  0  0
    5.5433   70.1079   64.6327 C   0  0  0  0  0  0
    5.2695   69.1866   63.6288 C   0  0  0  0  0  0
    4.2342   68.2477   63.7809 C   0  0  0  0  0  0
    3.9425   67.2834   62.8326 O   0  0  0  0  0  0
    4.5830   67.3559   61.5683 C   0  0  0  0  0  0
   -0.4483   69.1070   61.9708 H   0  0  0  0  0  0
   -1.0150   67.7083   62.8643 H   0  0  0  0  0  0
   -1.1138   69.3072   63.5804 H   0  0  0  0  0  0
    1.4227   69.4320   63.6037 H   0  0  0  0  0  0
    1.4779   67.8816   62.8077 H   0  0  0  0  0  0
   -0.6316   68.9114   65.6161 H   0  0  0  0  0  0
    0.9414   69.3621   66.2104 H   0  0  0  0  0  0
    0.2400   66.5904   66.9491 H   0  0  0  0  0  0
   -1.0163   67.6730   67.4512 H   0  0  0  0  0  0
    0.6357   69.0323   68.7323 H   0  0  0  0  0  0
    1.9431   68.1080   68.1188 H   0  0  0  0  0  0
   -0.0574   67.3080   70.2282 H   0  0  0  0  0  0
    1.6632   67.3618   70.3317 H   0  0  0  0  0  0
    1.7691   65.3196   68.8167 H   0  0  0  0  0  0
    0.0165   65.3372   68.7669 H   0  0  0  0  0  0
   -0.0569   65.1557   71.2635 H   0  0  0  0  0  0
    1.6485   64.8792   71.2813 H   0  0  0  0  0  0
   -0.0181   63.1477   69.4056 H   0  0  0  0  0  0
   -1.3820   62.2815   70.9738 H   0  0  0  0  0  0
   -0.6223   63.2031   72.2701 H   0  0  0  0  0  0
   -1.0144   60.3918   73.2008 H   0  0  0  0  0  0
    3.4907   60.2550   71.1569 H   0  0  0  0  0  0
    4.3419   57.7216   74.3715 H   0  0  0  0  0  0
    2.9289   58.5811   74.9451 H   0  0  0  0  0  0
    4.2523   59.4662   74.1745 H   0  0  0  0  0  0
   -0.8151   57.3600   75.2097 H   0  0  0  0  0  0
   -0.9302   59.1156   75.1872 H   0  0  0  0  0  0
   -1.5291   58.1563   73.8137 H   0  0  0  0  0  0
    2.3483   66.8748   66.1684 H   0  0  0  0  0  0
    2.5044   66.3945   64.5362 H   0  0  0  0  0  0
    3.1704   69.2515   66.8620 H   0  0  0  0  0  0
    5.0109   70.8258   66.5827 H   0  0  0  0  0  0
    6.3428   70.8230   64.5028 H   0  0  0  0  0  0
    5.8823   69.2158   62.7392 H   0  0  0  0  0  0
    4.2234   66.5465   60.9385 H   0  0  0  0  0  0
    4.3429   68.2959   61.0677 H   0  0  0  0  0  0
    5.6668   67.2525   61.6482 H   0  0  0  0  0  0
  1  2  1  0  0  0
  1 33  1  0  0  0
  1 34  1  0  0  0
  1 35  1  0  0  0
  2  3  1  0  0  0
  2 36  1  0  0  0
  2 37  1  0  0  0
  3  4  1  0  0  0
  3 24  1  0  0  0
  4  5  1  0  0  0
  4 38  1  0  0  0
  4 39  1  0  0  0
  5  6  1  0  0  0
  5 40  1  0  0  0
  5 41  1  0  0  0
  6  7  1  0  0  0
  6 42  1  0  0  0
  6 43  1  0  0  0
  7  8  1  0  0  0
  7 44  1  0  0  0
  7 45  1  0  0  0
  8  9  1  0  0  0
  8 46  1  0  0  0
  8 47  1  0  0  0
  9 10  1  0  0  0
  9 48  1  0  0  0
  9 49  1  0  0  0
 10 18  1  0  0  0
 10 11  1  0  0  0
 10 50  1  0  0  0
 11 12  1  0  0  0
 11 51  1  0  0  0
 11 52  1  0  0  0
 12 17  2  0  0  0
 12 13  1  0  0  0
 13 14  2  0  0  0
 13 53  1  0  0  0
 14 15  1  0  0  0
 14 22  1  0  0  0
 15 16  2  0  0  0
 15 20  1  0  0  0
 16 17  1  0  0  0
 16 54  1  0  0  0
 17 18  1  0  0  0
 18 19  2  0  0  0
 20 21  1  0  0  0
 21 55  1  0  0  0
 21 56  1  0  0  0
 21 57  1  0  0  0
 22 23  1  0  0  0
 23 58  1  0  0  0
 23 59  1  0  0  0
 23 60  1  0  0  0
 24 25  1  0  0  0
 24 61  1  0  0  0
 24 62  1  0  0  0
 25 30  1  0  0  0
 25 26  2  0  0  0
 26 27  1  0  0  0
 26 63  1  0  0  0
 27 28  2  0  0  0
 27 64  1  0  0  0
 28 29  1  0  0  0
 28 65  1  0  0  0
 29 30  2  0  0  0
 29 66  1  0  0  0
 30 31  1  0  0  0
 31 32  1  0  0  0
 32 67  1  0  0  0
 32 68  1  0  0  0
 32 69  1  0  0  0
M  END
> <s_m_entry_id>
9951

> <s_m_entry_name>
ligand_docking-pose.393

> <s_m_Source_Path>
/home/csk/Desktop/cluster/DUD-E-result/aces

> <s_m_Source_File>
ligand_docking-pose.sdf

> <i_m_Source_File_Index>
393

> <i_lp_mmshare_version>
53161

> <r_lp_tautomer_probability>
0.99995

> <s_lp_Force_Field>
OPLS_2005

> <r_lp_Energy>
48.359305

> <b_lp_Chiralities_Consistent>
1

> <s_lp_Variant>
175201-1

> <s_i_glide_gridfile>
glide-grid_1e66

> <i_i_glide_lignum>
1301

> <i_i_glide_rotatable_bonds>
13

> <r_i_docking_score>
-6.85592692110924

> <r_i_glide_ligand_efficiency>
-0.214247716284664

> <r_i_glide_ligand_efficiency_sa>
-0.680194099638328

> <r_i_glide_ligand_efficiency_ln>
-1.53522892314591

> <r_i_glide_gscore>
-6.85592692110924

> <r_i_glide_lipo>
-3.87968613527234

> <r_i_glide_hbond>
0

> <r_i_glide_metal>
0

> <r_i_glide_rewards>
-1.53799133728225

> <r_i_glide_evdw>
-47.5394821166992

> <r_i_glide_ecoul>
0.0607426278293133

> <r_i_glide_erotb>
0.929613263105922

> <r_i_glide_esite>
0

> <r_i_glide_emodel>
-59.7751605034509

> <r_i_glide_energy>
-47.4787394888699

> <r_i_glide_einternal>
14.3446760177612

> <i_i_glide_confnum>
36

> <i_i_glide_posenum>
386

> <r_i_glide_eff_state_penalty>
0

> <i_f3d_flags>
0

> <s_user_duplicate_titles>
175201

> <s_m_subgroup_title>
dock_pv

> <s_m_subgroupid>
dock_pv1

> <b_m_subgroup_collapsed>
1

$$$$
194922
                    3D
 Schrodinger Suite 2021-1.
 26 28  0  0  1  0            999 V2000
    4.3139   68.9001   62.1655 C   0  0  0  0  0  0
    5.1477   69.1263   63.2539 C   0  0  0  0  0  0
    4.6337   69.1265   64.5475 C   0  0  0  0  0  0
    3.2531   68.8988   64.7677 C   0  0  0  0  0  0
    2.3857   68.6644   63.6516 C   0  0  0  0  0  0
    2.9510   68.6716   62.3440 C   0  0  0  0  0  0
    0.9956   68.4448   63.9181 C   0  0  0  0  0  0
    0.5523   68.5027   65.2427 C   0  0  0  0  0  0
    1.4783   68.7095   66.2585 C   0  0  0  0  0  0
    2.7984   68.9083   66.0503 N   0  0  0  0  0  0
    0.8203   68.6696   67.6180 C   0  0  0  0  0  0
   -0.6702   68.7674   67.2907 C   0  0  0  0  0  0
   -0.8371   68.3447   65.8299 C   0  0  0  0  0  0
    0.0668   68.2084   62.9031 N   0  0  0  0  0  0
    4.7349   68.9089   61.1711 H   0  0  0  0  0  0
    6.2014   69.3088   63.0934 H   0  0  0  0  0  0
    5.2846   69.3090   65.3919 H   0  0  0  0  0  0
    2.3221   68.5074   61.4829 H   0  0  0  0  0  0
    1.1292   69.4913   68.2686 H   0  0  0  0  0  0
    1.0422   67.7354   68.1345 H   0  0  0  0  0  0
   -0.9998   69.8046   67.4059 H   0  0  0  0  0  0
   -1.2814   68.1675   67.9678 H   0  0  0  0  0  0
   -1.1706   67.3078   65.7777 H   0  0  0  0  0  0
   -1.5859   68.9652   65.3338 H   0  0  0  0  0  0
    0.3818   68.1009   61.9503 H   0  0  0  0  0  0
   -0.8501   67.8802   63.1775 H   0  0  0  0  0  0
  1  6  1  0  0  0
  1  2  2  0  0  0
  1 15  1  0  0  0
  2  3  1  0  0  0
  2 16  1  0  0  0
  3  4  2  0  0  0
  3 17  1  0  0  0
  4 10  1  0  0  0
  4  5  1  0  0  0
  5  6  2  0  0  0
  5  7  1  0  0  0
  6 18  1  0  0  0
  7  8  2  0  0  0
  7 14  1  0  0  0
  8 13  1  0  0  0
  8  9  1  0  0  0
  9 10  2  0  0  0
  9 11  1  0  0  0
 11 12  1  0  0  0
 11 19  1  0  0  0
 11 20  1  0  0  0
 12 13  1  0  0  0
 12 21  1  0  0  0
 12 22  1  0  0  0
 13 23  1  0  0  0
 13 24  1  0  0  0
 14 25  1  0  0  0
 14 26  1  0  0  0
M  END
> <s_m_entry_id>
9953

> <s_m_entry_name>
ligand_docking-pose.395

> <s_m_Source_Path>
/home/csk/Desktop/cluster/DUD-E-result/aces

> <s_m_Source_File>
ligand_docking-pose.sdf

> <i_m_Source_File_Index>
395

> <i_lp_mmshare_version>
53161

> <r_lp_tautomer_probability>
1

> <s_lp_Force_Field>
OPLS_2005

> <r_lp_Energy>
25.208856

> <b_lp_Chiralities_Consistent>
1

> <s_lp_Variant>
194922-1

> <s_i_glide_gridfile>
glide-grid_1e66

> <i_i_glide_lignum>
119

> <i_i_glide_rotatable_bonds>
0

> <r_i_docking_score>
-6.85323777110729

> <r_i_glide_ligand_efficiency>
-0.489516983650521

> <r_i_glide_ligand_efficiency_sa>
-1.17980557028984

> <r_i_glide_ligand_efficiency_ln>
-1.88324534360437

> <r_i_glide_gscore>
-6.85323777110729

> <r_i_glide_lipo>
-2.70258397584456

> <r_i_glide_hbond>
-0.00492632417941665

> <r_i_glide_metal>
0

> <r_i_glide_rewards>
-2.37887118217341

> <r_i_glide_evdw>
-27.5713081359863

> <r_i_glide_ecoul>
-2.5886058807373

> <r_i_glide_erotb>
0

> <r_i_glide_esite>
0

> <r_i_glide_emodel>
-43.0173173612129

> <r_i_glide_energy>
-30.1599140167236

> <r_i_glide_einternal>
0

> <i_i_glide_confnum>
1

> <i_i_glide_posenum>
282

> <r_i_glide_eff_state_penalty>
0

> <i_f3d_flags>
0

> <s_user_duplicate_titles>
194922

> <s_m_subgroup_title>
dock_pv

> <s_m_subgroupid>
dock_pv1

> <b_m_subgroup_collapsed>
1

$$$$
79883
                    3D
 Schrodinger Suite 2021-1.
 43 46  0  0  1  0            999 V2000
   -0.8561   69.3249   67.4535 C   0  0  0  0  0  0
   -2.0570   69.3080   66.7681 C   0  0  0  0  0  0
   -2.7640   68.1276   66.6270 C   0  0  0  0  0  0
   -2.2731   66.9426   67.1678 C   0  0  0  0  0  0
   -1.0320   66.9342   67.8004 C   0  0  0  0  0  0
   -0.3038   68.1254   67.9092 C   0  0  0  0  0  0
    1.1423   68.0628   68.3683 C   0  0  0  0  0  0
    1.9679   69.1978   67.9351 N   0  0  0  0  0  0
    2.7387   69.3074   66.7499 C   0  0  0  0  0  0
    2.3326   68.8636   65.4269 C   0  0  0  0  0  0
    1.1283   68.1857   65.0783 C   0  0  0  0  0  0
    0.6849   68.1081   63.7659 C   0  0  0  0  0  0
    1.4733   68.5846   62.7365 C   0  0  0  0  0  0
    2.7562   69.0387   62.9944 C   0  0  0  0  0  0
    3.1869   69.1874   64.3324 C   0  0  0  0  0  0
    4.4082   69.7079   64.5117 N   0  0  0  0  0  0
    4.7831   70.1080   65.7394 C   0  0  0  0  0  0
    3.9748   69.9947   66.8869 C   0  0  0  0  0  0
    4.5294   70.5081   68.2476 C   0  0  1  0  0  0
    5.9271   71.1600   68.2035 C   0  0  0  0  0  0
    6.8191   70.4976   67.1520 C   0  0  0  0  0  0
    6.1607   70.7188   65.7920 C   0  0  0  0  0  0
    3.6375   71.3080   68.9617 O   0  0  0  0  0  0
    0.8390   68.6445   61.1456 Cl  0  0  0  0  0  0
   -3.9321   68.1492   65.9527 F   0  0  0  0  0  0
   -0.3268   70.2575   67.5681 H   0  0  0  0  0  0
   -2.4570   70.2218   66.3680 H   0  0  0  0  0  0
   -2.8453   66.0355   67.0520 H   0  0  0  0  0  0
   -0.6141   66.0026   68.1534 H   0  0  0  0  0  0
    1.1595   68.0193   69.4585 H   0  0  0  0  0  0
    1.5430   67.1189   68.0076 H   0  0  0  0  0  0
    2.3758   69.7108   68.7093 H   0  0  0  0  0  0
    0.4819   67.7576   65.7985 H   0  0  0  0  0  0
   -0.2964   67.7079   63.5549 H   0  0  0  0  0  0
    3.3959   69.3673   62.1873 H   0  0  0  0  0  0
    4.6201   69.7080   68.9375 H   0  0  0  0  0  0
    5.8160   72.2134   67.9391 H   0  0  0  0  0  0
    6.3732   71.1997   69.1983 H   0  0  0  0  0  0
    7.8236   70.9080   67.1682 H   0  0  0  0  0  0
    6.9278   69.4309   67.3548 H   0  0  0  0  0  0
    6.0669   71.7758   65.5680 H   0  0  0  0  0  0
    6.7430   70.2996   64.9849 H   0  0  0  0  0  0
    3.5439   72.1402   68.4903 H   0  0  0  0  0  0
  1  6  1  0  0  0
  1  2  2  0  0  0
  1 26  1  0  0  0
  2  3  1  0  0  0
  2 27  1  0  0  0
  3  4  2  0  0  0
  3 25  1  0  0  0
  4  5  1  0  0  0
  4 28  1  0  0  0
  5  6  2  0  0  0
  5 29  1  0  0  0
  6  7  1  0  0  0
  7  8  1  0  0  0
  7 30  1  0  0  0
  7 31  1  0  0  0
  8  9  1  0  0  0
  8 32  1  0  0  0
  9 18  1  0  0  0
  9 10  2  0  0  0
 10 15  1  0  0  0
 10 11  1  0  0  0
 11 12  2  0  0  0
 11 33  1  0  0  0
 12 13  1  0  0  0
 12 34  1  0  0  0
 13 14  2  0  0  0
 13 24  1  0  0  0
 14 15  1  0  0  0
 14 35  1  0  0  0
 15 16  2  0  0  0
 16 17  1  0  0  0
 17 22  1  0  0  0
 17 18  2  0  0  0
 18 19  1  0  0  0
 19 20  1  0  0  0
 19 23  1  0  0  0
 19 36  1  0  0  0
 20 21  1  0  0  0
 20 37  1  0  0  0
 20 38  1  0  0  0
 21 22  1  0  0  0
 21 39  1  0  0  0
 21 40  1  0  0  0
 22 41  1  0  0  0
 22 42  1  0  0  0
 23 43  1  0  0  0
M  END
> <s_m_entry_id>
9954

> <s_m_entry_name>
ligand_docking-pose.396

> <s_m_Source_Path>
/home/csk/Desktop/cluster/DUD-E-result/aces

> <s_m_Source_File>
ligand_docking-pose.sdf

> <i_m_Source_File_Index>
396

> <i_lp_mmshare_version>
53161

> <r_lp_tautomer_probability>
1

> <s_lp_Force_Field>
OPLS_2005

> <r_lp_Energy>
33.280565

> <b_lp_Chiralities_Consistent>
1

> <s_lp_Variant>
79883-1

> <s_i_glide_gridfile>
glide-grid_1e66

> <i_i_glide_lignum>
464

> <i_i_glide_rotatable_bonds>
4

> <r_i_docking_score>
-6.85286204425355

> <r_i_glide_ligand_efficiency>
-0.274114481770142

> <r_i_glide_ligand_efficiency_sa>
-0.801515606136929

> <r_i_glide_ligand_efficiency_ln>
-1.62433366819172

> <r_i_glide_gscore>
-6.85286204425355

> <r_i_glide_lipo>
-4.76378985829718

> <r_i_glide_hbond>
0

> <r_i_glide_metal>
0

> <r_i_glide_rewards>
-0.752282808857662

> <r_i_glide_evdw>
-32.065544128418

> <r_i_glide_ecoul>
-1.22949075698853

> <r_i_glide_erotb>
0.450911442870466

> <r_i_glide_esite>
0

> <r_i_glide_emodel>
-34.4698393947462

> <r_i_glide_energy>
-33.2950348854065

> <r_i_glide_einternal>
8.0451135635376

> <i_i_glide_confnum>
54

> <i_i_glide_posenum>
337

> <r_i_glide_eff_state_penalty>
0

> <i_f3d_flags>
0

> <s_user_duplicate_titles>
79883

> <s_m_subgroup_title>
dock_pv

> <s_m_subgroupid>
dock_pv1

> <b_m_subgroup_collapsed>
1

$$$$
547795
                    3D
 Schrodinger Suite 2021-1.
 59 62  0  0  1  0            999 V2000
    5.8478   70.3365   65.7067 C   0  0  0  0  0  0
    4.9456   69.7016   64.8054 O   0  0  0  0  0  0
    3.7290   69.2343   65.2740 C   0  0  0  0  0  0
    3.2573   69.4696   66.5780 C   0  0  0  0  0  0
    2.0601   68.9083   67.0184 C   0  0  0  0  0  0
    1.3054   68.1307   66.1488 C   0  0  0  0  0  0
    1.7296   67.9157   64.8370 C   0  0  0  0  0  0
    2.9351   68.4707   64.3967 C   0  0  0  0  0  0
    3.3410   68.1957   63.1119 O   0  0  0  0  0  0
    3.2635   69.2977   62.2157 C   0  0  0  0  0  0
    0.1037   67.6182   66.8370 C   0  0  0  0  0  0
   -0.7787   66.9102   66.3691 O   0  0  0  0  0  0
    0.1618   68.1121   68.2808 C   0  0  2  0  0  0
    1.3974   69.0220   68.3669 C   0  0  0  0  0  0
    0.0173   66.9187   69.2941 C   0  0  0  0  0  0
    1.0715   65.7751   69.2607 C   0  0  0  0  0  0
    2.2742   66.0075   70.1636 C   0  0  0  0  0  0
    3.3304   64.8987   70.0420 C   0  0  0  0  0  0
    2.7918   63.5856   70.4233 N   0  0  1  0  0  0
    1.4995   63.2547   69.7854 C   0  0  0  0  0  0
    0.4818   64.4303   69.7610 C   0  0  0  0  0  0
    3.8151   62.5544   70.2007 C   0  0  0  0  0  0
    3.5528   61.2863   71.0011 C   0  0  0  0  0  0
    2.8378   60.2301   70.4327 C   0  0  0  0  0  0
    2.5269   59.1091   71.1967 C   0  0  0  0  0  0
    2.9119   59.0379   72.5433 C   0  0  0  0  0  0
    3.6305   60.1032   73.1030 C   0  0  0  0  0  0
    3.9413   61.2239   72.3403 C   0  0  0  0  0  0
    2.5369   57.8676   73.3726 N   0  3  0  0  0  0
    1.8411   56.9922   72.8641 O   0  5  0  0  0  0
    2.9153   57.8331   74.5417 O   0  0  0  0  0  0
    6.7424   70.6486   65.1702 H   0  0  0  0  0  0
    5.4226   71.2311   66.1594 H   0  0  0  0  0  0
    6.1597   69.6531   66.4981 H   0  0  0  0  0  0
    3.8287   70.0646   67.2729 H   0  0  0  0  0  0
    1.1407   67.3096   64.1617 H   0  0  0  0  0  0
    3.5256   68.9629   61.2132 H   0  0  0  0  0  0
    3.9542   70.0984   62.4843 H   0  0  0  0  0  0
    2.2539   69.7086   62.1717 H   0  0  0  0  0  0
   -0.7117   68.7550   68.3679 H   0  0  0  0  0  0
    2.0539   68.7603   69.1921 H   0  0  0  0  0  0
    1.0726   70.0486   68.5436 H   0  0  0  0  0  0
   -0.0505   67.3081   70.3101 H   0  0  0  0  0  0
   -0.9682   66.4817   69.1199 H   0  0  0  0  0  0
    1.4729   65.7080   68.2577 H   0  0  0  0  0  0
    2.7427   66.9545   69.9681 H   0  0  0  0  0  0
    1.9123   66.1016   71.1681 H   0  0  0  0  0  0
    3.6709   64.8346   69.0074 H   0  0  0  0  0  0
    4.2107   65.1417   70.6413 H   0  0  0  0  0  0
    1.6848   62.9140   68.7680 H   0  0  0  0  0  0
    1.0659   62.3948   70.2972 H   0  0  0  0  0  0
    0.0556   64.5456   70.7596 H   0  0  0  0  0  0
   -0.3838   64.1564   69.1599 H   0  0  0  0  0  0
    3.8861   62.3200   69.1372 H   0  0  0  0  0  0
    4.7909   62.9364   70.5107 H   0  0  0  0  0  0
    2.5028   60.2816   69.4072 H   0  0  0  0  0  0
    1.9649   58.3058   70.7412 H   0  0  0  0  0  0
    3.9329   60.0813   74.1416 H   0  0  0  0  0  0
    4.4706   62.0466   72.7967 H   0  0  0  0  0  0
  1  2  1  0  0  0
  1 32  1  0  0  0
  1 33  1  0  0  0
  1 34  1  0  0  0
  2  3  1  0  0  0
  3  8  1  0  0  0
  3  4  2  0  0  0
  4  5  1  0  0  0
  4 35  1  0  0  0
  5 14  1  0  0  0
  5  6  2  0  0  0
  6  7  1  0  0  0
  6 11  1  0  0  0
  7  8  2  0  0  0
  7 36  1  0  0  0
  8  9  1  0  0  0
  9 10  1  0  0  0
 10 37  1  0  0  0
 10 38  1  0  0  0
 10 39  1  0  0  0
 11 12  2  0  0  0
 11 13  1  0  0  0
 13 14  1  0  0  0
 13 15  1  0  0  0
 13 40  1  0  0  0
 14 41  1  0  0  0
 14 42  1  0  0  0
 15 16  1  0  0  0
 15 43  1  0  0  0
 15 44  1  0  0  0
 16 21  1  0  0  0
 16 17  1  0  0  0
 16 45  1  0  0  0
 17 18  1  0  0  0
 17 46  1  0  0  0
 17 47  1  0  0  0
 18 19  1  0  0  0
 18 48  1  0  0  0
 18 49  1  0  0  0
 19 20  1  0  0  0
 19 22  1  0  0  0
 20 21  1  0  0  0
 20 50  1  0  0  0
 20 51  1  0  0  0
 21 52  1  0  0  0
 21 53  1  0  0  0
 22 23  1  0  0  0
 22 54  1  0  0  0
 22 55  1  0  0  0
 23 28  1  0  0  0
 23 24  2  0  0  0
 24 25  1  0  0  0
 24 56  1  0  0  0
 25 26  2  0  0  0
 25 57  1  0  0  0
 26 27  1  0  0  0
 26 29  1  0  0  0
 27 28  2  0  0  0
 27 58  1  0  0  0
 28 59  1  0  0  0
 29 30  1  0  0  0
 29 31  2  0  0  0
M  CHG  2  29   1  30  -1
M  END
> <s_m_entry_id>
9955

> <s_m_entry_name>
ligand_docking-pose.397

> <s_m_Source_Path>
/home/csk/Desktop/cluster/DUD-E-result/aces

> <s_m_Source_File>
ligand_docking-pose.sdf

> <i_m_Source_File_Index>
397

> <i_lp_mmshare_version>
53161

> <r_lp_tautomer_probability>
0.99995

> <s_lp_Force_Field>
OPLS_2005

> <r_lp_Energy>
52.076872

> <b_lp_Chiralities_Consistent>
1

> <s_lp_Variant>
547795-2

> <s_i_glide_gridfile>
glide-grid_1e66

> <i_i_glide_lignum>
1929

> <i_i_glide_rotatable_bonds>
7

> <r_i_docking_score>
-6.84004086286439

> <r_i_glide_ligand_efficiency>
-0.220646479447238

> <r_i_glide_ligand_efficiency_sa>
-0.693134580760424

> <r_i_glide_ligand_efficiency_ln>
-1.54263883665371

> <r_i_glide_gscore>
-6.84004086286439

> <r_i_glide_lipo>
-3.46170388769267

> <r_i_glide_hbond>
0

> <r_i_glide_metal>
0

> <r_i_glide_rewards>
-1.37087954002543

> <r_i_glide_evdw>
-41.600887298584

> <r_i_glide_ecoul>
-2.45056629180908

> <r_i_glide_erotb>
0.440171873554274

> <r_i_glide_esite>
0

> <r_i_glide_emodel>
-49.9800322802914

> <r_i_glide_energy>
-44.0514535903931

> <r_i_glide_einternal>
11.6374921798706

> <i_i_glide_confnum>
5

> <i_i_glide_posenum>
218

> <r_i_glide_eff_state_penalty>
0

> <i_f3d_flags>
0

> <s_user_duplicate_titles>
547795

> <s_m_subgroup_title>
dock_pv

> <s_m_subgroupid>
dock_pv1

> <b_m_subgroup_collapsed>
1

$$$$
268070
                    3D
 Schrodinger Suite 2021-1.
 54 56  0  0  1  0            999 V2000
    3.3425   61.7785   70.2875 C   0  0  0  0  0  0
    3.8968   63.0333   70.5299 C   0  0  0  0  0  0
    3.0621   64.1405   70.6550 C   0  0  0  0  0  0
    1.6749   63.9905   70.5489 C   0  0  0  0  0  0
    1.1287   62.7318   70.2863 C   0  0  0  0  0  0
    1.9631   61.6232   70.1643 C   0  0  0  0  0  0
    0.7655   65.2170   70.6090 C   0  0  0  0  0  0
    0.3863   65.7099   69.2767 N   0  0  1  0  0  0
   -0.5925   66.7789   69.3652 C   0  0  0  0  0  0
   -1.1065   67.2038   67.9660 C   0  0  0  0  0  0
    0.0151   67.8429   67.1392 C   0  0  0  0  0  0
    1.2417   66.9210   67.2156 C   0  0  0  0  0  0
    1.5429   66.2869   68.5990 C   0  0  0  0  0  0
   -0.4104   68.2229   65.6906 C   0  0  0  0  0  0
    0.4564   67.5906   64.5812 C   0  0  0  0  0  0
    0.2160   68.1067   63.2477 N   0  0  0  0  0  0
    1.0082   69.0034   62.6067 C   0  0  0  0  0  0
    0.3438   69.7080   61.2835 S   0  0  0  0  0  0
    2.2395   69.3800   63.0722 N   0  0  0  0  0  0
    3.2740   68.6189   63.4941 C   0  0  0  0  0  0
    3.5979   67.5435   62.9887 O   0  0  0  0  0  0
    4.0113   69.1601   64.6954 C   0  0  0  0  0  0
    5.4097   69.1887   64.7186 C   0  0  0  0  0  0
    6.0719   69.7003   65.8335 C   0  0  0  0  0  0
    5.3594   70.1615   66.9316 C   0  0  0  0  0  0
    3.9733   70.0997   66.9363 C   0  0  0  0  0  0
    3.3022   69.6127   65.8181 C   0  0  0  0  0  0
    6.1955   70.8369   68.2827 Cl  0  0  0  0  0  0
    3.9870   60.9172   70.1934 H   0  0  0  0  0  0
    4.9670   63.1502   70.6161 H   0  0  0  0  0  0
    3.4947   65.1165   70.8271 H   0  0  0  0  0  0
    0.0612   62.6150   70.1695 H   0  0  0  0  0  0
    1.5421   60.6474   69.9702 H   0  0  0  0  0  0
    1.2573   66.0143   71.1687 H   0  0  0  0  0  0
   -0.1268   64.9409   71.1686 H   0  0  0  0  0  0
   -0.0570   67.5942   69.8734 H   0  0  0  0  0  0
   -1.4514   66.5081   69.9683 H   0  0  0  0  0  0
   -1.9644   67.8759   68.0018 H   0  0  0  0  0  0
   -1.4743   66.3224   67.4402 H   0  0  0  0  0  0
    0.2922   68.7513   67.6794 H   0  0  0  0  0  0
    1.0588   66.1079   66.5393 H   0  0  0  0  0  0
    2.1101   67.4002   66.7679 H   0  0  0  0  0  0
    1.9462   67.0589   69.2542 H   0  0  0  0  0  0
    2.2994   65.5084   68.4894 H   0  0  0  0  0  0
   -0.3913   69.3063   65.5936 H   0  0  0  0  0  0
   -1.4502   67.9426   65.5144 H   0  0  0  0  0  0
    0.3429   66.5100   64.5686 H   0  0  0  0  0  0
    1.4932   67.6834   64.8463 H   0  0  0  0  0  0
   -0.6764   67.8802   62.8315 H   0  0  0  0  0  0
    2.2961   70.3469   63.3518 H   0  0  0  0  0  0
    5.9901   68.8439   63.8741 H   0  0  0  0  0  0
    7.1435   69.7492   65.8539 H   0  0  0  0  0  0
    3.4147   70.4551   67.7908 H   0  0  0  0  0  0
    2.2219   69.6058   65.8385 H   0  0  0  0  0  0
  1  6  1  0  0  0
  1  2  2  0  0  0
  1 29  1  0  0  0
  2  3  1  0  0  0
  2 30  1  0  0  0
  3  4  2  0  0  0
  3 31  1  0  0  0
  4  5  1  0  0  0
  4  7  1  0  0  0
  5  6  2  0  0  0
  5 32  1  0  0  0
  6 33  1  0  0  0
  7  8  1  0  0  0
  7 34  1  0  0  0
  7 35  1  0  0  0
  8 13  1  0  0  0
  8  9  1  0  0  0
  9 10  1  0  0  0
  9 36  1  0  0  0
  9 37  1  0  0  0
 10 11  1  0  0  0
 10 38  1  0  0  0
 10 39  1  0  0  0
 11 12  1  0  0  0
 11 14  1  0  0  0
 11 40  1  0  0  0
 12 13  1  0  0  0
 12 41  1  0  0  0
 12 42  1  0  0  0
 13 43  1  0  0  0
 13 44  1  0  0  0
 14 15  1  0  0  0
 14 45  1  0  0  0
 14 46  1  0  0  0
 15 16  1  0  0  0
 15 47  1  0  0  0
 15 48  1  0  0  0
 16 17  1  0  0  0
 16 49  1  0  0  0
 17 18  2  0  0  0
 17 19  1  0  0  0
 19 20  1  0  0  0
 19 50  1  0  0  0
 20 21  2  0  0  0
 20 22  1  0  0  0
 22 27  1  0  0  0
 22 23  2  0  0  0
 23 24  1  0  0  0
 23 51  1  0  0  0
 24 25  2  0  0  0
 24 52  1  0  0  0
 25 26  1  0  0  0
 25 28  1  0  0  0
 26 27  2  0  0  0
 26 53  1  0  0  0
 27 54  1  0  0  0
M  END
> <s_m_entry_id>
9957

> <s_m_entry_name>
ligand_docking-pose.399

> <s_m_Source_Path>
/home/csk/Desktop/cluster/DUD-E-result/aces

> <s_m_Source_File>
ligand_docking-pose.sdf

> <i_m_Source_File_Index>
399

> <i_lp_mmshare_version>
53161

> <r_lp_tautomer_probability>
1

> <s_lp_Force_Field>
OPLS_2005

> <r_lp_Energy>
36.305017

> <b_lp_Chiralities_Consistent>
1

> <s_lp_Variant>
268070-1

> <s_i_glide_gridfile>
glide-grid_1e66

> <i_i_glide_lignum>
452

> <i_i_glide_rotatable_bonds>
9

> <r_i_docking_score>
-6.83785833946529

> <r_i_glide_ligand_efficiency>
-0.244209226409475

> <r_i_glide_ligand_efficiency_sa>
-0.741563042921618

> <r_i_glide_ligand_efficiency_ln>
-1.57837847299336

> <r_i_glide_gscore>
-6.83785833946529

> <r_i_glide_lipo>
-3.93408453279696

> <r_i_glide_hbond>
0

> <r_i_glide_metal>
0

> <r_i_glide_rewards>
-1.96385546342449

> <r_i_glide_evdw>
-32.3037338256836

> <r_i_glide_ecoul>
-1.58599758148193

> <r_i_glide_erotb>
0.913167985262629

> <r_i_glide_esite>
0

> <r_i_glide_emodel>
-29.3819986779677

> <r_i_glide_energy>
-33.8897314071655

> <r_i_glide_einternal>
19.2406558990479

> <i_i_glide_confnum>
4

> <i_i_glide_posenum>
202

> <r_i_glide_eff_state_penalty>
0

> <i_f3d_flags>
0

> <s_user_duplicate_titles>
268070

> <s_m_subgroup_title>
dock_pv

> <s_m_subgroupid>
dock_pv1

> <b_m_subgroup_collapsed>
1

$$$$
678251
                    3D
 Schrodinger Suite 2021-1.
 59 62  0  0  1  0            999 V2000
   -2.6065   68.5299   65.9416 C   0  0  0  0  0  0
   -1.1296   68.1523   65.9161 C   0  0  0  0  0  0
   -0.3408   68.5081   64.8201 C   0  0  0  0  0  0
    1.0176   68.1656   64.8151 C   0  0  0  0  0  0
    1.5678   67.4943   65.8601 N   0  0  0  0  0  0
    0.8111   67.1193   66.8960 N   0  0  0  0  0  0
   -0.5186   67.4120   66.9380 C   0  0  0  0  0  0
   -1.2849   66.9080   68.0013 N   0  0  0  0  0  0
   -0.7379   65.9023   68.9094 C   0  0  0  0  0  0
   -0.0482   66.4251   70.1723 C   0  0  0  0  0  0
    0.9895   65.4275   70.7478 C   0  0  0  0  0  0
    0.5743   63.9388   70.7809 C   0  0  0  0  0  0
    1.6752   63.0485   71.4042 C   0  0  0  0  0  0
    2.9611   63.1778   70.6918 N   0  0  1  0  0  0
    3.4170   64.5702   70.5852 C   0  0  0  0  0  0
    2.3370   65.5035   70.0005 C   0  0  0  0  0  0
    4.0187   62.3573   71.2975 C   0  0  0  0  0  0
    3.8143   60.8647   71.0784 C   0  0  0  0  0  0
    3.7354   60.0029   72.1749 C   0  0  0  0  0  0
    3.5426   58.6389   71.9728 C   0  0  0  0  0  0
    3.4420   58.1426   70.6767 C   0  0  0  0  0  0
    3.5406   58.9936   69.5776 C   0  0  0  0  0  0
    3.7318   60.3567   69.7791 C   0  0  0  0  0  0
    1.9432   68.5245   63.7009 C   0  0  0  0  0  0
    1.4586   68.6202   62.3918 C   0  0  0  0  0  0
    2.3169   68.9079   61.3388 C   0  0  0  0  0  0
    3.6716   69.1128   61.5806 C   0  0  0  0  0  0
    4.1732   69.0406   62.8756 C   0  0  0  0  0  0
    3.3118   68.7472   63.9294 C   0  0  0  0  0  0
   -2.9281   68.9984   65.0105 H   0  0  0  0  0  0
   -3.2250   67.6464   66.0961 H   0  0  0  0  0  0
   -2.8053   69.2214   66.7609 H   0  0  0  0  0  0
   -0.7762   69.0670   64.0037 H   0  0  0  0  0  0
   -2.2066   67.2844   68.1699 H   0  0  0  0  0  0
   -0.0168   65.3083   68.3677 H   0  0  0  0  0  0
   -1.4788   65.1636   69.1686 H   0  0  0  0  0  0
   -0.7940   66.6836   70.9233 H   0  0  0  0  0  0
    0.4570   67.3665   69.9498 H   0  0  0  0  0  0
    1.1432   65.7123   71.7825 H   0  0  0  0  0  0
    0.3316   63.5600   69.7875 H   0  0  0  0  0  0
   -0.3556   63.8302   71.3400 H   0  0  0  0  0  0
    1.3532   62.0062   71.3897 H   0  0  0  0  0  0
    1.8186   63.3090   72.4546 H   0  0  0  0  0  0
    3.7344   64.9126   71.5680 H   0  0  0  0  0  0
    4.3068   64.6071   69.9537 H   0  0  0  0  0  0
    2.7018   66.5277   70.0401 H   0  0  0  0  0  0
    2.2177   65.3081   68.9340 H   0  0  0  0  0  0
    4.0863   62.5682   72.3657 H   0  0  0  0  0  0
    4.9958   62.6110   70.8804 H   0  0  0  0  0  0
    3.8107   60.3845   73.1826 H   0  0  0  0  0  0
    3.4691   57.9653   72.8160 H   0  0  0  0  0  0
    3.2785   57.0869   70.5207 H   0  0  0  0  0  0
    3.4477   58.6007   68.5762 H   0  0  0  0  0  0
    3.7951   61.0274   68.9347 H   0  0  0  0  0  0
    0.4165   68.4378   62.1730 H   0  0  0  0  0  0
    1.9216   68.9482   60.3381 H   0  0  0  0  0  0
    4.3427   69.3250   60.7613 H   0  0  0  0  0  0
    5.2251   69.2091   63.0593 H   0  0  0  0  0  0
    3.7160   68.6940   64.9301 H   0  0  0  0  0  0
  1  2  1  0  0  0
  1 30  1  0  0  0
  1 31  1  0  0  0
  1 32  1  0  0  0
  2  7  1  0  0  0
  2  3  2  0  0  0
  3  4  1  0  0  0
  3 33  1  0  0  0
  4  5  2  0  0  0
  4 24  1  0  0  0
  5  6  1  0  0  0
  6  7  2  0  0  0
  7  8  1  0  0  0
  8  9  1  0  0  0
  8 34  1  0  0  0
  9 10  1  0  0  0
  9 35  1  0  0  0
  9 36  1  0  0  0
 10 11  1  0  0  0
 10 37  1  0  0  0
 10 38  1  0  0  0
 11 16  1  0  0  0
 11 12  1  0  0  0
 11 39  1  0  0  0
 12 13  1  0  0  0
 12 40  1  0  0  0
 12 41  1  0  0  0
 13 14  1  0  0  0
 13 42  1  0  0  0
 13 43  1  0  0  0
 14 15  1  0  0  0
 14 17  1  0  0  0
 15 16  1  0  0  0
 15 44  1  0  0  0
 15 45  1  0  0  0
 16 46  1  0  0  0
 16 47  1  0  0  0
 17 18  1  0  0  0
 17 48  1  0  0  0
 17 49  1  0  0  0
 18 23  1  0  0  0
 18 19  2  0  0  0
 19 20  1  0  0  0
 19 50  1  0  0  0
 20 21  2  0  0  0
 20 51  1  0  0  0
 21 22  1  0  0  0
 21 52  1  0  0  0
 22 23  2  0  0  0
 22 53  1  0  0  0
 23 54  1  0  0  0
 24 29  1  0  0  0
 24 25  2  0  0  0
 25 26  1  0  0  0
 25 55  1  0  0  0
 26 27  2  0  0  0
 26 56  1  0  0  0
 27 28  1  0  0  0
 27 57  1  0  0  0
 28 29  2  0  0  0
 28 58  1  0  0  0
 29 59  1  0  0  0
M  END
> <s_m_entry_id>
9958

> <s_m_entry_name>
ligand_docking-pose.400

> <s_m_Source_Path>
/home/csk/Desktop/cluster/DUD-E-result/aces

> <s_m_Source_File>
ligand_docking-pose.sdf

> <i_m_Source_File_Index>
400

> <i_lp_mmshare_version>
53161

> <r_lp_tautomer_probability>
0.999978240473126

> <s_lp_Force_Field>
OPLS_2005

> <r_lp_Energy>
34.560076

> <b_lp_Chiralities_Consistent>
1

> <s_lp_Variant>
678251-1

> <s_i_glide_gridfile>
glide-grid_1e66

> <i_i_glide_lignum>
831

> <i_i_glide_rotatable_bonds>
7

> <r_i_docking_score>
-6.83756954180379

> <r_i_glide_ligand_efficiency>
-0.2357782600622

> <r_i_glide_ligand_efficiency_sa>
-0.724385514706956

> <r_i_glide_ligand_efficiency_ln>
-1.56563003926962

> <r_i_glide_gscore>
-6.83756954180379

> <r_i_glide_lipo>
-5.08629108807314

> <r_i_glide_hbond>
0

> <r_i_glide_metal>
0

> <r_i_glide_rewards>
0.026357954545456

> <r_i_glide_evdw>
-48.0053215026855

> <r_i_glide_ecoul>
-1.92873537540436

> <r_i_glide_erotb>
0.911939973168829

> <r_i_glide_esite>
0

> <r_i_glide_emodel>
-64.5169519943545

> <r_i_glide_energy>
-49.9340568780899

> <r_i_glide_einternal>
7.22031688690186

> <i_i_glide_confnum>
33

> <i_i_glide_posenum>
26

> <r_i_glide_eff_state_penalty>
0

> <i_f3d_flags>
0

> <s_user_duplicate_titles>
678251

> <s_m_subgroup_title>
dock_pv

> <s_m_subgroupid>
dock_pv1

> <b_m_subgroup_collapsed>
1

$$$$
226911
                    3D
 Schrodinger Suite 2021-1.
 33 33  0  0  1  0            999 V2000
    2.1353   69.3869   67.7104 C   0  0  0  0  0  0
    1.7418   68.9082   66.3060 C   0  0  0  0  0  0
    0.4391   68.4386   65.9601 C   0  0  0  0  0  0
    0.1761   68.1078   64.6174 C   0  0  0  0  0  0
    1.1365   68.2603   63.6307 C   0  0  0  0  0  0
    2.3986   68.7209   63.9641 C   0  0  0  0  0  0
    2.7250   69.0228   65.2927 C   0  0  0  0  0  0
    3.9715   69.5363   65.6122 O   0  0  0  0  0  0
    5.1296   68.9780   65.1681 C   0  0  0  0  0  0
    5.2527   68.0488   64.3686 O   0  0  0  0  0  0
    6.3426   69.6042   65.8323 C   0  0  0  0  0  0
   -0.7275   68.3211   66.9650 N   0  3  0  0  0  0
   -1.0452   69.6754   67.6509 C   0  0  0  0  0  0
   -2.1009   67.9251   66.3411 C   0  0  0  0  0  0
   -0.4892   67.1976   68.0138 C   0  0  0  0  0  0
    1.7063   68.8173   68.5225 H   0  0  0  0  0  0
    3.2068   69.3074   67.8920 H   0  0  0  0  0  0
    1.8667   70.4361   67.8399 H   0  0  0  0  0  0
   -0.7692   67.7100   64.2826 H   0  0  0  0  0  0
    0.8985   68.0222   62.6036 H   0  0  0  0  0  0
    3.1269   68.8576   63.1768 H   0  0  0  0  0  0
    6.1425   69.8128   66.8848 H   0  0  0  0  0  0
    6.6077   70.5354   65.3302 H   0  0  0  0  0  0
    7.1878   68.9203   65.7711 H   0  0  0  0  0  0
   -1.9928   69.6023   68.1783 H   0  0  0  0  0  0
   -0.2687   69.9357   68.3642 H   0  0  0  0  0  0
   -1.1339   70.4271   66.8673 H   0  0  0  0  0  0
   -2.8841   67.9412   67.1023 H   0  0  0  0  0  0
   -2.3461   68.6392   65.5488 H   0  0  0  0  0  0
   -2.0072   66.9082   65.9679 H   0  0  0  0  0  0
   -1.4284   66.9236   68.5000 H   0  0  0  0  0  0
   -0.0954   66.3355   67.4729 H   0  0  0  0  0  0
    0.2058   67.5177   68.7804 H   0  0  0  0  0  0
  1  2  1  0  0  0
  1 16  1  0  0  0
  1 17  1  0  0  0
  1 18  1  0  0  0
  2  7  1  0  0  0
  2  3  2  0  0  0
  3  4  1  0  0  0
  3 12  1  0  0  0
  4  5  2  0  0  0
  4 19  1  0  0  0
  5  6  1  0  0  0
  5 20  1  0  0  0
  6  7  2  0  0  0
  6 21  1  0  0  0
  7  8  1  0  0  0
  8  9  1  0  0  0
  9 10  2  0  0  0
  9 11  1  0  0  0
 11 22  1  0  0  0
 11 23  1  0  0  0
 11 24  1  0  0  0
 12 13  1  0  0  0
 12 14  1  0  0  0
 12 15  1  0  0  0
 13 25  1  0  0  0
 13 26  1  0  0  0
 13 27  1  0  0  0
 14 28  1  0  0  0
 14 29  1  0  0  0
 14 30  1  0  0  0
 15 31  1  0  0  0
 15 32  1  0  0  0
 15 33  1  0  0  0
M  CHG  1  12   1
M  END
> <s_m_entry_id>
9959

> <s_m_entry_name>
ligand_docking-pose.401

> <s_m_Source_Path>
/home/csk/Desktop/cluster/DUD-E-result/aces

> <s_m_Source_File>
ligand_docking-pose.sdf

> <i_m_Source_File_Index>
401

> <i_lp_mmshare_version>
53161

> <r_lp_tautomer_probability>
1

> <s_lp_Force_Field>
OPLS_2005

> <r_lp_Energy>
27.816459

> <b_lp_Chiralities_Consistent>
1

> <s_lp_Variant>
226911-1

> <s_i_glide_gridfile>
glide-grid_1e66

> <i_i_glide_lignum>
799

> <i_i_glide_rotatable_bonds>
3

> <r_i_docking_score>
-6.83651623064853

> <r_i_glide_ligand_efficiency>
-0.455767748709902

> <r_i_glide_ligand_efficiency_sa>
-1.12401992394414

> <r_i_glide_ligand_efficiency_ln>
-1.84369570525674

> <r_i_glide_gscore>
-6.83651623064853

> <r_i_glide_lipo>
-2.19565271887043

> <r_i_glide_hbond>
0

> <r_i_glide_metal>
0

> <r_i_glide_rewards>
-2.66241031113579

> <r_i_glide_evdw>
-25.6265449523926

> <r_i_glide_ecoul>
-7.19136524200439

> <r_i_glide_erotb>
0.381578833277977

> <r_i_glide_esite>
0

> <r_i_glide_emodel>
-51.9911682990341

> <r_i_glide_energy>
-32.817910194397

> <r_i_glide_einternal>
2.3415539264679

> <i_i_glide_confnum>
2

> <i_i_glide_posenum>
226

> <r_i_glide_eff_state_penalty>
0

> <i_f3d_flags>
0

> <s_user_duplicate_titles>
226911

> <s_m_subgroup_title>
dock_pv

> <s_m_subgroupid>
dock_pv1

> <b_m_subgroup_collapsed>
1

$$$$
181012
                    3D
 Schrodinger Suite 2021-1.
 43 46  0  0  1  0            999 V2000
    0.0431   65.8921   71.1054 C   0  0  0  0  0  0
    0.4977   65.5289   69.6850 C   0  0  0  0  0  0
    1.9246   64.9410   69.7506 C   0  0  0  0  0  0
    0.3588   66.7502   68.7754 C   0  0  0  0  0  0
   -0.7112   66.9080   67.9680 C   0  0  0  0  0  0
   -0.9748   68.1580   67.1355 C   0  0  2  0  0  0
   -0.3628   67.9528   65.7363 C   0  0  0  0  0  0
    1.1183   68.3104   65.6165 C   0  0  0  0  0  0
    1.8335   68.9080   66.6757 C   0  0  0  0  0  0
    3.1480   69.3437   66.4124 C   0  0  0  0  0  0
    3.7345   69.1082   65.1311 C   0  0  0  0  0  0
    5.0568   69.4974   64.7690 C   0  0  0  0  0  0
    5.5430   69.2346   63.4912 C   0  0  0  0  0  0
    4.7572   68.5862   62.5495 C   0  0  0  0  0  0
    3.4612   68.1951   62.8624 C   0  0  0  0  0  0
    2.9370   68.4506   64.1509 C   0  0  0  0  0  0
    1.6649   68.0701   64.4019 N   0  0  0  0  0  0
    3.8535   70.0474   67.3994 N   0  0  0  0  0  0
    1.1261   69.1165   68.0315 C   0  0  1  0  0  0
   -0.3650   69.3972   67.8193 C   0  0  0  0  0  0
    1.3130   67.9164   69.0183 C   0  0  0  0  0  0
   -0.8570   66.5080   71.1090 H   0  0  0  0  0  0
    0.7998   66.5080   71.5686 H   0  0  0  0  0  0
   -0.1012   65.0126   71.7333 H   0  0  0  0  0  0
   -0.1696   64.7513   69.3078 H   0  0  0  0  0  0
    2.3430   64.7499   68.7680 H   0  0  0  0  0  0
    2.6177   65.6096   70.2632 H   0  0  0  0  0  0
    1.9303   63.9960   70.2946 H   0  0  0  0  0  0
   -1.4285   66.1080   67.8969 H   0  0  0  0  0  0
   -2.0556   68.2884   67.0591 H   0  0  0  0  0  0
   -0.4570   66.9080   65.4676 H   0  0  0  0  0  0
   -0.9248   68.5326   65.0024 H   0  0  0  0  0  0
    5.6899   70.0034   65.4825 H   0  0  0  0  0  0
    6.5428   69.5361   63.2185 H   0  0  0  0  0  0
    5.1607   68.3940   61.5680 H   0  0  0  0  0  0
    2.8441   67.7080   62.1217 H   0  0  0  0  0  0
    4.7510   70.4491   67.1752 H   0  0  0  0  0  0
    3.4070   70.2316   68.2854 H   0  0  0  0  0  0
    1.5480   70.0042   68.5030 H   0  0  0  0  0  0
   -0.5124   70.2501   67.1680 H   0  0  0  0  0  0
   -0.8404   69.7080   68.7417 H   0  0  0  0  0  0
    1.0233   68.1080   70.0328 H   0  0  0  0  0  0
    2.3430   67.6524   69.1680 H   0  0  0  0  0  0
  1  2  1  0  0  0
  1 22  1  0  0  0
  1 23  1  0  0  0
  1 24  1  0  0  0
  2  3  1  0  0  0
  2  4  1  0  0  0
  2 25  1  0  0  0
  3 26  1  0  0  0
  3 27  1  0  0  0
  3 28  1  0  0  0
  4 21  1  0  0  0
  4  5  2  0  0  0
  5  6  1  0  0  0
  5 29  1  0  0  0
  6 20  1  0  0  0
  6  7  1  0  0  0
  6 30  1  0  0  0
  7  8  1  0  0  0
  7 31  1  0  0  0
  7 32  1  0  0  0
  8 17  2  0  0  0
  8  9  1  0  0  0
  9 10  2  0  0  0
  9 19  1  0  0  0
 10 11  1  0  0  0
 10 18  1  0  0  0
 11 16  2  0  0  0
 11 12  1  0  0  0
 12 13  2  0  0  0
 12 33  1  0  0  0
 13 14  1  0  0  0
 13 34  1  0  0  0
 14 15  2  0  0  0
 14 35  1  0  0  0
 15 16  1  0  0  0
 15 36  1  0  0  0
 16 17  1  0  0  0
 18 37  1  0  0  0
 18 38  1  0  0  0
 19 20  1  0  0  0
 19 21  1  0  0  0
 19 39  1  0  0  0
 20 40  1  0  0  0
 20 41  1  0  0  0
 21 42  1  0  0  0
 21 43  1  0  0  0
M  END
> <s_m_entry_id>
9961

> <s_m_entry_name>
ligand_docking-pose.403

> <s_m_Source_Path>
/home/csk/Desktop/cluster/DUD-E-result/aces

> <s_m_Source_File>
ligand_docking-pose.sdf

> <i_m_Source_File_Index>
403

> <i_lp_mmshare_version>
53161

> <r_lp_tautomer_probability>
1

> <s_lp_Force_Field>
OPLS_2005

> <r_lp_Energy>
25.728269

> <b_lp_Chiralities_Consistent>
1

> <s_lp_Variant>
181012-2

> <s_i_glide_gridfile>
glide-grid_1e66

> <i_i_glide_lignum>
952

> <i_i_glide_rotatable_bonds>
1

> <r_i_docking_score>
-6.83268554588612

> <r_i_glide_ligand_efficiency>
-0.32536597837553

> <r_i_glide_ligand_efficiency_sa>
-0.897660063001164

> <r_i_glide_ligand_efficiency_ln>
-1.68936769447918

> <r_i_glide_gscore>
-6.83268554588612

> <r_i_glide_lipo>
-3.13801783182702

> <r_i_glide_hbond>
0

> <r_i_glide_metal>
0

> <r_i_glide_rewards>
-2.1078814439175

> <r_i_glide_evdw>
-26.6197128295898

> <r_i_glide_ecoul>
-1.70533752441406

> <r_i_glide_erotb>
0

> <r_i_glide_esite>
0

> <r_i_glide_emodel>
-32.5202048572833

> <r_i_glide_energy>
-28.3250503540039

> <r_i_glide_einternal>
0.156974941492081

> <i_i_glide_confnum>
1

> <i_i_glide_posenum>
1

> <r_i_glide_eff_state_penalty>
0

> <i_f3d_flags>
0

> <s_user_duplicate_titles>
181012

> <s_m_subgroup_title>
dock_pv

> <s_m_subgroupid>
dock_pv1

> <b_m_subgroup_collapsed>
1

$$$$
213187
                    3D
 Schrodinger Suite 2021-1.
 53 55  0  0  1  0            999 V2000
    6.3145   68.8608   63.1625 C   0  0  0  0  0  0
    4.9624   68.3762   62.9183 N   0  0  0  0  0  0
    3.9161   68.6182   63.7946 C   0  0  0  0  0  0
    3.9934   69.2215   64.8666 O   0  0  0  0  0  0
    2.7871   68.0864   63.2597 O   0  0  0  0  0  0
    1.5327   68.3005   63.7987 C   0  0  0  0  0  0
    0.5274   68.6681   62.9042 C   0  0  0  0  0  0
   -0.7652   68.9051   63.3576 C   0  0  0  0  0  0
   -1.0646   68.7808   64.7120 C   0  0  0  0  0  0
   -0.0836   68.4040   65.6288 C   0  0  0  0  0  0
    1.2102   68.1261   65.1592 C   0  0  0  0  0  0
   -0.4452   68.2275   67.1031 C   0  0  0  0  0  0
   -1.0413   66.9080   67.3739 N   0  0  2  0  0  0
   -2.4570   66.8651   67.0077 C   0  0  0  0  0  0
   -0.9574   66.4262   68.7551 C   0  0  0  0  0  0
    0.4484   66.4859   69.3650 C   0  0  0  0  0  0
    0.5747   65.5832   70.5942 C   0  0  0  0  0  0
    1.9677   65.3742   70.7671 O   0  0  0  0  0  0
    2.4744   64.1042   70.9000 C   0  0  0  0  0  0
    3.8478   63.9876   70.7055 C   0  0  0  0  0  0
    4.4718   62.7484   70.7670 C   0  0  0  0  0  0
    3.7202   61.5971   71.0245 C   0  0  0  0  0  0
    4.3526   60.2557   71.0311 C   0  0  0  0  0  0
    5.5429   60.1080   70.7682 O   0  0  0  0  0  0
    3.4360   59.1730   71.3467 C   0  0  0  0  0  0
    2.1296   59.4076   71.5757 C   0  0  0  0  0  0
    1.5436   60.6299   71.5384 O   0  0  0  0  0  0
    2.3453   61.7202   71.2615 C   0  0  0  0  0  0
    1.7234   62.9596   71.2074 C   0  0  0  0  0  0
    6.9838   68.5086   62.3742 H   0  0  0  0  0  0
    6.3427   69.9510   63.1695 H   0  0  0  0  0  0
    6.6975   68.5081   64.1199 H   0  0  0  0  0  0
    4.7610   67.9246   62.0400 H   0  0  0  0  0  0
    0.7518   68.7835   61.8537 H   0  0  0  0  0  0
   -1.5392   69.2118   62.6719 H   0  0  0  0  0  0
   -2.0679   69.0032   65.0435 H   0  0  0  0  0  0
    1.9722   67.8054   65.8551 H   0  0  0  0  0  0
   -1.0973   69.0318   67.4524 H   0  0  0  0  0  0
    0.4900   68.3358   67.6501 H   0  0  0  0  0  0
   -2.6150   67.1166   65.9680 H   0  0  0  0  0  0
   -2.8571   65.8610   67.1403 H   0  0  0  0  0  0
   -3.0553   67.5525   67.6083 H   0  0  0  0  0  0
   -1.2568   65.3795   68.7680 H   0  0  0  0  0  0
   -1.6901   66.9079   69.3981 H   0  0  0  0  0  0
    0.6754   67.5031   69.6889 H   0  0  0  0  0  0
    1.1901   66.2274   68.6063 H   0  0  0  0  0  0
    0.0034   64.6727   70.4171 H   0  0  0  0  0  0
    0.1568   66.0605   71.4814 H   0  0  0  0  0  0
    4.4299   64.8726   70.4885 H   0  0  0  0  0  0
    5.5404   62.6930   70.5983 H   0  0  0  0  0  0
    3.8053   58.1617   71.4094 H   0  0  0  0  0  0
    1.4139   58.6311   71.8148 H   0  0  0  0  0  0
    0.6666   62.9967   71.4109 H   0  0  0  0  0  0
  1  2  1  0  0  0
  1 30  1  0  0  0
  1 31  1  0  0  0
  1 32  1  0  0  0
  2  3  1  0  0  0
  2 33  1  0  0  0
  3  4  2  0  0  0
  3  5  1  0  0  0
  5  6  1  0  0  0
  6 11  1  0  0  0
  6  7  2  0  0  0
  7  8  1  0  0  0
  7 34  1  0  0  0
  8  9  2  0  0  0
  8 35  1  0  0  0
  9 10  1  0  0  0
  9 36  1  0  0  0
 10 11  2  0  0  0
 10 12  1  0  0  0
 11 37  1  0  0  0
 12 13  1  0  0  0
 12 38  1  0  0  0
 12 39  1  0  0  0
 13 14  1  0  0  0
 13 15  1  0  0  0
 14 40  1  0  0  0
 14 41  1  0  0  0
 14 42  1  0  0  0
 15 16  1  0  0  0
 15 43  1  0  0  0
 15 44  1  0  0  0
 16 17  1  0  0  0
 16 45  1  0  0  0
 16 46  1  0  0  0
 17 18  1  0  0  0
 17 47  1  0  0  0
 17 48  1  0  0  0
 18 19  1  0  0  0
 19 29  1  0  0  0
 19 20  2  0  0  0
 20 21  1  0  0  0
 20 49  1  0  0  0
 21 22  2  0  0  0
 21 50  1  0  0  0
 22 28  1  0  0  0
 22 23  1  0  0  0
 23 24  2  0  0  0
 23 25  1  0  0  0
 25 26  2  0  0  0
 25 51  1  0  0  0
 26 27  1  0  0  0
 26 52  1  0  0  0
 27 28  1  0  0  0
 28 29  2  0  0  0
 29 53  1  0  0  0
M  END
> <s_m_entry_id>
9962

> <s_m_entry_name>
ligand_docking-pose.404

> <s_m_Source_Path>
/home/csk/Desktop/cluster/DUD-E-result/aces

> <s_m_Source_File>
ligand_docking-pose.sdf

> <i_m_Source_File_Index>
404

> <i_lp_mmshare_version>
53161

> <r_lp_tautomer_probability>
1

> <s_lp_Force_Field>
OPLS_2005

> <r_lp_Energy>
28.047484

> <b_lp_Chiralities_Consistent>
1

> <s_lp_Variant>
213187-1

> <s_i_glide_gridfile>
glide-grid_1e66

> <i_i_glide_lignum>
1891

> <i_i_glide_rotatable_bonds>
10

> <r_i_docking_score>
-6.82658636200302

> <r_i_glide_ligand_efficiency>
-0.235399529724242

> <r_i_glide_ligand_efficiency_sa>
-0.723221935118557

> <r_i_glide_ligand_efficiency_ln>
-1.56311516960466

> <r_i_glide_gscore>
-6.82658636200302

> <r_i_glide_lipo>
-3.6764802527302

> <r_i_glide_hbond>
-0.32

> <r_i_glide_metal>
0

> <r_i_glide_rewards>
-0.94811339193336

> <r_i_glide_evdw>
-48.3283195495605

> <r_i_glide_ecoul>
-3.07656168937683

> <r_i_glide_erotb>
0.995907513545089

> <r_i_glide_esite>
0

> <r_i_glide_emodel>
-66.7980644592269

> <r_i_glide_energy>
-51.4048812389374

> <r_i_glide_einternal>
9.86956214904785

> <i_i_glide_confnum>
3

> <i_i_glide_posenum>
81

> <r_i_glide_eff_state_penalty>
0

> <i_f3d_flags>
0

> <s_user_duplicate_titles>
213187

> <s_m_subgroup_title>
dock_pv

> <s_m_subgroupid>
dock_pv1

> <b_m_subgroup_collapsed>
1

$$$$
165230
                    3D
 Schrodinger Suite 2021-1.
 51 52  0  0  1  0            999 V2000
    5.1674   67.6434   62.6075 C   0  0  0  0  0  0
    4.6206   68.5568   63.6128 N   0  0  2  0  0  0
    3.9251   69.6702   62.9518 C   0  0  0  0  0  0
    2.5173   69.2611   62.4719 C   0  0  0  0  0  0
    1.7104   68.9941   63.6119 O   0  0  0  0  0  0
    0.4734   68.3649   63.3246 C   0  0  0  0  0  0
   -0.4369   68.4631   64.5485 C   0  0  0  0  0  0
    0.1323   67.8398   65.7602 N   0  0  0  0  0  0
   -0.5780   67.6022   66.9072 C   0  0  0  0  0  0
   -2.1837   68.1078   67.0751 S   0  0  0  0  0  0
    0.1702   66.9082   67.8390 N   0  0  0  0  0  0
   -0.1626   66.3611   69.0471 C   0  0  0  0  0  0
   -1.2567   66.5080   69.5615 O   0  0  0  0  0  0
    0.8419   65.4854   69.7798 C   0  0  0  0  0  0
    0.4992   64.8262   70.9727 C   0  0  0  0  0  0
    1.3746   63.9196   71.5681 C   0  0  0  0  0  0
    2.6281   63.6953   71.0062 C   0  0  0  0  0  0
    3.0060   64.3757   69.8549 C   0  0  0  0  0  0
    2.1072   65.2536   69.2545 C   0  0  0  0  0  0
    3.7103   62.5569   71.7243 Cl  0  0  0  0  0  0
    5.7042   69.0526   64.4735 C   0  0  0  0  0  0
    5.2768   69.7063   65.7947 C   0  0  0  0  0  0
    6.2558   70.3620   66.5476 C   0  0  0  0  0  0
    5.9431   70.9104   67.7895 C   0  0  0  0  0  0
    4.6487   70.7959   68.2894 C   0  0  0  0  0  0
    3.6728   70.1080   67.5687 C   0  0  0  0  0  0
    3.9856   69.5670   66.3230 C   0  0  0  0  0  0
    5.5432   66.7443   63.0923 H   0  0  0  0  0  0
    4.4121   67.3109   61.8966 H   0  0  0  0  0  0
    5.9803   68.1003   62.0374 H   0  0  0  0  0  0
    4.5163   70.0590   62.1202 H   0  0  0  0  0  0
    3.8176   70.5038   63.6468 H   0  0  0  0  0  0
    2.5596   68.3961   61.8084 H   0  0  0  0  0  0
    2.0715   70.0737   61.8967 H   0  0  0  0  0  0
    0.6447   67.3170   63.0833 H   0  0  0  0  0  0
   -0.0198   68.8344   62.4711 H   0  0  0  0  0  0
   -1.3853   67.9930   64.2906 H   0  0  0  0  0  0
   -0.6723   69.5038   64.7546 H   0  0  0  0  0  0
    1.1392   67.7781   65.7952 H   0  0  0  0  0  0
    1.1087   66.6976   67.5438 H   0  0  0  0  0  0
   -0.4568   64.9832   71.4436 H   0  0  0  0  0  0
    1.0827   63.3983   72.4681 H   0  0  0  0  0  0
    3.9736   64.1994   69.4080 H   0  0  0  0  0  0
    2.3430   65.6935   68.3063 H   0  0  0  0  0  0
    6.3238   68.2025   64.7644 H   0  0  0  0  0  0
    6.3430   69.7342   63.9119 H   0  0  0  0  0  0
    7.2636   70.4492   66.1671 H   0  0  0  0  0  0
    6.6988   71.4292   68.3612 H   0  0  0  0  0  0
    4.3984   71.2420   69.2409 H   0  0  0  0  0  0
    2.6733   70.0104   67.9676 H   0  0  0  0  0  0
    3.2224   69.0356   65.7744 H   0  0  0  0  0  0
  1  2  1  0  0  0
  1 28  1  0  0  0
  1 29  1  0  0  0
  1 30  1  0  0  0
  2  3  1  0  0  0
  2 21  1  0  0  0
  3  4  1  0  0  0
  3 31  1  0  0  0
  3 32  1  0  0  0
  4  5  1  0  0  0
  4 33  1  0  0  0
  4 34  1  0  0  0
  5  6  1  0  0  0
  6  7  1  0  0  0
  6 35  1  0  0  0
  6 36  1  0  0  0
  7  8  1  0  0  0
  7 37  1  0  0  0
  7 38  1  0  0  0
  8  9  1  0  0  0
  8 39  1  0  0  0
  9 10  2  0  0  0
  9 11  1  0  0  0
 11 12  1  0  0  0
 11 40  1  0  0  0
 12 13  2  0  0  0
 12 14  1  0  0  0
 14 19  1  0  0  0
 14 15  2  0  0  0
 15 16  1  0  0  0
 15 41  1  0  0  0
 16 17  2  0  0  0
 16 42  1  0  0  0
 17 18  1  0  0  0
 17 20  1  0  0  0
 18 19  2  0  0  0
 18 43  1  0  0  0
 19 44  1  0  0  0
 21 22  1  0  0  0
 21 45  1  0  0  0
 21 46  1  0  0  0
 22 27  1  0  0  0
 22 23  2  0  0  0
 23 24  1  0  0  0
 23 47  1  0  0  0
 24 25  2  0  0  0
 24 48  1  0  0  0
 25 26  1  0  0  0
 25 49  1  0  0  0
 26 27  2  0  0  0
 26 50  1  0  0  0
 27 51  1  0  0  0
M  END
> <s_m_entry_id>
9963

> <s_m_entry_name>
ligand_docking-pose.405

> <s_m_Source_Path>
/home/csk/Desktop/cluster/DUD-E-result/aces

> <s_m_Source_File>
ligand_docking-pose.sdf

> <i_m_Source_File_Index>
405

> <i_lp_mmshare_version>
53161

> <r_lp_tautomer_probability>
1

> <s_lp_Force_Field>
OPLS_2005

> <r_lp_Energy>
27.051563

> <b_lp_Chiralities_Consistent>
1

> <s_lp_Variant>
165230-1

> <s_i_glide_gridfile>
glide-grid_1e66

> <i_i_glide_lignum>
1824

> <i_i_glide_rotatable_bonds>
12

> <r_i_docking_score>
-6.8249247012234

> <r_i_glide_ligand_efficiency>
-0.2527749889342

> <r_i_glide_ligand_efficiency_sa>
-0.758324965969495

> <r_i_glide_ligand_efficiency_ln>
-1.58872995276737

> <r_i_glide_gscore>
-6.8249247012234

> <r_i_glide_lipo>
-3.71655165650364

> <r_i_glide_hbond>
0

> <r_i_glide_metal>
0

> <r_i_glide_rewards>
-2.71932312658938

> <r_i_glide_evdw>
-32.3639602661133

> <r_i_glide_ecoul>
0.241708591580391

> <r_i_glide_erotb>
1.19289180643822

> <r_i_glide_esite>
0

> <r_i_glide_emodel>
-33.5259325960359

> <r_i_glide_energy>
-32.1222516745329

> <r_i_glide_einternal>
11.2631063461304

> <i_i_glide_confnum>
66

> <i_i_glide_posenum>
246

> <r_i_glide_eff_state_penalty>
0

> <i_f3d_flags>
0

> <s_user_duplicate_titles>
165230

> <s_m_subgroup_title>
dock_pv

> <s_m_subgroupid>
dock_pv1

> <b_m_subgroup_collapsed>
1

$$$$
232921
                    3D
 Schrodinger Suite 2021-1.
 53 56  0  0  1  0            999 V2000
    4.6224   63.5682   69.8397 C   0  0  0  0  0  0
    4.5506   64.8202   70.3889 C   0  0  0  0  0  0
    3.3233   65.3070   70.7675 C   0  0  0  0  0  0
    2.1624   64.5485   70.6543 C   0  0  0  0  0  0
    2.2368   63.2792   70.0685 C   0  0  0  0  0  0
    3.4793   62.7815   69.6605 C   0  0  0  0  0  0
    0.8424   65.1824   71.1128 C   0  0  0  0  0  0
    0.1882   66.0824   70.1546 N   0  0  1  0  0  0
    1.0863   67.0796   69.5349 C   0  0  0  0  0  0
    0.4803   67.9191   68.3884 C   0  0  0  0  0  0
   -0.4130   67.1033   67.4201 C   0  0  0  0  0  0
   -1.3632   66.2619   68.2715 C   0  0  0  0  0  0
   -0.5807   65.3114   69.1911 C   0  0  0  0  0  0
   -1.2190   67.9460   66.4115 C   0  0  0  0  0  0
   -0.4441   68.9950   65.6199 C   0  0  0  0  0  0
    0.5863   68.5079   64.6833 N   0  0  0  0  0  0
    1.9332   68.1931   65.2281 C   0  0  0  0  0  0
    3.0622   68.4426   64.2436 C   0  0  0  0  0  0
    4.3961   68.5753   64.6396 C   0  0  0  0  0  0
    5.3833   68.8680   63.7011 C   0  0  0  0  0  0
    5.0449   69.0204   62.3598 C   0  0  0  0  0  0
    3.7183   68.8794   61.9513 C   0  0  0  0  0  0
    2.7318   68.5993   62.8986 C   0  0  0  0  0  0
    1.3909   68.5068   62.5337 N   0  0  0  0  0  0
    0.3056   68.5135   63.3392 C   0  0  0  0  0  0
   -0.8180   68.5252   62.8432 O   0  0  0  0  0  0
    5.6206   63.3077   69.5666 H   0  0  0  0  0  0
    5.4433   65.4165   70.5132 H   0  0  0  0  0  0
    3.2925   66.3054   71.1666 H   0  0  0  0  0  0
    1.3455   62.6845   69.9366 H   0  0  0  0  0  0
    3.5541   61.8028   69.2109 H   0  0  0  0  0  0
    1.0342   65.8125   71.9674 H   0  0  0  0  0  0
    0.1511   64.4064   71.4443 H   0  0  0  0  0  0
    1.9393   66.5648   69.1112 H   0  0  0  0  0  0
    1.4841   67.7184   70.3205 H   0  0  0  0  0  0
    1.2716   68.4432   67.8665 H   0  0  0  0  0  0
   -0.0571   68.7476   68.8246 H   0  0  0  0  0  0
    0.2272   66.4097   66.8735 H   0  0  0  0  0  0
   -2.0272   66.9034   68.8496 H   0  0  0  0  0  0
   -2.0567   65.7115   67.6401 H   0  0  0  0  0  0
    0.1840   64.6917   68.7681 H   0  0  0  0  0  0
   -1.2549   64.5651   69.5844 H   0  0  0  0  0  0
   -1.9971   68.4791   66.9624 H   0  0  0  0  0  0
   -1.7587   67.3070   65.7159 H   0  0  0  0  0  0
    0.0452   69.6573   66.3370 H   0  0  0  0  0  0
   -1.1752   69.6223   65.1060 H   0  0  0  0  0  0
    1.9609   67.1676   65.5976 H   0  0  0  0  0  0
    2.1289   68.8474   66.0737 H   0  0  0  0  0  0
    4.6625   68.4782   65.6810 H   0  0  0  0  0  0
    6.4065   68.9899   64.0188 H   0  0  0  0  0  0
    5.8112   69.2483   61.6331 H   0  0  0  0  0  0
    3.4658   69.0015   60.9082 H   0  0  0  0  0  0
    1.1518   68.5563   61.5552 H   0  0  0  0  0  0
  1  6  1  0  0  0
  1  2  2  0  0  0
  1 27  1  0  0  0
  2  3  1  0  0  0
  2 28  1  0  0  0
  3  4  2  0  0  0
  3 29  1  0  0  0
  4  5  1  0  0  0
  4  7  1  0  0  0
  5  6  2  0  0  0
  5 30  1  0  0  0
  6 31  1  0  0  0
  7  8  1  0  0  0
  7 32  1  0  0  0
  7 33  1  0  0  0
  8 13  1  0  0  0
  8  9  1  0  0  0
  9 10  1  0  0  0
  9 34  1  0  0  0
  9 35  1  0  0  0
 10 11  1  0  0  0
 10 36  1  0  0  0
 10 37  1  0  0  0
 11 12  1  0  0  0
 11 14  1  0  0  0
 11 38  1  0  0  0
 12 13  1  0  0  0
 12 39  1  0  0  0
 12 40  1  0  0  0
 13 41  1  0  0  0
 13 42  1  0  0  0
 14 15  1  0  0  0
 14 43  1  0  0  0
 14 44  1  0  0  0
 15 16  1  0  0  0
 15 45  1  0  0  0
 15 46  1  0  0  0
 16 25  1  0  0  0
 16 17  1  0  0  0
 17 18  1  0  0  0
 17 47  1  0  0  0
 17 48  1  0  0  0
 18 23  2  0  0  0
 18 19  1  0  0  0
 19 20  2  0  0  0
 19 49  1  0  0  0
 20 21  1  0  0  0
 20 50  1  0  0  0
 21 22  2  0  0  0
 21 51  1  0  0  0
 22 23  1  0  0  0
 22 52  1  0  0  0
 23 24  1  0  0  0
 24 25  1  0  0  0
 24 53  1  0  0  0
 25 26  2  0  0  0
M  END
> <s_m_entry_id>
9964

> <s_m_entry_name>
ligand_docking-pose.406

> <s_m_Source_Path>
/home/csk/Desktop/cluster/DUD-E-result/aces

> <s_m_Source_File>
ligand_docking-pose.sdf

> <i_m_Source_File_Index>
406

> <i_lp_mmshare_version>
53161

> <r_lp_tautomer_probability>
1

> <s_lp_Force_Field>
OPLS_2005

> <r_lp_Energy>
41.062997

> <b_lp_Chiralities_Consistent>
1

> <s_lp_Variant>
232921-1

> <s_i_glide_gridfile>
glide-grid_1e66

> <i_i_glide_lignum>
379

> <i_i_glide_rotatable_bonds>
5

> <r_i_docking_score>
-6.82146415182969

> <r_i_glide_ligand_efficiency>
-0.262364005839604

> <r_i_glide_ligand_efficiency_sa>
-0.777252334947313

> <r_i_glide_ligand_efficiency_ln>
-1.60199847300768

> <r_i_glide_gscore>
-6.82146415182969

> <r_i_glide_lipo>
-3.66274589616218

> <r_i_glide_hbond>
0

> <r_i_glide_metal>
0

> <r_i_glide_rewards>
-2.38083726574352

> <r_i_glide_evdw>
-26.5170307159424

> <r_i_glide_ecoul>
-1.54605448246002

> <r_i_glide_erotb>
0.779878718242137

> <r_i_glide_esite>
0

> <r_i_glide_emodel>
-28.0257527278164

> <r_i_glide_energy>
-28.0630851984024

> <r_i_glide_einternal>
12.0524587631226

> <i_i_glide_confnum>
66

> <i_i_glide_posenum>
382

> <r_i_glide_eff_state_penalty>
0

> <i_f3d_flags>
0

> <s_user_duplicate_titles>
232921

> <s_m_subgroup_title>
dock_pv

> <s_m_subgroupid>
dock_pv1

> <b_m_subgroup_collapsed>
1

$$$$
512538
                    3D
 Schrodinger Suite 2021-1.
 64 66  0  0  1  0            999 V2000
    5.4581   70.5030   67.5297 C   0  0  0  0  0  0
    6.2693   70.4031   66.4071 C   0  0  0  0  0  0
    5.7403   69.9631   65.1993 C   0  0  0  0  0  0
    4.3934   69.5603   65.1120 C   0  0  0  0  0  0
    3.5652   69.5695   66.2709 C   0  0  0  0  0  0
    4.1229   70.1077   67.4703 C   0  0  0  0  0  0
    2.2157   69.1006   66.1193 C   0  0  0  0  0  0
    1.7425   68.7627   64.8347 C   0  0  0  0  0  0
    2.6353   68.8515   63.7441 C   0  0  0  0  0  0
    3.9269   69.2165   63.8911 N   0  0  0  0  0  0
    2.1832   68.6225   62.3016 C   0  0  0  0  0  0
    0.6637   68.7641   62.1294 C   0  0  0  0  0  0
   -0.0418   67.9204   63.1933 C   0  0  0  0  0  0
    0.2520   68.4271   64.6031 C   0  0  0  0  0  0
    1.2660   69.0705   67.1597 N   0  0  0  0  0  0
    1.5403   68.3995   68.4157 C   0  0  0  0  0  0
    1.1237   66.9214   68.4543 C   0  0  0  0  0  0
    1.4823   66.2465   69.7963 C   0  0  0  0  0  0
    1.6207   64.7175   69.6941 C   0  0  0  0  0  0
    2.0660   64.0379   71.0020 C   0  0  0  0  0  0
    0.9509   63.8459   72.0535 C   0  0  0  0  0  0
   -0.1380   62.8025   71.6971 C   0  0  0  0  0  0
    0.3653   61.4015   71.2860 C   0  0  0  0  0  0
    1.2767   60.8565   72.2834 N   0  0  1  0  0  0
    1.8970   59.6203   71.8254 C   0  0  0  0  0  0
    3.0778   59.2629   72.7518 C   0  0  0  0  0  0
    4.0462   60.3233   72.8336 O   0  0  0  0  0  0
    4.8433   60.5226   71.6618 N   0  3  0  0  0  0
    4.7430   59.7159   70.7636 O   0  5  0  0  0  0
    5.5419   61.5025   71.7423 O   0  0  0  0  0  0
    5.8632   70.8899   68.4538 H   0  0  0  0  0  0
    7.3071   70.6975   66.4596 H   0  0  0  0  0  0
    6.3442   69.9439   64.3055 H   0  0  0  0  0  0
    3.5101   70.2453   68.3463 H   0  0  0  0  0  0
    2.4963   67.6259   61.9982 H   0  0  0  0  0  0
    2.6969   69.3097   61.6270 H   0  0  0  0  0  0
    0.3672   68.4347   61.1332 H   0  0  0  0  0  0
    0.3641   69.8103   62.2171 H   0  0  0  0  0  0
    0.3416   66.9079   63.1687 H   0  0  0  0  0  0
   -1.1152   67.8537   63.0119 H   0  0  0  0  0  0
   -0.0786   67.6713   65.3181 H   0  0  0  0  0  0
   -0.3663   69.3059   64.7932 H   0  0  0  0  0  0
    0.3083   68.9607   66.8579 H   0  0  0  0  0  0
    0.9776   68.9242   69.1684 H   0  0  0  0  0  0
    2.5714   68.5146   68.7260 H   0  0  0  0  0  0
    1.5462   66.3876   67.6068 H   0  0  0  0  0  0
    0.0470   66.8451   68.2951 H   0  0  0  0  0  0
    0.7378   66.5155   70.5472 H   0  0  0  0  0  0
    2.4275   66.6466   70.1652 H   0  0  0  0  0  0
    2.3730   64.4947   68.9367 H   0  0  0  0  0  0
    0.6870   64.2798   69.3382 H   0  0  0  0  0  0
    2.8792   64.6198   71.4376 H   0  0  0  0  0  0
    2.5143   63.0716   70.7697 H   0  0  0  0  0  0
    0.4682   64.8042   72.2521 H   0  0  0  0  0  0
    1.4147   63.5587   72.9989 H   0  0  0  0  0  0
   -0.7600   63.1912   70.8902 H   0  0  0  0  0  0
   -0.8127   62.6959   72.5478 H   0  0  0  0  0  0
    0.8741   61.4769   70.3236 H   0  0  0  0  0  0
   -0.4806   60.7252   71.1655 H   0  0  0  0  0  0
    1.9768   61.5366   72.5478 H   0  0  0  0  0  0
    2.2457   59.7158   70.7956 H   0  0  0  0  0  0
    1.1578   58.8168   71.8425 H   0  0  0  0  0  0
    3.5430   58.3218   72.4514 H   0  0  0  0  0  0
    2.7025   59.0872   73.7611 H   0  0  0  0  0  0
  1  6  1  0  0  0
  1  2  2  0  0  0
  1 31  1  0  0  0
  2  3  1  0  0  0
  2 32  1  0  0  0
  3  4  2  0  0  0
  3 33  1  0  0  0
  4 10  1  0  0  0
  4  5  1  0  0  0
  5  6  2  0  0  0
  5  7  1  0  0  0
  6 34  1  0  0  0
  7  8  2  0  0  0
  7 15  1  0  0  0
  8 14  1  0  0  0
  8  9  1  0  0  0
  9 10  2  0  0  0
  9 11  1  0  0  0
 11 12  1  0  0  0
 11 35  1  0  0  0
 11 36  1  0  0  0
 12 13  1  0  0  0
 12 37  1  0  0  0
 12 38  1  0  0  0
 13 14  1  0  0  0
 13 39  1  0  0  0
 13 40  1  0  0  0
 14 41  1  0  0  0
 14 42  1  0  0  0
 15 16  1  0  0  0
 15 43  1  0  0  0
 16 17  1  0  0  0
 16 44  1  0  0  0
 16 45  1  0  0  0
 17 18  1  0  0  0
 17 46  1  0  0  0
 17 47  1  0  0  0
 18 19  1  0  0  0
 18 48  1  0  0  0
 18 49  1  0  0  0
 19 20  1  0  0  0
 19 50  1  0  0  0
 19 51  1  0  0  0
 20 21  1  0  0  0
 20 52  1  0  0  0
 20 53  1  0  0  0
 21 22  1  0  0  0
 21 54  1  0  0  0
 21 55  1  0  0  0
 22 23  1  0  0  0
 22 56  1  0  0  0
 22 57  1  0  0  0
 23 24  1  0  0  0
 23 58  1  0  0  0
 23 59  1  0  0  0
 24 25  1  0  0  0
 24 60  1  0  0  0
 25 26  1  0  0  0
 25 61  1  0  0  0
 25 62  1  0  0  0
 26 27  1  0  0  0
 26 63  1  0  0  0
 26 64  1  0  0  0
 27 28  1  0  0  0
 28 29  1  0  0  0
 28 30  2  0  0  0
M  CHG  2  28   1  29  -1
M  END
> <s_m_entry_id>
9965

> <s_m_entry_name>
ligand_docking-pose.407

> <s_m_Source_Path>
/home/csk/Desktop/cluster/DUD-E-result/aces

> <s_m_Source_File>
ligand_docking-pose.sdf

> <i_m_Source_File_Index>
407

> <i_lp_mmshare_version>
53161

> <r_lp_tautomer_probability>
1

> <s_lp_Force_Field>
OPLS_2005

> <r_lp_Energy>
27.017599

> <b_lp_Chiralities_Consistent>
1

> <s_lp_Variant>
512538-1

> <s_i_glide_gridfile>
glide-grid_1e66

> <i_i_glide_lignum>
163

> <i_i_glide_rotatable_bonds>
14

> <r_i_docking_score>
-6.8176505753496

> <r_i_glide_ligand_efficiency>
-0.22725501917832

> <r_i_glide_ligand_efficiency_sa>
-0.706134181931476

> <r_i_glide_ligand_efficiency_ln>
-1.54904449497215

> <r_i_glide_gscore>
-6.8176505753496

> <r_i_glide_lipo>
-4.34254214727621

> <r_i_glide_hbond>
0

> <r_i_glide_metal>
0

> <r_i_glide_rewards>
-1.41600792424242

> <r_i_glide_evdw>
-41.9331398010254

> <r_i_glide_ecoul>
-2.09003853797913

> <r_i_glide_erotb>
1.37835072802389

> <r_i_glide_esite>
-0.0272884611067158

> <r_i_glide_emodel>
-54.632034589063

> <r_i_glide_energy>
-44.0231783390045

> <r_i_glide_einternal>
7.46062707901001

> <i_i_glide_confnum>
23

> <i_i_glide_posenum>
354

> <r_i_glide_eff_state_penalty>
0

> <i_f3d_flags>
0

> <s_user_duplicate_titles>
512538

> <s_m_subgroup_title>
dock_pv

> <s_m_subgroupid>
dock_pv1

> <b_m_subgroup_collapsed>
1

$$$$
547800
                    3D
 Schrodinger Suite 2021-1.
 53 56  0  0  1  0            999 V2000
    4.7642   67.1670   61.8312 C   0  0  0  0  0  0
    5.3180   67.9389   62.8831 O   0  0  0  0  0  0
    4.4835   68.3191   63.9061 C   0  0  0  0  0  0
    5.0365   69.0999   64.9215 C   0  0  0  0  0  0
    4.2629   69.4903   66.0132 C   0  0  0  0  0  0
    2.9256   69.0935   66.0820 C   0  0  0  0  0  0
    2.3548   68.3378   65.0643 C   0  0  0  0  0  0
    3.1320   67.9489   63.9839 C   0  0  0  0  0  0
    0.9220   67.9960   65.3543 C   0  0  0  0  0  0
    0.6022   68.8026   66.6127 C   0  0  2  0  0  0
    1.9340   69.3556   67.1383 C   0  0  0  0  0  0
    2.1269   69.9495   68.1977 O   0  0  0  0  0  0
   -0.2668   68.0929   67.6662 C   0  0  0  0  0  0
    0.2875   66.8312   68.3956 C   0  0  0  0  0  0
    1.1591   67.1170   69.6326 C   0  0  0  0  0  0
    1.6816   65.8179   70.2763 C   0  0  0  0  0  0
    0.5748   64.9228   70.6487 N   0  0  1  0  0  0
   -0.3697   64.6340   69.5622 C   0  0  0  0  0  0
   -0.8622   65.9513   68.9136 C   0  0  0  0  0  0
    0.9413   63.7625   71.4713 C   0  0  0  0  0  0
    1.9980   62.8422   70.8702 C   0  0  0  0  0  0
    1.6118   61.7264   70.1267 C   0  0  0  0  0  0
    2.5772   60.8753   69.5966 C   0  0  0  0  0  0
    3.9267   61.1593   69.7945 C   0  0  0  0  0  0
    4.3225   62.2945   70.4995 C   0  0  0  0  0  0
    3.3544   63.1399   71.0302 C   0  0  0  0  0  0
    5.5684   66.9079   61.1680 H   0  0  0  0  0  0
    4.0203   67.7246   61.2591 H   0  0  0  0  0  0
    4.3339   66.2294   62.1864 H   0  0  0  0  0  0
    6.0748   69.3948   64.8654 H   0  0  0  0  0  0
    4.7112   70.0864   66.7965 H   0  0  0  0  0  0
    2.6733   67.3527   63.2148 H   0  0  0  0  0  0
    0.2492   68.2823   64.5434 H   0  0  0  0  0  0
    0.8000   66.9256   65.5244 H   0  0  0  0  0  0
    0.0325   69.6797   66.3083 H   0  0  0  0  0  0
   -0.5530   68.8651   68.3683 H   0  0  0  0  0  0
   -1.2027   67.8311   67.1681 H   0  0  0  0  0  0
    0.8776   66.2363   67.7004 H   0  0  0  0  0  0
    2.0003   67.7499   69.3765 H   0  0  0  0  0  0
    0.6204   67.7069   70.3689 H   0  0  0  0  0  0
    2.3692   65.2990   69.6074 H   0  0  0  0  0  0
    2.2476   66.0717   71.1677 H   0  0  0  0  0  0
    0.0632   63.9569   68.8308 H   0  0  0  0  0  0
   -1.2163   64.0765   69.9556 H   0  0  0  0  0  0
   -1.5091   66.5073   69.5908 H   0  0  0  0  0  0
   -1.5245   65.7202   68.0878 H   0  0  0  0  0  0
    1.3111   64.1095   72.4350 H   0  0  0  0  0  0
    0.0375   63.1856   71.6842 H   0  0  0  0  0  0
    0.5661   61.5124   69.9780 H   0  0  0  0  0  0
    2.2822   59.9975   69.0409 H   0  0  0  0  0  0
    4.6763   60.4999   69.3840 H   0  0  0  0  0  0
    5.3690   62.5201   70.6382 H   0  0  0  0  0  0
    3.6570   64.0249   71.5700 H   0  0  0  0  0  0
  1  2  1  0  0  0
  1 27  1  0  0  0
  1 28  1  0  0  0
  1 29  1  0  0  0
  2  3  1  0  0  0
  3  8  1  0  0  0
  3  4  2  0  0  0
  4  5  1  0  0  0
  4 30  1  0  0  0
  5  6  2  0  0  0
  5 31  1  0  0  0
  6 11  1  0  0  0
  6  7  1  0  0  0
  7  8  2  0  0  0
  7  9  1  0  0  0
  8 32  1  0  0  0
  9 10  1  0  0  0
  9 33  1  0  0  0
  9 34  1  0  0  0
 10 11  1  0  0  0
 10 13  1  0  0  0
 10 35  1  0  0  0
 11 12  2  0  0  0
 13 14  1  0  0  0
 13 36  1  0  0  0
 13 37  1  0  0  0
 14 19  1  0  0  0
 14 15  1  0  0  0
 14 38  1  0  0  0
 15 16  1  0  0  0
 15 39  1  0  0  0
 15 40  1  0  0  0
 16 17  1  0  0  0
 16 41  1  0  0  0
 16 42  1  0  0  0
 17 18  1  0  0  0
 17 20  1  0  0  0
 18 19  1  0  0  0
 18 43  1  0  0  0
 18 44  1  0  0  0
 19 45  1  0  0  0
 19 46  1  0  0  0
 20 21  1  0  0  0
 20 47  1  0  0  0
 20 48  1  0  0  0
 21 26  1  0  0  0
 21 22  2  0  0  0
 22 23  1  0  0  0
 22 49  1  0  0  0
 23 24  2  0  0  0
 23 50  1  0  0  0
 24 25  1  0  0  0
 24 51  1  0  0  0
 25 26  2  0  0  0
 25 52  1  0  0  0
 26 53  1  0  0  0
M  END
> <s_m_entry_id>
9968

> <s_m_entry_name>
ligand_docking-pose.410

> <s_m_Source_Path>
/home/csk/Desktop/cluster/DUD-E-result/aces

> <s_m_Source_File>
ligand_docking-pose.sdf

> <i_m_Source_File_Index>
410

> <i_lp_mmshare_version>
53161

> <r_lp_tautomer_probability>
0.99995

> <s_lp_Force_Field>
OPLS_2005

> <r_lp_Energy>
46.43703

> <b_lp_Chiralities_Consistent>
1

> <s_lp_Variant>
547800-2

> <s_i_glide_gridfile>
glide-grid_1e66

> <i_i_glide_lignum>
2053

> <i_i_glide_rotatable_bonds>
5

> <r_i_docking_score>
-6.80016003475824

> <r_i_glide_ligand_efficiency>
-0.261544616721471

> <r_i_glide_ligand_efficiency_sa>
-0.774824897908985

> <r_i_glide_ligand_efficiency_ln>
-1.59699527101796

> <r_i_glide_gscore>
-6.80016003475824

> <r_i_glide_lipo>
-3.67826756589958

> <r_i_glide_hbond>
0

> <r_i_glide_metal>
0

> <r_i_glide_rewards>
-2.1080276037551

> <r_i_glide_evdw>
-35.0743026733398

> <r_i_glide_ecoul>
0.77291214466095

> <r_i_glide_erotb>
0.623913446864289

> <r_i_glide_esite>
0

> <r_i_glide_emodel>
-33.2658231957366

> <r_i_glide_energy>
-34.3013905286789

> <r_i_glide_einternal>
14.5094175338745

> <i_i_glide_confnum>
19

> <i_i_glide_posenum>
42

> <r_i_glide_eff_state_penalty>
0

> <i_f3d_flags>
0

> <s_user_duplicate_titles>
547800

> <s_m_subgroup_title>
dock_pv

> <s_m_subgroupid>
dock_pv1

> <b_m_subgroup_collapsed>
1

$$$$
