195527
                    3D
 Schrodinger Suite 2021-1.
 51 52  0  0  1  0            999 V2000
  -34.4737   35.8142   31.3255 C   0  0  0  0  0  0
  -35.2706   35.3620   30.0723 C   0  0  0  0  0  0
  -34.4061   35.5835   28.8049 C   0  0  0  0  0  0
  -35.5399   33.8381   30.2015 C   0  0  0  0  0  0
  -36.6387   36.1146   29.9503 C   0  0  0  0  0  0
  -37.6920   35.5756   29.6050 O   0  0  0  0  0  0
  -36.6234   37.6777   30.2034 C   0  0  0  0  0  0
  -35.8580   38.3844   29.5419 O   0  0  0  0  0  0
  -37.4750   38.1301   31.1715 N   0  0  0  0  0  0
  -38.4222   37.3333   31.9648 C   0  0  0  0  0  0
  -38.8212   38.2031   33.1440 C   0  0  0  0  0  0
  -38.7567   39.5958   32.5470 C   0  0  0  0  0  0
  -37.5635   39.5566   31.5598 C   0  0  1  0  0  0
  -36.3110   40.1909   32.1502 C   0  0  0  0  0  0
  -36.0909   41.3900   32.0051 O   0  0  0  0  0  0
  -35.3751   39.2873   32.9816 C   0  0  0  0  0  0
  -34.2216   39.9808   33.7421 C   0  0  0  0  0  0
  -33.0931   40.5356   32.8477 C   0  0  0  0  0  0
  -32.1297   41.4206   33.6235 C   0  0  0  0  0  0
  -31.2126   40.8468   34.5084 C   0  0  0  0  0  0
  -30.3541   41.6630   35.2438 C   0  0  0  0  0  0
  -30.4173   43.0472   35.0901 C   0  0  0  0  0  0
  -31.3254   43.6234   34.2052 C   0  0  0  0  0  0
  -32.1783   42.8098   33.4660 C   0  0  0  0  0  0
  -37.8405   40.1320   30.6728 H   0  0  0  0  0  0
  -33.6227   35.1586   31.5097 H   0  0  0  0  0  0
  -35.0830   35.8033   32.2304 H   0  0  0  0  0  0
  -34.0610   36.8175   31.2088 H   0  0  0  0  0  0
  -34.8919   35.2263   27.8961 H   0  0  0  0  0  0
  -34.1513   36.6329   28.6546 H   0  0  0  0  0  0
  -33.4594   35.0455   28.8791 H   0  0  0  0  0  0
  -36.0948   33.4404   29.3495 H   0  0  0  0  0  0
  -34.6105   33.2713   30.2581 H   0  0  0  0  0  0
  -36.1069   33.5992   31.1021 H   0  0  0  0  0  0
  -39.2920   37.1574   31.3327 H   0  0  0  0  0  0
  -38.0227   36.3760   32.3016 H   0  0  0  0  0  0
  -39.8004   37.9462   33.5489 H   0  0  0  0  0  0
  -38.0922   38.1024   33.9495 H   0  0  0  0  0  0
  -39.6866   39.7725   32.0052 H   0  0  0  0  0  0
  -38.6944   40.3755   33.3079 H   0  0  0  0  0  0
  -35.9821   38.7406   33.7024 H   0  0  0  0  0  0
  -34.9466   38.5437   32.3120 H   0  0  0  0  0  0
  -34.6186   40.7718   34.3736 H   0  0  0  0  0  0
  -33.7914   39.2643   34.4422 H   0  0  0  0  0  0
  -32.5336   39.7123   32.4033 H   0  0  0  0  0  0
  -33.4968   41.1012   32.0053 H   0  0  0  0  0  0
  -31.1699   39.7740   34.6355 H   0  0  0  0  0  0
  -29.6474   41.2269   35.9338 H   0  0  0  0  0  0
  -29.7548   43.6798   35.6644 H   0  0  0  0  0  0
  -31.3757   44.6994   34.1018 H   0  0  0  0  0  0
  -32.8892   43.2603   32.7884 H   0  0  0  0  0  0
  1  2  1  0  0  0
  1 26  1  0  0  0
  1 27  1  0  0  0
  1 28  1  0  0  0
  2  3  1  0  0  0
  2  4  1  0  0  0
  2  5  1  0  0  0
  3 29  1  0  0  0
  3 30  1  0  0  0
  3 31  1  0  0  0
  4 32  1  0  0  0
  4 33  1  0  0  0
  4 34  1  0  0  0
  5  6  2  0  0  0
  5  7  1  0  0  0
  7  8  2  0  0  0
  7  9  1  0  0  0
  9 13  1  0  0  0
  9 10  1  0  0  0
 10 11  1  0  0  0
 10 35  1  0  0  0
 10 36  1  0  0  0
 11 12  1  0  0  0
 11 37  1  0  0  0
 11 38  1  0  0  0
 12 13  1  0  0  0
 12 39  1  0  0  0
 12 40  1  0  0  0
 13 25  1  0  0  0
 13 14  1  0  0  0
 14 15  2  0  0  0
 14 16  1  0  0  0
 16 17  1  0  0  0
 16 41  1  0  0  0
 16 42  1  0  0  0
 17 18  1  0  0  0
 17 43  1  0  0  0
 17 44  1  0  0  0
 18 19  1  0  0  0
 18 45  1  0  0  0
 18 46  1  0  0  0
 19 24  1  0  0  0
 19 20  2  0  0  0
 20 21  1  0  0  0
 20 47  1  0  0  0
 21 22  2  0  0  0
 21 48  1  0  0  0
 22 23  1  0  0  0
 22 49  1  0  0  0
 23 24  2  0  0  0
 23 50  1  0  0  0
 24 51  1  0  0  0
M  END
> <s_m_entry_id>
50584

> <s_m_entry_name>
ligand_docking-pose.1

> <s_m_Source_Path>
/home/csk/Desktop/cluster/DUD-E-result/fkb1a

> <s_m_Source_File>
ligand_docking-pose.sdf

> <i_m_Source_File_Index>
1

> <i_lp_mmshare_version>
53161

> <r_lp_tautomer_probability>
0.999999960000001

> <s_lp_Force_Field>
OPLS_2005

> <r_lp_Energy>
32.339939

> <b_lp_Chiralities_Consistent>
1

> <s_lp_Variant>
195527-1

> <s_i_glide_gridfile>
glide-grid_1j4h

> <i_i_glide_lignum>
182

> <i_i_glide_rotatable_bonds>
8

> <r_i_docking_score>
-7.76840905408755

> <r_i_glide_ligand_efficiency>
-0.323683710586981

> <r_i_glide_ligand_efficiency_sa>
-0.933665384030082

> <r_i_glide_ligand_efficiency_ln>
-1.85933675570681

> <r_i_glide_gscore>
-7.76840905408755

> <r_i_glide_lipo>
-2.15403788421582

> <r_i_glide_hbond>
-0.608

> <r_i_glide_metal>
0

> <r_i_glide_rewards>
-2.98157253550369

> <r_i_glide_evdw>
-32.2207679748535

> <r_i_glide_ecoul>
-9.68568420410156

> <r_i_glide_erotb>
1.03909239498988

> <r_i_glide_esite>
0

> <r_i_glide_emodel>
-57.9103674539907

> <r_i_glide_energy>
-41.9064521789551

> <r_i_glide_einternal>
6.61412954330444

> <i_i_glide_confnum>
22

> <i_i_glide_posenum>
370

> <r_i_glide_eff_state_penalty>
0

> <i_f3d_flags>
0

> <s_user_duplicate_titles>
195527

> <s_m_subgroup_title>
dock_pv

> <s_m_subgroupid>
dock_pv1

> <b_m_subgroup_collapsed>
0

$$$$
196623
                    3D
 Schrodinger Suite 2021-1.
 58 60  0  0  1  0            999 V2000
  -30.5924   43.8808   32.9030 C   0  0  0  0  0  0
  -31.6084   43.9078   33.8564 C   0  0  0  0  0  0
  -32.0017   42.7257   34.4759 C   0  0  0  0  0  0
  -31.3817   41.5185   34.1409 C   0  0  0  0  0  0
  -30.3579   41.4994   33.1906 C   0  0  0  0  0  0
  -29.9642   42.6823   32.5692 C   0  0  0  0  0  0
  -31.8458   40.2169   34.7853 C   0  0  0  0  0  0
  -32.8527   39.4312   33.9187 C   0  0  0  0  0  0
  -34.1614   40.2007   33.6671 C   0  0  0  0  0  0
  -35.1428   39.4643   32.7413 C   0  0  0  0  0  0
  -36.2459   40.3556   32.1372 C   0  0  0  0  0  0
  -36.0921   41.5672   32.0050 O   0  0  0  0  0  0
  -37.5598   39.6891   31.7794 C   0  0  2  0  0  0
  -38.4674   39.5798   33.0248 C   0  0  0  0  0  0
  -39.3494   38.3894   32.7334 C   0  0  0  0  0  0
  -38.4014   37.4415   32.0348 C   0  0  0  0  0  0
  -37.5082   38.3035   31.2565 N   0  0  0  0  0  0
  -36.7326   37.9223   30.2023 C   0  0  0  0  0  0
  -36.0920   38.6845   29.4741 O   0  0  0  0  0  0
  -36.5894   36.3654   30.0092 C   0  0  0  0  0  0
  -37.5290   35.6791   29.6050 O   0  0  0  0  0  0
  -35.2538   35.8077   30.5412 C   0  0  0  0  0  0
  -35.4392   34.3839   31.1175 C   0  0  0  0  0  0
  -34.1099   33.9237   31.7511 C   0  0  0  0  0  0
  -32.9454   33.9756   30.7348 C   0  0  0  0  0  0
  -32.8452   35.3347   30.0006 C   0  0  0  0  0  0
  -34.2012   35.7709   29.4083 C   0  0  0  0  0  0
  -38.0761   40.2854   31.0231 H   0  0  0  0  0  0
  -30.2884   44.7977   32.4201 H   0  0  0  0  0  0
  -32.0921   44.8390   34.1150 H   0  0  0  0  0  0
  -32.7985   42.7483   35.2050 H   0  0  0  0  0  0
  -29.8790   40.5680   32.9244 H   0  0  0  0  0  0
  -29.1782   42.6696   31.8282 H   0  0  0  0  0  0
  -30.9710   39.5968   34.9871 H   0  0  0  0  0  0
  -32.2782   40.4266   35.7659 H   0  0  0  0  0  0
  -32.3871   39.1809   32.9639 H   0  0  0  0  0  0
  -33.0791   38.4797   34.4031 H   0  0  0  0  0  0
  -34.6534   40.3762   34.6239 H   0  0  0  0  0  0
  -33.9157   41.1760   33.2431 H   0  0  0  0  0  0
  -34.5873   39.0372   31.9086 H   0  0  0  0  0  0
  -35.5904   38.6227   33.2699 H   0  0  0  0  0  0
  -37.8963   39.3664   33.9315 H   0  0  0  0  0  0
  -39.0455   40.4867   33.2051 H   0  0  0  0  0  0
  -39.8370   37.9551   33.6050 H   0  0  0  0  0  0
  -40.1110   38.6887   32.0202 H   0  0  0  0  0  0
  -37.8235   36.8528   32.7485 H   0  0  0  0  0  0
  -38.9655   36.7750   31.3917 H   0  0  0  0  0  0
  -34.9158   36.4688   31.3410 H   0  0  0  0  0  0
  -36.2041   34.3800   31.8969 H   0  0  0  0  0  0
  -35.7529   33.6754   30.3481 H   0  0  0  0  0  0
  -33.8743   34.5589   32.6071 H   0  0  0  0  0  0
  -34.2149   32.9120   32.1454 H   0  0  0  0  0  0
  -32.0031   33.7578   31.2387 H   0  0  0  0  0  0
  -33.0848   33.1789   30.0050 H   0  0  0  0  0  0
  -32.4905   36.0971   30.6967 H   0  0  0  0  0  0
  -32.0935   35.2791   29.2127 H   0  0  0  0  0  0
  -34.4964   35.0875   28.6086 H   0  0  0  0  0  0
  -34.0652   36.7600   28.9662 H   0  0  0  0  0  0
  1  6  1  0  0  0
  1  2  2  0  0  0
  1 29  1  0  0  0
  2  3  1  0  0  0
  2 30  1  0  0  0
  3  4  2  0  0  0
  3 31  1  0  0  0
  4  5  1  0  0  0
  4  7  1  0  0  0
  5  6  2  0  0  0
  5 32  1  0  0  0
  6 33  1  0  0  0
  7  8  1  0  0  0
  7 34  1  0  0  0
  7 35  1  0  0  0
  8  9  1  0  0  0
  8 36  1  0  0  0
  8 37  1  0  0  0
  9 10  1  0  0  0
  9 38  1  0  0  0
  9 39  1  0  0  0
 10 11  1  0  0  0
 10 40  1  0  0  0
 10 41  1  0  0  0
 11 12  2  0  0  0
 11 13  1  0  0  0
 13 28  1  0  0  0
 13 17  1  0  0  0
 13 14  1  0  0  0
 14 15  1  0  0  0
 14 42  1  0  0  0
 14 43  1  0  0  0
 15 16  1  0  0  0
 15 44  1  0  0  0
 15 45  1  0  0  0
 16 17  1  0  0  0
 16 46  1  0  0  0
 16 47  1  0  0  0
 17 18  1  0  0  0
 18 19  2  0  0  0
 18 20  1  0  0  0
 20 21  2  0  0  0
 20 22  1  0  0  0
 22 27  1  0  0  0
 22 23  1  0  0  0
 22 48  1  0  0  0
 23 24  1  0  0  0
 23 49  1  0  0  0
 23 50  1  0  0  0
 24 25  1  0  0  0
 24 51  1  0  0  0
 24 52  1  0  0  0
 25 26  1  0  0  0
 25 53  1  0  0  0
 25 54  1  0  0  0
 26 27  1  0  0  0
 26 55  1  0  0  0
 26 56  1  0  0  0
 27 57  1  0  0  0
 27 58  1  0  0  0
M  END
> <s_m_entry_id>
50585

> <s_m_entry_name>
ligand_docking-pose.2

> <s_m_Source_Path>
/home/csk/Desktop/cluster/DUD-E-result/fkb1a

> <s_m_Source_File>
ligand_docking-pose.sdf

> <i_m_Source_File_Index>
2

> <i_lp_mmshare_version>
53161

> <r_lp_tautomer_probability>
0.99989996500575

> <s_lp_Force_Field>
OPLS_2005

> <r_lp_Energy>
36.052883

> <b_lp_Chiralities_Consistent>
1

> <s_lp_Variant>
196623-1

> <s_i_glide_gridfile>
glide-grid_1j4h

> <i_i_glide_lignum>
11

> <i_i_glide_rotatable_bonds>
9

> <r_i_docking_score>
-7.54447116545403

> <r_i_glide_ligand_efficiency>
-0.279424857979779

> <r_i_glide_ligand_efficiency_sa>
-0.838274573018398

> <r_i_glide_ligand_efficiency_ln>
-1.75622850698969

> <r_i_glide_gscore>
-7.54447116545403

> <r_i_glide_lipo>
-2.22981031608928

> <r_i_glide_hbond>
-0.608

> <r_i_glide_metal>
0

> <r_i_glide_rewards>
-2.66829908254234

> <r_i_glide_evdw>
-34.0258293151855

> <r_i_glide_ecoul>
-9.77931690216064

> <r_i_glide_erotb>
1.12982723426096

> <r_i_glide_esite>
0

> <r_i_glide_emodel>
-59.8012313933093

> <r_i_glide_energy>
-43.8051462173462

> <r_i_glide_einternal>
6.6951756477356

> <i_i_glide_confnum>
23

> <i_i_glide_posenum>
246

> <r_i_glide_eff_state_penalty>
0

> <i_f3d_flags>
0

> <s_user_duplicate_titles>
196623

> <s_m_subgroup_title>
dock_pv

> <s_m_subgroupid>
dock_pv1

> <b_m_subgroup_collapsed>
0

$$$$
195152
                    3D
 Schrodinger Suite 2021-1.
 55 56  0  0  1  0            999 V2000
  -33.2018   36.3097   29.0521 C   0  0  0  0  0  0
  -33.7657   35.1458   29.8928 C   0  0  0  0  0  0
  -34.8738   35.4882   30.9395 C   0  0  0  0  0  0
  -35.2931   34.1679   31.6428 C   0  0  0  0  0  0
  -34.2840   36.4205   32.0364 C   0  0  0  0  0  0
  -36.1378   36.0761   30.2264 C   0  0  0  0  0  0
  -36.9333   35.3728   29.6051 O   0  0  0  0  0  0
  -36.3674   37.6440   30.2682 C   0  0  0  0  0  0
  -35.6920   38.3756   29.5428 O   0  0  0  0  0  0
  -37.3015   38.0698   31.1616 N   0  0  0  0  0  0
  -38.2881   37.2391   31.8604 C   0  0  0  0  0  0
  -39.4068   38.1937   32.2522 C   0  0  0  0  0  0
  -38.6627   39.4905   32.5043 C   0  0  0  0  0  0
  -37.5079   39.4983   31.4883 C   0  0  1  0  0  0
  -36.3066   40.2526   32.0895 C   0  0  0  0  0  0
  -36.2963   41.4768   32.0050 O   0  0  0  0  0  0
  -35.3695   39.5243   32.7218 N   0  0  0  0  0  0
  -34.2760   40.0268   33.5565 C   0  0  0  0  0  0
  -33.3582   41.1026   32.9336 C   0  0  0  0  0  0
  -32.2345   41.5571   33.8840 C   0  0  0  0  0  0
  -31.4053   42.6910   33.2999 C   0  0  0  0  0  0
  -31.6910   44.0262   33.6061 C   0  0  0  0  0  0
  -30.9337   45.0459   33.0276 C   0  0  0  0  0  0
  -29.9001   44.6953   32.1569 C   0  0  0  0  0  0
  -29.5953   43.4073   31.8549 N   0  0  0  0  0  0
  -30.3420   42.4295   32.4296 C   0  0  0  0  0  0
  -37.8286   40.0027   30.5744 H   0  0  0  0  0  0
  -32.3973   35.9626   28.4040 H   0  0  0  0  0  0
  -32.7863   37.1044   29.6720 H   0  0  0  0  0  0
  -33.9649   36.7451   28.4089 H   0  0  0  0  0  0
  -34.1362   34.3797   29.2080 H   0  0  0  0  0  0
  -32.9254   34.6749   30.4068 H   0  0  0  0  0  0
  -34.4435   33.6904   32.1340 H   0  0  0  0  0  0
  -36.0489   34.3372   32.4116 H   0  0  0  0  0  0
  -35.7006   33.4345   30.9439 H   0  0  0  0  0  0
  -33.4435   35.9451   32.5443 H   0  0  0  0  0  0
  -33.9038   37.3602   31.6348 H   0  0  0  0  0  0
  -35.0207   36.6553   32.8064 H   0  0  0  0  0  0
  -38.6744   36.4461   31.2206 H   0  0  0  0  0  0
  -37.8257   36.7899   32.7404 H   0  0  0  0  0  0
  -40.0918   38.3179   31.4118 H   0  0  0  0  0  0
  -39.9881   37.8527   33.1101 H   0  0  0  0  0  0
  -39.2924   40.3719   32.4075 H   0  0  0  0  0  0
  -38.2826   39.4828   33.5278 H   0  0  0  0  0  0
  -35.4816   38.5222   32.7111 H   0  0  0  0  0  0
  -34.6884   40.3747   34.5040 H   0  0  0  0  0  0
  -33.6613   39.1733   33.8458 H   0  0  0  0  0  0
  -32.9241   40.7302   32.0058 H   0  0  0  0  0  0
  -33.9447   41.9766   32.6610 H   0  0  0  0  0  0
  -32.6548   41.8805   34.8385 H   0  0  0  0  0  0
  -31.5769   40.7193   34.1222 H   0  0  0  0  0  0
  -32.4970   44.2780   34.2808 H   0  0  0  0  0  0
  -31.1463   46.0806   33.2522 H   0  0  0  0  0  0
  -29.2935   45.4553   31.6871 H   0  0  0  0  0  0
  -30.0740   41.4154   32.1734 H   0  0  0  0  0  0
  1  2  1  0  0  0
  1 28  1  0  0  0
  1 29  1  0  0  0
  1 30  1  0  0  0
  2  3  1  0  0  0
  2 31  1  0  0  0
  2 32  1  0  0  0
  3  4  1  0  0  0
  3  5  1  0  0  0
  3  6  1  0  0  0
  4 33  1  0  0  0
  4 34  1  0  0  0
  4 35  1  0  0  0
  5 36  1  0  0  0
  5 37  1  0  0  0
  5 38  1  0  0  0
  6  7  2  0  0  0
  6  8  1  0  0  0
  8  9  2  0  0  0
  8 10  1  0  0  0
 10 14  1  0  0  0
 10 11  1  0  0  0
 11 12  1  0  0  0
 11 39  1  0  0  0
 11 40  1  0  0  0
 12 13  1  0  0  0
 12 41  1  0  0  0
 12 42  1  0  0  0
 13 14  1  0  0  0
 13 43  1  0  0  0
 13 44  1  0  0  0
 14 27  1  0  0  0
 14 15  1  0  0  0
 15 16  2  0  0  0
 15 17  1  0  0  0
 17 18  1  0  0  0
 17 45  1  0  0  0
 18 19  1  0  0  0
 18 46  1  0  0  0
 18 47  1  0  0  0
 19 20  1  0  0  0
 19 48  1  0  0  0
 19 49  1  0  0  0
 20 21  1  0  0  0
 20 50  1  0  0  0
 20 51  1  0  0  0
 21 26  1  0  0  0
 21 22  2  0  0  0
 22 23  1  0  0  0
 22 52  1  0  0  0
 23 24  2  0  0  0
 23 53  1  0  0  0
 24 25  1  0  0  0
 24 54  1  0  0  0
 25 26  2  0  0  0
 26 55  1  0  0  0
M  END
> <s_m_entry_id>
50586

> <s_m_entry_name>
ligand_docking-pose.3

> <s_m_Source_Path>
/home/csk/Desktop/cluster/DUD-E-result/fkb1a

> <s_m_Source_File>
ligand_docking-pose.sdf

> <i_m_Source_File_Index>
3

> <i_lp_mmshare_version>
53161

> <r_lp_tautomer_probability>
1

> <s_lp_Force_Field>
OPLS_2005

> <r_lp_Energy>
31.775336

> <b_lp_Chiralities_Consistent>
1

> <s_lp_Variant>
195152-1

> <s_i_glide_gridfile>
glide-grid_1j4h

> <i_i_glide_lignum>
144

> <i_i_glide_rotatable_bonds>
10

> <r_i_docking_score>
-7.30464189163826

> <r_i_glide_ligand_efficiency>
-0.28094776506301

> <r_i_glide_ligand_efficiency_sa>
-0.832306648523093

> <r_i_glide_ligand_efficiency_ln>
-1.71547117976624

> <r_i_glide_gscore>
-7.30464189163826

> <r_i_glide_lipo>
-2.31837715461664

> <r_i_glide_hbond>
-0.608

> <r_i_glide_metal>
0

> <r_i_glide_rewards>
-2.04476184884231

> <r_i_glide_evdw>
-34.283447265625

> <r_i_glide_ecoul>
-12.0404100418091

> <r_i_glide_erotb>
1.1867309813733

> <r_i_glide_esite>
0

> <r_i_glide_emodel>
-61.8833743349333

> <r_i_glide_energy>
-46.3238573074341

> <r_i_glide_einternal>
7.73779439926147

> <i_i_glide_confnum>
15

> <i_i_glide_posenum>
46

> <r_i_glide_eff_state_penalty>
0

> <i_f3d_flags>
0

> <s_user_duplicate_titles>
195152

> <s_m_subgroup_title>
dock_pv

> <s_m_subgroupid>
dock_pv1

> <b_m_subgroup_collapsed>
0

$$$$
71239
                    3D
 Schrodinger Suite 2021-1.
 35 37  0  0  1  0            999 V2000
  -33.9197   33.5673   30.5301 C   0  0  0  0  0  0
  -35.2917   33.6047   30.2852 C   0  0  0  0  0  0
  -35.8784   34.7819   29.8300 C   0  0  0  0  0  0
  -35.0857   35.9120   29.6291 C   0  0  0  0  0  0
  -33.7098   35.8700   29.8553 C   0  0  0  0  0  0
  -33.1276   34.6946   30.3184 C   0  0  0  0  0  0
  -35.8362   37.4487   29.1958 S   0  0  0  0  0  0
  -36.4487   38.2050   30.7432 C   0  0  2  0  0  0
  -35.4790   37.8618   31.9275 C   0  0  0  0  0  0
  -35.9625   38.3179   33.3204 C   0  0  0  0  0  0
  -37.4522   37.9643   33.5369 C   0  0  0  0  0  0
  -38.3817   38.3279   32.3511 C   0  0  2  0  0  0
  -37.8483   37.6365   31.0716 C   0  0  0  0  0  0
  -38.4760   39.8737   32.1720 C   0  0  0  0  0  0
  -37.2232   40.5168   31.5611 C   0  0  0  0  0  0
  -36.6939   41.5327   32.0050 O   0  0  0  0  0  0
  -36.6034   39.7188   30.4199 C   0  0  0  0  0  0
  -33.4661   32.6547   30.8886 H   0  0  0  0  0  0
  -35.9027   32.7296   30.4548 H   0  0  0  0  0  0
  -36.9454   34.8172   29.6631 H   0  0  0  0  0  0
  -33.1002   36.7508   29.7108 H   0  0  0  0  0  0
  -32.0663   34.6600   30.5139 H   0  0  0  0  0  0
  -35.3850   36.7804   32.0209 H   0  0  0  0  0  0
  -34.4813   38.2573   31.7400 H   0  0  0  0  0  0
  -35.3609   37.8345   34.0916 H   0  0  0  0  0  0
  -35.7851   39.3825   33.4680 H   0  0  0  0  0  0
  -37.5460   36.9004   33.7616 H   0  0  0  0  0  0
  -37.7976   38.5042   34.4098 H   0  0  0  0  0  0
  -39.3800   37.9376   32.5595 H   0  0  0  0  0  0
  -38.5390   37.8021   30.2443 H   0  0  0  0  0  0
  -37.8084   36.5557   31.2188 H   0  0  0  0  0  0
  -39.2920   40.1057   31.4956 H   0  0  0  0  0  0
  -38.6917   40.3633   33.1220 H   0  0  0  0  0  0
  -35.6567   40.1853   30.1708 H   0  0  0  0  0  0
  -37.2576   39.8547   29.5593 H   0  0  0  0  0  0
  1  6  1  0  0  0
  1  2  2  0  0  0
  1 18  1  0  0  0
  2  3  1  0  0  0
  2 19  1  0  0  0
  3  4  2  0  0  0
  3 20  1  0  0  0
  4  5  1  0  0  0
  4  7  1  0  0  0
  5  6  2  0  0  0
  5 21  1  0  0  0
  6 22  1  0  0  0
  7  8  1  0  0  0
  8 13  1  0  0  0
  8 17  1  0  0  0
  8  9  1  0  0  0
  9 10  1  0  0  0
  9 23  1  0  0  0
  9 24  1  0  0  0
 10 11  1  0  0  0
 10 25  1  0  0  0
 10 26  1  0  0  0
 11 12  1  0  0  0
 11 27  1  0  0  0
 11 28  1  0  0  0
 12 13  1  0  0  0
 12 14  1  0  0  0
 12 29  1  0  0  0
 13 30  1  0  0  0
 13 31  1  0  0  0
 14 15  1  0  0  0
 14 32  1  0  0  0
 14 33  1  0  0  0
 15 16  2  0  0  0
 15 17  1  0  0  0
 17 34  1  0  0  0
 17 35  1  0  0  0
M  END
> <s_m_entry_id>
50587

> <s_m_entry_name>
ligand_docking-pose.4

> <s_m_Source_Path>
/home/csk/Desktop/cluster/DUD-E-result/fkb1a

> <s_m_Source_File>
ligand_docking-pose.sdf

> <i_m_Source_File_Index>
4

> <i_lp_mmshare_version>
53161

> <r_lp_tautomer_probability>
0.99999998

> <s_lp_Force_Field>
OPLS_2005

> <r_lp_Energy>
17.220816

> <b_lp_Chiralities_Consistent>
1

> <s_lp_Variant>
71239-2

> <s_i_glide_gridfile>
glide-grid_1j4h

> <i_i_glide_lignum>
43

> <i_i_glide_rotatable_bonds>
2

> <r_i_docking_score>
-7.14868306171941

> <r_i_glide_ligand_efficiency>
-0.420510768336436

> <r_i_glide_ligand_efficiency_sa>
-1.08125159627589

> <r_i_glide_ligand_efficiency_ln>
-1.86493221745775

> <r_i_glide_gscore>
-7.14868306171941

> <r_i_glide_lipo>
-1.94052243286863

> <r_i_glide_hbond>
-0.32

> <r_i_glide_metal>
0

> <r_i_glide_rewards>
-3.33087589421321

> <r_i_glide_evdw>
-27.12744140625

> <r_i_glide_ecoul>
-5.16749143600464

> <r_i_glide_erotb>
0.574211051075625

> <r_i_glide_esite>
0

> <r_i_glide_emodel>
-44.441664323803

> <r_i_glide_energy>
-32.2949328422546

> <r_i_glide_einternal>
3.0936713218689

> <i_i_glide_confnum>
1

> <i_i_glide_posenum>
64

> <r_i_glide_eff_state_penalty>
0

> <i_f3d_flags>
0

> <s_user_duplicate_titles>
71239

> <s_m_subgroup_title>
dock_pv

> <s_m_subgroupid>
dock_pv1

> <b_m_subgroup_collapsed>
0

$$$$
