CHEMBL2083_lig179
                    3D
 Schrodinger Suite 2021-1.
 58 62  0  0  1  0            999 V2000
    5.2555    7.0245   18.9412 C   0  0  0  0  0  0
    5.0699    7.7590   20.1157 C   0  0  0  0  0  0
    5.9431    8.8028   20.4354 C   0  0  0  0  0  0
    6.9836    9.1301   19.5551 C   0  0  0  0  0  0
    7.1691    8.3816   18.4050 C   0  0  0  0  0  0
    6.3283    7.3264   18.0971 C   0  0  0  0  0  0
    6.6579    6.5790   16.8761 C   0  0  0  0  0  0
    7.8646    5.8836   16.8576 C   0  0  0  0  0  0
    8.3096    5.3090   15.6839 C   0  0  0  0  0  0
    7.5200    5.3363   14.5419 C   0  0  0  0  0  0
    6.3377    6.0603   14.5253 C   0  0  0  0  0  0
    5.9156    6.6896   15.6887 C   0  0  0  0  0  0
    4.7581    7.4590   15.6482 N   0  0  0  0  0  0
    4.6118    8.7992   15.3856 C   0  0  0  0  0  0
    3.3037    9.0687   15.7588 C   0  0  0  0  0  0
    2.7800    7.8439   16.2300 C   0  0  0  0  0  0
    3.6533    6.8824   16.0780 N   0  0  0  0  0  0
    5.7564    9.6695   14.8940 C   0  0  0  0  0  0
    5.3748   11.0590   14.3027 C   0  0  0  0  0  0
    2.7188   10.4180   15.6960 C   0  0  0  0  0  0
    2.7630   11.2732   16.7957 C   0  0  0  0  0  0
    2.3850   12.6017   16.6329 C   0  0  0  0  0  0
    1.9199   13.0438   15.3955 C   0  0  0  0  0  0
    1.8420   12.1765   14.3124 C   0  0  0  0  0  0
    2.2771   10.8722   14.4573 C   0  0  0  0  0  0
    1.4836    7.5097   16.8811 C   0  0  0  0  0  0
    0.4367    8.4320   16.9227 C   0  0  0  0  0  0
   -0.7504    8.1003   17.5537 C   0  0  0  0  0  0
   -0.8800    6.8502   18.1428 C   0  0  0  0  0  0
    0.1384    5.9133   18.0968 C   0  0  0  0  0  0
    1.3224    6.2471   17.4732 C   0  0  0  0  0  0
    7.9357   10.2416   19.8225 C   0  0  0  0  0  0
    8.3204   10.9169   18.7065 O   0  0  0  0  0  0
    8.3193   10.5120   20.9489 O   0  0  0  0  0  0
    4.5877    6.2100   18.7027 H   0  0  0  0  0  0
    4.2556    7.5149   20.7820 H   0  0  0  0  0  0
    5.7914    9.3599   21.3503 H   0  0  0  0  0  0
    7.9898    8.6064   17.7353 H   0  0  0  0  0  0
    8.4928    5.8542   17.7368 H   0  0  0  0  0  0
    9.3093    4.9091   15.6421 H   0  0  0  0  0  0
    7.9196    4.9089   13.6395 H   0  0  0  0  0  0
    5.7710    6.1415   13.6081 H   0  0  0  0  0  0
    6.4206    9.8225   15.7434 H   0  0  0  0  0  0
    6.3158    9.1040   14.1472 H   0  0  0  0  0  0
    6.2008   11.6900   13.9616 H   0  0  0  0  0  0
    4.7148   10.9417   13.4443 H   0  0  0  0  0  0
    4.8765   11.6795   15.0443 H   0  0  0  0  0  0
    3.1450   10.9285   17.7456 H   0  0  0  0  0  0
    2.4483   13.2891   17.4643 H   0  0  0  0  0  0
    1.6069   14.0711   15.2799 H   0  0  0  0  0  0
    1.4741   12.5090   13.3553 H   0  0  0  0  0  0
    2.3024   10.2170   13.6001 H   0  0  0  0  0  0
    0.5224    9.3976   16.4559 H   0  0  0  0  0  0
   -1.5733    8.7963   17.5734 H   0  0  0  0  0  0
   -1.8041    6.5866   18.6329 H   0  0  0  0  0  0
    0.0106    4.9354   18.5373 H   0  0  0  0  0  0
    2.1090    5.5077   17.4574 H   0  0  0  0  0  0
    8.7344   11.7542   18.9450 H   0  0  0  0  0  0
  1  6  1  0  0  0
  1  2  2  0  0  0
  1 35  1  0  0  0
  2  3  1  0  0  0
  2 36  1  0  0  0
  3  4  2  0  0  0
  3 37  1  0  0  0
  4  5  1  0  0  0
  4 32  1  0  0  0
  5  6  2  0  0  0
  5 38  1  0  0  0
  6  7  1  0  0  0
  7 12  1  0  0  0
  7  8  2  0  0  0
  8  9  1  0  0  0
  8 39  1  0  0  0
  9 10  2  0  0  0
  9 40  1  0  0  0
 10 11  1  0  0  0
 10 41  1  0  0  0
 11 12  2  0  0  0
 11 42  1  0  0  0
 12 13  1  0  0  0
 13 17  1  0  0  0
 13 14  1  0  0  0
 14 18  1  0  0  0
 14 15  2  0  0  0
 15 20  1  0  0  0
 15 16  1  0  0  0
 16 17  2  0  0  0
 16 26  1  0  0  0
 18 19  1  0  0  0
 18 43  1  0  0  0
 18 44  1  0  0  0
 19 45  1  0  0  0
 19 46  1  0  0  0
 19 47  1  0  0  0
 20 21  2  0  0  0
 20 25  1  0  0  0
 21 22  1  0  0  0
 21 48  1  0  0  0
 22 23  2  0  0  0
 22 49  1  0  0  0
 23 24  1  0  0  0
 23 50  1  0  0  0
 24 25  2  0  0  0
 24 51  1  0  0  0
 25 52  1  0  0  0
 26 27  2  0  0  0
 26 31  1  0  0  0
 27 28  1  0  0  0
 27 53  1  0  0  0
 28 29  2  0  0  0
 28 54  1  0  0  0
 29 30  1  0  0  0
 29 55  1  0  0  0
 30 31  2  0  0  0
 30 56  1  0  0  0
 31 57  1  0  0  0
 32 33  1  0  0  0
 32 34  2  0  0  0
 33 58  1  0  0  0
M  END
> <s_m_entry_id>
2474

> <s_m_entry_name>
dock_pv.2

> <s_m_Source_Path>
/home/csk/Desktop/cluster/DUD-E-result/fabp4

> <s_m_Source_File>
dock_pv.maegz

> <i_m_Source_File_Index>
2

> <chembl_id>
CHEMBL394440

> <chembl_pref_name>
None

> <i_lp_mmshare_version>
53161

> <r_lp_tautomer_probability>
1

> <s_lp_Force_Field>
OPLS_2005

> <r_lp_Energy>
35.42712

> <b_lp_Chiralities_Consistent>
1

> <s_lp_Variant>
CHEMBL2083_lig179-1

> <s_i_glide_gridfile>
glide-grid_2nnq

> <i_i_glide_lignum>
195

> <i_i_glide_rotatable_bonds>
7

> <r_i_docking_score>
-8.62279012549701

> <r_i_glide_ligand_efficiency>
-0.253611474279324

> <r_i_glide_ligand_efficiency_sa>
-0.821602724048923

> <r_i_glide_ligand_efficiency_ln>
-1.90501619979293

> <r_i_glide_gscore>
-8.62279012549701

> <r_i_glide_lipo>
-5.0210680649723

> <r_i_glide_hbond>
-0.457117839451657

> <r_i_glide_metal>
0

> <r_i_glide_rewards>
-0.820451607529852

> <r_i_glide_evdw>
-37.0496520996094

> <r_i_glide_ecoul>
-6.51837301254272

> <r_i_glide_erotb>
0.506085943318673

> <r_i_glide_esite>
0

> <r_i_glide_emodel>
-52.7132231559516

> <r_i_glide_energy>
-43.5680251121521

> <r_i_glide_einternal>
10.3623371124268

> <i_i_glide_confnum>
50

> <i_i_glide_posenum>
219

> <r_i_glide_eff_state_penalty>
0

> <s_user_duplicate_titles>
CHEMBL2083_lig179,412740

> <i_f3d_flags>
0

> <s_m_subgroup_title>
dock_pv

> <s_m_subgroupid>
dock_pv

> <b_m_subgroup_collapsed>
1

$$$$
CHEMBL2083_lig130
                    3D
 Schrodinger Suite 2021-1.
 50 53  0  0  1  0            999 V2000
    0.5657    3.8800   18.5417 C   0  0  0  0  0  0
    1.4058    5.1417   18.5253 C   0  0  0  0  0  0
    2.8878    5.1712   19.4199 S   0  0  0  0  0  0
    3.2197    6.7825   18.8899 C   0  0  0  0  0  0
    4.3872    7.4198   19.2625 N   0  0  0  0  0  0
    4.7956    7.6625   20.5222 C   0  0  0  0  0  0
    4.2791    7.1607   21.5210 O   0  0  0  0  0  0
    6.0262    8.5886   20.6871 C   0  0  1  0  0  0
    7.3016    7.7114   20.7682 C   0  0  0  0  0  0
    7.9203    7.3093   19.4152 C   0  0  0  0  0  0
    8.1460    8.5226   18.5051 C   0  0  0  0  0  0
    6.8386    9.2974   18.2772 C   0  0  0  0  0  0
    6.0721    9.7065   19.5733 C   0  0  2  0  0  0
    6.7836   10.9572   20.1332 C   0  0  0  0  0  0
    7.7193   10.9090   20.9321 O   0  0  0  0  0  0
    6.3199   12.1078   19.5654 O   0  0  0  0  0  0
    2.2659    7.2651   17.9896 C   0  0  0  0  0  0
    1.1665    6.3720   17.8822 C   0  0  0  0  0  0
   -0.0801    6.6358   17.0626 C   0  0  0  0  0  0
    2.4399    8.5726   17.2822 C   0  0  0  0  0  0
    3.6745    9.1360   17.2996 O   0  0  0  0  0  0
    3.5783   10.2969   16.5505 N   0  0  0  0  0  0
    2.3260   10.2827   16.1521 C   0  0  0  0  0  0
    1.5838    9.2717   16.5763 N   0  0  0  0  0  0
    1.7856   11.3627   15.2255 C   0  0  0  0  0  0
    2.2614   12.7977   15.3271 C   0  0  0  0  0  0
    2.6592   11.9415   14.1419 C   0  0  0  0  0  0
   -0.4930    4.0930   18.4109 H   0  0  0  0  0  0
    0.8492    3.1930   17.7439 H   0  0  0  0  0  0
    0.6539    3.3343   19.4817 H   0  0  0  0  0  0
    4.8305    7.9668   18.5403 H   0  0  0  0  0  0
    5.8052    9.0400   21.6585 H   0  0  0  0  0  0
    7.1468    6.8509   21.4223 H   0  0  0  0  0  0
    8.0175    8.2545   21.3850 H   0  0  0  0  0  0
    8.8799    6.8223   19.5864 H   0  0  0  0  0  0
    7.2822    6.5795   18.9136 H   0  0  0  0  0  0
    8.8938    9.1799   18.9506 H   0  0  0  0  0  0
    8.5588    8.1987   17.5496 H   0  0  0  0  0  0
    6.9858   10.1622   17.6256 H   0  0  0  0  0  0
    6.1649    8.7320   17.6344 H   0  0  0  0  0  0
    5.0737   10.0800   19.3306 H   0  0  0  0  0  0
    6.9151   12.8518   19.7403 H   0  0  0  0  0  0
    0.1512    7.1606   16.1420 H   0  0  0  0  0  0
   -0.5911    5.7252   16.7513 H   0  0  0  0  0  0
   -0.7927    7.2619   17.6021 H   0  0  0  0  0  0
    0.7400   11.2299   14.9444 H   0  0  0  0  0  0
    1.5361   13.5992   15.1801 H   0  0  0  0  0  0
    3.0147   13.0559   16.0739 H   0  0  0  0  0  0
    3.6938   11.6063   14.0528 H   0  0  0  0  0  0
    2.1929   12.1085   13.1725 H   0  0  0  0  0  0
  1  2  1  0  0  0
  1 28  1  0  0  0
  1 29  1  0  0  0
  1 30  1  0  0  0
  2  3  1  0  0  0
  2 18  2  0  0  0
  3  4  1  0  0  0
  4  5  1  0  0  0
  4 17  2  0  0  0
  5  6  1  0  0  0
  5 31  1  0  0  0
  6  7  2  0  0  0
  6  8  1  0  0  0
  8  9  1  0  0  0
  8 13  1  0  0  0
  8 32  1  0  0  0
  9 10  1  0  0  0
  9 33  1  0  0  0
  9 34  1  0  0  0
 10 11  1  0  0  0
 10 35  1  0  0  0
 10 36  1  0  0  0
 11 12  1  0  0  0
 11 37  1  0  0  0
 11 38  1  0  0  0
 12 13  1  0  0  0
 12 39  1  0  0  0
 12 40  1  0  0  0
 13 14  1  0  0  0
 13 41  1  0  0  0
 14 15  2  0  0  0
 14 16  1  0  0  0
 16 42  1  0  0  0
 17 18  1  0  0  0
 17 20  1  0  0  0
 18 19  1  0  0  0
 19 43  1  0  0  0
 19 44  1  0  0  0
 19 45  1  0  0  0
 20 21  1  0  0  0
 20 24  2  0  0  0
 21 22  1  0  0  0
 22 23  2  0  0  0
 23 24  1  0  0  0
 23 25  1  0  0  0
 25 26  1  0  0  0
 25 27  1  0  0  0
 25 46  1  0  0  0
 26 27  1  0  0  0
 26 47  1  0  0  0
 26 48  1  0  0  0
 27 49  1  0  0  0
 27 50  1  0  0  0
M  END
> <s_m_entry_id>
2475

> <s_m_entry_name>
dock_pv.3

> <s_m_Source_Path>
/home/csk/Desktop/cluster/DUD-E-result/fabp4

> <s_m_Source_File>
dock_pv.maegz

> <i_m_Source_File_Index>
3

> <chembl_id>
CHEMBL3986323

> <chembl_pref_name>
None

> <i_lp_mmshare_version>
53161

> <r_lp_tautomer_probability>
1

> <s_lp_Force_Field>
OPLS_2005

> <r_lp_Energy>
25.419954

> <b_lp_Chiralities_Consistent>
1

> <s_lp_Variant>
CHEMBL2083_lig130-4

> <s_i_glide_gridfile>
glide-grid_2nnq

> <i_i_glide_lignum>
143

> <i_i_glide_rotatable_bonds>
7

> <r_i_docking_score>
-8.48706427404726

> <r_i_glide_ligand_efficiency>
-0.314335713853602

> <r_i_glide_ligand_efficiency_sa>
-0.943007140524807

> <r_i_glide_ligand_efficiency_ln>
-1.97564864280829

> <r_i_glide_gscore>
-8.48706427404726

> <r_i_glide_lipo>
-3.86527044468502

> <r_i_glide_hbond>
-0.409485599109317

> <r_i_glide_metal>
0

> <r_i_glide_rewards>
-1.29553799969624

> <r_i_glide_evdw>
-44.3566589355469

> <r_i_glide_ecoul>
-9.47650527954102

> <r_i_glide_erotb>
0.771112967199004

> <r_i_glide_esite>
-0.0485744590471912

> <r_i_glide_emodel>
-75.5112340449983

> <r_i_glide_energy>
-53.8331642150879

> <r_i_glide_einternal>
8.79327964782715

> <i_i_glide_confnum>
58

> <i_i_glide_posenum>
166

> <r_i_glide_eff_state_penalty>
0

> <s_user_duplicate_titles>
CHEMBL2083_lig130

> <i_f3d_flags>
0

> <s_m_subgroup_title>
dock_pv

> <s_m_subgroupid>
dock_pv

> <b_m_subgroup_collapsed>
1

$$$$
CHEMBL2083_lig202
                    3D
 Schrodinger Suite 2021-1.
 56 60  0  0  1  0            999 V2000
    2.8746    7.2538   17.5989 C   0  0  1  0  0  0
    3.7426    8.0037   18.5047 N   0  0  0  0  0  0
    5.7641    7.1163   17.4757 C   0  0  0  0  0  0
    5.1259    7.7532   18.5653 C   0  0  0  0  0  0
    5.8404    8.0320   19.7536 C   0  0  0  0  0  0
    7.2040    7.7275   19.8148 C   0  0  0  0  0  0
    7.8445    7.1394   18.7343 C   0  0  0  0  0  0
    7.1267    6.8200   17.5898 C   0  0  0  0  0  0
    3.5110    7.1067   16.1948 C   0  0  2  0  0  0
    5.0351    6.7997   16.1611 C   0  0  1  0  0  0
    5.6003    7.6023   14.9608 C   0  0  2  0  0  0
    4.4237    8.3695   14.3353 C   0  0  1  0  0  0
    3.2999    8.3663   15.3664 C   0  0  0  0  0  0
    4.8378   10.0361   13.7417 S   0  0  0  0  0  0
    3.9162   11.2279   14.6731 C   0  0  0  0  0  0
    6.3202    6.5093   13.7489 Cl  0  0  0  0  0  0
    5.2107    8.7052   20.9474 C   0  0  0  0  0  0
    4.5055    9.7088   20.8479 O   0  0  0  0  0  0
    5.4909    8.1091   22.1416 O   0  0  0  0  0  0
    2.3507    5.9139   18.1024 C   0  0  0  0  0  0
    3.2618    4.9526   18.5589 C   0  0  0  0  0  0
    2.8181    3.7093   18.9850 C   0  0  0  0  0  0
    1.4647    3.4142   18.9437 C   0  0  0  0  0  0
    0.5484    4.3430   18.4840 C   0  0  0  0  0  0
    0.9723    5.6083   18.0821 C   0  0  0  0  0  0
    4.3750   11.7587   15.9001 C   0  0  0  0  0  0
    3.6086   12.7479   16.5260 C   0  0  0  0  0  0
    2.3983   13.1588   15.9816 C   0  0  0  0  0  0
    1.9272   12.5941   14.8018 C   0  0  0  0  0  0
    2.6920   11.6409   14.1421 C   0  0  0  0  0  0
    5.6015   11.2953   16.5790 N   0  3  0  0  0  0
    6.3271   12.1184   17.1107 O   0  0  0  0  0  0
    5.8278   10.1012   16.6461 O   0  5  0  0  0  0
   -0.0553    6.5888   17.6890 N   0  3  0  0  0  0
   -0.8802    6.9101   18.5390 O   0  0  0  0  0  0
   -0.0417    7.0175   16.5419 O   0  5  0  0  0  0
    2.0079    7.9049   17.5072 H   0  0  0  0  0  0
    3.2784    8.4374   19.2891 H   0  0  0  0  0  0
    7.7861    7.9546   20.6969 H   0  0  0  0  0  0
    8.9000    6.9170   18.7905 H   0  0  0  0  0  0
    7.6481    6.3538   16.7671 H   0  0  0  0  0  0
    2.9910    6.3103   15.6550 H   0  0  0  0  0  0
    5.1513    5.7245   16.0113 H   0  0  0  0  0  0
    6.3690    8.2910   15.2950 H   0  0  0  0  0  0
    4.0553    7.8612   13.4408 H   0  0  0  0  0  0
    2.3198    8.3490   14.8865 H   0  0  0  0  0  0
    3.3339    9.2208   16.0382 H   0  0  0  0  0  0
    5.1201    8.6482   22.8561 H   0  0  0  0  0  0
    4.3200    5.1588   18.5901 H   0  0  0  0  0  0
    3.5197    2.9720   19.3424 H   0  0  0  0  0  0
    1.1174    2.4770   19.3115 H   0  0  0  0  0  0
   -0.5037    4.0944   18.4760 H   0  0  0  0  0  0
    3.9405   13.2016   17.4499 H   0  0  0  0  0  0
    1.8619   13.9475   16.4782 H   0  0  0  0  0  0
    0.9865   12.9078   14.3805 H   0  0  0  0  0  0
    2.3216   11.2232   13.2174 H   0  0  0  0  0  0
  1  9  1  0  0  0
  1  2  1  0  0  0
  1 20  1  0  0  0
  1 37  1  0  0  0
  2  4  1  0  0  0
  2 38  1  0  0  0
  3 10  1  0  0  0
  3  4  2  0  0  0
  3  8  1  0  0  0
  4  5  1  0  0  0
  5  6  2  0  0  0
  5 17  1  0  0  0
  6  7  1  0  0  0
  6 39  1  0  0  0
  7  8  2  0  0  0
  7 40  1  0  0  0
  8 41  1  0  0  0
  9 10  1  0  0  0
  9 13  1  0  0  0
  9 42  1  0  0  0
 10 11  1  0  0  0
 10 43  1  0  0  0
 11 12  1  0  0  0
 11 16  1  0  0  0
 11 44  1  0  0  0
 12 13  1  0  0  0
 12 14  1  0  0  0
 12 45  1  0  0  0
 13 46  1  0  0  0
 13 47  1  0  0  0
 14 15  1  0  0  0
 15 26  2  0  0  0
 15 30  1  0  0  0
 17 18  2  0  0  0
 17 19  1  0  0  0
 19 48  1  0  0  0
 20 21  2  0  0  0
 20 25  1  0  0  0
 21 22  1  0  0  0
 21 49  1  0  0  0
 22 23  2  0  0  0
 22 50  1  0  0  0
 23 24  1  0  0  0
 23 51  1  0  0  0
 24 25  2  0  0  0
 24 52  1  0  0  0
 25 34  1  0  0  0
 26 27  1  0  0  0
 26 31  1  0  0  0
 27 28  2  0  0  0
 27 53  1  0  0  0
 28 29  1  0  0  0
 28 54  1  0  0  0
 29 30  2  0  0  0
 29 55  1  0  0  0
 30 56  1  0  0  0
 31 32  2  0  0  0
 31 33  1  0  0  0
 34 35  2  0  0  0
 34 36  1  0  0  0
M  CHG  4  31   1  33  -1  34   1  36  -1
M  END
> <s_m_entry_id>
2476

> <s_m_entry_name>
dock_pv.4

> <s_m_Source_Path>
/home/csk/Desktop/cluster/DUD-E-result/fabp4

> <s_m_Source_File>
dock_pv.maegz

> <i_m_Source_File_Index>
4

> <chembl_id>
CHEMBL3827527

> <chembl_pref_name>
None

> <i_lp_mmshare_version>
53161

> <r_lp_tautomer_probability>
1

> <s_lp_Force_Field>
OPLS_2005

> <r_lp_Energy>
62.371229

> <b_lp_Chiralities_Consistent>
1

> <s_lp_Variant>
CHEMBL2083_lig202-21

> <s_i_glide_gridfile>
glide-grid_2nnq

> <i_i_glide_lignum>
396

> <i_i_glide_rotatable_bonds>
7

> <r_i_docking_score>
-8.47887654774607

> <r_i_glide_ligand_efficiency>
-0.235524348548502

> <r_i_glide_ligand_efficiency_sa>
-0.777684263321505

> <r_i_glide_ligand_efficiency_ln>
-1.84986178994649

> <r_i_glide_gscore>
-8.47887654774607

> <r_i_glide_lipo>
-4.19844751932628

> <r_i_glide_hbond>
-0.125874221562982

> <r_i_glide_metal>
0

> <r_i_glide_rewards>
-0.834433478887333

> <r_i_glide_evdw>
-53.4281272888184

> <r_i_glide_ecoul>
-5.20654582977295

> <r_i_glide_erotb>
0.297662755552557

> <r_i_glide_esite>
-0.165395844615166

> <r_i_glide_emodel>
-78.6696597443401

> <r_i_glide_energy>
-58.6346731185913

> <r_i_glide_einternal>
12.254768371582

> <i_i_glide_confnum>
140

> <i_i_glide_posenum>
110

> <r_i_glide_eff_state_penalty>
0

> <s_user_duplicate_titles>
CHEMBL2083_lig202

> <i_f3d_flags>
0

> <s_m_subgroup_title>
dock_pv

> <s_m_subgroupid>
dock_pv

> <b_m_subgroup_collapsed>
1

$$$$
CHEMBL2083_lig196
                    3D
 Schrodinger Suite 2021-1.
 47 51  0  0  1  0            999 V2000
    2.5593    9.0301   17.2166 C   0  0  0  0  0  0
    3.6112    8.8533   18.2399 N   0  0  0  0  0  0
    4.7963    9.7433   18.0578 C   0  0  2  0  0  0
    3.6542    7.6796   19.0514 C   0  0  0  0  0  0
    2.7615    6.5865   18.8048 C   0  0  0  0  0  0
    2.7942    5.4914   19.6900 C   0  0  0  0  0  0
    3.5199    5.5789   20.8695 C   0  0  0  0  0  0
    4.3377    6.6654   21.1438 C   0  0  0  0  0  0
    4.5210    7.6763   20.1814 C   0  0  0  0  0  0
    1.8216    6.6856   17.5801 C   0  0  2  0  0  0
    1.3590    8.1246   17.5268 C   0  0  2  0  0  0
    0.0575    8.2159   16.7674 C   0  0  0  0  0  0
   -0.4661    6.8052   16.9490 C   0  0  0  0  0  0
    0.4670    5.9895   17.4823 C   0  0  0  0  0  0
    5.9847    9.2160   18.9020 C   0  0  2  0  0  0
    5.5530    8.8169   20.3136 C   0  0  2  0  0  0
    6.9307    8.5943   20.9329 C   0  0  0  0  0  0
    7.8734    9.3034   20.2794 C   0  0  0  0  0  0
    7.2921    9.9969   19.0630 C   0  0  0  0  0  0
    5.0076    6.6891   22.5107 C   0  0  0  0  0  0
    2.0913    4.1711   19.4130 C   0  0  0  0  0  0
    4.4726   11.2191   18.4374 C   0  0  0  0  0  0
    5.2065   12.1084   17.7004 O   0  0  0  0  0  0
    3.7053   11.5399   19.3401 O   0  0  0  0  0  0
    2.3226   10.0837   17.0619 H   0  0  0  0  0  0
    2.9514    8.7374   16.2405 H   0  0  0  0  0  0
    5.0722    9.7759   17.0031 H   0  0  0  0  0  0
    3.4920    4.7649   21.5806 H   0  0  0  0  0  0
    2.4159    6.4187   16.7040 H   0  0  0  0  0  0
    1.0420    8.3428   18.5418 H   0  0  0  0  0  0
    0.2185    8.5069   15.7420 H   0  0  0  0  0  0
   -0.6131    8.9504   17.2121 H   0  0  0  0  0  0
   -1.4767    6.5246   16.6950 H   0  0  0  0  0  0
    0.3112    4.9411   17.6752 H   0  0  0  0  0  0
    6.2852    8.3028   18.3758 H   0  0  0  0  0  0
    5.0512    9.6338   20.8348 H   0  0  0  0  0  0
    7.1032    8.0401   21.8397 H   0  0  0  0  0  0
    8.9202    9.3753   20.5399 H   0  0  0  0  0  0
    7.9269    9.8861   18.1820 H   0  0  0  0  0  0
    7.1520   11.0656   19.2302 H   0  0  0  0  0  0
    5.1235    7.7086   22.8772 H   0  0  0  0  0  0
    4.3926    6.1836   23.2566 H   0  0  0  0  0  0
    5.9769    6.1908   22.4829 H   0  0  0  0  0  0
    2.5889    3.3448   19.9212 H   0  0  0  0  0  0
    1.0550    4.1952   19.7415 H   0  0  0  0  0  0
    2.1381    3.9228   18.3536 H   0  0  0  0  0  0
    5.1204   13.0324   17.9834 H   0  0  0  0  0  0
  1 11  1  0  0  0
  1  2  1  0  0  0
  1 25  1  0  0  0
  1 26  1  0  0  0
  2  4  1  0  0  0
  2  3  1  0  0  0
  3 15  1  0  0  0
  3 22  1  0  0  0
  3 27  1  0  0  0
  4  5  2  0  0  0
  4  9  1  0  0  0
  5 10  1  0  0  0
  5  6  1  0  0  0
  6  7  2  0  0  0
  6 21  1  0  0  0
  7  8  1  0  0  0
  7 28  1  0  0  0
  8  9  2  0  0  0
  8 20  1  0  0  0
  9 16  1  0  0  0
 10 11  1  0  0  0
 10 14  1  0  0  0
 10 29  1  0  0  0
 11 12  1  0  0  0
 11 30  1  0  0  0
 12 13  1  0  0  0
 12 31  1  0  0  0
 12 32  1  0  0  0
 13 14  2  0  0  0
 13 33  1  0  0  0
 14 34  1  0  0  0
 15 16  1  0  0  0
 15 19  1  0  0  0
 15 35  1  0  0  0
 16 17  1  0  0  0
 16 36  1  0  0  0
 17 18  2  0  0  0
 17 37  1  0  0  0
 18 19  1  0  0  0
 18 38  1  0  0  0
 19 39  1  0  0  0
 19 40  1  0  0  0
 20 41  1  0  0  0
 20 42  1  0  0  0
 20 43  1  0  0  0
 21 44  1  0  0  0
 21 45  1  0  0  0
 21 46  1  0  0  0
 22 23  1  0  0  0
 22 24  2  0  0  0
 23 47  1  0  0  0
M  END
> <s_m_entry_id>
2477

> <s_m_entry_name>
dock_pv.5

> <s_m_Source_Path>
/home/csk/Desktop/cluster/DUD-E-result/fabp4

> <s_m_Source_File>
dock_pv.maegz

> <i_m_Source_File_Index>
5

> <chembl_id>
CHEMBL3827900

> <chembl_pref_name>
None

> <i_lp_mmshare_version>
53161

> <r_lp_tautomer_probability>
1

> <s_lp_Force_Field>
OPLS_2005

> <r_lp_Energy>
85.42379

> <b_lp_Chiralities_Consistent>
1

> <s_lp_Variant>
CHEMBL2083_lig196-1

> <s_i_glide_gridfile>
glide-grid_2nnq

> <i_i_glide_lignum>
246

> <i_i_glide_rotatable_bonds>
2

> <r_i_docking_score>
-8.38755347222988

> <r_i_glide_ligand_efficiency>
-0.349481394676245

> <r_i_glide_ligand_efficiency_sa>
-1.00807878153659

> <r_i_glide_ligand_efficiency_ln>
-2.00752642565435

> <r_i_glide_gscore>
-8.38755347222988

> <r_i_glide_lipo>
-4.14171931170595

> <r_i_glide_hbond>
-0.304

> <r_i_glide_metal>
0

> <r_i_glide_rewards>
-1.48060331787437

> <r_i_glide_evdw>
-29.6102867126465

> <r_i_glide_ecoul>
-7.48381185531616

> <r_i_glide_erotb>
0.180881914396739

> <r_i_glide_esite>
-0.0390266431165436

> <r_i_glide_emodel>
-53.8823936905553

> <r_i_glide_energy>
-37.0940985679626

> <r_i_glide_einternal>
0.597816526889801

> <i_i_glide_confnum>
1

> <i_i_glide_posenum>
130

> <r_i_glide_eff_state_penalty>
0

> <s_user_duplicate_titles>
CHEMBL2083_lig196

> <i_f3d_flags>
0

> <s_m_subgroup_title>
dock_pv

> <s_m_subgroupid>
dock_pv

> <b_m_subgroup_collapsed>
1

$$$$
CHEMBL2083_lig202
                    3D
 Schrodinger Suite 2021-1.
 56 60  0  0  1  0            999 V2000
    3.2394    9.4100   17.7505 C   0  0  1  0  0  0
    2.1635    8.4992   17.3557 N   0  0  0  0  0  0
    2.8297    6.7188   18.9047 C   0  0  0  0  0  0
    1.8944    7.2723   18.0029 C   0  0  0  0  0  0
    0.6947    6.5794   17.7186 C   0  0  0  0  0  0
    0.5615    5.2520   18.1420 C   0  0  0  0  0  0
    1.5200    4.6706   18.9622 C   0  0  0  0  0  0
    2.6155    5.4160   19.3721 C   0  0  0  0  0  0
    4.4612    8.6341   18.3295 C   0  0  2  0  0  0
    4.1419    7.4174   19.2244 C   0  0  1  0  0  0
    4.5655    7.8517   20.6477 C   0  0  2  0  0  0
    5.8802    8.5953   20.3921 C   0  0  2  0  0  0
    5.3861    9.4942   19.2333 C   0  0  0  0  0  0
    7.2662    7.4408   20.0209 S   0  0  0  0  0  0
    7.3958    7.1893   18.2643 C   0  0  0  0  0  0
    4.7200    6.5090   21.8149 Cl  0  0  0  0  0  0
   -0.4400    7.1741   16.9252 C   0  0  0  0  0  0
   -1.1069    6.5090   16.1420 O   0  0  0  0  0  0
   -0.7032    8.4884   17.1455 O   0  0  0  0  0  0
    3.6608   10.3412   16.5874 C   0  0  0  0  0  0
    4.0442    9.7162   15.3874 C   0  0  0  0  0  0
    4.4267   10.4513   14.2693 C   0  0  0  0  0  0
    4.4403   11.8388   14.3290 C   0  0  0  0  0  0
    4.0620   12.4834   15.5009 C   0  0  0  0  0  0
    3.6651   11.7628   16.6400 C   0  0  0  0  0  0
    7.9103    8.1692   17.3941 C   0  0  0  0  0  0
    8.0079    7.8389   16.0336 C   0  0  0  0  0  0
    7.5004    6.6478   15.5225 C   0  0  0  0  0  0
    6.9670    5.7056   16.3817 C   0  0  0  0  0  0
    6.9480    5.9702   17.7420 C   0  0  0  0  0  0
    8.3200    9.5232   17.8508 N   0  3  0  0  0  0
    8.7200    9.6980   18.9951 O   0  0  0  0  0  0
    8.2160   10.4508   17.0590 O   0  5  0  0  0  0
    3.2594   12.5495   17.8283 N   0  3  0  0  0  0
    3.4903   12.1090   18.9420 O   0  0  0  0  0  0
    2.7200   13.6367   17.6500 O   0  5  0  0  0  0
    2.7856    9.9974   18.5397 H   0  0  0  0  0  0
    1.4283    8.9368   16.8189 H   0  0  0  0  0  0
   -0.3146    4.6713   17.8811 H   0  0  0  0  0  0
    1.3933    3.6550   19.3100 H   0  0  0  0  0  0
    3.3411    4.9463   20.0197 H   0  0  0  0  0  0
    5.0323    8.2655   17.4772 H   0  0  0  0  0  0
    4.8331    6.6341   18.9397 H   0  0  0  0  0  0
    3.9200    8.6061   21.0735 H   0  0  0  0  0  0
    6.1240    9.1683   21.2884 H   0  0  0  0  0  0
    6.1524    9.9975   18.6676 H   0  0  0  0  0  0
    4.8178   10.3009   19.6875 H   0  0  0  0  0  0
   -1.4773    8.7005   16.6200 H   0  0  0  0  0  0
    4.0342    8.6379   15.3149 H   0  0  0  0  0  0
    4.7071    9.9454   13.3566 H   0  0  0  0  0  0
    4.7355   12.4200   13.4672 H   0  0  0  0  0  0
    4.0833   13.5650   15.5232 H   0  0  0  0  0  0
    8.4780    8.5090   15.3420 H   0  0  0  0  0  0
    7.5200    6.4461   14.4614 H   0  0  0  0  0  0
    6.5762    4.7771   15.9963 H   0  0  0  0  0  0
    6.5330    5.2294   18.3994 H   0  0  0  0  0  0
  1  9  1  0  0  0
  1  2  1  0  0  0
  1 20  1  0  0  0
  1 37  1  0  0  0
  2  4  1  0  0  0
  2 38  1  0  0  0
  3 10  1  0  0  0
  3  4  2  0  0  0
  3  8  1  0  0  0
  4  5  1  0  0  0
  5  6  2  0  0  0
  5 17  1  0  0  0
  6  7  1  0  0  0
  6 39  1  0  0  0
  7  8  2  0  0  0
  7 40  1  0  0  0
  8 41  1  0  0  0
  9 10  1  0  0  0
  9 13  1  0  0  0
  9 42  1  0  0  0
 10 11  1  0  0  0
 10 43  1  0  0  0
 11 12  1  0  0  0
 11 16  1  0  0  0
 11 44  1  0  0  0
 12 13  1  0  0  0
 12 14  1  0  0  0
 12 45  1  0  0  0
 13 46  1  0  0  0
 13 47  1  0  0  0
 14 15  1  0  0  0
 15 26  2  0  0  0
 15 30  1  0  0  0
 17 18  2  0  0  0
 17 19  1  0  0  0
 19 48  1  0  0  0
 20 21  2  0  0  0
 20 25  1  0  0  0
 21 22  1  0  0  0
 21 49  1  0  0  0
 22 23  2  0  0  0
 22 50  1  0  0  0
 23 24  1  0  0  0
 23 51  1  0  0  0
 24 25  2  0  0  0
 24 52  1  0  0  0
 25 34  1  0  0  0
 26 27  1  0  0  0
 26 31  1  0  0  0
 27 28  2  0  0  0
 27 53  1  0  0  0
 28 29  1  0  0  0
 28 54  1  0  0  0
 29 30  2  0  0  0
 29 55  1  0  0  0
 30 56  1  0  0  0
 31 32  2  0  0  0
 31 33  1  0  0  0
 34 35  2  0  0  0
 34 36  1  0  0  0
M  CHG  4  31   1  33  -1  34   1  36  -1
M  END
> <s_m_entry_id>
2478

> <s_m_entry_name>
dock_pv.6

> <s_m_Source_Path>
/home/csk/Desktop/cluster/DUD-E-result/fabp4

> <s_m_Source_File>
dock_pv.maegz

> <i_m_Source_File_Index>
6

> <chembl_id>
CHEMBL3827527

> <chembl_pref_name>
None

> <i_lp_mmshare_version>
53161

> <r_lp_tautomer_probability>
1

> <s_lp_Force_Field>
OPLS_2005

> <r_lp_Energy>
59.939489

> <b_lp_Chiralities_Consistent>
1

> <s_lp_Variant>
CHEMBL2083_lig202-5

> <s_i_glide_gridfile>
glide-grid_2nnq

> <i_i_glide_lignum>
380

> <i_i_glide_rotatable_bonds>
7

> <r_i_docking_score>
-8.30883242400378

> <r_i_glide_ligand_efficiency>
-0.230800900666772

> <r_i_glide_ligand_efficiency_sa>
-0.762087782070717

> <r_i_glide_ligand_efficiency_ln>
-1.81276275620724

> <r_i_glide_gscore>
-8.30883242400378

> <r_i_glide_lipo>
-4.40021158781247

> <r_i_glide_hbond>
-0.357855713060059

> <r_i_glide_metal>
0

> <r_i_glide_rewards>
-0.725500695110631

> <r_i_glide_evdw>
-49.3786163330078

> <r_i_glide_ecoul>
-2.79834270477295

> <r_i_glide_erotb>
0.297662755552557

> <r_i_glide_esite>
-0.234244961206843

> <r_i_glide_emodel>
-56.483249558719

> <r_i_glide_energy>
-52.1769590377808

> <r_i_glide_einternal>
16.4384384155273

> <i_i_glide_confnum>
38

> <i_i_glide_posenum>
372

> <r_i_glide_eff_state_penalty>
0

> <s_user_duplicate_titles>
CHEMBL2083_lig202

> <i_f3d_flags>
0

> <s_m_subgroup_title>
dock_pv

> <s_m_subgroupid>
dock_pv

> <b_m_subgroup_collapsed>
1

$$$$
CHEMBL2083_lig133
                    3D
 Schrodinger Suite 2021-1.
 62 66  0  0  1  0            999 V2000
    3.9632    7.7787   19.1388 C   0  0  0  0  0  0
    3.1946    7.1318   18.1530 C   0  0  0  0  0  0
    3.1758    7.9763   17.0463 C   0  0  0  0  0  0
    3.9136    9.0790   17.4502 N   0  0  0  0  0  0
    4.3221    8.9657   18.7225 N   0  0  0  0  0  0
    4.3638    7.3157   20.5111 C   0  0  0  0  0  0
    5.5991    7.7089   21.0435 C   0  0  0  0  0  0
    5.9803    7.3029   22.3175 C   0  0  0  0  0  0
    5.1199    6.5089   23.0691 C   0  0  0  0  0  0
    3.8906    6.1090   22.5578 C   0  0  0  0  0  0
    3.5168    6.5092   21.2814 C   0  0  0  0  0  0
    2.5339    5.8145   18.2556 C   0  0  0  0  0  0
    1.1745    5.7107   17.9559 C   0  0  0  0  0  0
    0.5242    4.5009   18.1422 C   0  0  0  0  0  0
    1.2332    3.4251   18.6592 C   0  0  0  0  0  0
    2.5905    3.5122   18.9422 C   0  0  0  0  0  0
    3.2523    4.7100   18.7138 C   0  0  0  0  0  0
    4.2595   10.2454   16.7212 C   0  0  0  0  0  0
    3.2545   10.8880   15.9805 C   0  0  0  0  0  0
    3.5455   11.9975   15.1952 C   0  0  0  0  0  0
    4.8347   12.5093   15.1882 C   0  0  0  0  0  0
    5.8192   11.9415   15.9885 C   0  0  0  0  0  0
    5.5699   10.7906   16.7461 C   0  0  0  0  0  0
    6.6820   10.2405   17.5836 C   0  0  0  0  0  0
    7.2651    8.9767   17.3558 C   0  0  0  0  0  0
    8.2394    8.4999   18.2560 C   0  0  0  0  0  0
    8.6412    9.2599   19.3469 C   0  0  0  0  0  0
    8.0752   10.5089   19.5551 C   0  0  0  0  0  0
    7.1122   10.9967   18.6786 C   0  0  0  0  0  0
    2.5233    7.7946   15.6736 C   0  0  0  0  0  0
    3.5162    7.6773   14.5097 C   0  0  0  0  0  0
    6.8525    8.2529   16.2507 O   0  0  0  0  0  0
    7.1862    6.8639   16.1765 C   0  0  0  0  0  0
    6.7206    6.3104   14.8341 C   0  0  0  0  0  0
    6.3208    5.0132   14.9421 O   0  0  0  0  0  0
    6.7127    6.9588   13.7886 O   0  0  0  0  0  0
    6.2592    8.3384   20.4695 H   0  0  0  0  0  0
    6.9301    7.6132   22.7260 H   0  0  0  0  0  0
    5.4029    6.2066   24.0653 H   0  0  0  0  0  0
    3.2278    5.4955   23.1504 H   0  0  0  0  0  0
    2.5492    6.2121   20.9045 H   0  0  0  0  0  0
    0.6191    6.5682   17.6064 H   0  0  0  0  0  0
   -0.5270    4.4076   17.9252 H   0  0  0  0  0  0
    0.7228    2.5090   18.8563 H   0  0  0  0  0  0
    3.1219    2.6612   19.3444 H   0  0  0  0  0  0
    4.3044    4.7950   18.9422 H   0  0  0  0  0  0
    2.2325   10.5477   16.0082 H   0  0  0  0  0  0
    2.7728   12.4693   14.6056 H   0  0  0  0  0  0
    5.0670   13.3576   14.5733 H   0  0  0  0  0  0
    6.7952   12.4010   16.0045 H   0  0  0  0  0  0
    8.7132    7.5412   18.1322 H   0  0  0  0  0  0
    9.3987    8.8860   20.0224 H   0  0  0  0  0  0
    8.3858   11.1157   20.3880 H   0  0  0  0  0  0
    6.6834   11.9734   18.8654 H   0  0  0  0  0  0
    1.9199    6.8867   15.6549 H   0  0  0  0  0  0
    1.8059    8.5832   15.4598 H   0  0  0  0  0  0
    2.9934    7.6930   13.5531 H   0  0  0  0  0  0
    4.2484    8.4856   14.5028 H   0  0  0  0  0  0
    4.0475    6.7293   14.5687 H   0  0  0  0  0  0
    8.2636    6.6994   16.2123 H   0  0  0  0  0  0
    6.7095    6.3247   16.9964 H   0  0  0  0  0  0
    5.9525    4.7152   14.1000 H   0  0  0  0  0  0
  1  2  1  0  0  0
  1  5  2  0  0  0
  1  6  1  0  0  0
  2  3  2  0  0  0
  2 12  1  0  0  0
  3  4  1  0  0  0
  3 30  1  0  0  0
  4  5  1  0  0  0
  4 18  1  0  0  0
  6  7  2  0  0  0
  6 11  1  0  0  0
  7  8  1  0  0  0
  7 37  1  0  0  0
  8  9  2  0  0  0
  8 38  1  0  0  0
  9 10  1  0  0  0
  9 39  1  0  0  0
 10 11  2  0  0  0
 10 40  1  0  0  0
 11 41  1  0  0  0
 12 13  2  0  0  0
 12 17  1  0  0  0
 13 14  1  0  0  0
 13 42  1  0  0  0
 14 15  2  0  0  0
 14 43  1  0  0  0
 15 16  1  0  0  0
 15 44  1  0  0  0
 16 17  2  0  0  0
 16 45  1  0  0  0
 17 46  1  0  0  0
 18 19  2  0  0  0
 18 23  1  0  0  0
 19 20  1  0  0  0
 19 47  1  0  0  0
 20 21  2  0  0  0
 20 48  1  0  0  0
 21 22  1  0  0  0
 21 49  1  0  0  0
 22 23  2  0  0  0
 22 50  1  0  0  0
 23 24  1  0  0  0
 24 25  2  0  0  0
 24 29  1  0  0  0
 25 26  1  0  0  0
 25 32  1  0  0  0
 26 27  2  0  0  0
 26 51  1  0  0  0
 27 28  1  0  0  0
 27 52  1  0  0  0
 28 29  2  0  0  0
 28 53  1  0  0  0
 29 54  1  0  0  0
 30 31  1  0  0  0
 30 55  1  0  0  0
 30 56  1  0  0  0
 31 57  1  0  0  0
 31 58  1  0  0  0
 31 59  1  0  0  0
 32 33  1  0  0  0
 33 34  1  0  0  0
 33 60  1  0  0  0
 33 61  1  0  0  0
 34 35  1  0  0  0
 34 36  2  0  0  0
 35 62  1  0  0  0
M  END
> <s_m_entry_id>
2479

> <s_m_entry_name>
dock_pv.7

> <s_m_Source_Path>
/home/csk/Desktop/cluster/DUD-E-result/fabp4

> <s_m_Source_File>
dock_pv.maegz

> <i_m_Source_File_Index>
7

> <chembl_id>
CHEMBL4280900

> <chembl_pref_name>
None

> <i_lp_mmshare_version>
53161

> <r_lp_tautomer_probability>
1

> <s_lp_Force_Field>
OPLS_2005

> <r_lp_Energy>
36.563435

> <b_lp_Chiralities_Consistent>
1

> <s_lp_Variant>
CHEMBL2083_lig133-1

> <s_i_glide_gridfile>
glide-grid_2nnq

> <i_i_glide_lignum>
146

> <i_i_glide_rotatable_bonds>
9

> <r_i_docking_score>
-8.22869032229525

> <r_i_glide_ligand_efficiency>
-0.228574731174868

> <r_i_glide_ligand_efficiency_sa>
-0.754737132373523

> <r_i_glide_ligand_efficiency_ln>
-1.79527791480381

> <r_i_glide_gscore>
-8.22869032229525

> <r_i_glide_lipo>
-4.46062546027484

> <r_i_glide_hbond>
0

> <r_i_glide_metal>
0

> <r_i_glide_rewards>
-0.76782972482349

> <r_i_glide_evdw>
-52.0998687744141

> <r_i_glide_ecoul>
-6.82831764221191

> <r_i_glide_erotb>
0.629005947855564

> <r_i_glide_esite>
0

> <r_i_glide_emodel>
-84.7718002655153

> <r_i_glide_energy>
-58.928186416626

> <r_i_glide_einternal>
4.02722978591919

> <i_i_glide_confnum>
86

> <i_i_glide_posenum>
89

> <r_i_glide_eff_state_penalty>
0

> <s_user_duplicate_titles>
CHEMBL2083_lig133

> <i_f3d_flags>
0

> <s_m_subgroup_title>
dock_pv

> <s_m_subgroupid>
dock_pv

> <b_m_subgroup_collapsed>
1

$$$$
CHEMBL2083_lig177
                    3D
 Schrodinger Suite 2021-1.
 54 57  0  0  1  0            999 V2000
    3.4960    9.3335   17.6991 C   0  0  0  0  0  0
    4.3170    9.3259   18.7195 N   0  0  0  0  0  0
    4.1720    8.1246   19.2678 C   0  0  0  0  0  0
    3.2175    7.3889   18.5504 C   0  0  0  0  0  0
    2.7922    8.1897   17.5491 O   0  0  0  0  0  0
    3.2526   10.4116   16.7049 C   0  0  0  0  0  0
    4.9399    7.7611   20.4967 C   0  0  0  0  0  0
    2.5893    6.0382   18.6183 C   0  0  0  0  0  0
    3.2578   10.1011   15.3370 C   0  0  0  0  0  0
    6.2476    5.3274   16.1699 C   0  0  0  0  0  0
    6.6148    5.4371   17.3352 O   0  0  0  0  0  0
    5.2486    4.5091   15.7420 O   0  0  0  0  0  0
    3.0056   11.7196   17.1256 C   0  0  0  0  0  0
    3.5595    8.7993   15.0013 O   0  0  0  0  0  0
    6.8877    6.0914   15.0082 C   0  0  0  0  0  0
    6.2692    8.1759   20.6359 C   0  0  0  0  0  0
    1.3085    5.8469   18.0851 C   0  0  0  0  0  0
    3.2663    4.9623   19.1956 C   0  0  0  0  0  0
    4.3280    7.0409   21.5286 C   0  0  0  0  0  0
    2.9655   11.1041   14.4015 C   0  0  0  0  0  0
    3.9914    8.4593   13.6969 C   0  0  0  0  0  0
    6.1348    7.3863   14.6305 C   0  0  0  0  0  0
    4.8113    7.1695   13.8626 C   0  0  0  0  0  0
    2.7187   12.7086   16.1885 C   0  0  0  0  0  0
    0.7049    4.5945   18.1420 C   0  0  0  0  0  0
    2.6545    3.7148   19.2750 C   0  0  0  0  0  0
    2.6872   12.4024   14.8294 C   0  0  0  0  0  0
    5.0388    6.7384   22.6867 C   0  0  0  0  0  0
    6.9761    7.8813   21.7970 C   0  0  0  0  0  0
    1.3807    3.5389   18.7468 C   0  0  0  0  0  0
    6.3570    7.1684   22.8190 C   0  0  0  0  0  0
    5.1198    4.5644   14.7832 H   0  0  0  0  0  0
    3.0131   11.9687   18.1767 H   0  0  0  0  0  0
    7.8910    6.3596   15.3423 H   0  0  0  0  0  0
    7.0268    5.4419   14.1431 H   0  0  0  0  0  0
    6.7535    8.7334   19.8471 H   0  0  0  0  0  0
    0.7750    6.6684   17.6282 H   0  0  0  0  0  0
    4.2654    5.0920   19.5820 H   0  0  0  0  0  0
    3.2982    6.7266   21.4419 H   0  0  0  0  0  0
    2.9351   10.8843   13.3457 H   0  0  0  0  0  0
    4.6013    9.2384   13.2346 H   0  0  0  0  0  0
    3.1199    8.2870   13.0680 H   0  0  0  0  0  0
    5.9544    7.9767   15.5329 H   0  0  0  0  0  0
    6.7891    7.9971   14.0083 H   0  0  0  0  0  0
    5.0265    6.7327   12.8892 H   0  0  0  0  0  0
    4.1812    6.4473   14.3805 H   0  0  0  0  0  0
    2.5070   13.7091   16.5266 H   0  0  0  0  0  0
   -0.2864    4.4473   17.7379 H   0  0  0  0  0  0
    3.1567    2.8805   19.7403 H   0  0  0  0  0  0
    2.4485   13.1722   14.1099 H   0  0  0  0  0  0
    4.5654    6.1872   23.4862 H   0  0  0  0  0  0
    7.9958    8.2141   21.9091 H   0  0  0  0  0  0
    0.9235    2.5652   18.8076 H   0  0  0  0  0  0
    6.9023    6.9558   23.7265 H   0  0  0  0  0  0
  1  2  2  0  0  0
  1  5  1  0  0  0
  1  6  1  0  0  0
  2  3  1  0  0  0
  3  7  1  0  0  0
  3  4  2  0  0  0
  4  5  1  0  0  0
  4  8  1  0  0  0
  6  9  2  0  0  0
  6 13  1  0  0  0
  7 16  2  0  0  0
  7 19  1  0  0  0
  8 17  2  0  0  0
  8 18  1  0  0  0
  9 14  1  0  0  0
  9 20  1  0  0  0
 10 15  1  0  0  0
 10 11  2  0  0  0
 10 12  1  0  0  0
 12 32  1  0  0  0
 13 24  2  0  0  0
 13 33  1  0  0  0
 14 21  1  0  0  0
 15 22  1  0  0  0
 15 34  1  0  0  0
 15 35  1  0  0  0
 16 29  1  0  0  0
 16 36  1  0  0  0
 17 25  1  0  0  0
 17 37  1  0  0  0
 18 26  2  0  0  0
 18 38  1  0  0  0
 19 28  2  0  0  0
 19 39  1  0  0  0
 20 27  2  0  0  0
 20 40  1  0  0  0
 21 23  1  0  0  0
 21 41  1  0  0  0
 21 42  1  0  0  0
 22 23  1  0  0  0
 22 43  1  0  0  0
 22 44  1  0  0  0
 23 45  1  0  0  0
 23 46  1  0  0  0
 24 27  1  0  0  0
 24 47  1  0  0  0
 25 30  2  0  0  0
 25 48  1  0  0  0
 26 30  1  0  0  0
 26 49  1  0  0  0
 27 50  1  0  0  0
 28 31  1  0  0  0
 28 51  1  0  0  0
 29 31  2  0  0  0
 29 52  1  0  0  0
 30 53  1  0  0  0
 31 54  1  0  0  0
M  END
> <s_m_entry_id>
2480

> <s_m_entry_name>
dock_pv.8

> <s_m_Source_Path>
/home/csk/Desktop/cluster/DUD-E-result/fabp4

> <s_m_Source_File>
dock_pv.maegz

> <i_m_Source_File_Index>
8

> <chembl_id>
CHEMBL116533

> <chembl_pref_name>
None

> <i_lp_mmshare_version>
53161

> <r_lp_tautomer_probability>
1

> <s_lp_Force_Field>
OPLS_2005

> <r_lp_Energy>
26.312696

> <b_lp_Chiralities_Consistent>
1

> <s_lp_Variant>
CHEMBL2083_lig177-1

> <s_i_glide_gridfile>
glide-grid_2nnq

> <i_i_glide_lignum>
193

> <i_i_glide_rotatable_bonds>
10

> <r_i_docking_score>
-8.21251982181738

> <r_i_glide_ligand_efficiency>
-0.264919994252174

> <r_i_glide_ligand_efficiency_sa>
-0.832214543422812

> <r_i_glide_ligand_efficiency_ln>
-1.85217490332631

> <r_i_glide_gscore>
-8.21251982181738

> <r_i_glide_lipo>
-5.1622133630839

> <r_i_glide_hbond>
0

> <r_i_glide_metal>
0

> <r_i_glide_rewards>
-0.868696865595518

> <r_i_glide_evdw>
-46.5284538269043

> <r_i_glide_ecoul>
-5.9587459564209

> <r_i_glide_erotb>
1.03862499167039

> <r_i_glide_esite>
0

> <r_i_glide_emodel>
-72.9159201373274

> <r_i_glide_energy>
-52.4871997833252

> <r_i_glide_einternal>
9.98147678375244

> <i_i_glide_confnum>
241

> <i_i_glide_posenum>
140

> <r_i_glide_eff_state_penalty>
0

> <s_user_duplicate_titles>
CHEMBL2083_lig177,192480

> <i_f3d_flags>
0

> <s_m_subgroup_title>
dock_pv

> <s_m_subgroupid>
dock_pv

> <b_m_subgroup_collapsed>
1

$$$$
CHEMBL2083_lig211
                    3D
 Schrodinger Suite 2021-1.
 48 52  0  0  1  0            999 V2000
    4.1233    7.9905   19.2167 C   0  0  0  0  0  0
    3.9454    9.0638   18.3083 C   0  0  0  0  0  0
    2.8864    8.9879   17.3718 C   0  0  0  0  0  0
    3.2810    6.9311   19.2655 N   0  0  0  0  0  0
    2.2236    6.8744   18.4321 C   0  0  0  0  0  0
    1.9735    7.8883   17.4636 C   0  0  0  0  0  0
    0.8198    7.7542   16.6485 C   0  0  0  0  0  0
   -0.0285    6.6593   16.7850 C   0  0  0  0  0  0
    0.2365    5.6730   17.7270 C   0  0  0  0  0  0
    1.3559    5.7644   18.5428 C   0  0  0  0  0  0
    5.1249    7.8542   20.1711 N   0  0  0  0  0  0
    2.7477    9.9787   16.2607 C   0  0  0  0  0  0
    3.1198    9.5947   14.9718 C   0  0  0  0  0  0
    3.0668   10.5081   13.9278 C   0  0  0  0  0  0
    2.6323   11.8078   14.1637 C   0  0  0  0  0  0
    2.2626   12.2058   15.4442 C   0  0  0  0  0  0
    2.3197   11.2907   16.4929 C   0  0  0  0  0  0
    4.8112   10.2613   18.2946 C   0  0  0  0  0  0
   -1.3941    6.5091   15.7420 Cl  0  0  0  0  0  0
    6.4868    8.3594   19.9661 C   0  0  0  0  0  0
    7.5152    7.5405   20.7429 C   0  0  0  0  0  0
    7.1986    7.5167   22.2484 C   0  0  0  0  0  0
    5.7544    7.0691   22.4740 C   0  0  0  0  0  0
    4.7643    7.8677   21.6025 C   0  0  0  0  0  0
    4.6525   11.3703   18.8855 N   0  0  0  0  0  0
    5.6559   12.1077   18.3958 N   0  0  0  0  0  0
    6.4786   11.4036   17.5451 C   0  0  0  0  0  0
    5.8923   10.2137   17.4676 O   0  0  0  0  0  0
    7.5044   11.7089   16.9422 O   0  0  0  0  0  0
    0.6020    8.5077   15.9086 H   0  0  0  0  0  0
   -0.4281    4.8259   17.8165 H   0  0  0  0  0  0
    1.5633    4.9976   19.2770 H   0  0  0  0  0  0
    3.4668    8.5892   14.7796 H   0  0  0  0  0  0
    3.3627   10.1925   12.9418 H   0  0  0  0  0  0
    2.5928   12.5092   13.3445 H   0  0  0  0  0  0
    1.9393   13.2216   15.6232 H   0  0  0  0  0  0
    2.0510   11.6085   17.4893 H   0  0  0  0  0  0
    6.7452    8.2778   18.9100 H   0  0  0  0  0  0
    6.5431    9.4116   20.2513 H   0  0  0  0  0  0
    7.5752    6.5220   20.3433 H   0  0  0  0  0  0
    8.4798    8.0052   20.5422 H   0  0  0  0  0  0
    7.3435    8.5091   22.6685 H   0  0  0  0  0  0
    7.8863    6.8552   22.7763 H   0  0  0  0  0  0
    5.4963    7.2049   23.5250 H   0  0  0  0  0  0
    5.6316    6.0012   22.2853 H   0  0  0  0  0  0
    4.6854    8.9028   21.9378 H   0  0  0  0  0  0
    3.7786    7.4215   21.7414 H   0  0  0  0  0  0
    5.7243   13.1070   18.5875 H   0  0  0  0  0  0
  1  2  2  0  0  0
  1  4  1  0  0  0
  1 11  1  0  0  0
  2  3  1  0  0  0
  2 18  1  0  0  0
  3  6  2  0  0  0
  3 12  1  0  0  0
  4  5  2  0  0  0
  5  6  1  0  0  0
  5 10  1  0  0  0
  6  7  1  0  0  0
  7  8  2  0  0  0
  7 30  1  0  0  0
  8  9  1  0  0  0
  8 19  1  0  0  0
  9 10  2  0  0  0
  9 31  1  0  0  0
 10 32  1  0  0  0
 11 20  1  0  0  0
 11 24  1  0  0  0
 12 13  2  0  0  0
 12 17  1  0  0  0
 13 14  1  0  0  0
 13 33  1  0  0  0
 14 15  2  0  0  0
 14 34  1  0  0  0
 15 16  1  0  0  0
 15 35  1  0  0  0
 16 17  2  0  0  0
 16 36  1  0  0  0
 17 37  1  0  0  0
 18 25  2  0  0  0
 18 28  1  0  0  0
 20 21  1  0  0  0
 20 38  1  0  0  0
 20 39  1  0  0  0
 21 22  1  0  0  0
 21 40  1  0  0  0
 21 41  1  0  0  0
 22 23  1  0  0  0
 22 42  1  0  0  0
 22 43  1  0  0  0
 23 24  1  0  0  0
 23 44  1  0  0  0
 23 45  1  0  0  0
 24 46  1  0  0  0
 24 47  1  0  0  0
 25 26  1  0  0  0
 26 27  1  0  0  0
 26 48  1  0  0  0
 27 28  1  0  0  0
 27 29  2  0  0  0
M  END
> <s_m_entry_id>
2481

> <s_m_entry_name>
dock_pv.9

> <s_m_Source_Path>
/home/csk/Desktop/cluster/DUD-E-result/fabp4

> <s_m_Source_File>
dock_pv.maegz

> <i_m_Source_File_Index>
9

> <chembl_id>
CHEMBL3889982

> <chembl_pref_name>
None

> <i_lp_mmshare_version>
53161

> <r_lp_tautomer_probability>
0.999986730454215

> <s_lp_Force_Field>
OPLS_2005

> <r_lp_Energy>
47.154166

> <b_lp_Chiralities_Consistent>
1

> <s_lp_Variant>
CHEMBL2083_lig211-1

> <s_i_glide_gridfile>
glide-grid_2nnq

> <i_i_glide_lignum>
416

> <i_i_glide_rotatable_bonds>
3

> <r_i_docking_score>
-8.1905313989961

> <r_i_glide_ligand_efficiency>
-0.282432117206762

> <r_i_glide_ligand_efficiency_sa>
-0.867720944834454

> <r_i_glide_ligand_efficiency_ln>
-1.87542399641415

> <r_i_glide_gscore>
-8.1905313989961

> <r_i_glide_lipo>
-4.04780933155528

> <r_i_glide_hbond>
-0.32

> <r_i_glide_metal>
0

> <r_i_glide_rewards>
-0.921215901771445

> <r_i_glide_evdw>
-40.3272819519043

> <r_i_glide_ecoul>
-7.61032342910767

> <r_i_glide_erotb>
0.356406446291995

> <r_i_glide_esite>
-0.1

> <r_i_glide_emodel>
-70.3514889999334

> <r_i_glide_energy>
-47.937605381012

> <r_i_glide_einternal>
2.2677595615387

> <i_i_glide_confnum>
17

> <i_i_glide_posenum>
241

> <r_i_glide_eff_state_penalty>
0

> <s_user_duplicate_titles>
CHEMBL2083_lig211

> <i_f3d_flags>
0

> <s_m_subgroup_title>
dock_pv

> <s_m_subgroupid>
dock_pv

> <b_m_subgroup_collapsed>
1

$$$$
CHEMBL2083_lig202
                    3D
 Schrodinger Suite 2021-1.
 56 60  0  0  1  0            999 V2000
    3.6961    6.8694   17.6231 C   0  0  2  0  0  0
    4.3443    8.0999   18.0599 N   0  0  0  0  0  0
    6.3582    7.4009   16.8748 C   0  0  0  0  0  0
    5.7406    8.1728   17.8957 C   0  0  0  0  0  0
    6.5137    8.9275   18.8135 C   0  0  0  0  0  0
    7.9066    8.8927   18.6975 C   0  0  0  0  0  0
    8.5116    8.1198   17.7214 C   0  0  0  0  0  0
    7.7528    7.3743   16.8355 C   0  0  0  0  0  0
    4.0254    6.6186   16.1271 C   0  0  2  0  0  0
    5.5445    6.6108   15.8203 C   0  0  1  0  0  0
    5.5489    7.1097   14.3467 C   0  0  1  0  0  0
    4.4962    8.2227   14.2640 C   0  0  1  0  0  0
    3.3718    7.5829   15.0843 C   0  0  0  0  0  0
    5.1165    9.7595   15.0412 S   0  0  0  0  0  0
    3.8596   10.9897   15.1349 C   0  0  0  0  0  0
    7.1199    7.6945   13.7419 Cl  0  0  0  0  0  0
    5.9073    9.7414   19.9377 C   0  0  0  0  0  0
    4.8946    9.3938   20.5432 O   0  0  0  0  0  0
    6.5626   10.9091   20.1942 O   0  0  0  0  0  0
    2.1860    6.8034   17.8829 C   0  0  0  0  0  0
    1.4482    7.9829   17.6780 C   0  0  0  0  0  0
    0.0630    7.9844   17.6892 C   0  0  0  0  0  0
   -0.6072    6.7937   17.9015 C   0  0  0  0  0  0
    0.0963    5.6203   18.1420 C   0  0  0  0  0  0
    1.4961    5.6048   18.2062 C   0  0  0  0  0  0
    3.8312   11.9268   16.1915 C   0  0  0  0  0  0
    2.8284   12.9016   16.1910 C   0  0  0  0  0  0
    1.8765   12.9395   15.1790 C   0  0  0  0  0  0
    1.8900   11.9947   14.1597 C   0  0  0  0  0  0
    2.8784   11.0173   14.1421 C   0  0  0  0  0  0
    4.7859   11.9089   17.3229 N   0  3  0  0  0  0
    5.9806   11.7190   17.1063 O   0  0  0  0  0  0
    4.3230   12.1026   18.4446 O   0  5  0  0  0  0
    2.1508    4.3467   18.6633 N   0  3  0  0  0  0
    3.2411    4.3898   19.2177 O   0  0  0  0  0  0
    1.5345    3.2920   18.5423 O   0  5  0  0  0  0
    4.1958    6.1010   18.2001 H   0  0  0  0  0  0
    3.9704    8.4821   18.9191 H   0  0  0  0  0  0
    8.5454    9.4409   19.3772 H   0  0  0  0  0  0
    9.5848    8.1090   17.6483 H   0  0  0  0  0  0
    8.2642    6.7802   16.0924 H   0  0  0  0  0  0
    3.6509    5.6195   15.8958 H   0  0  0  0  0  0
    5.9182    5.5867   15.8728 H   0  0  0  0  0  0
    5.2174    6.2868   13.7140 H   0  0  0  0  0  0
    4.2341    8.3873   13.2185 H   0  0  0  0  0  0
    2.7031    7.0203   14.4291 H   0  0  0  0  0  0
    2.7708    8.3617   15.5395 H   0  0  0  0  0  0
    7.1202   11.1628   19.4546 H   0  0  0  0  0  0
    1.9473    8.9190   17.4750 H   0  0  0  0  0  0
   -0.4812    8.9010   17.5168 H   0  0  0  0  0  0
   -1.6799    6.7800   17.9110 H   0  0  0  0  0  0
   -0.4725    4.7213   18.3362 H   0  0  0  0  0  0
    2.7907   13.6402   16.9805 H   0  0  0  0  0  0
    1.1202   13.7079   15.1906 H   0  0  0  0  0  0
    1.1452   12.0323   13.3769 H   0  0  0  0  0  0
    2.8914   10.3019   13.3345 H   0  0  0  0  0  0
  1  9  1  0  0  0
  1  2  1  0  0  0
  1 20  1  0  0  0
  1 37  1  0  0  0
  2  4  1  0  0  0
  2 38  1  0  0  0
  3 10  1  0  0  0
  3  4  2  0  0  0
  3  8  1  0  0  0
  4  5  1  0  0  0
  5  6  2  0  0  0
  5 17  1  0  0  0
  6  7  1  0  0  0
  6 39  1  0  0  0
  7  8  2  0  0  0
  7 40  1  0  0  0
  8 41  1  0  0  0
  9 10  1  0  0  0
  9 13  1  0  0  0
  9 42  1  0  0  0
 10 11  1  0  0  0
 10 43  1  0  0  0
 11 12  1  0  0  0
 11 16  1  0  0  0
 11 44  1  0  0  0
 12 13  1  0  0  0
 12 14  1  0  0  0
 12 45  1  0  0  0
 13 46  1  0  0  0
 13 47  1  0  0  0
 14 15  1  0  0  0
 15 26  2  0  0  0
 15 30  1  0  0  0
 17 18  2  0  0  0
 17 19  1  0  0  0
 19 48  1  0  0  0
 20 21  2  0  0  0
 20 25  1  0  0  0
 21 22  1  0  0  0
 21 49  1  0  0  0
 22 23  2  0  0  0
 22 50  1  0  0  0
 23 24  1  0  0  0
 23 51  1  0  0  0
 24 25  2  0  0  0
 24 52  1  0  0  0
 25 34  1  0  0  0
 26 27  1  0  0  0
 26 31  1  0  0  0
 27 28  2  0  0  0
 27 53  1  0  0  0
 28 29  1  0  0  0
 28 54  1  0  0  0
 29 30  2  0  0  0
 29 55  1  0  0  0
 30 56  1  0  0  0
 31 32  2  0  0  0
 31 33  1  0  0  0
 34 35  2  0  0  0
 34 36  1  0  0  0
M  CHG  4  31   1  33  -1  34   1  36  -1
M  END
> <s_m_entry_id>
2482

> <s_m_entry_name>
dock_pv.10

> <s_m_Source_Path>
/home/csk/Desktop/cluster/DUD-E-result/fabp4

> <s_m_Source_File>
dock_pv.maegz

> <i_m_Source_File_Index>
10

> <chembl_id>
CHEMBL3827527

> <chembl_pref_name>
None

> <i_lp_mmshare_version>
53161

> <r_lp_tautomer_probability>
1

> <s_lp_Force_Field>
OPLS_2005

> <r_lp_Energy>
61.617779

> <b_lp_Chiralities_Consistent>
1

> <s_lp_Variant>
CHEMBL2083_lig202-30

> <s_i_glide_gridfile>
glide-grid_2nnq

> <i_i_glide_lignum>
405

> <i_i_glide_rotatable_bonds>
7

> <r_i_docking_score>
-8.15280969838774

> <r_i_glide_ligand_efficiency>
-0.226466936066326

> <r_i_glide_ligand_efficiency_sa>
-0.747777346277855

> <r_i_glide_ligand_efficiency_ln>
-1.77872281272473

> <r_i_glide_gscore>
-8.15280969838774

> <r_i_glide_lipo>
-4.28938104721359

> <r_i_glide_hbond>
0

> <r_i_glide_metal>
0

> <r_i_glide_rewards>
-0.537033138580869

> <r_i_glide_evdw>
-54.175952911377

> <r_i_glide_ecoul>
-4.49774122238159

> <r_i_glide_erotb>
0.297662755552557

> <r_i_glide_esite>
-0.240599439219754

> <r_i_glide_emodel>
-82.6929809962735

> <r_i_glide_energy>
-58.6736941337585

> <r_i_glide_einternal>
5.78762292861938

> <i_i_glide_confnum>
79

> <i_i_glide_posenum>
180

> <r_i_glide_eff_state_penalty>
0

> <s_user_duplicate_titles>
CHEMBL2083_lig202

> <i_f3d_flags>
0

> <s_m_subgroup_title>
dock_pv

> <s_m_subgroupid>
dock_pv

> <b_m_subgroup_collapsed>
1

$$$$
CHEMBL2083_lig180
                    3D
 Schrodinger Suite 2021-1.
 62 66  0  0  1  0            999 V2000
    4.6359    8.0131   13.9667 C   0  0  0  0  0  0
    5.4639    6.9131   13.7420 C   0  0  0  0  0  0
    6.5662    6.6894   14.5595 C   0  0  0  0  0  0
    6.8486    7.5712   15.6046 C   0  0  0  0  0  0
    6.0175    8.6748   15.8135 C   0  0  0  0  0  0
    4.9062    8.9131   15.0010 C   0  0  0  0  0  0
    4.0218   10.0859   15.2448 C   0  0  0  0  0  0
    3.8135   11.0076   14.2153 C   0  0  0  0  0  0
    2.9767   12.1092   14.3902 C   0  0  0  0  0  0
    2.3226   12.3017   15.6037 C   0  0  0  0  0  0
    2.5106   11.3952   16.6450 C   0  0  0  0  0  0
    3.3687   10.3019   16.4782 C   0  0  0  0  0  0
    3.4975    9.3697   17.5243 N   0  0  0  0  0  0
    4.2859    9.3998   18.6608 C   0  0  0  0  0  0
    4.0781    8.1431   19.2592 C   0  0  0  0  0  0
    3.1496    7.4776   18.4121 C   0  0  0  0  0  0
    2.8150    8.2349   17.3969 N   0  0  0  0  0  0
    5.1792   10.5804   19.0635 C   0  0  0  0  0  0
    4.4693   11.9330   19.1948 C   0  0  0  0  0  0
    4.6858    7.6537   20.5411 C   0  0  0  0  0  0
    3.9215    6.9092   21.4500 C   0  0  0  0  0  0
    4.4582    6.5284   22.6736 C   0  0  0  0  0  0
    5.7584    6.9064   22.9981 C   0  0  0  0  0  0
    6.5465    7.6060   22.0922 C   0  0  0  0  0  0
    6.0085    7.9708   20.8650 C   0  0  0  0  0  0
    2.5388    6.1120   18.4951 C   0  0  0  0  0  0
    1.2123    5.9025   18.0865 C   0  0  0  0  0  0
    0.6489    4.6298   18.1425 C   0  0  0  0  0  0
    1.4078    3.5662   18.6243 C   0  0  0  0  0  0
    2.7245    3.7590   19.0246 C   0  0  0  0  0  0
    3.2927    5.0265   18.9487 C   0  0  0  0  0  0
    8.0067    7.2853   16.5503 C   0  0  1  0  0  0
    8.7198    8.4587   16.9422 O   0  0  0  0  0  0
    7.5128    6.5089   17.7921 C   0  0  0  0  0  0
    8.1281    6.9101   18.9413 O   0  0  0  0  0  0
    6.6709    5.6138   17.7385 O   0  0  0  0  0  0
    3.7741    8.1650   13.3341 H   0  0  0  0  0  0
    5.2616    6.2487   12.9169 H   0  0  0  0  0  0
    7.1870    5.8247   14.3811 H   0  0  0  0  0  0
    6.2355    9.3530   16.6221 H   0  0  0  0  0  0
    4.3187   10.8674   13.2718 H   0  0  0  0  0  0
    2.8308   12.8141   13.5846 H   0  0  0  0  0  0
    1.6691   13.1532   15.7354 H   0  0  0  0  0  0
    1.9871   11.5416   17.5780 H   0  0  0  0  0  0
    5.6307   10.4044   20.0365 H   0  0  0  0  0  0
    6.0171   10.6904   18.3755 H   0  0  0  0  0  0
    5.0966   12.6397   19.7413 H   0  0  0  0  0  0
    4.2827   12.3939   18.2268 H   0  0  0  0  0  0
    3.5248   11.8316   19.7294 H   0  0  0  0  0  0
    2.8990    6.6449   21.2237 H   0  0  0  0  0  0
    3.8639    5.9673   23.3792 H   0  0  0  0  0  0
    6.1623    6.6458   23.9634 H   0  0  0  0  0  0
    7.5620    7.8696   22.3451 H   0  0  0  0  0  0
    6.6270    8.5173   20.1724 H   0  0  0  0  0  0
    0.6137    6.7254   17.7231 H   0  0  0  0  0  0
   -0.3746    4.4700   17.8299 H   0  0  0  0  0  0
    0.9880    2.5755   18.6865 H   0  0  0  0  0  0
    3.3079    2.9235   19.3854 H   0  0  0  0  0  0
    4.3195    5.1643   19.2436 H   0  0  0  0  0  0
    8.7252    6.6341   16.0532 H   0  0  0  0  0  0
    9.6625    8.2667   16.9225 H   0  0  0  0  0  0
    8.6665    7.6814   18.7505 H   0  0  0  0  0  0
  1  6  1  0  0  0
  1  2  2  0  0  0
  1 37  1  0  0  0
  2  3  1  0  0  0
  2 38  1  0  0  0
  3  4  2  0  0  0
  3 39  1  0  0  0
  4  5  1  0  0  0
  4 32  1  0  0  0
  5  6  2  0  0  0
  5 40  1  0  0  0
  6  7  1  0  0  0
  7 12  1  0  0  0
  7  8  2  0  0  0
  8  9  1  0  0  0
  8 41  1  0  0  0
  9 10  2  0  0  0
  9 42  1  0  0  0
 10 11  1  0  0  0
 10 43  1  0  0  0
 11 12  2  0  0  0
 11 44  1  0  0  0
 12 13  1  0  0  0
 13 14  1  0  0  0
 13 17  1  0  0  0
 14 18  1  0  0  0
 14 15  2  0  0  0
 15 20  1  0  0  0
 15 16  1  0  0  0
 16 26  1  0  0  0
 16 17  2  0  0  0
 18 19  1  0  0  0
 18 45  1  0  0  0
 18 46  1  0  0  0
 19 47  1  0  0  0
 19 48  1  0  0  0
 19 49  1  0  0  0
 20 21  2  0  0  0
 20 25  1  0  0  0
 21 22  1  0  0  0
 21 50  1  0  0  0
 22 23  2  0  0  0
 22 51  1  0  0  0
 23 24  1  0  0  0
 23 52  1  0  0  0
 24 25  2  0  0  0
 24 53  1  0  0  0
 25 54  1  0  0  0
 26 27  2  0  0  0
 26 31  1  0  0  0
 27 28  1  0  0  0
 27 55  1  0  0  0
 28 29  2  0  0  0
 28 56  1  0  0  0
 29 30  1  0  0  0
 29 57  1  0  0  0
 30 31  2  0  0  0
 30 58  1  0  0  0
 31 59  1  0  0  0
 32 33  1  0  0  0
 32 34  1  0  0  0
 32 60  1  0  0  0
 33 61  1  0  0  0
 34 35  1  0  0  0
 34 36  2  0  0  0
 35 62  1  0  0  0
M  END
> <s_m_entry_id>
2483

> <s_m_entry_name>
dock_pv.11

> <s_m_Source_Path>
/home/csk/Desktop/cluster/DUD-E-result/fabp4

> <s_m_Source_File>
dock_pv.maegz

> <i_m_Source_File_Index>
11

> <chembl_id>
CHEMBL248120

> <chembl_pref_name>
None

> <i_lp_mmshare_version>
53161

> <r_lp_tautomer_probability>
1

> <s_lp_Force_Field>
OPLS_2005

> <r_lp_Energy>
37.265015

> <b_lp_Chiralities_Consistent>
1

> <s_lp_Variant>
CHEMBL2083_lig180-2

> <s_i_glide_gridfile>
glide-grid_2nnq

> <i_i_glide_lignum>
197

> <i_i_glide_rotatable_bonds>
9

> <r_i_docking_score>
-8.14574379887158

> <r_i_glide_ligand_efficiency>
-0.226270661079766

> <r_i_glide_ligand_efficiency_sa>
-0.74712926055223

> <r_i_glide_ligand_efficiency_ln>
-1.77718122434885

> <r_i_glide_gscore>
-8.14574379887158

> <r_i_glide_lipo>
-4.97096836455245

> <r_i_glide_hbond>
0

> <r_i_glide_metal>
0

> <r_i_glide_rewards>
-0.76360253782107

> <r_i_glide_evdw>
-50.1805038452148

> <r_i_glide_ecoul>
-2.94197106361389

> <r_i_glide_erotb>
0.539147955304769

> <r_i_glide_esite>
0

> <r_i_glide_emodel>
-76.8486538498866

> <r_i_glide_energy>
-53.1224749088287

> <r_i_glide_einternal>
6.78667306900024

> <i_i_glide_confnum>
79

> <i_i_glide_posenum>
306

> <r_i_glide_eff_state_penalty>
0

> <s_user_duplicate_titles>
CHEMBL2083_lig180,412738

> <i_f3d_flags>
0

> <s_m_subgroup_title>
dock_pv

> <s_m_subgroupid>
dock_pv

> <b_m_subgroup_collapsed>
1

$$$$
CHEMBL2083_lig156 
                    3D
 Schrodinger Suite 2021-1.
 50 53  0  0  1  0            999 V2000
    7.3621    5.6124   15.6464 O   0  0  0  0  0  0
    6.9822    6.9943   15.9621 S   0  0  0  0  0  0
    7.9524    8.0902   15.8929 O   0  0  0  0  0  0
    4.9099    6.3695   17.5985 C   0  0  0  0  0  0
    4.1252    6.3288   18.7442 C   0  0  0  0  0  0
    4.5894    6.9091   19.9274 C   0  0  0  0  0  0
    6.1681    6.9604   17.5733 C   0  0  0  0  0  0
    6.6994    7.5247   18.7751 C   0  0  0  0  0  0
    5.8803    7.5192   19.9563 C   0  0  0  0  0  0
    6.3933    8.0870   21.1519 C   0  0  0  0  0  0
    7.6862    8.5852   21.1986 C   0  0  0  0  0  0
    8.4833    8.5975   20.0652 C   0  0  0  0  0  0
    8.0110    8.0724   18.8720 C   0  0  0  0  0  0
    5.7008    7.4234   14.8197 N   0  0  0  0  0  0
    5.0480    8.6661   14.8062 C   0  0  0  0  0  0
    5.2005    9.6346   15.8158 C   0  0  0  0  0  0
    4.4744   10.8342   15.7815 C   0  0  0  0  0  0
    3.5715   11.0544   14.7326 C   0  0  0  0  0  0
    3.4193   10.0882   13.7377 C   0  0  0  0  0  0
    4.1605    8.9129   13.7597 C   0  0  0  0  0  0
    2.8310   12.1869   14.6703 F   0  0  0  0  0  0
    4.6362   11.8460   16.8816 C   0  0  0  0  0  0
    5.4177   12.9089   16.5420 O   0  0  0  0  0  0
    4.1143   11.7020   17.9850 O   0  0  0  0  0  0
    3.7911    6.8982   21.0505 O   0  0  0  0  0  0
    2.8335    5.6179   18.6571 C   0  0  0  0  0  0
    4.0832    5.8860   22.0098 C   0  0  0  0  0  0
    2.7303    4.3028   19.1190 C   0  0  0  0  0  0
    1.5904    3.5514   18.8616 C   0  0  0  0  0  0
    0.5412    4.1092   18.1418 C   0  0  0  0  0  0
    0.5975    5.4492   17.7410 C   0  0  0  0  0  0
    1.7456    6.1972   17.9977 C   0  0  0  0  0  0
   -0.4800    3.3114   17.7708 F   0  0  0  0  0  0
   -0.4255    6.0214   17.0652 F   0  0  0  0  0  0
    4.5218    5.9239   16.6929 H   0  0  0  0  0  0
    5.7917    8.0925   22.0499 H   0  0  0  0  0  0
    8.0950    8.9117   22.1401 H   0  0  0  0  0  0
    9.4971    8.9700   20.1268 H   0  0  0  0  0  0
    8.6961    8.0492   18.0433 H   0  0  0  0  0  0
    5.2868    6.6643   14.2991 H   0  0  0  0  0  0
    5.8769    9.4625   16.6402 H   0  0  0  0  0  0
    2.7196   10.2235   12.9313 H   0  0  0  0  0  0
    4.0167    8.1816   12.9775 H   0  0  0  0  0  0
    5.5175   13.5684   17.2589 H   0  0  0  0  0  0
    3.4906    6.0634   22.9077 H   0  0  0  0  0  0
    3.8165    4.8990   21.6392 H   0  0  0  0  0  0
    5.1326    5.8671   22.3075 H   0  0  0  0  0  0
    3.5603    3.8325   19.6207 H   0  0  0  0  0  0
    1.5405    2.5177   19.1647 H   0  0  0  0  0  0
    1.8074    7.2144   17.6377 H   0  0  0  0  0  0
  1  2  2  0  0  0
  2  3  2  0  0  0
  2  7  1  0  0  0
  2 14  1  0  0  0
  4  5  2  0  0  0
  4  7  1  0  0  0
  4 35  1  0  0  0
  5  6  1  0  0  0
  5 26  1  0  0  0
  6  9  2  0  0  0
  6 25  1  0  0  0
  7  8  2  0  0  0
  8  9  1  0  0  0
  8 13  1  0  0  0
  9 10  1  0  0  0
 10 11  2  0  0  0
 10 36  1  0  0  0
 11 12  1  0  0  0
 11 37  1  0  0  0
 12 13  2  0  0  0
 12 38  1  0  0  0
 13 39  1  0  0  0
 14 15  1  0  0  0
 14 40  1  0  0  0
 15 16  2  0  0  0
 15 20  1  0  0  0
 16 17  1  0  0  0
 16 41  1  0  0  0
 17 18  2  0  0  0
 17 22  1  0  0  0
 18 19  1  0  0  0
 18 21  1  0  0  0
 19 20  2  0  0  0
 19 42  1  0  0  0
 20 43  1  0  0  0
 22 23  1  0  0  0
 22 24  2  0  0  0
 23 44  1  0  0  0
 25 27  1  0  0  0
 26 28  2  0  0  0
 26 32  1  0  0  0
 27 45  1  0  0  0
 27 46  1  0  0  0
 27 47  1  0  0  0
 28 29  1  0  0  0
 28 48  1  0  0  0
 29 30  2  0  0  0
 29 49  1  0  0  0
 30 31  1  0  0  0
 30 33  1  0  0  0
 31 32  2  0  0  0
 31 34  1  0  0  0
 32 50  1  0  0  0
M  END
> <s_m_entry_id>
2484

> <s_m_entry_name>
dock_pv.12

> <s_m_Source_Path>
/home/csk/Desktop/cluster/DUD-E-result/fabp4

> <s_m_Source_File>
dock_pv.maegz

> <i_m_Source_File_Index>
12

> <chembl_id>
CHEMBL4435365

> <chembl_pref_name>
None

> <i_lp_mmshare_version>
53161

> <r_lp_tautomer_probability>
1

> <s_lp_Force_Field>
OPLS_2005

> <r_lp_Energy>
32.738474

> <b_lp_Chiralities_Consistent>
1

> <s_lp_Variant>
CHEMBL2083_lig156 -1

> <s_i_glide_gridfile>
glide-grid_2nnq

> <i_i_glide_lignum>
170

> <i_i_glide_rotatable_bonds>
7

> <r_i_docking_score>
-8.13985012120367

> <r_i_glide_ligand_efficiency>
-0.23940735650599

> <r_i_glide_ligand_efficiency_sa>
-0.775586896537785

> <r_i_glide_ligand_efficiency_ln>
-1.79832120683624

> <r_i_glide_gscore>
-8.13985012120367

> <r_i_glide_lipo>
-4.03349603161857

> <r_i_glide_hbond>
0

> <r_i_glide_metal>
0

> <r_i_glide_rewards>
-0.673417206533502

> <r_i_glide_evdw>
-43.0734481811523

> <r_i_glide_ecoul>
-10.5912599563599

> <r_i_glide_erotb>
0.427796419404901

> <r_i_glide_esite>
-0.118371899944901

> <r_i_glide_emodel>
-67.9246002004579

> <r_i_glide_energy>
-53.6647081375122

> <r_i_glide_einternal>
14.1823558807373

> <i_i_glide_confnum>
186

> <i_i_glide_posenum>
30

> <r_i_glide_eff_state_penalty>
0

> <s_user_duplicate_titles>
CHEMBL2083_lig156 

> <i_f3d_flags>
0

> <s_m_subgroup_title>
dock_pv

> <s_m_subgroupid>
dock_pv

> <b_m_subgroup_collapsed>
1

$$$$
CHEMBL2083_lig203
                    3D
 Schrodinger Suite 2021-1.
 49 52  0  0  1  0            999 V2000
    6.3994   10.9576   18.1976 C   0  0  0  0  0  0
    7.4506   10.9090   19.0283 N   0  0  0  0  0  0
    7.4527   10.1709   20.1420 C   0  0  0  0  0  0
    6.2398    9.3955   20.2089 C   0  0  0  0  0  0
    5.1206    9.9624   18.9658 S   0  0  0  0  0  0
    8.3900   10.1611   20.9420 O   0  0  0  0  0  0
    6.3015   11.5699   17.0847 N   0  0  0  0  0  0
    5.1082   11.5929   16.3559 C   0  0  0  0  0  0
    6.1040    8.3960   21.1093 C   0  0  0  0  0  0
    5.0098    7.4559   21.3222 C   0  0  0  0  0  0
    4.3203    6.7788   20.3134 N   0  0  0  0  0  0
    3.3802    5.9826   20.9409 C   0  0  0  0  0  0
    3.4800    6.1074   22.3095 C   0  0  0  0  0  0
    4.5148    7.0021   22.5393 C   0  0  0  0  0  0
    4.1393   12.5673   16.6025 C   0  0  0  0  0  0
    2.9505   12.6116   15.8821 C   0  0  0  0  0  0
    2.6797   11.6436   14.9176 C   0  0  0  0  0  0
    3.6114   10.6129   14.7036 C   0  0  0  0  0  0
    4.8099   10.5988   15.4212 C   0  0  0  0  0  0
    4.5499    6.7436   18.9133 C   0  0  0  0  0  0
    3.4608    6.7030   18.0361 C   0  0  0  0  0  0
    3.6512    6.5854   16.6524 C   0  0  0  0  0  0
    4.9592    6.5346   16.1477 C   0  0  0  0  0  0
    6.0505    6.5876   17.0138 C   0  0  0  0  0  0
    5.8487    6.6829   18.3894 C   0  0  0  0  0  0
    2.4513    6.5094   15.7459 C   0  0  0  0  0  0
    1.3036    6.5100   16.1847 O   0  0  0  0  0  0
    2.7200    6.4464   14.4117 O   0  0  0  0  0  0
    1.3780   11.7549   14.1378 C   0  0  0  0  0  0
    3.3281    9.4720   13.7524 C   0  0  0  0  0  0
    8.2519   11.4893   18.8299 H   0  0  0  0  0  0
    6.8988    8.2343   21.8255 H   0  0  0  0  0  0
    2.7325    5.3489   20.3531 H   0  0  0  0  0  0
    2.8914    5.5916   23.0557 H   0  0  0  0  0  0
    4.8707    7.3123   23.5113 H   0  0  0  0  0  0
    4.3205   13.3089   17.3614 H   0  0  0  0  0  0
    2.2393   13.4003   16.0813 H   0  0  0  0  0  0
    5.5204    9.8012   15.2661 H   0  0  0  0  0  0
    2.4570    6.7527   18.4380 H   0  0  0  0  0  0
    5.1440    6.4477   15.0859 H   0  0  0  0  0  0
    7.0555    6.5423   16.6207 H   0  0  0  0  0  0
    6.7102    6.6971   19.0414 H   0  0  0  0  0  0
    1.8750    6.5175   13.9451 H   0  0  0  0  0  0
    0.5572   11.3091   14.6951 H   0  0  0  0  0  0
    1.1274   12.8015   13.9736 H   0  0  0  0  0  0
    1.4397   11.3097   13.1462 H   0  0  0  0  0  0
    3.1207    9.8284   12.7446 H   0  0  0  0  0  0
    4.1485    8.7554   13.6936 H   0  0  0  0  0  0
    2.4508    8.9590   14.1401 H   0  0  0  0  0  0
  1  2  1  0  0  0
  1  5  1  0  0  0
  1  7  2  0  0  0
  2  3  1  0  0  0
  2 31  1  0  0  0
  3  4  1  0  0  0
  3  6  2  0  0  0
  4  5  1  0  0  0
  4  9  2  0  0  0
  7  8  1  0  0  0
  8 15  2  0  0  0
  8 19  1  0  0  0
  9 10  1  0  0  0
  9 32  1  0  0  0
 10 11  1  0  0  0
 10 14  2  0  0  0
 11 12  1  0  0  0
 11 20  1  0  0  0
 12 13  2  0  0  0
 12 33  1  0  0  0
 13 14  1  0  0  0
 13 34  1  0  0  0
 14 35  1  0  0  0
 15 16  1  0  0  0
 15 36  1  0  0  0
 16 17  2  0  0  0
 16 37  1  0  0  0
 17 18  1  0  0  0
 17 29  1  0  0  0
 18 19  2  0  0  0
 18 30  1  0  0  0
 19 38  1  0  0  0
 20 21  2  0  0  0
 20 25  1  0  0  0
 21 22  1  0  0  0
 21 39  1  0  0  0
 22 23  2  0  0  0
 22 26  1  0  0  0
 23 24  1  0  0  0
 23 40  1  0  0  0
 24 25  2  0  0  0
 24 41  1  0  0  0
 25 42  1  0  0  0
 26 27  2  0  0  0
 26 28  1  0  0  0
 28 43  1  0  0  0
 29 44  1  0  0  0
 29 45  1  0  0  0
 29 46  1  0  0  0
 30 47  1  0  0  0
 30 48  1  0  0  0
 30 49  1  0  0  0
M  END
> <s_m_entry_id>
2485

> <s_m_entry_name>
dock_pv.13

> <s_m_Source_Path>
/home/csk/Desktop/cluster/DUD-E-result/fabp4

> <s_m_Source_File>
dock_pv.maegz

> <i_m_Source_File_Index>
13

> <chembl_id>
CHEMBL3827401

> <chembl_pref_name>
None

> <i_lp_mmshare_version>
53161

> <r_lp_tautomer_probability>
1

> <s_lp_Force_Field>
OPLS_2005

> <r_lp_Energy>
22.243273

> <b_lp_Chiralities_Consistent>
1

> <s_lp_Variant>
CHEMBL2083_lig203-1

> <s_i_glide_gridfile>
glide-grid_2nnq

> <i_i_glide_lignum>
408

> <i_i_glide_rotatable_bonds>
5

> <r_i_docking_score>
-8.13284968389061

> <r_i_glide_ligand_efficiency>
-0.27109498946302

> <r_i_glide_ligand_efficiency_sa>
-0.84235516250571

> <r_i_glide_ligand_efficiency_ln>
-1.84787206267472

> <r_i_glide_gscore>
-8.13284968389061

> <r_i_glide_lipo>
-3.33098835258961

> <r_i_glide_hbond>
-0.399329641894608

> <r_i_glide_metal>
0

> <r_i_glide_rewards>
-0.906171890362632

> <r_i_glide_evdw>
-47.2075309753418

> <r_i_glide_ecoul>
-10.0095338821411

> <r_i_glide_erotb>
0.453622369945315

> <r_i_glide_esite>
-0.0881755379008137

> <r_i_glide_emodel>
-80.4601413086193

> <r_i_glide_energy>
-57.2170648574829

> <r_i_glide_einternal>
4.65439128875732

> <i_i_glide_confnum>
53

> <i_i_glide_posenum>
363

> <r_i_glide_eff_state_penalty>
0

> <s_user_duplicate_titles>
CHEMBL2083_lig203

> <i_f3d_flags>
0

> <s_m_subgroup_title>
dock_pv

> <s_m_subgroupid>
dock_pv

> <b_m_subgroup_collapsed>
1

$$$$
CHEMBL2083_lig134
                    3D
 Schrodinger Suite 2021-1.
 47 51  0  0  1  0            999 V2000
    4.1744    7.9967   19.2483 C   0  0  0  0  0  0
    4.0404    9.0378   18.3001 C   0  0  0  0  0  0
    2.9707    8.9685   17.3827 C   0  0  0  0  0  0
    3.3228    6.9467   19.3181 N   0  0  0  0  0  0
    2.2822    6.8766   18.4660 C   0  0  0  0  0  0
    2.0490    7.8800   17.4847 C   0  0  0  0  0  0
    0.9036    7.7468   16.6641 C   0  0  0  0  0  0
    0.0592    6.6510   16.7980 C   0  0  0  0  0  0
    0.3106    5.6641   17.7422 C   0  0  0  0  0  0
    1.4157    5.7660   18.5768 C   0  0  0  0  0  0
    5.1597    7.8891   20.2128 N   0  0  0  0  0  0
    2.8265    9.9687   16.2872 C   0  0  0  0  0  0
    3.1297    9.5855   14.9797 C   0  0  0  0  0  0
    3.0400   10.5013   13.9413 C   0  0  0  0  0  0
    2.6300   11.8048   14.2037 C   0  0  0  0  0  0
    2.3208   12.2019   15.5030 C   0  0  0  0  0  0
    2.4205   11.2827   16.5455 C   0  0  0  0  0  0
    4.9777   10.2094   18.1945 C   0  0  0  0  0  0
   -1.2876    6.5099   15.7420 Cl  0  0  0  0  0  0
    4.7933    7.8959   21.6437 C   0  0  0  0  0  0
    5.7757    7.0865   22.5123 C   0  0  0  0  0  0
    7.2240    7.5197   22.2754 C   0  0  0  0  0  0
    7.5200    7.5397   20.7636 C   0  0  0  0  0  0
    6.5140    8.3937   20.0013 C   0  0  0  0  0  0
    5.9667   10.2356   17.3145 N   0  0  0  0  0  0
    6.5052   11.5011   17.3993 N   0  0  0  0  0  0
    5.7742   12.1062   18.3366 N   0  0  3  0  0  0
    4.8167   11.3313   18.8726 N   0  0  0  0  0  0
    0.6882    8.5000   15.9218 H   0  0  0  0  0  0
   -0.3574    4.8173   17.8284 H   0  0  0  0  0  0
    1.6117    5.0041   19.3194 H   0  0  0  0  0  0
    3.4445    8.5750   14.7670 H   0  0  0  0  0  0
    3.2847   10.1847   12.9397 H   0  0  0  0  0  0
    2.5557   12.5097   13.3887 H   0  0  0  0  0  0
    2.0114   13.2185   15.6976 H   0  0  0  0  0  0
    2.1895   11.5932   17.5537 H   0  0  0  0  0  0
    4.7215    8.9265   21.9893 H   0  0  0  0  0  0
    3.8055    7.4555   21.7801 H   0  0  0  0  0  0
    5.5210    7.2240   23.5657 H   0  0  0  0  0  0
    5.6389    6.0192   22.3276 H   0  0  0  0  0  0
    7.9062    6.8464   22.7929 H   0  0  0  0  0  0
    7.3833    8.5086   22.6984 H   0  0  0  0  0  0
    7.5360    6.5193   20.3633 H   0  0  0  0  0  0
    8.4957    7.9723   20.5420 H   0  0  0  0  0  0
    6.7704    8.3200   18.9437 H   0  0  0  0  0  0
    6.5738    9.4427   20.2969 H   0  0  0  0  0  0
    5.8817   13.1035   18.5417 H   0  0  0  0  0  0
  1  2  2  0  0  0
  1  4  1  0  0  0
  1 11  1  0  0  0
  2  3  1  0  0  0
  2 18  1  0  0  0
  3  6  2  0  0  0
  3 12  1  0  0  0
  4  5  2  0  0  0
  5  6  1  0  0  0
  5 10  1  0  0  0
  6  7  1  0  0  0
  7  8  2  0  0  0
  7 29  1  0  0  0
  8  9  1  0  0  0
  8 19  1  0  0  0
  9 10  2  0  0  0
  9 30  1  0  0  0
 10 31  1  0  0  0
 11 20  1  0  0  0
 11 24  1  0  0  0
 12 13  2  0  0  0
 12 17  1  0  0  0
 13 14  1  0  0  0
 13 32  1  0  0  0
 14 15  2  0  0  0
 14 33  1  0  0  0
 15 16  1  0  0  0
 15 34  1  0  0  0
 16 17  2  0  0  0
 16 35  1  0  0  0
 17 36  1  0  0  0
 18 28  2  0  0  0
 18 25  1  0  0  0
 20 21  1  0  0  0
 20 37  1  0  0  0
 20 38  1  0  0  0
 21 22  1  0  0  0
 21 39  1  0  0  0
 21 40  1  0  0  0
 22 23  1  0  0  0
 22 41  1  0  0  0
 22 42  1  0  0  0
 23 24  1  0  0  0
 23 43  1  0  0  0
 23 44  1  0  0  0
 24 45  1  0  0  0
 24 46  1  0  0  0
 25 26  2  0  0  0
 26 27  1  0  0  0
 27 28  1  0  0  0
 27 47  1  0  0  0
M  END
> <s_m_entry_id>
2486

> <s_m_entry_name>
dock_pv.14

> <s_m_Source_Path>
/home/csk/Desktop/cluster/DUD-E-result/fabp4

> <s_m_Source_File>
dock_pv.maegz

> <i_m_Source_File_Index>
14

> <chembl_id>
CHEMBL3959018

> <chembl_pref_name>
None

> <i_lp_mmshare_version>
53161

> <r_lp_tautomer_probability>
0.2

> <s_lp_Force_Field>
OPLS_2005

> <r_lp_Energy>
39.262157

> <b_lp_Chiralities_Consistent>
1

> <s_lp_Variant>
CHEMBL2083_lig134-2

> <s_i_glide_gridfile>
glide-grid_2nnq

> <i_i_glide_lignum>
148

> <i_i_glide_rotatable_bonds>
3

> <r_i_docking_score>
-8.11249080045107

> <r_i_glide_ligand_efficiency>
-0.289731814301824

> <r_i_glide_ligand_efficiency_sa>
-0.879796431133226

> <r_i_glide_ligand_efficiency_ln>
-1.87260106982415

> <r_i_glide_gscore>
-8.11249080045107

> <r_i_glide_lipo>
-4.02943370133512

> <r_i_glide_hbond>
-0.16

> <r_i_glide_metal>
0

> <r_i_glide_rewards>
-1.06875443547376

> <r_i_glide_evdw>
-39.2471504211426

> <r_i_glide_ecoul>
-7.21127796173096

> <r_i_glide_erotb>
0.383081856380051

> <r_i_glide_esite>
-0.193335304705466

> <r_i_glide_emodel>
-70.5528399123114

> <r_i_glide_energy>
-46.4584283828735

> <r_i_glide_einternal>
0.725515484809875

> <i_i_glide_confnum>
19

> <i_i_glide_posenum>
390

> <r_i_glide_eff_state_penalty>
0

> <s_user_duplicate_titles>
CHEMBL2083_lig134,CHEMBL2083_lig134

> <i_f3d_flags>
0

> <s_m_subgroup_title>
dock_pv

> <s_m_subgroupid>
dock_pv

> <b_m_subgroup_collapsed>
1

$$$$
CHEMBL2083_lig97
                    3D
 Schrodinger Suite 2021-1.
 56 61  0  0  1  0            999 V2000
    3.5325    5.7093   21.4162 C   0  0  0  0  0  0
    3.1436    6.1925   20.0313 C   0  0  0  0  0  0
    2.2535    5.5073   19.1960 C   0  0  0  0  0  0
    2.0739    6.2930   17.6599 S   0  0  0  0  0  0
    3.1179    7.5625   18.1551 C   0  0  0  0  0  0
    3.3195    8.6611   17.3536 N   0  0  0  0  0  0
    2.3186    9.4048   16.8536 C   0  0  0  0  0  0
    1.1188    9.1307   16.8957 O   0  0  0  0  0  0
    2.7918   10.5860   16.1936 C   0  0  0  0  0  0
    3.2354   11.7455   16.7770 C   0  0  0  0  0  0
    3.5663   12.8483   15.7457 C   0  0  2  0  0  0
    2.2430   13.0449   14.9316 C   0  0  0  0  0  0
    1.8074   11.7122   14.2476 C   0  0  0  0  0  0
    2.7737   10.5709   14.6585 C   0  0  1  0  0  0
    4.2301   10.8998   14.2234 C   0  0  0  0  0  0
    4.6771   12.2720   14.8170 C   0  0  0  0  0  0
    3.3291   12.0087   18.2087 C   0  0  0  0  0  0
    3.5391   11.1467   19.0584 O   0  0  0  0  0  0
    3.1200   13.3133   18.5394 O   0  0  0  0  0  0
    3.7101    7.3086   19.3830 C   0  0  0  0  0  0
    4.7358    8.1704   19.9280 C   0  0  0  0  0  0
    4.6247    8.6280   21.1980 O   0  0  0  0  0  0
    5.6839    9.5178   21.3412 N   0  0  0  0  0  0
    6.2832    9.4597   20.1766 C   0  0  0  0  0  0
    5.7557    8.6555   19.2805 N   0  0  0  0  0  0
    7.5431   10.2431   19.9027 C   0  0  0  0  0  0
    8.7204    9.4994   19.3416 C   0  0  0  0  0  0
    8.0105   10.5438   18.4972 C   0  0  0  0  0  0
    1.5199    4.2216   19.4591 C   0  0  0  0  0  0
    0.4276    3.7091   18.5421 C   0  0  0  0  0  0
    1.8123    3.0866   18.5419 C   0  0  0  0  0  0
    4.5402    6.0102   21.7027 H   0  0  0  0  0  0
    2.8460    6.0744   22.1805 H   0  0  0  0  0  0
    3.5314    4.6219   21.4780 H   0  0  0  0  0  0
    4.2490    9.0518   17.3313 H   0  0  0  0  0  0
    3.9201   13.7804   16.1857 H   0  0  0  0  0  0
    2.3200   13.8178   14.1748 H   0  0  0  0  0  0
    1.4547   13.3880   15.6030 H   0  0  0  0  0  0
    0.7804   11.4649   14.5213 H   0  0  0  0  0  0
    1.8072   11.8223   13.1627 H   0  0  0  0  0  0
    2.4525    9.6163   14.2369 H   0  0  0  0  0  0
    4.3206   10.8930   13.1415 H   0  0  0  0  0  0
    4.9004   10.1126   14.5711 H   0  0  0  0  0  0
    4.8841   12.9716   14.0070 H   0  0  0  0  0  0
    5.6126   12.1666   15.3687 H   0  0  0  0  0  0
    3.2377   13.9134   17.8019 H   0  0  0  0  0  0
    7.7618   11.0039   20.6506 H   0  0  0  0  0  0
    9.7064    9.7098   19.7556 H   0  0  0  0  0  0
    8.6104    8.4453   19.0805 H   0  0  0  0  0  0
    7.3880   10.2281   17.6605 H   0  0  0  0  0  0
    8.4944   11.5041   18.3122 H   0  0  0  0  0  0
    1.3650    4.0073   20.5156 H   0  0  0  0  0  0
   -0.4138    3.2188   19.0273 H   0  0  0  0  0  0
    0.1016    4.2927   17.6812 H   0  0  0  0  0  0
    2.5200    3.2880   17.7424 H   0  0  0  0  0  0
    1.9632    2.1056   18.9420 H   0  0  0  0  0  0
  1  2  1  0  0  0
  1 32  1  0  0  0
  1 33  1  0  0  0
  1 34  1  0  0  0
  2  3  2  0  0  0
  2 20  1  0  0  0
  3  4  1  0  0  0
  3 29  1  0  0  0
  4  5  1  0  0  0
  5  6  1  0  0  0
  5 20  2  0  0  0
  6  7  1  0  0  0
  6 35  1  0  0  0
  7  8  2  0  0  0
  7  9  1  0  0  0
  9 10  2  0  0  0
  9 14  1  0  0  0
 10 11  1  0  0  0
 10 17  1  0  0  0
 11 12  1  0  0  0
 11 16  1  0  0  0
 11 36  1  0  0  0
 12 13  1  0  0  0
 12 37  1  0  0  0
 12 38  1  0  0  0
 13 14  1  0  0  0
 13 39  1  0  0  0
 13 40  1  0  0  0
 14 15  1  0  0  0
 14 41  1  0  0  0
 15 16  1  0  0  0
 15 42  1  0  0  0
 15 43  1  0  0  0
 16 44  1  0  0  0
 16 45  1  0  0  0
 17 18  2  0  0  0
 17 19  1  0  0  0
 19 46  1  0  0  0
 20 21  1  0  0  0
 21 22  1  0  0  0
 21 25  2  0  0  0
 22 23  1  0  0  0
 23 24  2  0  0  0
 24 25  1  0  0  0
 24 26  1  0  0  0
 26 27  1  0  0  0
 26 28  1  0  0  0
 26 47  1  0  0  0
 27 28  1  0  0  0
 27 48  1  0  0  0
 27 49  1  0  0  0
 28 50  1  0  0  0
 28 51  1  0  0  0
 29 30  1  0  0  0
 29 31  1  0  0  0
 29 52  1  0  0  0
 30 31  1  0  0  0
 30 53  1  0  0  0
 30 54  1  0  0  0
 31 55  1  0  0  0
 31 56  1  0  0  0
M  END
> <s_m_entry_id>
2487

> <s_m_entry_name>
dock_pv.15

> <s_m_Source_Path>
/home/csk/Desktop/cluster/DUD-E-result/fabp4

> <s_m_Source_File>
dock_pv.maegz

> <i_m_Source_File_Index>
15

> <chembl_id>
CHEMBL3890665

> <chembl_pref_name>
None

> <i_lp_mmshare_version>
53161

> <r_lp_tautomer_probability>
1

> <s_lp_Force_Field>
OPLS_2005

> <r_lp_Energy>
50.609579

> <b_lp_Chiralities_Consistent>
1

> <s_lp_Variant>
CHEMBL2083_lig97-1

> <s_i_glide_gridfile>
glide-grid_2nnq

> <i_i_glide_lignum>
107

> <i_i_glide_rotatable_bonds>
8

> <r_i_docking_score>
-8.08897768665288

> <r_i_glide_ligand_efficiency>
-0.260934764085577

> <r_i_glide_ligand_efficiency_sa>
-0.819695418496469

> <r_i_glide_ligand_efficiency_ln>
-1.82431236573497

> <r_i_glide_gscore>
-8.08897768665288

> <r_i_glide_lipo>
-4.09361981799852

> <r_i_glide_hbond>
-0.32

> <r_i_glide_metal>
0

> <r_i_glide_rewards>
-0.966891506916866

> <r_i_glide_evdw>
-50.0918502807617

> <r_i_glide_ecoul>
-5.91773366928101

> <r_i_glide_erotb>
0.723207716430483

> <r_i_glide_esite>
-0.0394215137377375

> <r_i_glide_emodel>
-69.4005129939447

> <r_i_glide_energy>
-56.0095839500427

> <r_i_glide_einternal>
7.36421680450439

> <i_i_glide_confnum>
58

> <i_i_glide_posenum>
90

> <r_i_glide_eff_state_penalty>
0

> <s_user_duplicate_titles>
CHEMBL2083_lig97

> <i_f3d_flags>
0

> <s_m_subgroup_title>
dock_pv

> <s_m_subgroupid>
dock_pv

> <b_m_subgroup_collapsed>
1

$$$$
CHEMBL2083_lig202
                    3D
 Schrodinger Suite 2021-1.
 56 60  0  0  1  0            999 V2000
    2.9230    7.4964   18.3356 C   0  0  1  0  0  0
    3.9731    7.8166   19.3197 N   0  0  0  0  0  0
    5.7953    7.2398   17.7765 C   0  0  0  0  0  0
    5.3605    7.6758   19.0627 C   0  0  0  0  0  0
    6.3027    7.9572   20.0861 C   0  0  0  0  0  0
    7.6636    7.8600   19.7808 C   0  0  0  0  0  0
    8.0845    7.4229   18.5403 C   0  0  0  0  0  0
    7.1658    7.0795   17.5664 C   0  0  0  0  0  0
    3.5186    7.7716   16.9324 C   0  0  1  0  0  0
    4.7549    6.9106   16.6952 C   0  0  1  0  0  0
    4.9820    6.9087   15.1478 C   0  0  1  0  0  0
    3.7305    7.6001   14.5163 C   0  0  1  0  0  0
    2.6876    7.6245   15.6541 C   0  0  0  0  0  0
    3.9930    9.2532   13.7421 S   0  0  0  0  0  0
    4.0693   10.5520   14.9532 C   0  0  0  0  0  0
    6.5228    7.6208   14.5594 Cl  0  0  0  0  0  0
    5.9555    8.3009   21.5217 C   0  0  0  0  0  0
    6.7467    8.0948   22.4398 O   0  0  0  0  0  0
    4.7595    8.9107   21.7420 O   0  0  0  0  0  0
    2.2660    6.1076   18.4949 C   0  0  0  0  0  0
    3.0136    5.0707   19.0815 C   0  0  0  0  0  0
    2.4981    3.7867   19.2079 C   0  0  0  0  0  0
    1.2301    3.5073   18.7240 C   0  0  0  0  0  0
    0.4678    4.5123   18.1419 C   0  0  0  0  0  0
    0.9480    5.8267   18.0511 C   0  0  0  0  0  0
    3.0326   11.4966   15.0928 C   0  0  0  0  0  0
    3.1275   12.4691   16.0966 C   0  0  0  0  0  0
    4.2264   12.5094   16.9445 C   0  0  0  0  0  0
    5.2593   11.5919   16.7952 C   0  0  0  0  0  0
    5.1793   10.6221   15.8001 C   0  0  0  0  0  0
    1.8304   11.4965   14.2417 N   0  3  0  0  0  0
    0.7686   11.7089   14.7958 O   0  0  0  0  0  0
    1.9198   11.3079   13.0392 O   0  5  0  0  0  0
    0.0312    6.8536   17.5032 N   0  3  0  0  0  0
   -0.0758    7.9299   18.0778 O   0  0  0  0  0  0
   -0.6319    6.5554   16.5167 O   0  5  0  0  0  0
    2.1553    8.2372   18.5256 H   0  0  0  0  0  0
    3.6591    8.1008   20.2378 H   0  0  0  0  0  0
    8.4223    8.1052   20.5126 H   0  0  0  0  0  0
    9.1333    7.3281   18.3391 H   0  0  0  0  0  0
    7.5526    6.6752   16.6458 H   0  0  0  0  0  0
    3.8188    8.8162   16.9645 H   0  0  0  0  0  0
    4.4947    5.8771   16.9289 H   0  0  0  0  0  0
    4.9600    5.8621   14.8402 H   0  0  0  0  0  0
    3.3810    6.9491   13.7127 H   0  0  0  0  0  0
    2.1144    6.6971   15.6545 H   0  0  0  0  0  0
    1.9837    8.4525   15.5518 H   0  0  0  0  0  0
    4.7198    9.1815   22.6794 H   0  0  0  0  0  0
    4.0144    5.2496   19.4435 H   0  0  0  0  0  0
    3.0804    3.0049   19.6732 H   0  0  0  0  0  0
    0.8379    2.5094   18.8128 H   0  0  0  0  0  0
   -0.5208    4.2681   17.7853 H   0  0  0  0  0  0
    2.3433   13.2028   16.2240 H   0  0  0  0  0  0
    4.2806   13.2638   17.7150 H   0  0  0  0  0  0
    6.1138   11.6329   17.4554 H   0  0  0  0  0  0
    5.9760    9.9044   15.7210 H   0  0  0  0  0  0
  1  9  1  0  0  0
  1  2  1  0  0  0
  1 20  1  0  0  0
  1 37  1  0  0  0
  2  4  1  0  0  0
  2 38  1  0  0  0
  3 10  1  0  0  0
  3  4  2  0  0  0
  3  8  1  0  0  0
  4  5  1  0  0  0
  5  6  2  0  0  0
  5 17  1  0  0  0
  6  7  1  0  0  0
  6 39  1  0  0  0
  7  8  2  0  0  0
  7 40  1  0  0  0
  8 41  1  0  0  0
  9 10  1  0  0  0
  9 13  1  0  0  0
  9 42  1  0  0  0
 10 11  1  0  0  0
 10 43  1  0  0  0
 11 12  1  0  0  0
 11 16  1  0  0  0
 11 44  1  0  0  0
 12 13  1  0  0  0
 12 14  1  0  0  0
 12 45  1  0  0  0
 13 46  1  0  0  0
 13 47  1  0  0  0
 14 15  1  0  0  0
 15 26  2  0  0  0
 15 30  1  0  0  0
 17 18  2  0  0  0
 17 19  1  0  0  0
 19 48  1  0  0  0
 20 21  2  0  0  0
 20 25  1  0  0  0
 21 22  1  0  0  0
 21 49  1  0  0  0
 22 23  2  0  0  0
 22 50  1  0  0  0
 23 24  1  0  0  0
 23 51  1  0  0  0
 24 25  2  0  0  0
 24 52  1  0  0  0
 25 34  1  0  0  0
 26 27  1  0  0  0
 26 31  1  0  0  0
 27 28  2  0  0  0
 27 53  1  0  0  0
 28 29  1  0  0  0
 28 54  1  0  0  0
 29 30  2  0  0  0
 29 55  1  0  0  0
 30 56  1  0  0  0
 31 32  2  0  0  0
 31 33  1  0  0  0
 34 35  2  0  0  0
 34 36  1  0  0  0
M  CHG  4  31   1  33  -1  34   1  36  -1
M  END
> <s_m_entry_id>
2488

> <s_m_entry_name>
dock_pv.16

> <s_m_Source_Path>
/home/csk/Desktop/cluster/DUD-E-result/fabp4

> <s_m_Source_File>
dock_pv.maegz

> <i_m_Source_File_Index>
16

> <chembl_id>
CHEMBL3827527

> <chembl_pref_name>
None

> <i_lp_mmshare_version>
53161

> <r_lp_tautomer_probability>
1

> <s_lp_Force_Field>
OPLS_2005

> <r_lp_Energy>
65.014453

> <b_lp_Chiralities_Consistent>
1

> <s_lp_Variant>
CHEMBL2083_lig202-31

> <s_i_glide_gridfile>
glide-grid_2nnq

> <i_i_glide_lignum>
406

> <i_i_glide_rotatable_bonds>
7

> <r_i_docking_score>
-8.05544833010273

> <r_i_glide_ligand_efficiency>
-0.223762453613965

> <r_i_glide_ligand_efficiency_sa>
-0.738847341984913

> <r_i_glide_ligand_efficiency_ln>
-1.75748119256514

> <r_i_glide_gscore>
-8.05544833010273

> <r_i_glide_lipo>
-3.80561415217884

> <r_i_glide_hbond>
0

> <r_i_glide_metal>
0

> <r_i_glide_rewards>
-0.9853745070726

> <r_i_glide_evdw>
-46.9181632995605

> <r_i_glide_ecoul>
-8.07785606384277

> <r_i_glide_erotb>
0.297662755552557

> <r_i_glide_esite>
-0.00453585184940949

> <r_i_glide_emodel>
-63.2040340063384

> <r_i_glide_energy>
-54.9960193634033

> <r_i_glide_einternal>
17.4731616973877

> <i_i_glide_confnum>
13

> <i_i_glide_posenum>
307

> <r_i_glide_eff_state_penalty>
0

> <s_user_duplicate_titles>
CHEMBL2083_lig202

> <i_f3d_flags>
0

> <s_m_subgroup_title>
dock_pv

> <s_m_subgroupid>
dock_pv

> <b_m_subgroup_collapsed>
1

$$$$
CHEMBL2083_lig202
                    3D
 Schrodinger Suite 2021-1.
 56 60  0  0  1  0            999 V2000
    3.0860    9.0341   17.1980 C   0  0  1  0  0  0
    2.1449    7.9739   16.8566 N   0  0  0  0  0  0
    3.3986    6.3208   18.1286 C   0  0  0  0  0  0
    2.1726    6.7763   17.5916 C   0  0  0  0  0  0
    0.9681    6.0939   17.8858 C   0  0  0  0  0  0
    1.0391    4.8573   18.5416 C   0  0  0  0  0  0
    2.2463    4.3661   19.0120 C   0  0  0  0  0  0
    3.4014    5.1147   18.8402 C   0  0  0  0  0  0
    4.5406    8.4869   17.2830 C   0  0  1  0  0  0
    4.7160    7.0923   17.9403 C   0  0  2  0  0  0
    5.8612    6.3770   17.1543 C   0  0  2  0  0  0
    6.4877    7.4139   16.1945 C   0  0  1  0  0  0
    5.3565    8.4318   15.9753 C   0  0  0  0  0  0
    8.0588    8.1118   16.8418 S   0  0  0  0  0  0
    7.7859    8.6368   18.5082 C   0  0  0  0  0  0
    5.1987    5.0679   16.1310 Cl  0  0  0  0  0  0
   -0.4024    6.7016   17.6915 C   0  0  0  0  0  0
   -1.2800    6.5768   18.5388 O   0  0  0  0  0  0
   -0.6150    7.3947   16.5419 O   0  0  0  0  0  0
    2.9673   10.2929   16.3136 C   0  0  0  0  0  0
    2.7198   10.0930   14.9454 C   0  0  0  0  0  0
    2.5345   11.1571   14.0726 C   0  0  0  0  0  0
    2.6255   12.4563   14.5419 C   0  0  0  0  0  0
    2.9063   12.6830   15.8811 C   0  0  0  0  0  0
    3.0767   11.6271   16.7948 C   0  0  0  0  0  0
    7.3163    9.9264   18.8214 C   0  0  0  0  0  0
    6.8037   10.1578   20.1051 C   0  0  0  0  0  0
    6.8332    9.1514   21.0696 C   0  0  0  0  0  0
    7.4503    7.9345   20.7906 C   0  0  0  0  0  0
    7.9224    7.6807   19.5094 C   0  0  0  0  0  0
    7.3328   11.0249   17.8387 N   0  3  0  0  0  0
    8.3629   11.2165   17.2026 O   0  0  0  0  0  0
    6.3254   11.7094   17.7235 O   0  5  0  0  0  0
    3.3440   11.9951   18.2127 N   0  3  0  0  0  0
    3.7619   11.1664   19.0132 O   0  0  0  0  0  0
    3.1195   13.1531   18.5419 O   0  5  0  0  0  0
    2.7514    9.3076   18.1953 H   0  0  0  0  0  0
    1.2516    8.3038   16.5191 H   0  0  0  0  0  0
    0.1439    4.2901   18.7545 H   0  0  0  0  0  0
    2.2793    3.4294   19.5514 H   0  0  0  0  0  0
    4.3207    4.7324   19.2533 H   0  0  0  0  0  0
    5.0434    9.2090   17.9179 H   0  0  0  0  0  0
    5.0608    7.2820   18.9594 H   0  0  0  0  0  0
    6.5977    5.9528   17.8351 H   0  0  0  0  0  0
    6.7463    6.9238   15.2538 H   0  0  0  0  0  0
    4.7201    8.1027   15.1538 H   0  0  0  0  0  0
    5.7438    9.4223   15.7319 H   0  0  0  0  0  0
   -1.5246    7.7082   16.5569 H   0  0  0  0  0  0
    2.6378    9.0925   14.5465 H   0  0  0  0  0  0
    2.3178   10.9731   13.0312 H   0  0  0  0  0  0
    2.4872   13.2871   13.8667 H   0  0  0  0  0  0
    2.9939   13.7089   16.2065 H   0  0  0  0  0  0
    6.3790   11.1223   20.3495 H   0  0  0  0  0  0
    6.4013    9.3114   22.0469 H   0  0  0  0  0  0
    7.5181    7.1721   21.5532 H   0  0  0  0  0  0
    8.3418    6.7159   19.2715 H   0  0  0  0  0  0
  1  9  1  0  0  0
  1  2  1  0  0  0
  1 20  1  0  0  0
  1 37  1  0  0  0
  2  4  1  0  0  0
  2 38  1  0  0  0
  3 10  1  0  0  0
  3  4  2  0  0  0
  3  8  1  0  0  0
  4  5  1  0  0  0
  5  6  2  0  0  0
  5 17  1  0  0  0
  6  7  1  0  0  0
  6 39  1  0  0  0
  7  8  2  0  0  0
  7 40  1  0  0  0
  8 41  1  0  0  0
  9 10  1  0  0  0
  9 13  1  0  0  0
  9 42  1  0  0  0
 10 11  1  0  0  0
 10 43  1  0  0  0
 11 12  1  0  0  0
 11 16  1  0  0  0
 11 44  1  0  0  0
 12 13  1  0  0  0
 12 14  1  0  0  0
 12 45  1  0  0  0
 13 46  1  0  0  0
 13 47  1  0  0  0
 14 15  1  0  0  0
 15 26  2  0  0  0
 15 30  1  0  0  0
 17 18  2  0  0  0
 17 19  1  0  0  0
 19 48  1  0  0  0
 20 21  2  0  0  0
 20 25  1  0  0  0
 21 22  1  0  0  0
 21 49  1  0  0  0
 22 23  2  0  0  0
 22 50  1  0  0  0
 23 24  1  0  0  0
 23 51  1  0  0  0
 24 25  2  0  0  0
 24 52  1  0  0  0
 25 34  1  0  0  0
 26 27  1  0  0  0
 26 31  1  0  0  0
 27 28  2  0  0  0
 27 53  1  0  0  0
 28 29  1  0  0  0
 28 54  1  0  0  0
 29 30  2  0  0  0
 29 55  1  0  0  0
 30 56  1  0  0  0
 31 32  2  0  0  0
 31 33  1  0  0  0
 34 35  2  0  0  0
 34 36  1  0  0  0
M  CHG  4  31   1  33  -1  34   1  36  -1
M  END
> <s_m_entry_id>
2489

> <s_m_entry_name>
dock_pv.17

> <s_m_Source_Path>
/home/csk/Desktop/cluster/DUD-E-result/fabp4

> <s_m_Source_File>
dock_pv.maegz

> <i_m_Source_File_Index>
17

> <chembl_id>
CHEMBL3827527

> <chembl_pref_name>
None

> <i_lp_mmshare_version>
53161

> <r_lp_tautomer_probability>
1

> <s_lp_Force_Field>
OPLS_2005

> <r_lp_Energy>
58.844209

> <b_lp_Chiralities_Consistent>
1

> <s_lp_Variant>
CHEMBL2083_lig202-19

> <s_i_glide_gridfile>
glide-grid_2nnq

> <i_i_glide_lignum>
394

> <i_i_glide_rotatable_bonds>
7

> <r_i_docking_score>
-8.03986572791518

> <r_i_glide_ligand_efficiency>
-0.223329603553199

> <r_i_glide_ligand_efficiency_sa>
-0.737418102576293

> <r_i_glide_ligand_efficiency_ln>
-1.75408148976107

> <r_i_glide_gscore>
-8.03986572791518

> <r_i_glide_lipo>
-4.21095629313269

> <r_i_glide_hbond>
-0.00452087377275989

> <r_i_glide_metal>
0

> <r_i_glide_rewards>
-0.560519683849632

> <r_i_glide_evdw>
-54.5472755432129

> <r_i_glide_ecoul>
-2.84324789047241

> <r_i_glide_erotb>
0.297662755552557

> <r_i_glide_esite>
-0.407680671981145

> <r_i_glide_emodel>
-78.3143731010065

> <r_i_glide_energy>
-57.3905234336853

> <r_i_glide_einternal>
10.4061698913574

> <i_i_glide_confnum>
50

> <i_i_glide_posenum>
307

> <r_i_glide_eff_state_penalty>
0

> <s_user_duplicate_titles>
CHEMBL2083_lig202

> <i_f3d_flags>
0

> <s_m_subgroup_title>
dock_pv

> <s_m_subgroupid>
dock_pv

> <b_m_subgroup_collapsed>
1

$$$$
CHEMBL2083_lig190
                    3D
 Schrodinger Suite 2021-1.
 59 63  0  0  1  0            999 V2000
    1.9527    5.6258   19.3268 C   0  0  0  0  0  0
    1.7668    4.3041   19.7368 C   0  0  0  0  0  0
    0.7905    3.5027   19.1682 C   0  0  0  0  0  0
   -0.0490    3.9941   18.1775 C   0  0  0  0  0  0
    0.1178    5.3014   17.7420 C   0  0  0  0  0  0
    1.1361    6.1001   18.2637 C   0  0  0  0  0  0
    3.0335    6.3833   20.0407 C   0  0  0  0  0  0
    3.1264    6.3011   21.4412 C   0  0  0  0  0  0
    4.1704    6.9085   22.1371 C   0  0  0  0  0  0
    5.1595    7.5970   21.4414 C   0  0  0  0  0  0
    5.1028    7.6867   20.0447 C   0  0  0  0  0  0
    4.0289    7.1036   19.3725 C   0  0  0  0  0  0
    6.0621    8.2858   19.2543 O   0  0  0  0  0  0
    7.3905    8.4970   19.7496 C   0  0  2  0  0  0
    7.5049    9.8579   20.4761 C   0  0  0  0  0  0
    8.7206   10.0189   21.0826 O   0  0  0  0  0  0
    6.5937   10.6799   20.5422 O   0  0  0  0  0  0
    1.4529    7.2698   17.4248 C   0  0  0  0  0  0
    2.3126    7.0162   16.4929 N   0  0  0  0  0  0
    2.7932    8.1943   16.1165 N   0  0  0  0  0  0
    2.0274    9.2428   16.5921 C   0  0  0  0  0  0
    1.0475    8.6079   17.3508 C   0  0  0  0  0  0
    4.0177    8.1638   15.4300 C   0  0  0  0  0  0
    4.2946    9.1200   14.4573 C   0  0  0  0  0  0
    5.4696    9.0167   13.7420 C   0  0  0  0  0  0
    6.3204    7.9401   13.9616 C   0  0  0  0  0  0
    6.0902    7.0142   14.9593 C   0  0  0  0  0  0
    4.9381    7.1340   15.7058 C   0  0  0  0  0  0
    2.3390   10.6503   16.4112 C   0  0  0  0  0  0
    3.4297   11.4269   17.5229 S   0  0  0  0  0  0
    3.3394   12.9090   16.6305 C   0  0  0  0  0  0
    2.4850   12.8110   15.5422 C   0  0  0  0  0  0
    1.9200   11.5380   15.4201 C   0  0  0  0  0  0
    7.6555    7.7090   12.9409 Cl  0  0  0  0  0  0
    8.3204    8.3799   18.5196 C   0  0  0  0  0  0
    8.0357    9.3721   17.3769 C   0  0  0  0  0  0
    2.3958    3.8869   20.5108 H   0  0  0  0  0  0
    0.6929    2.5090   19.5421 H   0  0  0  0  0  0
   -0.8178    3.3672   17.7482 H   0  0  0  0  0  0
   -0.4936    5.6649   16.9300 H   0  0  0  0  0  0
    2.3881    5.7470   22.0032 H   0  0  0  0  0  0
    4.2230    6.8334   23.2132 H   0  0  0  0  0  0
    5.9605    8.0522   22.0025 H   0  0  0  0  0  0
    4.0238    7.1747   18.3049 H   0  0  0  0  0  0
    7.6791    7.7003   20.4384 H   0  0  0  0  0  0
    9.3473    9.3095   20.9106 H   0  0  0  0  0  0
    0.2815    9.0861   17.9427 H   0  0  0  0  0  0
    3.6019    9.9082   14.2108 H   0  0  0  0  0  0
    5.6701    9.7224   12.9483 H   0  0  0  0  0  0
    6.7701    6.1913   15.1248 H   0  0  0  0  0  0
    4.7499    6.3790   16.4538 H   0  0  0  0  0  0
    3.9171   13.7666   16.9489 H   0  0  0  0  0  0
    2.2845   13.6245   14.8594 H   0  0  0  0  0  0
    1.2354   11.2756   14.6272 H   0  0  0  0  0  0
    8.2366    7.3674   18.1216 H   0  0  0  0  0  0
    9.3615    8.4738   18.8317 H   0  0  0  0  0  0
    8.7155    9.1958   16.5421 H   0  0  0  0  0  0
    8.1705   10.4057   17.6981 H   0  0  0  0  0  0
    7.0162    9.2690   17.0021 H   0  0  0  0  0  0
  1  7  1  0  0  0
  1  6  1  0  0  0
  1  2  2  0  0  0
  2  3  1  0  0  0
  2 37  1  0  0  0
  3  4  2  0  0  0
  3 38  1  0  0  0
  4  5  1  0  0  0
  4 39  1  0  0  0
  5  6  2  0  0  0
  5 40  1  0  0  0
  6 18  1  0  0  0
  7 12  1  0  0  0
  7  8  2  0  0  0
  8  9  1  0  0  0
  8 41  1  0  0  0
  9 10  2  0  0  0
  9 42  1  0  0  0
 10 11  1  0  0  0
 10 43  1  0  0  0
 11 12  2  0  0  0
 11 13  1  0  0  0
 12 44  1  0  0  0
 13 14  1  0  0  0
 14 15  1  0  0  0
 14 35  1  0  0  0
 14 45  1  0  0  0
 15 16  1  0  0  0
 15 17  2  0  0  0
 16 46  1  0  0  0
 18 19  2  0  0  0
 18 22  1  0  0  0
 19 20  1  0  0  0
 20 21  1  0  0  0
 20 23  1  0  0  0
 21 22  2  0  0  0
 21 29  1  0  0  0
 22 47  1  0  0  0
 23 24  2  0  0  0
 23 28  1  0  0  0
 24 25  1  0  0  0
 24 48  1  0  0  0
 25 26  2  0  0  0
 25 49  1  0  0  0
 26 27  1  0  0  0
 26 34  1  0  0  0
 27 28  2  0  0  0
 27 50  1  0  0  0
 28 51  1  0  0  0
 29 30  1  0  0  0
 29 33  2  0  0  0
 30 31  1  0  0  0
 31 32  2  0  0  0
 31 52  1  0  0  0
 32 33  1  0  0  0
 32 53  1  0  0  0
 33 54  1  0  0  0
 35 36  1  0  0  0
 35 55  1  0  0  0
 35 56  1  0  0  0
 36 57  1  0  0  0
 36 58  1  0  0  0
 36 59  1  0  0  0
M  END
> <s_m_entry_id>
2490

> <s_m_entry_name>
dock_pv.18

> <s_m_Source_Path>
/home/csk/Desktop/cluster/DUD-E-result/fabp4

> <s_m_Source_File>
dock_pv.maegz

> <i_m_Source_File_Index>
18

> <chembl_id>
CHEMBL1782968

> <chembl_pref_name>
None

> <i_lp_mmshare_version>
53161

> <r_lp_tautomer_probability>
1

> <s_lp_Force_Field>
OPLS_2005

> <r_lp_Energy>
31.507382

> <b_lp_Chiralities_Consistent>
1

> <s_lp_Variant>
CHEMBL2083_lig190-1

> <s_i_glide_gridfile>
glide-grid_2nnq

> <i_i_glide_lignum>
208

> <i_i_glide_rotatable_bonds>
9

> <r_i_docking_score>
-8.02998957715401

> <r_i_glide_ligand_efficiency>
-0.223055266032056

> <r_i_glide_ligand_efficiency_sa>
-0.736512260040916

> <r_i_glide_ligand_efficiency_ln>
-1.75192678048774

> <r_i_glide_gscore>
-8.02998957715401

> <r_i_glide_lipo>
-4.66312469371944

> <r_i_glide_hbond>
0

> <r_i_glide_metal>
0

> <r_i_glide_rewards>
-0.302411776523475

> <r_i_glide_evdw>
-48.6653366088867

> <r_i_glide_ecoul>
-7.79075527191162

> <r_i_glide_erotb>
0.541434345974727

> <r_i_glide_esite>
-0.00400733165473671

> <r_i_glide_emodel>
-54.8893381254923

> <r_i_glide_energy>
-56.4560918807983

> <r_i_glide_einternal>
20.0435256958008

> <i_i_glide_confnum>
2

> <i_i_glide_posenum>
155

> <r_i_glide_eff_state_penalty>
0

> <s_user_duplicate_titles>
CHEMBL2083_lig190

> <i_f3d_flags>
0

> <s_m_subgroup_title>
dock_pv

> <s_m_subgroupid>
dock_pv

> <b_m_subgroup_collapsed>
1

$$$$
CHEMBL2083_lig35
                    3D
 Schrodinger Suite 2021-1.
 48 51  0  0  1  0            999 V2000
    8.1805    8.2327   17.6065 C   0  0  0  0  0  0
    7.7020    7.3909   16.6170 C   0  0  0  0  0  0
    6.4972    6.6897   16.7407 C   0  0  0  0  0  0
    7.5009    8.3825   18.8050 C   0  0  0  0  0  0
    6.2818    7.7144   18.9899 C   0  0  0  0  0  0
    5.7448    6.9149   17.9287 C   0  0  0  0  0  0
    4.4632    6.5408   18.3637 N   0  0  0  0  0  0
    3.4170    5.8773   17.5638 C   0  0  0  0  0  0
    2.0653    6.6009   17.5015 C   0  0  0  0  0  0
    1.8973    7.8932   16.9440 C   0  0  0  0  0  0
    0.6159    8.4634   16.9420 C   0  0  0  0  0  0
   -0.4795    7.7832   17.4599 C   0  0  0  0  0  0
   -0.3147    6.5100   17.9874 C   0  0  0  0  0  0
    0.9469    5.9218   18.0037 C   0  0  0  0  0  0
    6.1512    5.6833   15.6785 C   0  0  0  0  0  0
    6.3207    6.1153   14.3985 O   0  0  0  0  0  0
    5.7528    4.5532   15.9479 O   0  0  0  0  0  0
    3.1287    6.3818   20.5501 C   0  0  0  0  0  0
    3.2643    6.5106   22.0904 C   0  0  0  0  0  0
    4.6310    6.0873   22.6620 C   0  0  0  0  0  0
    4.3205    6.8506   19.7135 C   0  0  0  0  0  0
    5.4024    7.6160   20.1120 C   0  0  0  0  0  0
    5.6531    8.2105   21.4836 C   0  0  0  0  0  0
    5.7432    7.1611   22.6127 C   0  0  0  0  0  0
    3.0484    8.6943   16.3120 C   0  0  0  0  0  0
    2.6085    9.7299   15.5929 F   0  0  0  0  0  0
    3.8338    9.1824   17.2706 F   0  0  0  0  0  0
    3.7748    7.9386   15.4901 F   0  0  0  0  0  0
    9.1199    8.7394   17.4566 H   0  0  0  0  0  0
    8.3182    7.2565   15.7396 H   0  0  0  0  0  0
    7.9167    9.0008   19.5858 H   0  0  0  0  0  0
    3.3142    4.8590   17.9406 H   0  0  0  0  0  0
    3.7212    5.7754   16.5312 H   0  0  0  0  0  0
    0.4554    9.4423   16.5199 H   0  0  0  0  0  0
   -1.4573    8.2400   17.4439 H   0  0  0  0  0  0
   -1.1675    5.9813   18.3865 H   0  0  0  0  0  0
    1.0501    4.9307   18.4217 H   0  0  0  0  0  0
    5.9843    5.4462   13.7914 H   0  0  0  0  0  0
    2.2242    6.9004   20.2376 H   0  0  0  0  0  0
    2.9461    5.3284   20.3352 H   0  0  0  0  0  0
    2.4915    5.8939   22.5516 H   0  0  0  0  0  0
    3.0468    7.5271   22.4194 H   0  0  0  0  0  0
    4.9666    5.1893   22.1422 H   0  0  0  0  0  0
    4.5003    5.7799   23.7008 H   0  0  0  0  0  0
    4.8522    8.9124   21.7194 H   0  0  0  0  0  0
    6.5600    8.8148   21.4970 H   0  0  0  0  0  0
    5.7657    7.6876   23.5670 H   0  0  0  0  0  0
    6.7071    6.6541   22.5497 H   0  0  0  0  0  0
  1  2  2  0  0  0
  1  4  1  0  0  0
  1 29  1  0  0  0
  2  3  1  0  0  0
  2 30  1  0  0  0
  3  6  2  0  0  0
  3 15  1  0  0  0
  4  5  2  0  0  0
  4 31  1  0  0  0
  5 22  1  0  0  0
  5  6  1  0  0  0
  6  7  1  0  0  0
  7 21  1  0  0  0
  7  8  1  0  0  0
  8  9  1  0  0  0
  8 32  1  0  0  0
  8 33  1  0  0  0
  9 14  1  0  0  0
  9 10  2  0  0  0
 10 11  1  0  0  0
 10 25  1  0  0  0
 11 12  2  0  0  0
 11 34  1  0  0  0
 12 13  1  0  0  0
 12 35  1  0  0  0
 13 14  2  0  0  0
 13 36  1  0  0  0
 14 37  1  0  0  0
 15 16  1  0  0  0
 15 17  2  0  0  0
 16 38  1  0  0  0
 18 19  1  0  0  0
 18 21  1  0  0  0
 18 39  1  0  0  0
 18 40  1  0  0  0
 19 20  1  0  0  0
 19 41  1  0  0  0
 19 42  1  0  0  0
 20 24  1  0  0  0
 20 43  1  0  0  0
 20 44  1  0  0  0
 21 22  2  0  0  0
 22 23  1  0  0  0
 23 24  1  0  0  0
 23 45  1  0  0  0
 23 46  1  0  0  0
 24 47  1  0  0  0
 24 48  1  0  0  0
 25 26  1  0  0  0
 25 27  1  0  0  0
 25 28  1  0  0  0
M  END
> <s_m_entry_id>
2491

> <s_m_entry_name>
dock_pv.19

> <s_m_Source_Path>
/home/csk/Desktop/cluster/DUD-E-result/fabp4

> <s_m_Source_File>
dock_pv.maegz

> <i_m_Source_File_Index>
19

> <chembl_id>
CHEMBL460750

> <chembl_pref_name>
None

> <i_lp_mmshare_version>
53161

> <r_lp_tautomer_probability>
1

> <s_lp_Force_Field>
OPLS_2005

> <r_lp_Energy>
30.47896

> <b_lp_Chiralities_Consistent>
1

> <s_lp_Variant>
CHEMBL2083_lig35-1

> <s_i_glide_gridfile>
glide-grid_2nnq

> <i_i_glide_lignum>
45

> <i_i_glide_rotatable_bonds>
5

> <r_i_docking_score>
-7.98186861427709

> <r_i_glide_ligand_efficiency>
-0.285066736224182

> <r_i_glide_ligand_efficiency_sa>
-0.865630506505453

> <r_i_glide_ligand_efficiency_ln>
-1.84244963402115

> <r_i_glide_gscore>
-7.98186861427709

> <r_i_glide_lipo>
-4.10053515290882

> <r_i_glide_hbond>
-0.191041012263467

> <r_i_glide_metal>
0

> <r_i_glide_rewards>
-1.65257771295294

> <r_i_glide_evdw>
-37.3378448486328

> <r_i_glide_ecoul>
-3.73395895957947

> <r_i_glide_erotb>
0.3892713502167

> <r_i_glide_esite>
0

> <r_i_glide_emodel>
-58.983659200703

> <r_i_glide_energy>
-41.0718038082123

> <r_i_glide_einternal>
3.25995659828186

> <i_i_glide_confnum>
13

> <i_i_glide_posenum>
29

> <r_i_glide_eff_state_penalty>
0

> <s_user_duplicate_titles>
CHEMBL2083_lig35

> <i_f3d_flags>
0

> <s_m_subgroup_title>
dock_pv

> <s_m_subgroupid>
dock_pv

> <b_m_subgroup_collapsed>
1

$$$$
CHEMBL2083_lig175
                    3D
 Schrodinger Suite 2021-1.
 56 60  0  0  1  0            999 V2000
    5.3589    7.7848   20.9118 C   0  0  0  0  0  0
    4.7408    7.1480   21.9958 C   0  0  0  0  0  0
    5.4482    6.9090   23.1725 C   0  0  0  0  0  0
    6.7703    7.3258   23.2926 C   0  0  0  0  0  0
    7.3882    7.9711   22.2260 C   0  0  0  0  0  0
    6.7148    8.1650   21.0183 C   0  0  0  0  0  0
    7.4273    8.7348   19.8526 C   0  0  0  0  0  0
    8.3200    9.8431   17.4609 C   0  0  0  0  0  0
    8.1775   10.6483   18.5890 C   0  0  0  0  0  0
    7.7291   10.0962   19.7845 C   0  0  0  0  0  0
    8.0527    8.4746   17.5074 C   0  0  0  0  0  0
    7.6381    7.9260   18.7296 C   0  0  0  0  0  0
    6.8810    6.2415   14.9813 C   0  0  0  0  0  0
    7.8008    6.4029   16.2008 C   0  0  0  0  0  0
    8.2038    7.7763   16.3210 O   0  0  0  0  0  0
    6.3396    4.9889   14.9421 O   0  0  0  0  0  0
    6.6705    7.1207   14.1438 O   0  0  0  0  0  0
    4.5398    8.0893   19.6889 C   0  0  0  0  0  0
    3.5021    7.3252   19.2422 N   0  0  0  0  0  0
    2.9147    7.9970   18.1983 C   0  0  0  0  0  0
    3.7698    9.0874   17.9754 C   0  0  0  0  0  0
    4.6864    9.1501   18.9285 N   0  0  0  0  0  0
    1.6063    7.5840   17.6199 C   0  0  0  0  0  0
    1.1704    6.2629   17.7432 C   0  0  0  0  0  0
   -0.0798    5.9043   17.2637 C   0  0  0  0  0  0
   -0.8798    6.8530   16.6292 C   0  0  0  0  0  0
   -0.4785    8.1796   16.5421 C   0  0  0  0  0  0
    0.7687    8.5423   17.0375 C   0  0  0  0  0  0
    3.7469   10.1206   16.8887 C   0  0  0  0  0  0
    4.0837   11.4535   17.1567 C   0  0  0  0  0  0
    4.0639   12.4037   16.1382 C   0  0  0  0  0  0
    3.7120   12.0234   14.8450 C   0  0  0  0  0  0
    3.3894   10.6981   14.5619 C   0  0  0  0  0  0
    3.4108    9.7500   15.5817 C   0  0  0  0  0  0
    3.7032    6.8520   21.9432 H   0  0  0  0  0  0
    4.9618    6.4184   24.0020 H   0  0  0  0  0  0
    7.3099    7.1701   24.2153 H   0  0  0  0  0  0
    8.4041    8.3131   22.3408 H   0  0  0  0  0  0
    8.6666   10.2859   16.5424 H   0  0  0  0  0  0
    8.3886   11.7078   18.5319 H   0  0  0  0  0  0
    7.5478   10.7448   20.6287 H   0  0  0  0  0  0
    7.4002    6.8812   18.8368 H   0  0  0  0  0  0
    7.2748    5.9859   17.0538 H   0  0  0  0  0  0
    8.7002    5.8034   16.0457 H   0  0  0  0  0  0
    5.7485    4.8763   14.1822 H   0  0  0  0  0  0
    3.1528    6.4879   19.6821 H   0  0  0  0  0  0
    1.7893    5.5097   18.2057 H   0  0  0  0  0  0
   -0.4188    4.8812   17.3456 H   0  0  0  0  0  0
   -1.8208    6.5489   16.1978 H   0  0  0  0  0  0
   -1.1186    8.9135   16.0749 H   0  0  0  0  0  0
    1.0737    9.5766   16.9832 H   0  0  0  0  0  0
    4.3636   11.7616   18.1528 H   0  0  0  0  0  0
    4.3244   13.4315   16.3545 H   0  0  0  0  0  0
    3.6935   12.7612   14.0554 H   0  0  0  0  0  0
    3.1275   10.4063   13.5547 H   0  0  0  0  0  0
    3.1674    8.7219   15.3515 H   0  0  0  0  0  0
  1  6  1  0  0  0
  1  2  2  0  0  0
  1 18  1  0  0  0
  2  3  1  0  0  0
  2 35  1  0  0  0
  3  4  2  0  0  0
  3 36  1  0  0  0
  4  5  1  0  0  0
  4 37  1  0  0  0
  5  6  2  0  0  0
  5 38  1  0  0  0
  6  7  1  0  0  0
  7 10  1  0  0  0
  7 12  2  0  0  0
  8  9  1  0  0  0
  8 11  2  0  0  0
  8 39  1  0  0  0
  9 10  2  0  0  0
  9 40  1  0  0  0
 10 41  1  0  0  0
 11 12  1  0  0  0
 11 15  1  0  0  0
 12 42  1  0  0  0
 13 16  1  0  0  0
 13 17  2  0  0  0
 13 14  1  0  0  0
 14 15  1  0  0  0
 14 43  1  0  0  0
 14 44  1  0  0  0
 16 45  1  0  0  0
 18 19  1  0  0  0
 18 22  2  0  0  0
 19 20  1  0  0  0
 19 46  1  0  0  0
 20 21  2  0  0  0
 20 23  1  0  0  0
 21 29  1  0  0  0
 21 22  1  0  0  0
 23 24  2  0  0  0
 23 28  1  0  0  0
 24 25  1  0  0  0
 24 47  1  0  0  0
 25 26  2  0  0  0
 25 48  1  0  0  0
 26 27  1  0  0  0
 26 49  1  0  0  0
 27 28  2  0  0  0
 27 50  1  0  0  0
 28 51  1  0  0  0
 29 30  2  0  0  0
 29 34  1  0  0  0
 30 31  1  0  0  0
 30 52  1  0  0  0
 31 32  2  0  0  0
 31 53  1  0  0  0
 32 33  1  0  0  0
 32 54  1  0  0  0
 33 34  2  0  0  0
 33 55  1  0  0  0
 34 56  1  0  0  0
M  END
> <s_m_entry_id>
2492

> <s_m_entry_name>
dock_pv.20

> <s_m_Source_Path>
/home/csk/Desktop/cluster/DUD-E-result/fabp4

> <s_m_Source_File>
dock_pv.maegz

> <i_m_Source_File_Index>
20

> <chembl_id>
CHEMBL248144

> <chembl_pref_name>
None

> <i_lp_mmshare_version>
53161

> <r_lp_tautomer_probability>
0.499999999999999

> <s_lp_Force_Field>
OPLS_2005

> <r_lp_Energy>
35.64187

> <b_lp_Chiralities_Consistent>
1

> <s_lp_Variant>
CHEMBL2083_lig175-1

> <s_i_glide_gridfile>
glide-grid_2nnq

> <i_i_glide_lignum>
191

> <i_i_glide_rotatable_bonds>
8

> <r_i_docking_score>
-7.97758017632497

> <r_i_glide_ligand_efficiency>
-0.234634711068382

> <r_i_glide_ligand_efficiency_sa>
-0.760125378072969

> <r_i_glide_ligand_efficiency_ln>
-1.76247122449476

> <r_i_glide_gscore>
-7.97758017632497

> <r_i_glide_lipo>
-4.46340639258231

> <r_i_glide_hbond>
0

> <r_i_glide_metal>
0

> <r_i_glide_rewards>
-0.937366181913054

> <r_i_glide_evdw>
-47.4434661865234

> <r_i_glide_ecoul>
-6.04985094070435

> <r_i_glide_erotb>
0.702843348602218

> <r_i_glide_esite>
0

> <r_i_glide_emodel>
-65.7225554250493

> <r_i_glide_energy>
-53.4933171272278

> <r_i_glide_einternal>
7.94375085830688

> <i_i_glide_confnum>
86

> <i_i_glide_posenum>
98

> <r_i_glide_eff_state_penalty>
0

> <s_user_duplicate_titles>
CHEMBL2083_lig175,412694

> <i_f3d_flags>
0

> <s_m_subgroup_title>
dock_pv

> <s_m_subgroupid>
dock_pv

> <b_m_subgroup_collapsed>
1

$$$$
CHEMBL2083_lig191
                    3D
 Schrodinger Suite 2021-1.
 59 63  0  0  1  0            999 V2000
    4.2683   11.1467   16.0981 C   0  0  0  0  0  0
    4.1630   12.2177   15.1983 C   0  0  0  0  0  0
    2.9518   12.5050   14.5694 C   0  0  0  0  0  0
    1.8320   11.7297   14.8324 C   0  0  0  0  0  0
    1.9207   10.6821   15.7417 C   0  0  0  0  0  0
    3.1131   10.3881   16.4006 C   0  0  0  0  0  0
    5.6056   10.7771   16.6326 C   0  0  0  0  0  0
    6.4534   11.7083   17.2332 C   0  0  0  0  0  0
    7.6974   11.3160   17.7216 C   0  0  0  0  0  0
    8.0930    9.9853   17.6336 C   0  0  0  0  0  0
    7.2917    9.0355   17.0027 C   0  0  0  0  0  0
    6.0442    9.4565   16.5191 C   0  0  0  0  0  0
    7.8061    7.7509   16.8900 O   0  0  0  0  0  0
    7.0659    6.6421   16.3372 C   0  0  0  0  0  0
    6.6161    6.8870   14.8680 C   0  0  0  0  0  0
    5.5550    6.1104   14.5443 O   0  0  0  0  0  0
    7.1205    7.7083   14.1022 O   0  0  0  0  0  0
    3.0771    9.2426   17.3699 C   0  0  0  0  0  0
    3.7652    9.2587   18.4856 N   0  0  0  0  0  0
    3.6805    8.0287   19.0261 N   0  0  0  0  0  0
    2.7918    7.2314   18.3155 C   0  0  0  0  0  0
    2.3926    8.0322   17.2523 C   0  0  0  0  0  0
    4.4936    7.7535   20.1666 C   0  0  0  0  0  0
    5.7878    8.2933   20.2216 C   0  0  0  0  0  0
    6.5861    8.1092   21.3402 C   0  0  0  0  0  0
    6.0903    7.4028   22.4295 C   0  0  0  0  0  0
    4.8176    6.8324   22.3843 C   0  0  0  0  0  0
    4.0198    7.0011   21.2495 C   0  0  0  0  0  0
    2.4236    5.8483   18.5728 C   0  0  0  0  0  0
    0.8365    5.2743   18.1395 S   0  0  0  0  0  0
    1.1914    3.7029   18.7693 C   0  0  0  0  0  0
    2.4912    3.6172   19.2343 C   0  0  0  0  0  0
    3.1905    4.8159   19.1002 C   0  0  0  0  0  0
    7.0499    7.3090   23.8613 Cl  0  0  0  0  0  0
    8.0381    5.4598   16.3472 C   0  0  0  0  0  0
    5.9116    6.2622   17.2885 C   0  0  0  0  0  0
    5.0335   12.8105   14.9554 H   0  0  0  0  0  0
    2.8710   13.3089   13.8564 H   0  0  0  0  0  0
    0.8955   11.9442   14.3337 H   0  0  0  0  0  0
    1.0411   10.0964   15.9428 H   0  0  0  0  0  0
    6.1493   12.7428   17.3217 H   0  0  0  0  0  0
    8.3593   12.0566   18.1420 H   0  0  0  0  0  0
    9.0387    9.6901   18.0467 H   0  0  0  0  0  0
    5.3739    8.7712   16.0349 H   0  0  0  0  0  0
    5.2978    6.2249   13.6257 H   0  0  0  0  0  0
    1.7353    7.7415   16.4435 H   0  0  0  0  0  0
    6.1745    8.8798   19.4045 H   0  0  0  0  0  0
    7.5739    8.5440   21.3739 H   0  0  0  0  0  0
    4.4379    6.2883   23.2365 H   0  0  0  0  0  0
    3.0233    6.5863   21.2413 H   0  0  0  0  0  0
    0.4438    2.9238   18.7564 H   0  0  0  0  0  0
    2.9182    2.7170   19.6520 H   0  0  0  0  0  0
    4.2211    4.9319   19.3957 H   0  0  0  0  0  0
    7.5454    4.5566   15.9793 H   0  0  0  0  0  0
    8.9255    5.6467   15.7418 H   0  0  0  0  0  0
    8.3903    5.2484   17.3566 H   0  0  0  0  0  0
    5.5440    5.2509   17.1102 H   0  0  0  0  0  0
    6.2241    6.3098   18.3308 H   0  0  0  0  0  0
    5.0677    6.9219   17.1418 H   0  0  0  0  0  0
  1  7  1  0  0  0
  1  6  1  0  0  0
  1  2  2  0  0  0
  2  3  1  0  0  0
  2 37  1  0  0  0
  3  4  2  0  0  0
  3 38  1  0  0  0
  4  5  1  0  0  0
  4 39  1  0  0  0
  5  6  2  0  0  0
  5 40  1  0  0  0
  6 18  1  0  0  0
  7 12  1  0  0  0
  7  8  2  0  0  0
  8  9  1  0  0  0
  8 41  1  0  0  0
  9 10  2  0  0  0
  9 42  1  0  0  0
 10 11  1  0  0  0
 10 43  1  0  0  0
 11 12  2  0  0  0
 11 13  1  0  0  0
 12 44  1  0  0  0
 13 14  1  0  0  0
 14 15  1  0  0  0
 14 35  1  0  0  0
 14 36  1  0  0  0
 15 16  1  0  0  0
 15 17  2  0  0  0
 16 45  1  0  0  0
 18 19  2  0  0  0
 18 22  1  0  0  0
 19 20  1  0  0  0
 20 21  1  0  0  0
 20 23  1  0  0  0
 21 22  2  0  0  0
 21 29  1  0  0  0
 22 46  1  0  0  0
 23 24  2  0  0  0
 23 28  1  0  0  0
 24 25  1  0  0  0
 24 47  1  0  0  0
 25 26  2  0  0  0
 25 48  1  0  0  0
 26 27  1  0  0  0
 26 34  1  0  0  0
 27 28  2  0  0  0
 27 49  1  0  0  0
 28 50  1  0  0  0
 29 30  1  0  0  0
 29 33  2  0  0  0
 30 31  1  0  0  0
 31 32  2  0  0  0
 31 51  1  0  0  0
 32 33  1  0  0  0
 32 52  1  0  0  0
 33 53  1  0  0  0
 35 54  1  0  0  0
 35 55  1  0  0  0
 35 56  1  0  0  0
 36 57  1  0  0  0
 36 58  1  0  0  0
 36 59  1  0  0  0
M  END
> <s_m_entry_id>
2493

> <s_m_entry_name>
dock_pv.21

> <s_m_Source_Path>
/home/csk/Desktop/cluster/DUD-E-result/fabp4

> <s_m_Source_File>
dock_pv.maegz

> <i_m_Source_File_Index>
21

> <chembl_id>
CHEMBL1782969

> <chembl_pref_name>
None

> <i_lp_mmshare_version>
53161

> <r_lp_tautomer_probability>
1

> <s_lp_Force_Field>
OPLS_2005

> <r_lp_Energy>
34.913782

> <b_lp_Chiralities_Consistent>
1

> <s_lp_Variant>
CHEMBL2083_lig191-1

> <s_i_glide_gridfile>
glide-grid_2nnq

> <i_i_glide_lignum>
210

> <i_i_glide_rotatable_bonds>
8

> <r_i_docking_score>
-7.9656336946298

> <r_i_glide_ligand_efficiency>
-0.221267602628606

> <r_i_glide_ligand_efficiency_sa>
-0.730609525544264

> <r_i_glide_ligand_efficiency_ln>
-1.73788606561598

> <r_i_glide_gscore>
-7.9656336946298

> <r_i_glide_lipo>
-4.62483646227768

> <r_i_glide_hbond>
-0.145472187308024

> <r_i_glide_metal>
0

> <r_i_glide_rewards>
-0.516649308392482

> <r_i_glide_evdw>
-49.2025566101074

> <r_i_glide_ecoul>
-5.06654834747314

> <r_i_glide_erotb>
0.541434345974727

> <r_i_glide_esite>
0

> <r_i_glide_emodel>
-77.7678328253358

> <r_i_glide_energy>
-54.2691049575806

> <r_i_glide_einternal>
6.4045352935791

> <i_i_glide_confnum>
49

> <i_i_glide_posenum>
133

> <r_i_glide_eff_state_penalty>
0

> <s_user_duplicate_titles>
CHEMBL2083_lig191

> <i_f3d_flags>
0

> <s_m_subgroup_title>
dock_pv

> <s_m_subgroupid>
dock_pv

> <b_m_subgroup_collapsed>
1

$$$$
CHEMBL2083_lig181
                    3D
 Schrodinger Suite 2021-1.
 57 61  0  0  1  0            999 V2000
    5.4930    7.7250   21.0193 C   0  0  0  0  0  0
    4.9317    7.0757   22.1248 C   0  0  0  0  0  0
    5.6638    6.9090   23.2957 C   0  0  0  0  0  0
    6.9554    7.4231   23.3890 C   0  0  0  0  0  0
    7.5199    8.0861   22.3012 C   0  0  0  0  0  0
    6.8221    8.1922   21.0975 C   0  0  0  0  0  0
    7.4914    8.7554   19.9058 C   0  0  0  0  0  0
    8.3199    9.8169   17.4736 C   0  0  0  0  0  0
    8.1637   10.6506   18.5764 C   0  0  0  0  0  0
    7.7410   10.1239   19.7922 C   0  0  0  0  0  0
    8.0966    8.4437   17.5645 C   0  0  0  0  0  0
    7.7251    7.9188   18.8102 C   0  0  0  0  0  0
    7.0423    6.0784   15.0585 C   0  0  0  0  0  0
    7.8326    6.3342   16.3450 C   0  0  0  0  0  0
    8.2394    7.7109   16.3999 O   0  0  0  0  0  0
    6.7197    4.7588   14.9419 O   0  0  0  0  0  0
    6.7201    6.9474   14.2499 O   0  0  0  0  0  0
    4.6229    7.9289   19.8111 C   0  0  0  0  0  0
    4.7583    8.9668   18.9215 N   0  0  0  0  0  0
    3.7934    8.9606   17.9475 C   0  0  0  0  0  0
    2.9377    7.8992   18.2668 C   0  0  0  0  0  0
    3.5207    7.2320   19.3574 C   0  0  0  0  0  0
    3.7911    9.9782   16.8525 C   0  0  0  0  0  0
    4.1314   11.3108   17.1170 C   0  0  0  0  0  0
    4.1245   12.2530   16.0908 C   0  0  0  0  0  0
    3.7808   11.8622   14.7979 C   0  0  0  0  0  0
    3.4467   10.5383   14.5234 C   0  0  0  0  0  0
    3.4564    9.5961   15.5499 C   0  0  0  0  0  0
    1.6190    7.5308   17.6813 C   0  0  0  0  0  0
    1.1747    6.2117   17.7941 C   0  0  0  0  0  0
   -0.0801    5.8626   17.3253 C   0  0  0  0  0  0
   -0.8751    6.8184   16.6943 C   0  0  0  0  0  0
   -0.4613    8.1432   16.6051 C   0  0  0  0  0  0
    0.7879    8.4996   17.1046 C   0  0  0  0  0  0
    3.9155    6.7113   22.0899 H   0  0  0  0  0  0
    5.2153    6.4104   24.1418 H   0  0  0  0  0  0
    7.5124    7.3213   24.3101 H   0  0  0  0  0  0
    8.5161    8.4951   22.3856 H   0  0  0  0  0  0
    8.6471   10.2416   16.5421 H   0  0  0  0  0  0
    8.3477   11.7086   18.4800 H   0  0  0  0  0  0
    7.5476   10.7892   20.6195 H   0  0  0  0  0  0
    7.5368    6.8675   18.9499 H   0  0  0  0  0  0
    7.1670    6.0200   17.1461 H   0  0  0  0  0  0
    8.7203    5.7028   16.3581 H   0  0  0  0  0  0
    6.1415    4.6351   14.1766 H   0  0  0  0  0  0
    5.5076    9.6425   18.9645 H   0  0  0  0  0  0
    3.1088    6.3627   19.8473 H   0  0  0  0  0  0
    4.3951   11.6273   18.1160 H   0  0  0  0  0  0
    4.3838   13.2817   16.3007 H   0  0  0  0  0  0
    3.7724   12.5925   14.0003 H   0  0  0  0  0  0
    3.1821   10.2412   13.5192 H   0  0  0  0  0  0
    3.2016    8.5678   15.3316 H   0  0  0  0  0  0
    1.7891    5.4494   18.2501 H   0  0  0  0  0  0
   -0.4225    4.8412   17.4045 H   0  0  0  0  0  0
   -1.8144    6.5136   16.2607 H   0  0  0  0  0  0
   -1.0948    8.8830   16.1381 H   0  0  0  0  0  0
    1.1024    9.5309   17.0500 H   0  0  0  0  0  0
  1 18  1  0  0  0
  1  6  1  0  0  0
  1  2  2  0  0  0
  2  3  1  0  0  0
  2 35  1  0  0  0
  3  4  2  0  0  0
  3 36  1  0  0  0
  4  5  1  0  0  0
  4 37  1  0  0  0
  5  6  2  0  0  0
  5 38  1  0  0  0
  6  7  1  0  0  0
  7 10  1  0  0  0
  7 12  2  0  0  0
  8  9  1  0  0  0
  8 11  2  0  0  0
  8 39  1  0  0  0
  9 10  2  0  0  0
  9 40  1  0  0  0
 10 41  1  0  0  0
 11 12  1  0  0  0
 11 15  1  0  0  0
 12 42  1  0  0  0
 13 16  1  0  0  0
 13 17  2  0  0  0
 13 14  1  0  0  0
 14 15  1  0  0  0
 14 43  1  0  0  0
 14 44  1  0  0  0
 16 45  1  0  0  0
 18 19  1  0  0  0
 18 22  2  0  0  0
 19 20  1  0  0  0
 19 46  1  0  0  0
 20 21  2  0  0  0
 20 23  1  0  0  0
 21 22  1  0  0  0
 21 29  1  0  0  0
 22 47  1  0  0  0
 23 24  2  0  0  0
 23 28  1  0  0  0
 24 25  1  0  0  0
 24 48  1  0  0  0
 25 26  2  0  0  0
 25 49  1  0  0  0
 26 27  1  0  0  0
 26 50  1  0  0  0
 27 28  2  0  0  0
 27 51  1  0  0  0
 28 52  1  0  0  0
 29 30  2  0  0  0
 29 34  1  0  0  0
 30 31  1  0  0  0
 30 53  1  0  0  0
 31 32  2  0  0  0
 31 54  1  0  0  0
 32 33  1  0  0  0
 32 55  1  0  0  0
 33 34  2  0  0  0
 33 56  1  0  0  0
 34 57  1  0  0  0
M  END
> <s_m_entry_id>
2494

> <s_m_entry_name>
dock_pv.22

> <s_m_Source_Path>
/home/csk/Desktop/cluster/DUD-E-result/fabp4

> <s_m_Source_File>
dock_pv.maegz

> <i_m_Source_File_Index>
22

> <chembl_id>
CHEMBL394966

> <chembl_pref_name>
None

> <i_lp_mmshare_version>
53161

> <r_lp_tautomer_probability>
1

> <s_lp_Force_Field>
OPLS_2005

> <r_lp_Energy>
30.522927

> <b_lp_Chiralities_Consistent>
1

> <s_lp_Variant>
CHEMBL2083_lig181-1

> <s_i_glide_gridfile>
glide-grid_2nnq

> <i_i_glide_lignum>
198

> <i_i_glide_rotatable_bonds>
8

> <r_i_docking_score>
-7.96419195720759

> <r_i_glide_ligand_efficiency>
-0.23424093991787

> <r_i_glide_ligand_efficiency_sa>
-0.75884971240827

> <r_i_glide_ligand_efficiency_ln>
-1.7595133913649

> <r_i_glide_gscore>
-7.96419195720759

> <r_i_glide_lipo>
-4.76680635941489

> <r_i_glide_hbond>
0

> <r_i_glide_metal>
0

> <r_i_glide_rewards>
-0.693679051602524

> <r_i_glide_evdw>
-48.4346580505371

> <r_i_glide_ecoul>
-5.25101089477539

> <r_i_glide_erotb>
0.705677990552982

> <r_i_glide_esite>
0

> <r_i_glide_emodel>
-73.2386929566651

> <r_i_glide_energy>
-53.6856689453125

> <r_i_glide_einternal>
3.77020359039307

> <i_i_glide_confnum>
157

> <i_i_glide_posenum>
303

> <r_i_glide_eff_state_penalty>
0

> <s_user_duplicate_titles>
CHEMBL2083_lig181,412730

> <i_f3d_flags>
0

> <s_m_subgroup_title>
dock_pv

> <s_m_subgroupid>
dock_pv

> <b_m_subgroup_collapsed>
1

$$$$
CHEMBL2083_lig43
                    3D
 Schrodinger Suite 2021-1.
 48 51  0  0  1  0            999 V2000
    7.0888    6.3491   15.1276 C   0  0  0  0  0  0
    5.8641    6.6068   14.5320 C   0  0  0  0  0  0
    4.9043    7.4385   15.1141 C   0  0  0  0  0  0
    7.4283    6.9356   16.3389 C   0  0  0  0  0  0
    6.4979    7.7629   16.9865 C   0  0  0  0  0  0
    5.2230    8.0033   16.3764 C   0  0  0  0  0  0
    4.5153    8.8084   17.2782 N   0  0  0  0  0  0
    3.1088    9.2307   17.1499 C   0  0  0  0  0  0
    2.0543    8.1383   17.3586 C   0  0  0  0  0  0
    2.3566    6.9178   17.9778 C   0  0  0  0  0  0
    1.3689    5.9428   18.1673 C   0  0  0  0  0  0
    0.0611    6.2057   17.7409 C   0  0  0  0  0  0
   -0.2521    7.4175   17.1288 C   0  0  0  0  0  0
    0.7406    8.3755   16.9415 C   0  0  0  0  0  0
    3.6412    7.7158   14.3515 C   0  0  0  0  0  0
    2.8306    6.6312   14.1751 O   0  0  0  0  0  0
    3.3787    8.8365   13.9236 O   0  0  0  0  0  0
    4.7634    9.8377   19.6032 C   0  0  0  0  0  0
    5.6017    9.7841   20.9021 C   0  0  0  0  0  0
    6.1624    8.3908   21.2501 C   0  0  0  0  0  0
    5.2940    9.0503   18.4049 C   0  0  0  0  0  0
    6.5446    8.4814   18.2210 C   0  0  0  0  0  0
    7.7456    8.5628   19.1459 C   0  0  0  0  0  0
    7.5110    8.0439   20.5808 C   0  0  0  0  0  0
    1.7307    4.6237   18.8439 C   0  0  0  0  0  0
    2.8558    4.1277   18.3304 F   0  0  0  0  0  0
    1.9210    4.8433   20.1420 F   0  0  0  0  0  0
    0.7737    3.7051   18.7025 F   0  0  0  0  0  0
    7.7925    5.7008   14.6283 H   0  0  0  0  0  0
    5.6660    6.1466   13.5742 H   0  0  0  0  0  0
    8.3929    6.7355   16.7859 H   0  0  0  0  0  0
    2.9816    9.6876   16.1718 H   0  0  0  0  0  0
    2.9007   10.0528   17.8330 H   0  0  0  0  0  0
    3.3624    6.7192   18.3172 H   0  0  0  0  0  0
   -0.7202    5.4755   17.8863 H   0  0  0  0  0  0
   -1.2649    7.6163   16.8087 H   0  0  0  0  0  0
    0.4833    9.3087   16.4648 H   0  0  0  0  0  0
    2.0130    6.9072   13.7419 H   0  0  0  0  0  0
    4.6105   10.8827   19.3280 H   0  0  0  0  0  0
    3.7763    9.4519   19.8492 H   0  0  0  0  0  0
    4.9736   10.1089   21.7339 H   0  0  0  0  0  0
    6.4155   10.5092   20.8514 H   0  0  0  0  0  0
    5.4209    7.6318   20.9940 H   0  0  0  0  0  0
    6.2850    8.3084   22.3321 H   0  0  0  0  0  0
    8.0648    9.6044   19.1986 H   0  0  0  0  0  0
    8.6075    8.0401   18.7267 H   0  0  0  0  0  0
    8.3199    8.4310   21.2016 H   0  0  0  0  0  0
    7.6247    6.9576   20.5862 H   0  0  0  0  0  0
  1  2  2  0  0  0
  1  4  1  0  0  0
  1 29  1  0  0  0
  2  3  1  0  0  0
  2 30  1  0  0  0
  3  6  2  0  0  0
  3 15  1  0  0  0
  4  5  2  0  0  0
  4 31  1  0  0  0
  5 22  1  0  0  0
  5  6  1  0  0  0
  6  7  1  0  0  0
  7 21  1  0  0  0
  7  8  1  0  0  0
  8  9  1  0  0  0
  8 32  1  0  0  0
  8 33  1  0  0  0
  9 14  1  0  0  0
  9 10  2  0  0  0
 10 11  1  0  0  0
 10 34  1  0  0  0
 11 25  1  0  0  0
 11 12  2  0  0  0
 12 13  1  0  0  0
 12 35  1  0  0  0
 13 14  2  0  0  0
 13 36  1  0  0  0
 14 37  1  0  0  0
 15 16  1  0  0  0
 15 17  2  0  0  0
 16 38  1  0  0  0
 18 19  1  0  0  0
 18 21  1  0  0  0
 18 39  1  0  0  0
 18 40  1  0  0  0
 19 20  1  0  0  0
 19 41  1  0  0  0
 19 42  1  0  0  0
 20 24  1  0  0  0
 20 43  1  0  0  0
 20 44  1  0  0  0
 21 22  2  0  0  0
 22 23  1  0  0  0
 23 24  1  0  0  0
 23 45  1  0  0  0
 23 46  1  0  0  0
 24 47  1  0  0  0
 24 48  1  0  0  0
 25 26  1  0  0  0
 25 27  1  0  0  0
 25 28  1  0  0  0
M  END
> <s_m_entry_id>
2495

> <s_m_entry_name>
dock_pv.23

> <s_m_Source_Path>
/home/csk/Desktop/cluster/DUD-E-result/fabp4

> <s_m_Source_File>
dock_pv.maegz

> <i_m_Source_File_Index>
23

> <chembl_id>
CHEMBL474943

> <chembl_pref_name>
None

> <i_lp_mmshare_version>
53161

> <r_lp_tautomer_probability>
1

> <s_lp_Force_Field>
OPLS_2005

> <r_lp_Energy>
28.143437

> <b_lp_Chiralities_Consistent>
1

> <s_lp_Variant>
CHEMBL2083_lig43-1

> <s_i_glide_gridfile>
glide-grid_2nnq

> <i_i_glide_lignum>
53

> <i_i_glide_rotatable_bonds>
5

> <r_i_docking_score>
-7.93333337481511

> <r_i_glide_ligand_efficiency>
-0.283333334814825

> <r_i_glide_ligand_efficiency_sa>
-0.860366878907814

> <r_i_glide_ligand_efficiency_ln>
-1.83124627569677

> <r_i_glide_gscore>
-7.93333337481511

> <r_i_glide_lipo>
-3.81036013339396

> <r_i_glide_hbond>
0

> <r_i_glide_metal>
0

> <r_i_glide_rewards>
-1.90316713802456

> <r_i_glide_evdw>
-37.8288383483887

> <r_i_glide_ecoul>
-4.78423690795898

> <r_i_glide_erotb>
0.3892713502167

> <r_i_glide_esite>
0

> <r_i_glide_emodel>
-63.071108385456

> <r_i_glide_energy>
-42.6130752563477

> <r_i_glide_einternal>
0.49092236161232

> <i_i_glide_confnum>
1

> <i_i_glide_posenum>
287

> <r_i_glide_eff_state_penalty>
0

> <s_user_duplicate_titles>
CHEMBL2083_lig43

> <i_f3d_flags>
0

> <s_m_subgroup_title>
dock_pv

> <s_m_subgroupid>
dock_pv

> <b_m_subgroup_collapsed>
1

$$$$
CHEMBL2083_lig196
                    3D
 Schrodinger Suite 2021-1.
 47 51  0  0  1  0            999 V2000
    3.5359    9.1281   17.3013 C   0  0  0  0  0  0
    4.4278    8.9193   18.4325 N   0  0  0  0  0  0
    5.6179    9.7952   18.3452 C   0  0  2  0  0  0
    4.2855    7.8665   19.3608 C   0  0  0  0  0  0
    3.3233    6.8477   19.1351 C   0  0  0  0  0  0
    3.2119    5.8199   20.0937 C   0  0  0  0  0  0
    3.9116    5.8941   21.2896 C   0  0  0  0  0  0
    4.8269    6.9084   21.5296 C   0  0  0  0  0  0
    5.0976    7.8666   20.5335 C   0  0  0  0  0  0
    2.4324    6.8306   17.8811 C   0  0  2  0  0  0
    2.6559    7.9585   16.8620 C   0  0  1  0  0  0
    1.2706    8.4373   16.4196 C   0  0  0  0  0  0
    0.3061    7.7612   17.3591 C   0  0  0  0  0  0
    0.9424    6.9123   18.1767 C   0  0  0  0  0  0
    6.7179    9.2792   19.2803 C   0  0  2  0  0  0
    6.1863    8.9476   20.6687 C   0  0  2  0  0  0
    7.5195    8.6709   21.3434 C   0  0  0  0  0  0
    8.5008    9.3725   20.7476 C   0  0  0  0  0  0
    8.0124   10.0571   19.4939 C   0  0  0  0  0  0
    5.4950    6.9002   22.8962 C   0  0  0  0  0  0
    2.3507    4.5760   19.8857 C   0  0  0  0  0  0
    5.2500   11.2729   18.6395 C   0  0  0  0  0  0
    6.0898   12.1090   17.9684 O   0  0  0  0  0  0
    4.3377   11.6372   19.3803 O   0  0  0  0  0  0
    2.7864    9.7200   17.8296 H   0  0  0  0  0  0
    3.8839    9.7867   16.5031 H   0  0  0  0  0  0
    5.9986    9.7979   17.3220 H   0  0  0  0  0  0
    3.7632    5.1271   22.0377 H   0  0  0  0  0  0
    2.6416    5.8880   17.3734 H   0  0  0  0  0  0
    3.1420    7.5389   15.9788 H   0  0  0  0  0  0
    1.1448    9.5211   16.4494 H   0  0  0  0  0  0
    1.1203    8.1192   15.4006 H   0  0  0  0  0  0
   -0.7547    7.9686   17.3493 H   0  0  0  0  0  0
    0.4695    6.3044   18.9326 H   0  0  0  0  0  0
    7.0329    8.3411   18.8080 H   0  0  0  0  0  0
    5.7090    9.8085   21.1418 H   0  0  0  0  0  0
    7.6445    8.1111   22.2548 H   0  0  0  0  0  0
    9.5201    9.4323   21.0745 H   0  0  0  0  0  0
    7.8727   11.1294   19.6345 H   0  0  0  0  0  0
    8.6906    9.9247   18.6504 H   0  0  0  0  0  0
    4.8446    6.4601   23.6537 H   0  0  0  0  0  0
    6.4200    6.3258   22.8662 H   0  0  0  0  0  0
    5.7039    7.9075   23.2444 H   0  0  0  0  0  0
    2.0179    4.4200   18.8628 H   0  0  0  0  0  0
    2.9231    3.6857   20.1432 H   0  0  0  0  0  0
    1.4845    4.5997   20.5406 H   0  0  0  0  0  0
    5.9167   13.0514   18.1422 H   0  0  0  0  0  0
  1 11  1  0  0  0
  1  2  1  0  0  0
  1 25  1  0  0  0
  1 26  1  0  0  0
  2  4  1  0  0  0
  2  3  1  0  0  0
  3 15  1  0  0  0
  3 22  1  0  0  0
  3 27  1  0  0  0
  4  5  2  0  0  0
  4  9  1  0  0  0
  5 10  1  0  0  0
  5  6  1  0  0  0
  6  7  2  0  0  0
  6 21  1  0  0  0
  7  8  1  0  0  0
  7 28  1  0  0  0
  8  9  2  0  0  0
  8 20  1  0  0  0
  9 16  1  0  0  0
 10 11  1  0  0  0
 10 14  1  0  0  0
 10 29  1  0  0  0
 11 12  1  0  0  0
 11 30  1  0  0  0
 12 13  1  0  0  0
 12 31  1  0  0  0
 12 32  1  0  0  0
 13 14  2  0  0  0
 13 33  1  0  0  0
 14 34  1  0  0  0
 15 16  1  0  0  0
 15 19  1  0  0  0
 15 35  1  0  0  0
 16 17  1  0  0  0
 16 36  1  0  0  0
 17 18  2  0  0  0
 17 37  1  0  0  0
 18 19  1  0  0  0
 18 38  1  0  0  0
 19 39  1  0  0  0
 19 40  1  0  0  0
 20 41  1  0  0  0
 20 42  1  0  0  0
 20 43  1  0  0  0
 21 44  1  0  0  0
 21 45  1  0  0  0
 21 46  1  0  0  0
 22 23  1  0  0  0
 22 24  2  0  0  0
 23 47  1  0  0  0
M  END
> <s_m_entry_id>
2496

> <s_m_entry_name>
dock_pv.24

> <s_m_Source_Path>
/home/csk/Desktop/cluster/DUD-E-result/fabp4

> <s_m_Source_File>
dock_pv.maegz

> <i_m_Source_File_Index>
24

> <chembl_id>
CHEMBL3827900

> <chembl_pref_name>
None

> <i_lp_mmshare_version>
53161

> <r_lp_tautomer_probability>
1

> <s_lp_Force_Field>
OPLS_2005

> <r_lp_Energy>
78.963649

> <b_lp_Chiralities_Consistent>
1

> <s_lp_Variant>
CHEMBL2083_lig196-5

> <s_i_glide_gridfile>
glide-grid_2nnq

> <i_i_glide_lignum>
250

> <i_i_glide_rotatable_bonds>
2

> <r_i_docking_score>
-7.93030569138424

> <r_i_glide_ligand_efficiency>
-0.330429403807677

> <r_i_glide_ligand_efficiency_sa>
-0.953123330307417

> <r_i_glide_ligand_efficiency_ln>
-1.89808604996451

> <r_i_glide_gscore>
-7.93030569138424

> <r_i_glide_lipo>
-3.58783684485536

> <r_i_glide_hbond>
-0.181568584847663

> <r_i_glide_metal>
0

> <r_i_glide_rewards>
-1.47078985687148

> <r_i_glide_evdw>
-29.782865524292

> <r_i_glide_ecoul>
-8.87129688262939

> <r_i_glide_erotb>
0.180881914396739

> <r_i_glide_esite>
-0.0511545105974714

> <r_i_glide_emodel>
-58.1285493862721

> <r_i_glide_energy>
-38.6541624069214

> <r_i_glide_einternal>
0.460130900144577

> <i_i_glide_confnum>
1

> <i_i_glide_posenum>
49

> <r_i_glide_eff_state_penalty>
0

> <s_user_duplicate_titles>
CHEMBL2083_lig196

> <i_f3d_flags>
0

> <s_m_subgroup_title>
dock_pv

> <s_m_subgroupid>
dock_pv

> <b_m_subgroup_collapsed>
1

$$$$
CHEMBL2083_lig128
                    3D
 Schrodinger Suite 2021-1.
 42 45  0  0  1  0            999 V2000
    8.7207    8.2888   19.5698 O   0  0  0  0  0  0
    8.1216    9.0083   20.5578 C   0  0  0  0  0  0
    8.5186   10.1080   20.9367 O   0  0  0  0  0  0
    6.9696    8.3197   21.1071 C   0  0  0  0  0  0
    5.6678    8.6005   20.8175 C   0  0  0  0  0  0
    4.7235    7.7089   21.6053 C   0  0  0  0  0  0
    5.6445    6.9389   22.5504 C   0  0  0  0  0  0
    7.0870    7.1948   22.1194 C   0  0  0  0  0  0
    5.1863    9.5873   19.8682 C   0  0  0  0  0  0
    4.3202   10.4088   20.1679 O   0  0  0  0  0  0
    5.7246    9.4918   18.6380 N   0  0  0  0  0  0
    5.3683   10.3521   17.6225 C   0  0  0  0  0  0
    6.3895   11.7083   17.3406 S   0  0  0  0  0  0
    5.3106   12.2371   16.0986 C   0  0  0  0  0  0
    4.2213   11.3938   15.8756 C   0  0  0  0  0  0
    4.2445   10.3099   16.7904 C   0  0  0  0  0  0
    3.2201    9.2787   16.9066 C   0  0  0  0  0  0
    3.6021    8.0111   17.2039 O   0  0  0  0  0  0
    2.4125    7.2963   17.2935 N   0  0  0  0  0  0
    1.4956    8.2087   17.0331 C   0  0  0  0  0  0
    1.9288    9.4244   16.7802 N   0  0  0  0  0  0
    0.0123    7.9045   17.0464 C   0  0  0  0  0  0
   -0.4799    6.5090   16.7487 C   0  0  0  0  0  0
   -0.5763    7.0644   18.1535 C   0  0  0  0  0  0
    3.1646   11.6385   14.8045 C   0  0  0  0  0  0
    2.8580   10.5198   14.1503 F   0  0  0  0  0  0
    2.0445   12.1311   15.3312 F   0  0  0  0  0  0
    3.5962   12.5090   13.8950 F   0  0  0  0  0  0
    9.5097    8.7402   19.2668 H   0  0  0  0  0  0
    4.1902    7.0388   20.9284 H   0  0  0  0  0  0
    3.9752    8.2775   22.1598 H   0  0  0  0  0  0
    5.4081    5.8736   22.5658 H   0  0  0  0  0  0
    5.5011    7.2992   23.5714 H   0  0  0  0  0  0
    7.7135    7.4574   22.9731 H   0  0  0  0  0  0
    7.5195    6.3120   21.6475 H   0  0  0  0  0  0
    6.4033    8.7719   18.4455 H   0  0  0  0  0  0
    5.5260   13.1605   15.5843 H   0  0  0  0  0  0
   -0.6117    8.7237   16.6844 H   0  0  0  0  0  0
   -1.3803    6.4105   16.1419 H   0  0  0  0  0  0
    0.2485    5.7251   16.5434 H   0  0  0  0  0  0
    0.0936    6.7083   18.9381 H   0  0  0  0  0  0
   -1.5641    7.3087   18.5417 H   0  0  0  0  0  0
  1  2  1  0  0  0
  1 29  1  0  0  0
  2  3  2  0  0  0
  2  4  1  0  0  0
  4  5  2  0  0  0
  4  8  1  0  0  0
  5  6  1  0  0  0
  5  9  1  0  0  0
  6  7  1  0  0  0
  6 30  1  0  0  0
  6 31  1  0  0  0
  7  8  1  0  0  0
  7 32  1  0  0  0
  7 33  1  0  0  0
  8 34  1  0  0  0
  8 35  1  0  0  0
  9 10  2  0  0  0
  9 11  1  0  0  0
 11 12  1  0  0  0
 11 36  1  0  0  0
 12 13  1  0  0  0
 12 16  2  0  0  0
 13 14  1  0  0  0
 14 15  2  0  0  0
 14 37  1  0  0  0
 15 16  1  0  0  0
 15 25  1  0  0  0
 16 17  1  0  0  0
 17 18  1  0  0  0
 17 21  2  0  0  0
 18 19  1  0  0  0
 19 20  2  0  0  0
 20 21  1  0  0  0
 20 22  1  0  0  0
 22 23  1  0  0  0
 22 24  1  0  0  0
 22 38  1  0  0  0
 23 24  1  0  0  0
 23 39  1  0  0  0
 23 40  1  0  0  0
 24 41  1  0  0  0
 24 42  1  0  0  0
 25 26  1  0  0  0
 25 27  1  0  0  0
 25 28  1  0  0  0
M  END
> <s_m_entry_id>
2497

> <s_m_entry_name>
dock_pv.25

> <s_m_Source_Path>
/home/csk/Desktop/cluster/DUD-E-result/fabp4

> <s_m_Source_File>
dock_pv.maegz

> <i_m_Source_File_Index>
25

> <chembl_id>
CHEMBL3897486

> <chembl_pref_name>
None

> <i_lp_mmshare_version>
53161

> <r_lp_tautomer_probability>
1

> <s_lp_Force_Field>
OPLS_2005

> <r_lp_Energy>
35.137523

> <b_lp_Chiralities_Consistent>
1

> <s_lp_Variant>
CHEMBL2083_lig128-1

> <s_i_glide_gridfile>
glide-grid_2nnq

> <i_i_glide_lignum>
138

> <i_i_glide_rotatable_bonds>
8

> <r_i_docking_score>
-7.90032630534658

> <r_i_glide_ligand_efficiency>
-0.282154510905235

> <r_i_glide_ligand_efficiency_sa>
-0.856787275228145

> <r_i_glide_ligand_efficiency_ln>
-1.82362727493377

> <r_i_glide_gscore>
-7.90032630534658

> <r_i_glide_lipo>
-2.37349101258628

> <r_i_glide_hbond>
-0.626103936507778

> <r_i_glide_metal>
0

> <r_i_glide_rewards>
-2.28210798095479

> <r_i_glide_evdw>
-45.8173446655273

> <r_i_glide_ecoul>
-6.80303001403809

> <r_i_glide_erotb>
0.692698360084344

> <r_i_glide_esite>
0

> <r_i_glide_emodel>
-70.7614468810716

> <r_i_glide_energy>
-52.6203746795654

> <r_i_glide_einternal>
12.0190887451172

> <i_i_glide_confnum>
136

> <i_i_glide_posenum>
92

> <r_i_glide_eff_state_penalty>
0

> <s_user_duplicate_titles>
CHEMBL2083_lig128

> <i_f3d_flags>
0

> <s_m_subgroup_title>
dock_pv

> <s_m_subgroupid>
dock_pv

> <b_m_subgroup_collapsed>
1

$$$$
CHEMBL2083_lig174
                    3D
 Schrodinger Suite 2021-1.
 57 61  0  0  1  0            999 V2000
    3.5079   10.6883   17.0660 C   0  0  0  0  0  0
    3.0194   11.8745   17.6142 C   0  0  0  0  0  0
    2.7393   12.9584   16.7889 C   0  0  0  0  0  0
    2.9490   12.8653   15.4149 C   0  0  0  0  0  0
    3.4739   11.6949   14.8667 C   0  0  0  0  0  0
    3.7771   10.6009   15.6871 C   0  0  0  0  0  0
    4.3921    9.3735   15.1174 C   0  0  0  0  0  0
    5.5324    7.0062   14.1597 C   0  0  0  0  0  0
    4.2597    7.3913   13.7421 C   0  0  0  0  0  0
    3.7034    8.5827   14.1979 C   0  0  0  0  0  0
    6.2377    7.7792   15.0795 C   0  0  0  0  0  0
    5.6515    8.9527   15.5625 C   0  0  0  0  0  0
    7.8768    7.3244   17.9399 C   0  0  0  0  0  0
    8.2814    7.9173   16.5747 C   0  0  0  0  0  0
    7.5197    7.3456   15.4564 N   0  0  0  0  0  0
    8.7178    7.7506   18.9273 O   0  0  0  0  0  0
    6.9300    6.5598   18.1193 O   0  0  0  0  0  0
    3.6489    9.4994   17.9434 C   0  0  0  0  0  0
    4.4812    9.3975   19.0156 N   0  0  0  0  0  0
    4.3191    8.1414   19.5471 C   0  0  0  0  0  0
    3.3493    7.5455   18.7044 C   0  0  0  0  0  0
    2.9936    8.3892   17.7449 N   0  0  0  0  0  0
    5.0393    7.7428   20.7909 C   0  0  0  0  0  0
    6.3350    8.2240   21.0061 C   0  0  0  0  0  0
    7.0206    7.9042   22.1699 C   0  0  0  0  0  0
    6.3969    7.1256   23.1370 C   0  0  0  0  0  0
    5.1081    6.6358   22.9378 C   0  0  0  0  0  0
    4.4269    6.9474   21.7637 C   0  0  0  0  0  0
    2.6811    6.1957   18.7334 C   0  0  0  0  0  0
    3.3053    5.0855   19.3092 C   0  0  0  0  0  0
    2.6583    3.8511   19.3422 C   0  0  0  0  0  0
    1.3969    3.7152   18.7746 C   0  0  0  0  0  0
    0.7730    4.7977   18.1648 C   0  0  0  0  0  0
    1.4113    6.0335   18.1528 C   0  0  0  0  0  0
    2.8155   11.9469   18.6723 H   0  0  0  0  0  0
    2.3464   13.8692   17.2179 H   0  0  0  0  0  0
    2.7143   13.7084   14.7820 H   0  0  0  0  0  0
    3.6568   11.6436   13.8028 H   0  0  0  0  0  0
    5.9627    6.1002   13.7622 H   0  0  0  0  0  0
    3.7124    6.7785   13.0422 H   0  0  0  0  0  0
    2.7204    8.8714   13.8621 H   0  0  0  0  0  0
    6.1625    9.5591   16.2938 H   0  0  0  0  0  0
    8.1932    9.0031   16.6084 H   0  0  0  0  0  0
    9.3374    7.7091   16.4031 H   0  0  0  0  0  0
    7.7725    6.4080   15.1772 H   0  0  0  0  0  0
    9.4583    8.2650   18.6029 H   0  0  0  0  0  0
    5.0950   10.1192   19.3618 H   0  0  0  0  0  0
    6.8166    8.8487   20.2705 H   0  0  0  0  0  0
    8.0209    8.2753   22.3320 H   0  0  0  0  0  0
    6.9197    6.9092   24.0569 H   0  0  0  0  0  0
    4.6315    6.0344   23.6975 H   0  0  0  0  0  0
    3.4175    6.5904   21.6229 H   0  0  0  0  0  0
    4.2956    5.1771   19.7266 H   0  0  0  0  0  0
    3.1207    2.9928   19.8034 H   0  0  0  0  0  0
    0.9010    2.7592   18.8045 H   0  0  0  0  0  0
   -0.2072    4.6846   17.7239 H   0  0  0  0  0  0
    0.9037    6.8701   17.6940 H   0  0  0  0  0  0
  1  6  1  0  0  0
  1  2  2  0  0  0
  1 18  1  0  0  0
  2  3  1  0  0  0
  2 35  1  0  0  0
  3  4  2  0  0  0
  3 36  1  0  0  0
  4  5  1  0  0  0
  4 37  1  0  0  0
  5  6  2  0  0  0
  5 38  1  0  0  0
  6  7  1  0  0  0
  7 10  1  0  0  0
  7 12  2  0  0  0
  8  9  1  0  0  0
  8 11  2  0  0  0
  8 39  1  0  0  0
  9 10  2  0  0  0
  9 40  1  0  0  0
 10 41  1  0  0  0
 11 12  1  0  0  0
 11 15  1  0  0  0
 12 42  1  0  0  0
 13 16  1  0  0  0
 13 17  2  0  0  0
 13 14  1  0  0  0
 14 15  1  0  0  0
 14 43  1  0  0  0
 14 44  1  0  0  0
 15 45  1  0  0  0
 16 46  1  0  0  0
 18 19  1  0  0  0
 18 22  2  0  0  0
 19 20  1  0  0  0
 19 47  1  0  0  0
 20 21  2  0  0  0
 20 23  1  0  0  0
 21 29  1  0  0  0
 21 22  1  0  0  0
 23 24  2  0  0  0
 23 28  1  0  0  0
 24 25  1  0  0  0
 24 48  1  0  0  0
 25 26  2  0  0  0
 25 49  1  0  0  0
 26 27  1  0  0  0
 26 50  1  0  0  0
 27 28  2  0  0  0
 27 51  1  0  0  0
 28 52  1  0  0  0
 29 30  2  0  0  0
 29 34  1  0  0  0
 30 31  1  0  0  0
 30 53  1  0  0  0
 31 32  2  0  0  0
 31 54  1  0  0  0
 32 33  1  0  0  0
 32 55  1  0  0  0
 33 34  2  0  0  0
 33 56  1  0  0  0
 34 57  1  0  0  0
M  END
> <s_m_entry_id>
2498

> <s_m_entry_name>
dock_pv.26

> <s_m_Source_Path>
/home/csk/Desktop/cluster/DUD-E-result/fabp4

> <s_m_Source_File>
dock_pv.maegz

> <i_m_Source_File_Index>
26

> <chembl_id>
CHEMBL248145

> <chembl_pref_name>
None

> <i_lp_mmshare_version>
53161

> <r_lp_tautomer_probability>
0.499999999999999

> <s_lp_Force_Field>
OPLS_2005

> <r_lp_Energy>
32.701778

> <b_lp_Chiralities_Consistent>
1

> <s_lp_Variant>
CHEMBL2083_lig174-1

> <s_i_glide_gridfile>
glide-grid_2nnq

> <i_i_glide_lignum>
190

> <i_i_glide_rotatable_bonds>
8

> <r_i_docking_score>
-7.8469399115824

> <r_i_glide_ligand_efficiency>
-0.230792350340659

> <r_i_glide_ligand_efficiency_sa>
-0.747677620929306

> <r_i_glide_ligand_efficiency_ln>
-1.73360912567782

> <r_i_glide_gscore>
-7.8469399115824

> <r_i_glide_lipo>
-4.81992542427547

> <r_i_glide_hbond>
0

> <r_i_glide_metal>
0

> <r_i_glide_rewards>
-0.859254074425252

> <r_i_glide_evdw>
-50.4527893066406

> <r_i_glide_ecoul>
-2.30679559707642

> <r_i_glide_erotb>
0.70566849457532

> <r_i_glide_esite>
-0.00477010256350285

> <r_i_glide_emodel>
-70.3099062177163

> <r_i_glide_energy>
-52.759584903717

> <r_i_glide_einternal>
6.21407556533813

> <i_i_glide_confnum>
74

> <i_i_glide_posenum>
7

> <r_i_glide_eff_state_penalty>
0

> <s_user_duplicate_titles>
CHEMBL2083_lig174,412696

> <i_f3d_flags>
0

> <s_m_subgroup_title>
dock_pv

> <s_m_subgroupid>
dock_pv

> <b_m_subgroup_collapsed>
1

$$$$
CHEMBL2083_lig172
                    3D
 Schrodinger Suite 2021-1.
 60 64  0  0  1  0            999 V2000
    1.6062    7.7104   17.7150 C   0  0  0  0  0  0
    0.6385    6.9768   18.4017 C   0  0  0  0  0  0
   -0.7050    7.2348   18.1600 C   0  0  0  0  0  0
   -1.0537    8.2287   17.2514 C   0  0  0  0  0  0
   -0.0968    8.9087   16.5423 C   0  0  0  0  0  0
    1.2505    8.6484   16.7278 C   0  0  0  0  0  0
    2.2228    9.4549   15.9428 C   0  0  0  0  0  0
    4.0252   11.1172   14.5690 C   0  0  0  0  0  0
    3.8220    9.8006   14.1467 C   0  0  0  0  0  0
    2.9389    8.9701   14.8433 C   0  0  0  0  0  0
    3.3308   11.6062   15.6767 C   0  0  0  0  0  0
    2.3931   10.7806   16.3024 C   0  0  0  0  0  0
    4.0647   12.1646   18.5573 C   0  0  0  0  0  0
    3.3281   13.1522   17.6148 C   0  0  0  0  0  0
    3.6299   12.8789   16.1991 N   0  0  0  0  0  0
    5.3519   12.5083   18.8130 O   0  0  0  0  0  0
    3.5187   11.2037   19.0847 O   0  0  0  0  0  0
    3.0217    7.4681   17.9806 C   0  0  0  0  0  0
    3.7717    8.1526   18.8105 N   0  0  0  0  0  0
    5.0139    7.8689   18.4617 C   0  0  0  0  0  0
    5.0240    7.0016   17.3721 C   0  0  0  0  0  0
    3.7237    6.6296   17.1754 N   0  0  0  0  0  0
    6.1832    8.4521   19.1730 C   0  0  0  0  0  0
    6.3690    8.1732   20.5292 C   0  0  0  0  0  0
    7.5104    8.6299   21.1812 C   0  0  0  0  0  0
    8.4496    9.3867   20.4835 C   0  0  0  0  0  0
    8.2561    9.6951   19.1397 C   0  0  0  0  0  0
    7.1241    9.2191   18.4803 C   0  0  0  0  0  0
    6.0932    6.4821   16.5278 C   0  0  0  0  0  0
    7.2183    5.9329   17.1198 C   0  0  0  0  0  0
    8.1467    5.3147   16.3100 C   0  0  0  0  0  0
    7.9191    5.2283   14.9402 C   0  0  0  0  0  0
    6.8442    5.8609   14.3383 C   0  0  0  0  0  0
    5.9286    6.5096   15.1412 C   0  0  0  0  0  0
    3.1885    5.6144   16.2728 C   0  0  0  0  0  0
    0.9306    6.2341   19.1300 H   0  0  0  0  0  0
   -1.4730    6.6933   18.6920 H   0  0  0  0  0  0
   -2.0744    8.5107   17.0661 H   0  0  0  0  0  0
   -0.4229    9.6533   15.8311 H   0  0  0  0  0  0
    4.7388   11.7420   14.0516 H   0  0  0  0  0  0
    4.3561    9.4193   13.2881 H   0  0  0  0  0  0
    2.7757    7.9634   14.4955 H   0  0  0  0  0  0
    1.8287   11.1322   17.1489 H   0  0  0  0  0  0
    2.2553   13.0624   17.7691 H   0  0  0  0  0  0
    3.5215   14.1911   17.8745 H   0  0  0  0  0  0
    4.3981   13.3964   15.7926 H   0  0  0  0  0  0
    5.5252   13.4408   18.5398 H   0  0  0  0  0  0
    5.6469    7.5774   21.0679 H   0  0  0  0  0  0
    7.6679    8.3896   22.2230 H   0  0  0  0  0  0
    9.3453    9.7280   20.9814 H   0  0  0  0  0  0
    8.9908   10.2896   18.6145 H   0  0  0  0  0  0
    6.9785    9.4355   17.4323 H   0  0  0  0  0  0
    7.3585    5.9642   18.1896 H   0  0  0  0  0  0
    9.0423    4.9102   16.7514 H   0  0  0  0  0  0
    8.6417    4.7222   14.3218 H   0  0  0  0  0  0
    6.7120    5.8338   13.2668 H   0  0  0  0  0  0
    5.0749    6.9874   14.6874 H   0  0  0  0  0  0
    3.8493    4.7475   16.2685 H   0  0  0  0  0  0
    2.1977    5.3101   16.6093 H   0  0  0  0  0  0
    3.1037    6.0062   15.2629 H   0  0  0  0  0  0
  1 18  1  0  0  0
  1  6  1  0  0  0
  1  2  2  0  0  0
  2  3  1  0  0  0
  2 36  1  0  0  0
  3  4  2  0  0  0
  3 37  1  0  0  0
  4  5  1  0  0  0
  4 38  1  0  0  0
  5  6  2  0  0  0
  5 39  1  0  0  0
  6  7  1  0  0  0
  7 10  1  0  0  0
  7 12  2  0  0  0
  8  9  1  0  0  0
  8 11  2  0  0  0
  8 40  1  0  0  0
  9 10  2  0  0  0
  9 41  1  0  0  0
 10 42  1  0  0  0
 11 12  1  0  0  0
 11 15  1  0  0  0
 12 43  1  0  0  0
 13 17  2  0  0  0
 13 14  1  0  0  0
 13 16  1  0  0  0
 14 15  1  0  0  0
 14 44  1  0  0  0
 14 45  1  0  0  0
 15 46  1  0  0  0
 16 47  1  0  0  0
 18 19  2  0  0  0
 18 22  1  0  0  0
 19 20  1  0  0  0
 20 21  2  0  0  0
 20 23  1  0  0  0
 21 22  1  0  0  0
 21 29  1  0  0  0
 22 35  1  0  0  0
 23 24  2  0  0  0
 23 28  1  0  0  0
 24 25  1  0  0  0
 24 48  1  0  0  0
 25 26  2  0  0  0
 25 49  1  0  0  0
 26 27  1  0  0  0
 26 50  1  0  0  0
 27 28  2  0  0  0
 27 51  1  0  0  0
 28 52  1  0  0  0
 29 30  2  0  0  0
 29 34  1  0  0  0
 30 31  1  0  0  0
 30 53  1  0  0  0
 31 32  2  0  0  0
 31 54  1  0  0  0
 32 33  1  0  0  0
 32 55  1  0  0  0
 33 34  2  0  0  0
 33 56  1  0  0  0
 34 57  1  0  0  0
 35 58  1  0  0  0
 35 59  1  0  0  0
 35 60  1  0  0  0
M  END
> <s_m_entry_id>
2499

> <s_m_entry_name>
dock_pv.27

> <s_m_Source_Path>
/home/csk/Desktop/cluster/DUD-E-result/fabp4

> <s_m_Source_File>
dock_pv.maegz

> <i_m_Source_File_Index>
27

> <chembl_id>
CHEMBL245282

> <chembl_pref_name>
None

> <i_lp_mmshare_version>
53161

> <r_lp_tautomer_probability>
1

> <s_lp_Force_Field>
OPLS_2005

> <r_lp_Energy>
35.196306

> <b_lp_Chiralities_Consistent>
1

> <s_lp_Variant>
CHEMBL2083_lig172-1

> <s_i_glide_gridfile>
glide-grid_2nnq

> <i_i_glide_lignum>
188

> <i_i_glide_rotatable_bonds>
8

> <r_i_docking_score>
-7.84056307367236

> <r_i_glide_ligand_efficiency>
-0.22401608781921

> <r_i_glide_ligand_efficiency_sa>
-0.732771476937248

> <r_i_glide_ligand_efficiency_ln>
-1.72117760659299

> <r_i_glide_gscore>
-7.84056307367236

> <r_i_glide_lipo>
-4.0707737957176

> <r_i_glide_hbond>
-0.305994128120911

> <r_i_glide_metal>
0

> <r_i_glide_rewards>
-0.651519232363489

> <r_i_glide_evdw>
-29.5468349456787

> <r_i_glide_ecoul>
-12.7851476669312

> <r_i_glide_erotb>
0.666979398788619

> <r_i_glide_esite>
-0.0841414189353692

> <r_i_glide_emodel>
-37.3210013519833

> <r_i_glide_energy>
-42.3319826126099

> <r_i_glide_einternal>
10.3126010894775

> <i_i_glide_confnum>
88

> <i_i_glide_posenum>
134

> <r_i_glide_eff_state_penalty>
0

> <s_user_duplicate_titles>
CHEMBL2083_lig172

> <i_f3d_flags>
0

> <s_m_subgroup_title>
dock_pv

> <s_m_subgroupid>
dock_pv

> <b_m_subgroup_collapsed>
1

$$$$
CHEMBL2083_lig102
                    3D
 Schrodinger Suite 2021-1.
 52 56  0  0  1  0            999 V2000
    0.4386    3.7432   18.5398 C   0  0  0  0  0  0
    1.3156    4.9428   18.2468 C   0  0  0  0  0  0
    2.9776    4.9119   18.7676 S   0  0  0  0  0  0
    3.2637    6.4650   18.0689 C   0  0  0  0  0  0
    4.4998    7.0715   18.1395 N   0  0  0  0  0  0
    4.9494    7.6693   19.2583 C   0  0  0  0  0  0
    4.4621    7.5283   20.3813 O   0  0  0  0  0  0
    6.0908    8.5227   19.0052 C   0  0  0  0  0  0
    6.1548    9.8942   19.1219 C   0  0  0  0  0  0
    7.5632   10.4650   18.8256 C   0  0  2  0  0  0
    8.5158    9.7768   19.8428 C   0  0  0  0  0  0
    8.4270    8.2257   19.7100 C   0  0  0  0  0  0
    7.4138    7.8355   18.6024 C   0  0  1  0  0  0
    7.8541    8.4672   17.2505 C   0  0  0  0  0  0
    7.9188   10.0216   17.3781 C   0  0  0  0  0  0
    5.0677   10.7955   19.5005 C   0  0  0  0  0  0
    3.9203   10.4371   19.7367 O   0  0  0  0  0  0
    5.4261   12.1089   19.5962 O   0  0  0  0  0  0
    2.1427    6.9734   17.4361 C   0  0  0  0  0  0
    1.0042    6.1582   17.6037 C   0  0  0  0  0  0
   -0.3662    6.5192   17.0569 C   0  0  0  0  0  0
    2.1777    8.2486   16.7484 C   0  0  0  0  0  0
    1.5817    9.3051   17.3418 O   0  0  0  0  0  0
    1.9201   10.3933   16.5496 N   0  0  0  0  0  0
    2.5913    9.8460   15.5618 C   0  0  0  0  0  0
    2.8237    8.5518   15.6542 N   0  0  0  0  0  0
    3.0113   10.6471   14.3463 C   0  0  0  0  0  0
    2.0550   11.6851   13.8024 C   0  0  0  0  0  0
    3.3633   12.1148   14.4375 C   0  0  0  0  0  0
   -0.5939    3.8911   18.2221 H   0  0  0  0  0  0
    0.8029    2.8560   18.0238 H   0  0  0  0  0  0
    0.4150    3.5065   19.6053 H   0  0  0  0  0  0
    4.9429    7.3188   17.2679 H   0  0  0  0  0  0
    7.6665   11.5464   18.9021 H   0  0  0  0  0  0
    8.2649   10.0814   20.8596 H   0  0  0  0  0  0
    9.5323   10.1089   19.6735 H   0  0  0  0  0  0
    9.4104    7.8042   19.4939 H   0  0  0  0  0  0
    8.1027    7.7910   20.6554 H   0  0  0  0  0  0
    7.3345    6.7487   18.5198 H   0  0  0  0  0  0
    7.1648    8.1779   16.4561 H   0  0  0  0  0  0
    8.8304    8.0764   16.9595 H   0  0  0  0  0  0
    7.2100   10.4767   16.6844 H   0  0  0  0  0  0
    8.9029   10.3965   17.0948 H   0  0  0  0  0  0
    6.3191   12.3297   19.3247 H   0  0  0  0  0  0
   -0.3242    7.2704   16.2671 H   0  0  0  0  0  0
   -0.8734    5.6693   16.6081 H   0  0  0  0  0  0
   -1.0257    6.8893   17.8432 H   0  0  0  0  0  0
    3.5639   10.0661   13.6058 H   0  0  0  0  0  0
    1.9190   11.7098   12.7229 H   0  0  0  0  0  0
    1.1210   11.8868   14.3293 H   0  0  0  0  0  0
    3.3458   12.6035   15.4131 H   0  0  0  0  0  0
    4.1553   12.5055   13.7975 H   0  0  0  0  0  0
  1  2  1  0  0  0
  1 30  1  0  0  0
  1 31  1  0  0  0
  1 32  1  0  0  0
  2  3  1  0  0  0
  2 20  2  0  0  0
  3  4  1  0  0  0
  4  5  1  0  0  0
  4 19  2  0  0  0
  5  6  1  0  0  0
  5 33  1  0  0  0
  6  7  2  0  0  0
  6  8  1  0  0  0
  8  9  2  0  0  0
  8 13  1  0  0  0
  9 10  1  0  0  0
  9 16  1  0  0  0
 10 11  1  0  0  0
 10 15  1  0  0  0
 10 34  1  0  0  0
 11 12  1  0  0  0
 11 35  1  0  0  0
 11 36  1  0  0  0
 12 13  1  0  0  0
 12 37  1  0  0  0
 12 38  1  0  0  0
 13 14  1  0  0  0
 13 39  1  0  0  0
 14 15  1  0  0  0
 14 40  1  0  0  0
 14 41  1  0  0  0
 15 42  1  0  0  0
 15 43  1  0  0  0
 16 17  2  0  0  0
 16 18  1  0  0  0
 18 44  1  0  0  0
 19 20  1  0  0  0
 19 22  1  0  0  0
 20 21  1  0  0  0
 21 45  1  0  0  0
 21 46  1  0  0  0
 21 47  1  0  0  0
 22 23  1  0  0  0
 22 26  2  0  0  0
 23 24  1  0  0  0
 24 25  2  0  0  0
 25 26  1  0  0  0
 25 27  1  0  0  0
 27 28  1  0  0  0
 27 29  1  0  0  0
 27 48  1  0  0  0
 28 29  1  0  0  0
 28 49  1  0  0  0
 28 50  1  0  0  0
 29 51  1  0  0  0
 29 52  1  0  0  0
M  END
> <s_m_entry_id>
2500

> <s_m_entry_name>
dock_pv.28

> <s_m_Source_Path>
/home/csk/Desktop/cluster/DUD-E-result/fabp4

> <s_m_Source_File>
dock_pv.maegz

> <i_m_Source_File_Index>
28

> <chembl_id>
CHEMBL3891355

> <chembl_pref_name>
None

> <i_lp_mmshare_version>
53161

> <r_lp_tautomer_probability>
1

> <s_lp_Force_Field>
OPLS_2005

> <r_lp_Energy>
50.483341

> <b_lp_Chiralities_Consistent>
1

> <s_lp_Variant>
CHEMBL2083_lig102-1

> <s_i_glide_gridfile>
glide-grid_2nnq

> <i_i_glide_lignum>
112

> <i_i_glide_rotatable_bonds>
7

> <r_i_docking_score>
-7.83213069581476

> <r_i_glide_ligand_efficiency>
-0.270073472269475

> <r_i_glide_ligand_efficiency_sa>
-0.829751272093568

> <r_i_glide_ligand_efficiency_ln>
-1.7933593236433

> <r_i_glide_gscore>
-7.83213069581476

> <r_i_glide_lipo>
-3.59036307447566

> <r_i_glide_hbond>
-0.32

> <r_i_glide_metal>
0

> <r_i_glide_rewards>
-1.0193703315223

> <r_i_glide_evdw>
-47.6225166320801

> <r_i_glide_ecoul>
-7.94928312301636

> <r_i_glide_erotb>
0.692338367286243

> <r_i_glide_esite>
-0.021217357046591

> <r_i_glide_emodel>
-74.7457736871724

> <r_i_glide_energy>
-55.5717997550964

> <r_i_glide_einternal>
11.7628698348999

> <i_i_glide_confnum>
114

> <i_i_glide_posenum>
46

> <r_i_glide_eff_state_penalty>
0

> <s_user_duplicate_titles>
CHEMBL2083_lig102

> <i_f3d_flags>
0

> <s_m_subgroup_title>
dock_pv

> <s_m_subgroupid>
dock_pv

> <b_m_subgroup_collapsed>
1

$$$$
CHEMBL2083_lig124
                    3D
 Schrodinger Suite 2021-1.
 46 50  0  0  1  0            999 V2000
    7.8875    9.4028   19.2793 O   0  0  0  0  0  0
    7.8906    9.3617   20.6421 C   0  0  0  0  0  0
    8.7204    9.9497   21.3376 O   0  0  0  0  0  0
    6.8455    8.5172   21.2021 C   0  0  0  0  0  0
    5.5208    8.5334   20.8753 C   0  0  0  0  0  0
    4.7159    7.5680   21.7263 C   0  0  0  0  0  0
    5.7530    6.9152   22.6338 C   0  0  0  0  0  0
    7.1081    7.5609   22.3568 C   0  0  0  0  0  0
    4.8924    9.3774   19.8810 C   0  0  0  0  0  0
    4.4809   10.5086   20.1420 O   0  0  0  0  0  0
    4.7971    8.7823   18.6787 N   0  0  0  0  0  0
    4.0481    9.3109   17.6450 C   0  0  0  0  0  0
    4.5581   10.7620   16.8241 S   0  0  0  0  0  0
    3.1764   10.7067   15.7648 C   0  0  0  0  0  0
    2.4170    9.5794   16.0530 C   0  0  0  0  0  0
    2.8778    8.7836   17.1048 C   0  0  0  0  0  0
    2.1678    7.5883   17.5363 C   0  0  0  0  0  0
    0.9853    7.2830   16.9425 O   0  0  0  0  0  0
    0.5629    6.1130   17.5633 N   0  0  0  0  0  0
    1.5267    5.8789   18.4267 C   0  0  0  0  0  0
    2.5189    6.7403   18.4644 N   0  0  0  0  0  0
    1.5247    4.6696   19.3282 C   0  0  0  0  0  0
    0.7798    3.4205   18.9435 C   0  0  0  0  0  0
    2.2992    3.4414   18.9451 C   0  0  0  0  0  0
    2.9146   11.7670   14.7230 C   0  0  0  0  0  0
    1.5271   11.9096   14.1420 C   0  0  0  0  0  0
    2.0794   12.9718   15.0659 C   0  0  0  0  0  0
    7.1768    8.8850   18.9019 H   0  0  0  0  0  0
    4.1927    6.8305   21.1155 H   0  0  0  0  0  0
    3.9666    8.1055   22.3103 H   0  0  0  0  0  0
    5.7957    5.8389   22.4550 H   0  0  0  0  0  0
    5.4766    7.0347   23.6830 H   0  0  0  0  0  0
    7.4797    8.1024   23.2296 H   0  0  0  0  0  0
    7.8436    6.7986   22.1026 H   0  0  0  0  0  0
    4.9611    7.7879   18.6471 H   0  0  0  0  0  0
    1.5204    9.3408   15.5051 H   0  0  0  0  0  0
    1.5559    4.9213   20.3889 H   0  0  0  0  0  0
    0.2403    2.9090   19.7387 H   0  0  0  0  0  0
    0.2479    3.3831   17.9919 H   0  0  0  0  0  0
    2.8401    3.4641   18.0039 H   0  0  0  0  0  0
    2.8393    2.9093   19.7284 H   0  0  0  0  0  0
    3.7492   11.9317   14.0397 H   0  0  0  0  0  0
    1.4353   12.1087   13.0753 H   0  0  0  0  0  0
    0.6996   11.3090   14.5145 H   0  0  0  0  0  0
    1.6949   13.0578   16.0819 H   0  0  0  0  0  0
    2.3168   13.9414   14.6325 H   0  0  0  0  0  0
  1  2  1  0  0  0
  1 28  1  0  0  0
  2  3  2  0  0  0
  2  4  1  0  0  0
  4  5  2  0  0  0
  4  8  1  0  0  0
  5  6  1  0  0  0
  5  9  1  0  0  0
  6  7  1  0  0  0
  6 29  1  0  0  0
  6 30  1  0  0  0
  7  8  1  0  0  0
  7 31  1  0  0  0
  7 32  1  0  0  0
  8 33  1  0  0  0
  8 34  1  0  0  0
  9 10  2  0  0  0
  9 11  1  0  0  0
 11 12  1  0  0  0
 11 35  1  0  0  0
 12 13  1  0  0  0
 12 16  2  0  0  0
 13 14  1  0  0  0
 14 15  2  0  0  0
 14 25  1  0  0  0
 15 16  1  0  0  0
 15 36  1  0  0  0
 16 17  1  0  0  0
 17 18  1  0  0  0
 17 21  2  0  0  0
 18 19  1  0  0  0
 19 20  2  0  0  0
 20 21  1  0  0  0
 20 22  1  0  0  0
 22 23  1  0  0  0
 22 24  1  0  0  0
 22 37  1  0  0  0
 23 24  1  0  0  0
 23 38  1  0  0  0
 23 39  1  0  0  0
 24 40  1  0  0  0
 24 41  1  0  0  0
 25 26  1  0  0  0
 25 27  1  0  0  0
 25 42  1  0  0  0
 26 27  1  0  0  0
 26 43  1  0  0  0
 26 44  1  0  0  0
 27 45  1  0  0  0
 27 46  1  0  0  0
M  END
> <s_m_entry_id>
2501

> <s_m_entry_name>
dock_pv.29

> <s_m_Source_Path>
/home/csk/Desktop/cluster/DUD-E-result/fabp4

> <s_m_Source_File>
dock_pv.maegz

> <i_m_Source_File_Index>
29

> <chembl_id>
CHEMBL3981828

> <chembl_pref_name>
None

> <i_lp_mmshare_version>
53161

> <r_lp_tautomer_probability>
1

> <s_lp_Force_Field>
OPLS_2005

> <r_lp_Energy>
33.097763

> <b_lp_Chiralities_Consistent>
1

> <s_lp_Variant>
CHEMBL2083_lig124-1

> <s_i_glide_gridfile>
glide-grid_2nnq

> <i_i_glide_lignum>
134

> <i_i_glide_rotatable_bonds>
8

> <r_i_docking_score>
-7.80670058064373

> <r_i_glide_ligand_efficiency>
-0.28913705854236

> <r_i_glide_ligand_efficiency_sa>
-0.867411174674133

> <r_i_glide_ligand_efficiency_ln>
-1.81727119165606

> <r_i_glide_gscore>
-7.80670058064373

> <r_i_glide_lipo>
-3.39320586471224

> <r_i_glide_hbond>
-0.631772430960681

> <r_i_glide_metal>
0

> <r_i_glide_rewards>
-1.56618170878106

> <r_i_glide_evdw>
-45.9831886291504

> <r_i_glide_ecoul>
-5.55315494537354

> <r_i_glide_erotb>
0.916592097073798

> <r_i_glide_esite>
0

> <r_i_glide_emodel>
-70.1369808914031

> <r_i_glide_energy>
-51.5363435745239

> <r_i_glide_einternal>
7.43644618988037

> <i_i_glide_confnum>
151

> <i_i_glide_posenum>
198

> <r_i_glide_eff_state_penalty>
0

> <s_user_duplicate_titles>
CHEMBL2083_lig124

> <i_f3d_flags>
0

> <s_m_subgroup_title>
dock_pv

> <s_m_subgroupid>
dock_pv

> <b_m_subgroup_collapsed>
1

$$$$
CHEMBL2083_lig78
                    3D
 Schrodinger Suite 2021-1.
 41 43  0  0  1  0            999 V2000
    4.9435   12.8937   16.5422 O   0  0  0  0  0  0
    3.9084   12.1690   17.0580 C   0  0  0  0  0  0
    3.1854   12.5457   17.9580 O   0  0  0  0  0  0
    3.7667   10.7794   16.3633 C   0  0  0  0  0  0
    4.1926   10.7785   14.8702 C   0  0  0  0  0  0
    2.8666   10.1000   14.5155 C   0  0  0  0  0  0
    2.3148   10.5813   15.8621 C   0  0  0  0  0  0
    4.2735    9.6085   17.1267 N   0  0  0  0  0  0
    4.2227    9.3297   18.4453 C   0  0  0  0  0  0
    4.0143   10.1601   19.3341 O   0  0  0  0  0  0
    4.4294    8.0164   18.6801 N   0  0  0  0  0  0
    4.5209    7.4551   19.9650 C   0  0  0  0  0  0
    5.5952    7.8442   20.7812 C   0  0  0  0  0  0
    5.7460    7.3092   22.0573 C   0  0  0  0  0  0
    7.1227    7.7065   23.0148 Cl  0  0  0  0  0  0
    4.7963    6.4259   22.5483 C   0  0  0  0  0  0
    3.7467    6.0109   21.7353 C   0  0  0  0  0  0
    3.6119    6.4669   20.4133 C   0  0  0  0  0  0
    2.5334    5.8562   19.5694 C   0  0  0  0  0  0
    1.6934    6.6275   18.7557 C   0  0  0  0  0  0
    0.6628    6.0330   18.0300 C   0  0  0  0  0  0
    0.4594    4.6581   18.1216 C   0  0  0  0  0  0
    1.2948    3.8698   18.9056 C   0  0  0  0  0  0
    2.3275    4.4686   19.6185 C   0  0  0  0  0  0
    5.1202   13.6672   17.1125 H   0  0  0  0  0  0
    5.0805   10.1897   14.6378 H   0  0  0  0  0  0
    4.3038   11.7637   14.4102 H   0  0  0  0  0  0
    2.9374    9.0147   14.4354 H   0  0  0  0  0  0
    2.3621   10.5034   13.6371 H   0  0  0  0  0  0
    1.7183   11.4938   15.7930 H   0  0  0  0  0  0
    1.7271    9.8378   16.4038 H   0  0  0  0  0  0
    4.2518    8.7735   16.5632 H   0  0  0  0  0  0
    4.5030    7.3772   17.9040 H   0  0  0  0  0  0
    6.3267    8.5475   20.4130 H   0  0  0  0  0  0
    4.8893    6.0314   23.5485 H   0  0  0  0  0  0
    3.0374    5.3066   22.1417 H   0  0  0  0  0  0
    1.8069    7.6994   18.7071 H   0  0  0  0  0  0
    0.0115    6.6363   17.4168 H   0  0  0  0  0  0
   -0.3537    4.1981   17.5769 H   0  0  0  0  0  0
    1.1354    2.8030   18.9696 H   0  0  0  0  0  0
    2.9693    3.8406   20.2179 H   0  0  0  0  0  0
  1  2  1  0  0  0
  1 25  1  0  0  0
  2  3  2  0  0  0
  2  4  1  0  0  0
  4  5  1  0  0  0
  4  7  1  0  0  0
  4  8  1  0  0  0
  5  6  1  0  0  0
  5 26  1  0  0  0
  5 27  1  0  0  0
  6  7  1  0  0  0
  6 28  1  0  0  0
  6 29  1  0  0  0
  7 30  1  0  0  0
  7 31  1  0  0  0
  8  9  1  0  0  0
  8 32  1  0  0  0
  9 10  2  0  0  0
  9 11  1  0  0  0
 11 12  1  0  0  0
 11 33  1  0  0  0
 12 13  2  0  0  0
 12 18  1  0  0  0
 13 14  1  0  0  0
 13 34  1  0  0  0
 14 15  1  0  0  0
 14 16  2  0  0  0
 16 17  1  0  0  0
 16 35  1  0  0  0
 17 18  2  0  0  0
 17 36  1  0  0  0
 18 19  1  0  0  0
 19 20  2  0  0  0
 19 24  1  0  0  0
 20 21  1  0  0  0
 20 37  1  0  0  0
 21 22  2  0  0  0
 21 38  1  0  0  0
 22 23  1  0  0  0
 22 39  1  0  0  0
 23 24  2  0  0  0
 23 40  1  0  0  0
 24 41  1  0  0  0
M  END
> <s_m_entry_id>
2502

> <s_m_entry_name>
dock_pv.30

> <s_m_Source_Path>
/home/csk/Desktop/cluster/DUD-E-result/fabp4

> <s_m_Source_File>
dock_pv.maegz

> <i_m_Source_File_Index>
30

> <chembl_id>
CHEMBL3893057

> <chembl_pref_name>
None

> <i_lp_mmshare_version>
53161

> <r_lp_tautomer_probability>
1

> <s_lp_Force_Field>
OPLS_2005

> <r_lp_Energy>
28.191487

> <b_lp_Chiralities_Consistent>
1

> <s_lp_Variant>
CHEMBL2083_lig78-1

> <s_i_glide_gridfile>
glide-grid_2nnq

> <i_i_glide_lignum>
88

> <i_i_glide_rotatable_bonds>
7

> <r_i_docking_score>
-7.78843430528829

> <r_i_glide_ligand_efficiency>
-0.324518096053679

> <r_i_glide_ligand_efficiency_sa>
-0.936072168189163

> <r_i_glide_ligand_efficiency_ln>
-1.86412971721805

> <r_i_glide_gscore>
-7.78843430528829

> <r_i_glide_lipo>
-3.93183725797727

> <r_i_glide_hbond>
-0.156228119120933

> <r_i_glide_metal>
0

> <r_i_glide_rewards>
-1.28639683360096

> <r_i_glide_evdw>
-39.3726081848145

> <r_i_glide_ecoul>
-9.02592277526855

> <r_i_glide_erotb>
0.958525023172055

> <r_i_glide_esite>
-0.0499782922301744

> <r_i_glide_emodel>
-66.070008168164

> <r_i_glide_energy>
-48.398530960083

> <r_i_glide_einternal>
9.72574710845947

> <i_i_glide_confnum>
187

> <i_i_glide_posenum>
286

> <r_i_glide_eff_state_penalty>
0

> <s_user_duplicate_titles>
CHEMBL2083_lig78

> <i_f3d_flags>
0

> <s_m_subgroup_title>
dock_pv

> <s_m_subgroupid>
dock_pv

> <b_m_subgroup_collapsed>
1

$$$$
CHEMBL2083_lig196
                    3D
 Schrodinger Suite 2021-1.
 47 51  0  0  1  0            999 V2000
    1.6327    9.0342   15.9553 C   0  0  0  0  0  0
    1.8656    8.1130   17.0770 N   0  0  0  0  0  0
    1.0311    6.8862   16.9764 C   0  0  1  0  0  0
    3.0602    8.1814   17.8525 C   0  0  0  0  0  0
    4.0363    9.1954   17.5874 C   0  0  0  0  0  0
    5.1742    9.2552   18.4167 C   0  0  0  0  0  0
    5.2518    8.4634   19.5556 C   0  0  0  0  0  0
    4.2597    7.5437   19.8679 C   0  0  0  0  0  0
    3.1999    7.3083   18.9684 C   0  0  0  0  0  0
    3.8187   10.1275   16.3719 C   0  0  1  0  0  0
    2.3295   10.3634   16.2066 C   0  0  1  0  0  0
    2.1758   11.5172   15.2289 C   0  0  0  0  0  0
    3.4064   12.3239   15.6009 C   0  0  0  0  0  0
    4.2820   11.5822   16.3110 C   0  0  0  0  0  0
    1.5976    5.7498   17.8602 C   0  0  1  0  0  0
    2.1073    6.2477   19.2071 C   0  0  1  0  0  0
    2.4047    4.9018   19.8568 C   0  0  0  0  0  0
    1.6168    3.9420   19.3324 C   0  0  0  0  0  0
    0.7828    4.4959   18.1936 C   0  0  0  0  0  0
    4.2955    6.9416   21.2684 C   0  0  0  0  0  0
    6.3657   10.1587   18.1329 C   0  0  0  0  0  0
   -0.4413    7.2236   17.3422 C   0  0  0  0  0  0
   -1.2800    7.1312   16.2654 O   0  0  0  0  0  0
   -0.8137    7.5168   18.4755 O   0  0  0  0  0  0
    2.0366    8.6044   15.0370 H   0  0  0  0  0  0
    0.5702    9.1176   15.7434 H   0  0  0  0  0  0
    1.0042    6.5362   15.9418 H   0  0  0  0  0  0
    6.0850    8.5929   20.2317 H   0  0  0  0  0  0
    4.2314    9.5942   15.5120 H   0  0  0  0  0  0
    1.9535   10.7145   17.1752 H   0  0  0  0  0  0
    1.2507   12.0701   15.4054 H   0  0  0  0  0  0
    2.1722   11.1939   14.1864 H   0  0  0  0  0  0
    3.5184   13.3656   15.3366 H   0  0  0  0  0  0
    5.2318   11.9448   16.6659 H   0  0  0  0  0  0
    2.4612    5.3928   17.2884 H   0  0  0  0  0  0
    1.3181    6.7483   19.7699 H   0  0  0  0  0  0
    3.0517    4.7567   20.7037 H   0  0  0  0  0  0
    1.5524    2.9107   19.6482 H   0  0  0  0  0  0
   -0.2376    4.7058   18.5189 H   0  0  0  0  0  0
    0.7142    3.8221   17.3420 H   0  0  0  0  0  0
    3.2908    6.8935   21.6876 H   0  0  0  0  0  0
    4.7198    5.9432   21.2840 H   0  0  0  0  0  0
    4.8662    7.5659   21.9582 H   0  0  0  0  0  0
    7.2745    9.7765   18.6005 H   0  0  0  0  0  0
    6.5806   10.1930   17.0633 H   0  0  0  0  0  0
    6.1909   11.1682   18.5077 H   0  0  0  0  0  0
   -2.1960    7.3086   16.5352 H   0  0  0  0  0  0
  1 11  1  0  0  0
  1  2  1  0  0  0
  1 25  1  0  0  0
  1 26  1  0  0  0
  2  4  1  0  0  0
  2  3  1  0  0  0
  3 15  1  0  0  0
  3 22  1  0  0  0
  3 27  1  0  0  0
  4  5  2  0  0  0
  4  9  1  0  0  0
  5 10  1  0  0  0
  5  6  1  0  0  0
  6  7  2  0  0  0
  6 21  1  0  0  0
  7  8  1  0  0  0
  7 28  1  0  0  0
  8  9  2  0  0  0
  8 20  1  0  0  0
  9 16  1  0  0  0
 10 11  1  0  0  0
 10 14  1  0  0  0
 10 29  1  0  0  0
 11 12  1  0  0  0
 11 30  1  0  0  0
 12 13  1  0  0  0
 12 31  1  0  0  0
 12 32  1  0  0  0
 13 14  2  0  0  0
 13 33  1  0  0  0
 14 34  1  0  0  0
 15 16  1  0  0  0
 15 19  1  0  0  0
 15 35  1  0  0  0
 16 17  1  0  0  0
 16 36  1  0  0  0
 17 18  2  0  0  0
 17 37  1  0  0  0
 18 19  1  0  0  0
 18 38  1  0  0  0
 19 39  1  0  0  0
 19 40  1  0  0  0
 20 41  1  0  0  0
 20 42  1  0  0  0
 20 43  1  0  0  0
 21 44  1  0  0  0
 21 45  1  0  0  0
 21 46  1  0  0  0
 22 23  1  0  0  0
 22 24  2  0  0  0
 23 47  1  0  0  0
M  END
> <s_m_entry_id>
2503

> <s_m_entry_name>
dock_pv.31

> <s_m_Source_Path>
/home/csk/Desktop/cluster/DUD-E-result/fabp4

> <s_m_Source_File>
dock_pv.maegz

> <i_m_Source_File_Index>
31

> <chembl_id>
CHEMBL3827900

> <chembl_pref_name>
None

> <i_lp_mmshare_version>
53161

> <r_lp_tautomer_probability>
1

> <s_lp_Force_Field>
OPLS_2005

> <r_lp_Energy>
85.433613

> <b_lp_Chiralities_Consistent>
1

> <s_lp_Variant>
CHEMBL2083_lig196-32

> <s_i_glide_gridfile>
glide-grid_2nnq

> <i_i_glide_lignum>
277

> <i_i_glide_rotatable_bonds>
2

> <r_i_docking_score>
-7.76921465564209

> <r_i_glide_ligand_efficiency>
-0.32371727731842

> <r_i_glide_ligand_efficiency_sa>
-0.933762207237969

> <r_i_glide_ligand_efficiency_ln>
-1.85952957312545

> <r_i_glide_gscore>
-7.76921465564209

> <r_i_glide_lipo>
-3.41020118129845

> <r_i_glide_hbond>
0

> <r_i_glide_metal>
0

> <r_i_glide_rewards>
-1.96624250139601

> <r_i_glide_evdw>
-30.7226676940918

> <r_i_glide_ecoul>
-6.91679668426514

> <r_i_glide_erotb>
0.180881914396739

> <r_i_glide_esite>
0

> <r_i_glide_emodel>
-54.0670138707351

> <r_i_glide_energy>
-37.6394643783569

> <r_i_glide_einternal>
1.76241064071655

> <i_i_glide_confnum>
1

> <i_i_glide_posenum>
373

> <r_i_glide_eff_state_penalty>
0

> <s_user_duplicate_titles>
CHEMBL2083_lig196

> <i_f3d_flags>
0

> <s_m_subgroup_title>
dock_pv

> <s_m_subgroupid>
dock_pv

> <b_m_subgroup_collapsed>
1

$$$$
CHEMBL2083_lig69
                    3D
 Schrodinger Suite 2021-1.
 52 55  0  0  1  0            999 V2000
    2.9778   11.4493   14.5423 C   0  0  0  0  0  0
    2.8761   10.4126   15.4637 C   0  0  0  0  0  0
    3.9010   10.1647   16.3870 C   0  0  0  0  0  0
    5.0286   11.0082   16.4133 C   0  0  0  0  0  0
    5.1197   12.0537   15.4780 C   0  0  0  0  0  0
    4.1101   12.2549   14.5419 C   0  0  0  0  0  0
    3.7484    8.9741   17.2878 C   0  0  0  0  0  0
    6.0386   10.6821   17.2957 O   0  0  0  0  0  0
    6.9801   11.6498   17.7437 C   0  0  0  0  0  0
    4.2763    8.8771   18.4939 N   0  0  0  0  0  0
    3.9204    7.6695   18.9862 N   0  0  0  0  0  0
    3.1506    6.9792   18.0626 C   0  0  0  0  0  0
    3.0382    7.8174   16.9774 C   0  0  0  0  0  0
    2.5403    5.6508   18.2408 C   0  0  0  0  0  0
    4.3197    7.2856   20.3072 C   0  0  0  0  0  0
    8.3204   10.9142   17.9517 C   0  0  0  0  0  0
    5.5623    7.6897   20.8081 C   0  0  0  0  0  0
    5.9711    7.3180   22.0875 C   0  0  0  0  0  0
    5.1282    6.5475   22.8817 C   0  0  0  0  0  0
    3.8856    6.1407   22.4082 C   0  0  0  0  0  0
    3.4840    6.5105   21.1281 C   0  0  0  0  0  0
    3.2684    4.5979   18.7942 C   0  0  0  0  0  0
    2.6026    3.4489   19.1849 C   0  0  0  0  0  0
    1.2407    3.3468   18.9420 C   0  0  0  0  0  0
    0.5372    4.3281   18.2569 C   0  0  0  0  0  0
    1.1898    5.5019   17.9183 C   0  0  0  0  0  0
    8.3031    9.7583   18.9797 C   0  0  0  0  0  0
    8.0362   10.2304   20.4117 C   0  0  0  0  0  0
    9.1199   10.1088   21.2318 O   0  0  0  0  0  0
    6.9548   10.6840   20.7699 O   0  0  0  0  0  0
    2.1914   11.6194   13.8206 H   0  0  0  0  0  0
    1.9942    9.7902   15.4397 H   0  0  0  0  0  0
    5.9739   12.7069   15.4171 H   0  0  0  0  0  0
    4.2174   13.0240   13.7981 H   0  0  0  0  0  0
    6.6196   12.0966   18.6712 H   0  0  0  0  0  0
    7.1293   12.4900   17.0738 H   0  0  0  0  0  0
    2.5013    7.6087   16.0621 H   0  0  0  0  0  0
    9.0849   11.6435   18.2299 H   0  0  0  0  0  0
    8.6429   10.5146   16.9904 H   0  0  0  0  0  0
    6.2189    8.2731   20.1934 H   0  0  0  0  0  0
    6.9333    7.6369   22.4619 H   0  0  0  0  0  0
    5.4353    6.2706   23.8794 H   0  0  0  0  0  0
    3.2327    5.5523   23.0364 H   0  0  0  0  0  0
    2.4979    6.2142   20.7981 H   0  0  0  0  0  0
    4.3184    4.7104   19.0161 H   0  0  0  0  0  0
    3.1197    2.6625   19.7166 H   0  0  0  0  0  0
    0.7196    2.5090   19.3385 H   0  0  0  0  0  0
   -0.5189    4.2139   18.0662 H   0  0  0  0  0  0
    0.6336    6.3124   17.4678 H   0  0  0  0  0  0
    9.2332    9.1966   18.9478 H   0  0  0  0  0  0
    7.5396    9.0377   18.6910 H   0  0  0  0  0  0
    9.8691    9.6566   20.8283 H   0  0  0  0  0  0
  1  2  2  0  0  0
  1  6  1  0  0  0
  1 31  1  0  0  0
  2  3  1  0  0  0
  2 32  1  0  0  0
  3  4  2  0  0  0
  3  7  1  0  0  0
  4  5  1  0  0  0
  4  8  1  0  0  0
  5  6  2  0  0  0
  5 33  1  0  0  0
  6 34  1  0  0  0
  7 10  2  0  0  0
  7 13  1  0  0  0
  8  9  1  0  0  0
  9 16  1  0  0  0
  9 35  1  0  0  0
  9 36  1  0  0  0
 10 11  1  0  0  0
 11 12  1  0  0  0
 11 15  1  0  0  0
 12 13  2  0  0  0
 12 14  1  0  0  0
 13 37  1  0  0  0
 14 22  2  0  0  0
 14 26  1  0  0  0
 15 17  2  0  0  0
 15 21  1  0  0  0
 16 27  1  0  0  0
 16 38  1  0  0  0
 16 39  1  0  0  0
 17 18  1  0  0  0
 17 40  1  0  0  0
 18 19  2  0  0  0
 18 41  1  0  0  0
 19 20  1  0  0  0
 19 42  1  0  0  0
 20 21  2  0  0  0
 20 43  1  0  0  0
 21 44  1  0  0  0
 22 23  1  0  0  0
 22 45  1  0  0  0
 23 24  2  0  0  0
 23 46  1  0  0  0
 24 25  1  0  0  0
 24 47  1  0  0  0
 25 26  2  0  0  0
 25 48  1  0  0  0
 26 49  1  0  0  0
 27 28  1  0  0  0
 27 50  1  0  0  0
 27 51  1  0  0  0
 28 29  1  0  0  0
 28 30  2  0  0  0
 29 52  1  0  0  0
M  END
> <s_m_entry_id>
2504

> <s_m_entry_name>
dock_pv.32

> <s_m_Source_Path>
/home/csk/Desktop/cluster/DUD-E-result/fabp4

> <s_m_Source_File>
dock_pv.maegz

> <i_m_Source_File_Index>
32

> <chembl_id>
CHEMBL2334251

> <chembl_pref_name>
None

> <i_lp_mmshare_version>
53161

> <r_lp_tautomer_probability>
1

> <s_lp_Force_Field>
OPLS_2005

> <r_lp_Energy>
26.837022

> <b_lp_Chiralities_Consistent>
1

> <s_lp_Variant>
CHEMBL2083_lig69-1

> <s_i_glide_gridfile>
glide-grid_2nnq

> <i_i_glide_lignum>
79

> <i_i_glide_rotatable_bonds>
9

> <r_i_docking_score>
-7.76645422807586

> <r_i_glide_ligand_efficiency>
-0.258881807602529

> <r_i_glide_ligand_efficiency_sa>
-0.804405966870689

> <r_i_glide_ligand_efficiency_ln>
-1.76462302291536

> <r_i_glide_gscore>
-7.76645422807586

> <r_i_glide_lipo>
-4.17301448726463

> <r_i_glide_hbond>
-0.0112635414827183

> <r_i_glide_metal>
0

> <r_i_glide_rewards>
-1.08358787738012

> <r_i_glide_evdw>
-44.4460144042969

> <r_i_glide_ecoul>
-8.26342582702637

> <r_i_glide_erotb>
0.986854728489169

> <r_i_glide_esite>
-0.0236284561687596

> <r_i_glide_emodel>
-76.5472636280444

> <r_i_glide_energy>
-52.7094402313232

> <r_i_glide_einternal>
3.69511413574219

> <i_i_glide_confnum>
103

> <i_i_glide_posenum>
175

> <r_i_glide_eff_state_penalty>
0

> <s_user_duplicate_titles>
CHEMBL2083_lig69

> <i_f3d_flags>
0

> <s_m_subgroup_title>
dock_pv

> <s_m_subgroupid>
dock_pv

> <b_m_subgroup_collapsed>
1

$$$$
CHEMBL2083_lig187
                    3D
 Schrodinger Suite 2021-1.
 53 57  0  0  1  0            999 V2000
    4.3135    9.9397   15.1407 C   0  0  0  0  0  0
    4.4447   11.0526   14.3017 C   0  0  0  0  0  0
    3.3865   11.9480   14.1420 C   0  0  0  0  0  0
    2.1778   11.7243   14.7942 C   0  0  0  0  0  0
    2.0432   10.6166   15.6274 C   0  0  0  0  0  0
    3.1032    9.7334   15.8198 C   0  0  0  0  0  0
    5.4674    9.0491   15.3880 C   0  0  0  0  0  0
    5.7367    7.9280   14.6001 C   0  0  0  0  0  0
    6.8049    7.0920   14.9255 C   0  0  0  0  0  0
    7.6217    7.3933   16.0192 C   0  0  0  0  0  0
    7.3806    8.5237   16.8035 C   0  0  0  0  0  0
    6.2727    9.3204   16.4904 C   0  0  0  0  0  0
    8.2720    8.7943   17.8229 O   0  0  0  0  0  0
    8.2205   10.0400   18.5362 C   0  0  0  0  0  0
    8.1705    9.7649   20.0358 C   0  0  0  0  0  0
    7.9200   10.9090   20.7290 O   0  0  0  0  0  0
    8.3200    8.6584   20.5421 O   0  0  0  0  0  0
    2.9097    8.5911   16.7519 C   0  0  0  0  0  0
    3.5671    8.5018   17.8849 N   0  0  0  0  0  0
    3.2148    7.3316   18.4558 N   0  0  0  0  0  0
    2.2840    6.6735   17.6681 C   0  0  0  0  0  0
    2.0789    7.4942   16.5767 C   0  0  0  0  0  0
    3.7401    7.0082   19.7420 C   0  0  0  0  0  0
    4.9605    7.5637   20.1632 C   0  0  0  0  0  0
    5.3950    7.3906   21.4732 C   0  0  0  0  0  0
    4.6264    6.6496   22.3614 C   0  0  0  0  0  0
    3.4451    6.0481   21.9492 C   0  0  0  0  0  0
    3.0015    6.2269   20.6446 C   0  0  0  0  0  0
    1.6321    5.4268   17.9194 C   0  0  0  0  0  0
    2.3691    4.3861   18.3905 O   0  0  0  0  0  0
    1.5154    3.3434   18.5446 C   0  0  0  0  0  0
    0.2426    3.7090   18.1434 C   0  0  0  0  0  0
    0.3200    5.0361   17.7420 C   0  0  0  0  0  0
    5.1200    6.5090   23.9996 Cl  0  0  0  0  0  0
    5.3760   11.2412   13.7876 H   0  0  0  0  0  0
    3.4974   12.8099   13.4993 H   0  0  0  0  0  0
    1.3529   12.4089   14.6574 H   0  0  0  0  0  0
    1.1200   10.4352   16.1421 H   0  0  0  0  0  0
    5.1053    7.6914   13.7551 H   0  0  0  0  0  0
    7.0046    6.2157   14.3255 H   0  0  0  0  0  0
    8.4629    6.7563   16.2518 H   0  0  0  0  0  0
    5.9799   10.1735   17.0766 H   0  0  0  0  0  0
    7.4103   10.7189   18.2978 H   0  0  0  0  0  0
    9.1200   10.6040   18.3196 H   0  0  0  0  0  0
    7.8231   11.6697   20.1420 H   0  0  0  0  0  0
    1.4220    7.3074   15.7420 H   0  0  0  0  0  0
    5.5612    8.1644   19.4952 H   0  0  0  0  0  0
    6.3101    7.8501   21.8132 H   0  0  0  0  0  0
    2.8525    5.4800   22.6513 H   0  0  0  0  0  0
    2.0395    5.8134   20.3884 H   0  0  0  0  0  0
    1.9395    2.4341   18.9419 H   0  0  0  0  0  0
   -0.6476    3.1011   18.1422 H   0  0  0  0  0  0
   -0.4860    5.6487   17.3674 H   0  0  0  0  0  0
  1  7  1  0  0  0
  1  6  1  0  0  0
  1  2  2  0  0  0
  2  3  1  0  0  0
  2 35  1  0  0  0
  3  4  2  0  0  0
  3 36  1  0  0  0
  4  5  1  0  0  0
  4 37  1  0  0  0
  5  6  2  0  0  0
  5 38  1  0  0  0
  6 18  1  0  0  0
  7 12  1  0  0  0
  7  8  2  0  0  0
  8  9  1  0  0  0
  8 39  1  0  0  0
  9 10  2  0  0  0
  9 40  1  0  0  0
 10 11  1  0  0  0
 10 41  1  0  0  0
 11 12  2  0  0  0
 11 13  1  0  0  0
 12 42  1  0  0  0
 13 14  1  0  0  0
 14 15  1  0  0  0
 14 43  1  0  0  0
 14 44  1  0  0  0
 15 17  2  0  0  0
 15 16  1  0  0  0
 16 45  1  0  0  0
 18 19  2  0  0  0
 18 22  1  0  0  0
 19 20  1  0  0  0
 20 21  1  0  0  0
 20 23  1  0  0  0
 21 22  2  0  0  0
 21 29  1  0  0  0
 22 46  1  0  0  0
 23 24  2  0  0  0
 23 28  1  0  0  0
 24 25  1  0  0  0
 24 47  1  0  0  0
 25 26  2  0  0  0
 25 48  1  0  0  0
 26 27  1  0  0  0
 26 34  1  0  0  0
 27 28  2  0  0  0
 27 49  1  0  0  0
 28 50  1  0  0  0
 29 30  1  0  0  0
 29 33  2  0  0  0
 30 31  1  0  0  0
 31 32  2  0  0  0
 31 51  1  0  0  0
 32 33  1  0  0  0
 32 52  1  0  0  0
 33 53  1  0  0  0
M  END
> <s_m_entry_id>
2505

> <s_m_entry_name>
dock_pv.33

> <s_m_Source_Path>
/home/csk/Desktop/cluster/DUD-E-result/fabp4

> <s_m_Source_File>
dock_pv.maegz

> <i_m_Source_File_Index>
33

> <chembl_id>
CHEMBL1782965

> <chembl_pref_name>
None

> <i_lp_mmshare_version>
53161

> <r_lp_tautomer_probability>
1

> <s_lp_Force_Field>
OPLS_2005

> <r_lp_Energy>
29.576834

> <b_lp_Chiralities_Consistent>
1

> <s_lp_Variant>
CHEMBL2083_lig187-1

> <s_i_glide_gridfile>
glide-grid_2nnq

> <i_i_glide_lignum>
204

> <i_i_glide_rotatable_bonds>
8

> <r_i_docking_score>
-7.75836379146782

> <r_i_glide_ligand_efficiency>
-0.228187170337289

> <r_i_glide_ligand_efficiency_sa>
-0.739237849055856

> <r_i_glide_ligand_efficiency_ln>
-1.71404017626849

> <r_i_glide_gscore>
-7.75836379146782

> <r_i_glide_lipo>
-4.1334119432018

> <r_i_glide_hbond>
0

> <r_i_glide_metal>
0

> <r_i_glide_rewards>
-0.75749251380312

> <r_i_glide_evdw>
-46.3232917785645

> <r_i_glide_ecoul>
-7.92813110351562

> <r_i_glide_erotb>
0.637924919992669

> <r_i_glide_esite>
0

> <r_i_glide_emodel>
-75.3606520135826

> <r_i_glide_energy>
-54.2514228820801

> <r_i_glide_einternal>
9.31019687652588

> <i_i_glide_confnum>
75

> <i_i_glide_posenum>
249

> <r_i_glide_eff_state_penalty>
0

> <s_user_duplicate_titles>
CHEMBL2083_lig187

> <i_f3d_flags>
0

> <s_m_subgroup_title>
dock_pv

> <s_m_subgroupid>
dock_pv

> <b_m_subgroup_collapsed>
1

$$$$
CHEMBL2083_lig202
                    3D
 Schrodinger Suite 2021-1.
 56 60  0  0  1  0            999 V2000
    3.5355    8.8179   17.4611 C   0  0  1  0  0  0
    2.1902    8.3472   17.7417 N   0  0  0  0  0  0
    3.0313    6.3875   18.9446 C   0  0  0  0  0  0
    1.9971    7.0351   18.2228 C   0  0  0  0  0  0
    0.8239    6.3381   17.8513 C   0  0  0  0  0  0
    0.7214    4.9748   18.1423 C   0  0  0  0  0  0
    1.7230    4.3322   18.8636 C   0  0  0  0  0  0
    2.8552    5.0356   19.2648 C   0  0  0  0  0  0
    4.4882    8.4895   18.6330 C   0  0  2  0  0  0
    4.3577    7.0970   19.2948 C   0  0  1  0  0  0
    4.8149    7.2967   20.7816 C   0  0  1  0  0  0
    5.2397    8.7804   20.9426 C   0  0  2  0  0  0
    4.5223    9.4945   19.7896 C   0  0  0  0  0  0
    7.0737    8.9973   20.9028 S   0  0  0  0  0  0
    7.6530    8.4432   19.3164 C   0  0  0  0  0  0
    3.5200    6.9084   21.9542 Cl  0  0  0  0  0  0
   -0.3257    7.0032   17.1348 C   0  0  0  0  0  0
   -0.8797    6.5091   16.1566 O   0  0  0  0  0  0
   -0.7051    8.1808   17.7016 O   0  0  0  0  0  0
    4.1055    8.3860   16.0960 C   0  0  0  0  0  0
    4.6079    7.0832   15.9514 C   0  0  0  0  0  0
    5.3264    6.7094   14.8246 C   0  0  0  0  0  0
    5.5336    7.6267   13.8068 C   0  0  0  0  0  0
    4.9763    8.9007   13.8912 C   0  0  0  0  0  0
    4.2413    9.2937   15.0188 C   0  0  0  0  0  0
    7.9402    9.2918   18.2245 C   0  0  0  0  0  0
    8.2067    8.6996   16.9821 C   0  0  0  0  0  0
    8.1622    7.3288   16.7892 C   0  0  0  0  0  0
    7.9189    6.5089   17.8759 C   0  0  0  0  0  0
    7.7041    7.0681   19.1325 C   0  0  0  0  0  0
    7.9144   10.7667   18.2911 N   0  3  0  0  0  0
    7.1218   11.3090   19.0442 O   0  0  0  0  0  0
    8.6385   11.3800   17.5127 O   0  5  0  0  0  0
    3.6242   10.6402   15.0212 N   0  3  0  0  0  0
    2.4833   10.7623   15.4600 O   0  0  0  0  0  0
    4.2710   11.5659   14.5406 O   0  5  0  0  0  0
    3.4787    9.9045   17.4407 H   0  0  0  0  0  0
    1.5150    8.7453   17.1037 H   0  0  0  0  0  0
   -0.1553    4.4115   17.8477 H   0  0  0  0  0  0
    1.6211    3.2857   19.1150 H   0  0  0  0  0  0
    3.6245    4.5122   19.8142 H   0  0  0  0  0  0
    5.4666    8.5511   18.1770 H   0  0  0  0  0  0
    5.1019    6.4578   18.8216 H   0  0  0  0  0  0
    5.6592    6.6575   21.0162 H   0  0  0  0  0  0
    4.8861    9.1468   21.9031 H   0  0  0  0  0  0
    5.0054   10.4187   19.4935 H   0  0  0  0  0  0
    3.5199    9.7660   20.0815 H   0  0  0  0  0  0
   -0.1619    8.3615   18.4709 H   0  0  0  0  0  0
    4.4813    6.3488   16.7270 H   0  0  0  0  0  0
    5.7285    5.7102   14.7399 H   0  0  0  0  0  0
    6.0990    7.3289   12.9391 H   0  0  0  0  0  0
    5.1027    9.5819   13.0605 H   0  0  0  0  0  0
    8.4491    9.3109   16.1420 H   0  0  0  0  0  0
    8.3509    6.9037   15.8150 H   0  0  0  0  0  0
    7.9148    5.4373   17.7414 H   0  0  0  0  0  0
    7.5201    6.4398   19.9827 H   0  0  0  0  0  0
  1  9  1  0  0  0
  1  2  1  0  0  0
  1 20  1  0  0  0
  1 37  1  0  0  0
  2  4  1  0  0  0
  2 38  1  0  0  0
  3 10  1  0  0  0
  3  4  2  0  0  0
  3  8  1  0  0  0
  4  5  1  0  0  0
  5  6  2  0  0  0
  5 17  1  0  0  0
  6  7  1  0  0  0
  6 39  1  0  0  0
  7  8  2  0  0  0
  7 40  1  0  0  0
  8 41  1  0  0  0
  9 10  1  0  0  0
  9 13  1  0  0  0
  9 42  1  0  0  0
 10 11  1  0  0  0
 10 43  1  0  0  0
 11 12  1  0  0  0
 11 16  1  0  0  0
 11 44  1  0  0  0
 12 13  1  0  0  0
 12 14  1  0  0  0
 12 45  1  0  0  0
 13 46  1  0  0  0
 13 47  1  0  0  0
 14 15  1  0  0  0
 15 26  2  0  0  0
 15 30  1  0  0  0
 17 18  2  0  0  0
 17 19  1  0  0  0
 19 48  1  0  0  0
 20 21  2  0  0  0
 20 25  1  0  0  0
 21 22  1  0  0  0
 21 49  1  0  0  0
 22 23  2  0  0  0
 22 50  1  0  0  0
 23 24  1  0  0  0
 23 51  1  0  0  0
 24 25  2  0  0  0
 24 52  1  0  0  0
 25 34  1  0  0  0
 26 27  1  0  0  0
 26 31  1  0  0  0
 27 28  2  0  0  0
 27 53  1  0  0  0
 28 29  1  0  0  0
 28 54  1  0  0  0
 29 30  2  0  0  0
 29 55  1  0  0  0
 30 56  1  0  0  0
 31 32  2  0  0  0
 31 33  1  0  0  0
 34 35  2  0  0  0
 34 36  1  0  0  0
M  CHG  4  31   1  33  -1  34   1  36  -1
M  END
> <s_m_entry_id>
2506

> <s_m_entry_name>
dock_pv.34

> <s_m_Source_Path>
/home/csk/Desktop/cluster/DUD-E-result/fabp4

> <s_m_Source_File>
dock_pv.maegz

> <i_m_Source_File_Index>
34

> <chembl_id>
CHEMBL3827527

> <chembl_pref_name>
None

> <i_lp_mmshare_version>
53161

> <r_lp_tautomer_probability>
1

> <s_lp_Force_Field>
OPLS_2005

> <r_lp_Energy>
56.958613

> <b_lp_Chiralities_Consistent>
1

> <s_lp_Variant>
CHEMBL2083_lig202-13

> <s_i_glide_gridfile>
glide-grid_2nnq

> <i_i_glide_lignum>
388

> <i_i_glide_rotatable_bonds>
7

> <r_i_docking_score>
-7.75438976803973

> <r_i_glide_ligand_efficiency>
-0.215399715778882

> <r_i_glide_ligand_efficiency_sa>
-0.711234190084873

> <r_i_glide_ligand_efficiency_ln>
-1.69179834798538

> <r_i_glide_gscore>
-7.75438976803973

> <r_i_glide_lipo>
-4.1019795177399

> <r_i_glide_hbond>
-0.274234363128769

> <r_i_glide_metal>
0

> <r_i_glide_rewards>
-0.744595759429365

> <r_i_glide_evdw>
-48.8776893615723

> <r_i_glide_ecoul>
-2.13882207870483

> <r_i_glide_erotb>
0.297662755552557

> <r_i_glide_esite>
-0.166535103409914

> <r_i_glide_emodel>
-61.7210118849959

> <r_i_glide_energy>
-51.0165114402771

> <r_i_glide_einternal>
16.1357402801514

> <i_i_glide_confnum>
104

> <i_i_glide_posenum>
22

> <r_i_glide_eff_state_penalty>
0

> <s_user_duplicate_titles>
CHEMBL2083_lig202

> <i_f3d_flags>
0

> <s_m_subgroup_title>
dock_pv

> <s_m_subgroupid>
dock_pv

> <b_m_subgroup_collapsed>
1

$$$$
CHEMBL2083_lig198
                    3D
 Schrodinger Suite 2021-1.
 44 48  0  0  1  0            999 V2000
    1.5805    9.0272   16.5649 C   0  0  0  0  0  0
    1.9843    7.7005   17.0969 N   0  0  0  0  0  0
    0.9478    6.6462   17.2198 C   0  0  1  0  0  0
    3.2558    7.1674   16.7969 C   0  0  0  0  0  0
    4.0870    7.7799   15.8256 C   0  0  0  0  0  0
    5.3383    7.2191   15.5588 C   0  0  0  0  0  0
    5.7810    6.0923   16.2483 C   0  0  0  0  0  0
    4.9645    5.5174   17.2210 C   0  0  0  0  0  0
    3.6908    6.0273   17.5077 C   0  0  0  0  0  0
    3.5421    8.9942   15.0797 C   0  0  1  0  0  0
    2.7843    9.8473   16.0825 C   0  0  1  0  0  0
    2.5912   11.1850   15.3793 C   0  0  0  0  0  0
    3.8614   11.2474   14.5420 C   0  0  0  0  0  0
    4.4393   10.0319   14.4378 C   0  0  0  0  0  0
    1.2887    5.6658   18.3885 C   0  0  2  0  0  0
    2.8017    5.4267   18.6114 C   0  0  1  0  0  0
    2.8906    3.9240   18.7797 C   0  0  0  0  0  0
    1.7228    3.3080   18.5441 C   0  0  0  0  0  0
    0.6189    4.2845   18.2496 C   0  0  0  0  0  0
   -0.4802    7.2109   17.4285 C   0  0  0  0  0  0
   -1.2798    7.0212   16.3379 O   0  0  0  0  0  0
   -0.8540    7.7605   18.4596 O   0  0  0  0  0  0
    7.1562    5.5147   15.9598 C   0  0  0  0  0  0
    0.8861    8.8963   15.7420 H   0  0  0  0  0  0
    1.0054    9.5639   17.3206 H   0  0  0  0  0  0
    0.9098    6.1096   16.2693 H   0  0  0  0  0  0
    5.9709    7.6606   14.8033 H   0  0  0  0  0  0
    5.3329    4.6635   17.7707 H   0  0  0  0  0  0
    2.8762    8.5955   14.3095 H   0  0  0  0  0  0
    3.4358   10.0041   16.9489 H   0  0  0  0  0  0
    1.6839   11.2212   14.7741 H   0  0  0  0  0  0
    2.5403   11.9995   16.1030 H   0  0  0  0  0  0
    4.2218   12.1712   14.1113 H   0  0  0  0  0  0
    5.3239    9.7865   13.8711 H   0  0  0  0  0  0
    0.9493    6.1087   19.3283 H   0  0  0  0  0  0
    3.1157    5.9141   19.5364 H   0  0  0  0  0  0
    3.8163    3.4345   19.0421 H   0  0  0  0  0  0
    1.5394    2.2431   18.5723 H   0  0  0  0  0  0
    0.2208    4.1012   17.2604 H   0  0  0  0  0  0
   -0.2045    4.1274   18.9423 H   0  0  0  0  0  0
   -2.1843    7.3103   16.5420 H   0  0  0  0  0  0
    7.8830    6.3153   15.8155 H   0  0  0  0  0  0
    7.5216    4.9091   16.7908 H   0  0  0  0  0  0
    7.1356    4.9104   15.0520 H   0  0  0  0  0  0
  1 11  1  0  0  0
  1  2  1  0  0  0
  1 24  1  0  0  0
  1 25  1  0  0  0
  2  4  1  0  0  0
  2  3  1  0  0  0
  3 15  1  0  0  0
  3 20  1  0  0  0
  3 26  1  0  0  0
  4  5  2  0  0  0
  4  9  1  0  0  0
  5 10  1  0  0  0
  5  6  1  0  0  0
  6  7  2  0  0  0
  6 27  1  0  0  0
  7  8  1  0  0  0
  7 23  1  0  0  0
  8  9  2  0  0  0
  8 28  1  0  0  0
  9 16  1  0  0  0
 10 11  1  0  0  0
 10 14  1  0  0  0
 10 29  1  0  0  0
 11 12  1  0  0  0
 11 30  1  0  0  0
 12 13  1  0  0  0
 12 31  1  0  0  0
 12 32  1  0  0  0
 13 14  2  0  0  0
 13 33  1  0  0  0
 14 34  1  0  0  0
 15 16  1  0  0  0
 15 19  1  0  0  0
 15 35  1  0  0  0
 16 17  1  0  0  0
 16 36  1  0  0  0
 17 18  2  0  0  0
 17 37  1  0  0  0
 18 19  1  0  0  0
 18 38  1  0  0  0
 19 39  1  0  0  0
 19 40  1  0  0  0
 20 21  1  0  0  0
 20 22  2  0  0  0
 21 41  1  0  0  0
 23 42  1  0  0  0
 23 43  1  0  0  0
 23 44  1  0  0  0
M  END
> <s_m_entry_id>
2507

> <s_m_entry_name>
dock_pv.35

> <s_m_Source_Path>
/home/csk/Desktop/cluster/DUD-E-result/fabp4

> <s_m_Source_File>
dock_pv.maegz

> <i_m_Source_File_Index>
35

> <chembl_id>
CHEMBL3827483

> <chembl_pref_name>
None

> <i_lp_mmshare_version>
53161

> <r_lp_tautomer_probability>
1

> <s_lp_Force_Field>
OPLS_2005

> <r_lp_Energy>
75.353793

> <b_lp_Chiralities_Consistent>
1

> <s_lp_Variant>
CHEMBL2083_lig198-24

> <s_i_glide_gridfile>
glide-grid_2nnq

> <i_i_glide_lignum>
333

> <i_i_glide_rotatable_bonds>
2

> <r_i_docking_score>
-7.7479439494818

> <r_i_glide_ligand_efficiency>
-0.336867128238339

> <r_i_glide_ligand_efficiency_sa>
-0.958005301593162

> <r_i_glide_ligand_efficiency_ln>
-1.87352310145621

> <r_i_glide_gscore>
-7.7479439494818

> <r_i_glide_lipo>
-3.16911109798994

> <r_i_glide_hbond>
0

> <r_i_glide_metal>
0

> <r_i_glide_rewards>
-2.15549839285438

> <r_i_glide_evdw>
-31.3069438934326

> <r_i_glide_ecoul>
-7.02423477172852

> <r_i_glide_erotb>
0.195647951793434

> <r_i_glide_esite>
0

> <r_i_glide_emodel>
-55.7550830048013

> <r_i_glide_energy>
-38.3311786651611

> <r_i_glide_einternal>
0.428643018007278

> <i_i_glide_confnum>
1

> <i_i_glide_posenum>
364

> <r_i_glide_eff_state_penalty>
0

> <s_user_duplicate_titles>
CHEMBL2083_lig198

> <i_f3d_flags>
0

> <s_m_subgroup_title>
dock_pv

> <s_m_subgroupid>
dock_pv

> <b_m_subgroup_collapsed>
1

$$$$
CHEMBL2083_lig212
                    3D
 Schrodinger Suite 2021-1.
 48 52  0  0  1  0            999 V2000
    3.1575    9.0724   17.2611 C   0  0  0  0  0  0
    3.8889    8.8171   18.4393 C   0  0  0  0  0  0
    3.6796    7.5973   19.1495 C   0  0  0  0  0  0
    2.1477    8.2812   16.8431 N   0  0  0  0  0  0
    1.8771    7.1467   17.5223 C   0  0  0  0  0  0
    2.6513    6.7228   18.6477 C   0  0  0  0  0  0
    2.3236    5.4619   19.2248 C   0  0  0  0  0  0
    1.2201    4.7419   18.7846 C   0  0  0  0  0  0
    0.4361    5.2070   17.7421 C   0  0  0  0  0  0
    0.7733    6.3817   17.0835 C   0  0  0  0  0  0
    3.4101   10.1711   16.4481 N   0  0  0  0  0  0
    4.4110    7.2632   20.4362 C   0  0  0  0  0  0
    5.8076    7.3090   20.5267 C   0  0  0  0  0  0
    6.4633    7.1485   21.7421 C   0  0  0  0  0  0
    5.7307    6.8479   22.8812 C   0  0  0  0  0  0
    4.3561    6.6740   22.8016 C   0  0  0  0  0  0
    3.7042    6.9087   21.5974 C   0  0  0  0  0  0
    4.8773    9.8087   18.8935 C   0  0  0  0  0  0
    0.7610    3.3090   19.6041 Cl  0  0  0  0  0  0
    2.7418   11.4479   16.7448 C   0  0  0  0  0  0
    3.6003   12.6282   16.2465 C   0  0  0  0  0  0
    3.9276   12.5089   14.7492 C   0  0  0  0  0  0
    4.4496   11.1043   14.4220 C   0  0  0  0  0  0
    3.5324   10.0074   14.9913 C   0  0  0  0  0  0
    4.7252   10.9472   19.4258 N   0  0  0  0  0  0
    5.9789   11.3126   19.7417 N   0  0  0  0  0  0
    6.8883   10.3433   19.4989 C   0  0  0  0  0  0
    6.1697    9.4572   18.7229 O   0  0  0  0  0  0
    8.4586   10.1088   19.9559 S   0  0  0  0  0  0
    2.9048    5.0640   20.0427 H   0  0  0  0  0  0
   -0.4306    4.6422   17.4266 H   0  0  0  0  0  0
    0.1839    6.7258   16.2460 H   0  0  0  0  0  0
    6.4184    7.4357   19.6489 H   0  0  0  0  0  0
    7.5352    7.2314   21.7951 H   0  0  0  0  0  0
    6.2345    6.7193   23.8267 H   0  0  0  0  0  0
    3.7952    6.3903   23.6787 H   0  0  0  0  0  0
    2.6291    6.8372   21.5784 H   0  0  0  0  0  0
    1.7517   11.4613   16.2864 H   0  0  0  0  0  0
    2.5983   11.5539   17.8213 H   0  0  0  0  0  0
    3.0740   13.5642   16.4324 H   0  0  0  0  0  0
    4.5130   12.6977   16.8429 H   0  0  0  0  0  0
    4.6654   13.2598   14.4677 H   0  0  0  0  0  0
    3.0310   12.7136   14.1612 H   0  0  0  0  0  0
    5.4649   10.9697   14.7975 H   0  0  0  0  0  0
    4.5215   10.9826   13.3417 H   0  0  0  0  0  0
    3.9779    9.0356   14.7735 H   0  0  0  0  0  0
    2.5448   10.0213   14.5270 H   0  0  0  0  0  0
    6.1823   12.2038   20.1764 H   0  0  0  0  0  0
  1  2  2  0  0  0
  1  4  1  0  0  0
  1 11  1  0  0  0
  2  3  1  0  0  0
  2 18  1  0  0  0
  3  6  2  0  0  0
  3 12  1  0  0  0
  4  5  2  0  0  0
  5  6  1  0  0  0
  5 10  1  0  0  0
  6  7  1  0  0  0
  7  8  2  0  0  0
  7 30  1  0  0  0
  8  9  1  0  0  0
  8 19  1  0  0  0
  9 10  2  0  0  0
  9 31  1  0  0  0
 10 32  1  0  0  0
 11 20  1  0  0  0
 11 24  1  0  0  0
 12 13  2  0  0  0
 12 17  1  0  0  0
 13 14  1  0  0  0
 13 33  1  0  0  0
 14 15  2  0  0  0
 14 34  1  0  0  0
 15 16  1  0  0  0
 15 35  1  0  0  0
 16 17  2  0  0  0
 16 36  1  0  0  0
 17 37  1  0  0  0
 18 25  2  0  0  0
 18 28  1  0  0  0
 20 21  1  0  0  0
 20 38  1  0  0  0
 20 39  1  0  0  0
 21 22  1  0  0  0
 21 40  1  0  0  0
 21 41  1  0  0  0
 22 23  1  0  0  0
 22 42  1  0  0  0
 22 43  1  0  0  0
 23 24  1  0  0  0
 23 44  1  0  0  0
 23 45  1  0  0  0
 24 46  1  0  0  0
 24 47  1  0  0  0
 25 26  1  0  0  0
 26 27  1  0  0  0
 26 48  1  0  0  0
 27 28  1  0  0  0
 27 29  2  0  0  0
M  END
> <s_m_entry_id>
2508

> <s_m_entry_name>
dock_pv.36

> <s_m_Source_Path>
/home/csk/Desktop/cluster/DUD-E-result/fabp4

> <s_m_Source_File>
dock_pv.maegz

> <i_m_Source_File_Index>
36

> <chembl_id>
CHEMBL3970105

> <chembl_pref_name>
None

> <i_lp_mmshare_version>
53161

> <r_lp_tautomer_probability>
1

> <s_lp_Force_Field>
OPLS_2005

> <r_lp_Energy>
49.585843

> <b_lp_Chiralities_Consistent>
1

> <s_lp_Variant>
CHEMBL2083_lig212-1

> <s_i_glide_gridfile>
glide-grid_2nnq

> <i_i_glide_lignum>
417

> <i_i_glide_rotatable_bonds>
3

> <r_i_docking_score>
-7.74052432918555

> <r_i_glide_ligand_efficiency>
-0.266914632040881

> <r_i_glide_ligand_efficiency_sa>
-0.8200463141205

> <r_i_glide_ligand_efficiency_ln>
-1.77238378862224

> <r_i_glide_gscore>
-7.74052432918555

> <r_i_glide_lipo>
-4.09730057544841

> <r_i_glide_hbond>
-0.00392825599141567

> <r_i_glide_metal>
0

> <r_i_glide_rewards>
-1.46099226145449

> <r_i_glide_evdw>
-44.6772994995117

> <r_i_glide_ecoul>
-1.45205497741699

> <r_i_glide_erotb>
0.332332744851698

> <r_i_glide_esite>
-0.0589627595548015

> <r_i_glide_emodel>
-63.1207872706285

> <r_i_glide_energy>
-46.1293544769287

> <r_i_glide_einternal>
6.0757155418396

> <i_i_glide_confnum>
94

> <i_i_glide_posenum>
322

> <r_i_glide_eff_state_penalty>
0

> <s_user_duplicate_titles>
CHEMBL2083_lig212

> <i_f3d_flags>
0

> <s_m_subgroup_title>
dock_pv

> <s_m_subgroupid>
dock_pv

> <b_m_subgroup_collapsed>
1

$$$$
CHEMBL2083_lig159 
                    3D
 Schrodinger Suite 2021-1.
 52 55  0  0  1  0            999 V2000
    7.4682    5.7374   15.8586 O   0  0  0  0  0  0
    7.0050    7.0962   16.1588 S   0  0  0  0  0  0
    7.9258    8.2345   16.1409 O   0  0  0  0  0  0
    4.8796    6.4180   17.7008 C   0  0  0  0  0  0
    4.0556    6.3602   18.8156 C   0  0  0  0  0  0
    4.4700    6.9084   20.0316 C   0  0  0  0  0  0
    6.1308    7.0179   17.7343 C   0  0  0  0  0  0
    6.6105    7.5565   18.9681 C   0  0  0  0  0  0
    5.7581    7.5044   20.1250 C   0  0  0  0  0  0
    6.2314    8.0160   21.3601 C   0  0  0  0  0  0
    7.5158    8.5197   21.4614 C   0  0  0  0  0  0
    8.3207    8.6197   20.3430 C   0  0  0  0  0  0
    7.9018    8.1280   19.1191 C   0  0  0  0  0  0
    5.7553    7.4646   14.9568 N   0  0  0  0  0  0
    5.0328    8.6685   14.9104 C   0  0  0  0  0  0
    5.1047    9.6601   15.9036 C   0  0  0  0  0  0
    4.3034   10.8102   15.8274 C   0  0  0  0  0  0
    3.4457   10.9791   14.7322 C   0  0  0  0  0  0
    3.3838   10.0012   13.7428 C   0  0  0  0  0  0
    4.1640    8.8520   13.8348 C   0  0  0  0  0  0
    2.6662   12.0809   14.6131 F   0  0  0  0  0  0
    4.3773   11.8649   16.8923 C   0  0  0  0  0  0
    5.5752   12.5091   16.9410 O   0  0  0  0  0  0
    3.4191   12.1376   17.6126 O   0  0  0  0  0  0
    3.6404    6.8392   21.1301 O   0  0  0  0  0  0
    2.7433    5.7179   18.6532 C   0  0  0  0  0  0
    3.9077    5.7683   22.0318 C   0  0  0  0  0  0
    1.7244    6.4156   18.0056 C   0  0  0  0  0  0
    0.5109    5.7961   17.7432 C   0  0  0  0  0  0
    0.3059    4.4729   18.1407 C   0  0  0  0  0  0
    1.3084    3.7758   18.8120 C   0  0  0  0  0  0
    2.5299    4.3965   19.0598 C   0  0  0  0  0  0
   -0.4784    6.5072   17.0750 N   0  0  0  0  0  0
    4.5192    5.9971   16.7727 H   0  0  0  0  0  0
    5.6018    7.9925   22.2384 H   0  0  0  0  0  0
    7.8859    8.8591   22.4141 H   0  0  0  0  0  0
    9.3173    9.0280   20.4394 H   0  0  0  0  0  0
    8.6079    8.1593   18.3087 H   0  0  0  0  0  0
    5.4021    6.6818   14.4255 H   0  0  0  0  0  0
    5.7659    9.5403   16.7499 H   0  0  0  0  0  0
    2.7180   10.1260   12.9023 H   0  0  0  0  0  0
    4.0850    8.1003   13.0630 H   0  0  0  0  0  0
    5.5202   13.3377   17.4615 H   0  0  0  0  0  0
    3.1629    5.7757   22.8279 H   0  0  0  0  0  0
    3.8536    4.7980   21.5419 H   0  0  0  0  0  0
    4.8887    5.8500   22.4992 H   0  0  0  0  0  0
    1.8925    7.4337   17.6828 H   0  0  0  0  0  0
   -0.6335    3.9808   17.9421 H   0  0  0  0  0  0
    1.1429    2.7557   19.1241 H   0  0  0  0  0  0
    3.3181    3.8396   19.5444 H   0  0  0  0  0  0
   -1.2840    6.0026   16.7450 H   0  0  0  0  0  0
   -0.3788    7.5025   16.9398 H   0  0  0  0  0  0
  1  2  2  0  0  0
  2  3  2  0  0  0
  2  7  1  0  0  0
  2 14  1  0  0  0
  4  5  2  0  0  0
  4  7  1  0  0  0
  4 34  1  0  0  0
  5  6  1  0  0  0
  5 26  1  0  0  0
  6  9  2  0  0  0
  6 25  1  0  0  0
  7  8  2  0  0  0
  8  9  1  0  0  0
  8 13  1  0  0  0
  9 10  1  0  0  0
 10 11  2  0  0  0
 10 35  1  0  0  0
 11 12  1  0  0  0
 11 36  1  0  0  0
 12 13  2  0  0  0
 12 37  1  0  0  0
 13 38  1  0  0  0
 14 15  1  0  0  0
 14 39  1  0  0  0
 15 16  2  0  0  0
 15 20  1  0  0  0
 16 17  1  0  0  0
 16 40  1  0  0  0
 17 18  2  0  0  0
 17 22  1  0  0  0
 18 19  1  0  0  0
 18 21  1  0  0  0
 19 20  2  0  0  0
 19 41  1  0  0  0
 20 42  1  0  0  0
 22 23  1  0  0  0
 22 24  2  0  0  0
 23 43  1  0  0  0
 25 27  1  0  0  0
 26 28  2  0  0  0
 26 32  1  0  0  0
 27 44  1  0  0  0
 27 45  1  0  0  0
 27 46  1  0  0  0
 28 29  1  0  0  0
 28 47  1  0  0  0
 29 30  2  0  0  0
 29 33  1  0  0  0
 30 31  1  0  0  0
 30 48  1  0  0  0
 31 32  2  0  0  0
 31 49  1  0  0  0
 32 50  1  0  0  0
 33 51  1  0  0  0
 33 52  1  0  0  0
M  END
> <s_m_entry_id>
2509

> <s_m_entry_name>
dock_pv.37

> <s_m_Source_Path>
/home/csk/Desktop/cluster/DUD-E-result/fabp4

> <s_m_Source_File>
dock_pv.maegz

> <i_m_Source_File_Index>
37

> <chembl_id>
CHEMBL4435126

> <chembl_pref_name>
None

> <i_lp_mmshare_version>
53161

> <r_lp_tautomer_probability>
1

> <s_lp_Force_Field>
OPLS_2005

> <r_lp_Energy>
34.277145

> <b_lp_Chiralities_Consistent>
1

> <s_lp_Variant>
CHEMBL2083_lig159 -1

> <s_i_glide_gridfile>
glide-grid_2nnq

> <i_i_glide_lignum>
173

> <i_i_glide_rotatable_bonds>
7

> <r_i_docking_score>
-7.73785140268828

> <r_i_glide_ligand_efficiency>
-0.234480345536009

> <r_i_glide_ligand_efficiency_sa>
-0.752103757139452

> <r_i_glide_ligand_efficiency_ln>
-1.72085808750751

> <r_i_glide_gscore>
-7.73785140268828

> <r_i_glide_lipo>
-3.94071178678936

> <r_i_glide_hbond>
-0.238332153907478

> <r_i_glide_metal>
0

> <r_i_glide_rewards>
-0.397478652119813

> <r_i_glide_evdw>
-47.2137184143066

> <r_i_glide_ecoul>
-7.94229507446289

> <r_i_glide_erotb>
0.463568905711406

> <r_i_glide_esite>
-0.072867533698268

> <r_i_glide_emodel>
-72.3224033789945

> <r_i_glide_energy>
-55.1560134887695

> <r_i_glide_einternal>
13.505578994751

> <i_i_glide_confnum>
177

> <i_i_glide_posenum>
97

> <r_i_glide_eff_state_penalty>
0

> <s_user_duplicate_titles>
CHEMBL2083_lig159 

> <i_f3d_flags>
0

> <s_m_subgroup_title>
dock_pv

> <s_m_subgroupid>
dock_pv

> <b_m_subgroup_collapsed>
1

$$$$
CHEMBL2083_lig67
                    3D
 Schrodinger Suite 2021-1.
 52 55  0  0  1  0            999 V2000
    2.7191   10.7468   13.7408 C   0  0  0  0  0  0
    3.0029    9.6920   14.5815 C   0  0  0  0  0  0
    3.0680    9.9124   15.9476 C   0  0  0  0  0  0
    2.8632   11.1991   16.4663 C   0  0  0  0  0  0
    2.5846   12.2609   15.6035 C   0  0  0  0  0  0
    2.5173   12.0334   14.2351 C   0  0  0  0  0  0
    3.3042    8.7282   16.7767 C   0  0  0  0  0  0
    2.9967   11.4385   17.8065 O   0  0  0  0  0  0
    4.1947   12.1365   18.1117 C   0  0  0  0  0  0
    4.2268    8.6930   17.6924 N   0  0  0  0  0  0
    4.0674    7.5454   18.3595 N   0  0  0  0  0  0
    3.0380    6.7989   17.8051 C   0  0  0  0  0  0
    2.6067    7.5382   16.7222 C   0  0  0  0  0  0
    2.4555    5.5316   18.2754 C   0  0  0  0  0  0
    4.8616    7.3719   19.5214 C   0  0  0  0  0  0
    4.9189   11.4190   19.2556 C   0  0  0  0  0  0
    6.2232    7.7045   19.4722 C   0  0  0  0  0  0
    6.9921    7.6834   20.6286 C   0  0  0  0  0  0
    6.4094    7.3097   21.8359 C   0  0  0  0  0  0
    5.0628    6.9504   21.8950 C   0  0  0  0  0  0
    4.2866    6.9802   20.7364 C   0  0  0  0  0  0
    1.0835    5.3582   18.0644 C   0  0  0  0  0  0
    0.4501    4.2254   18.5392 C   0  0  0  0  0  0
    1.1895    3.3090   19.2602 C   0  0  0  0  0  0
    2.5685    3.4249   19.4028 C   0  0  0  0  0  0
    3.2122    4.5442   18.9013 C   0  0  0  0  0  0
    6.4580   11.4743   19.2286 C   0  0  0  0  0  0
    7.1543   11.0354   17.9295 C   0  0  0  0  0  0
    8.3199   11.7090   17.7420 O   0  0  0  0  0  0
    6.7208   10.1818   17.1623 O   0  0  0  0  0  0
    7.4706    7.3090   23.4137 Br  0  0  0  0  0  0
    2.6242   10.5090   12.6922 H   0  0  0  0  0  0
    3.1412    8.7029   14.1668 H   0  0  0  0  0  0
    2.4406   13.2576   15.9945 H   0  0  0  0  0  0
    2.3169   12.8560   13.5733 H   0  0  0  0  0  0
    3.9200   13.1485   18.4151 H   0  0  0  0  0  0
    4.8571   12.2726   17.2526 H   0  0  0  0  0  0
    1.8080    7.2954   16.0355 H   0  0  0  0  0  0
    4.5834   10.3965   19.3914 H   0  0  0  0  0  0
    4.5782   11.9226   20.1423 H   0  0  0  0  0  0
    6.6833    8.0079   18.5429 H   0  0  0  0  0  0
    8.0336    7.9637   20.5843 H   0  0  0  0  0  0
    4.6192    6.6688   22.8391 H   0  0  0  0  0  0
    3.2354    6.7369   20.7965 H   0  0  0  0  0  0
    0.4913    6.1104   17.5636 H   0  0  0  0  0  0
   -0.6151    4.0997   18.4147 H   0  0  0  0  0  0
    0.6640    2.5090   19.7388 H   0  0  0  0  0  0
    3.1199    2.6693   19.9416 H   0  0  0  0  0  0
    4.2784    4.6579   19.0318 H   0  0  0  0  0  0
    6.8680   10.8936   20.0547 H   0  0  0  0  0  0
    6.7190   12.5095   19.4273 H   0  0  0  0  0  0
    8.4270   12.4018   18.4089 H   0  0  0  0  0  0
  1  2  2  0  0  0
  1  6  1  0  0  0
  1 32  1  0  0  0
  2  3  1  0  0  0
  2 33  1  0  0  0
  3  4  2  0  0  0
  3  7  1  0  0  0
  4  5  1  0  0  0
  4  8  1  0  0  0
  5  6  2  0  0  0
  5 34  1  0  0  0
  6 35  1  0  0  0
  7 10  2  0  0  0
  7 13  1  0  0  0
  8  9  1  0  0  0
  9 16  1  0  0  0
  9 36  1  0  0  0
  9 37  1  0  0  0
 10 11  1  0  0  0
 11 12  1  0  0  0
 11 15  1  0  0  0
 12 13  2  0  0  0
 12 14  1  0  0  0
 13 38  1  0  0  0
 14 22  2  0  0  0
 14 26  1  0  0  0
 15 17  2  0  0  0
 15 21  1  0  0  0
 16 27  1  0  0  0
 16 39  1  0  0  0
 16 40  1  0  0  0
 17 18  1  0  0  0
 17 41  1  0  0  0
 18 19  2  0  0  0
 18 42  1  0  0  0
 19 20  1  0  0  0
 19 31  1  0  0  0
 20 21  2  0  0  0
 20 43  1  0  0  0
 21 44  1  0  0  0
 22 23  1  0  0  0
 22 45  1  0  0  0
 23 24  2  0  0  0
 23 46  1  0  0  0
 24 25  1  0  0  0
 24 47  1  0  0  0
 25 26  2  0  0  0
 25 48  1  0  0  0
 26 49  1  0  0  0
 27 28  1  0  0  0
 27 50  1  0  0  0
 27 51  1  0  0  0
 28 29  1  0  0  0
 28 30  2  0  0  0
 29 52  1  0  0  0
M  END
> <s_m_entry_id>
2510

> <s_m_entry_name>
dock_pv.38

> <s_m_Source_Path>
/home/csk/Desktop/cluster/DUD-E-result/fabp4

> <s_m_Source_File>
dock_pv.maegz

> <i_m_Source_File_Index>
38

> <chembl_id>
CHEMBL2334255

> <chembl_pref_name>
None

> <i_lp_mmshare_version>
53161

> <r_lp_tautomer_probability>
1

> <s_lp_Force_Field>
OPLS_2005

> <r_lp_Energy>
26.148781

> <b_lp_Chiralities_Consistent>
1

> <s_lp_Variant>
CHEMBL2083_lig67-1

> <s_i_glide_gridfile>
glide-grid_2nnq

> <i_i_glide_lignum>
77

> <i_i_glide_rotatable_bonds>
9

> <r_i_docking_score>
-7.72973769240254

> <r_i_glide_ligand_efficiency>
-0.249346377174276

> <r_i_glide_ligand_efficiency_sa>
-0.783291884102551

> <r_i_glide_ligand_efficiency_ln>
-1.74329273764787

> <r_i_glide_gscore>
-7.72973769240254

> <r_i_glide_lipo>
-4.36987021157482

> <r_i_glide_hbond>
0

> <r_i_glide_metal>
0

> <r_i_glide_rewards>
-0.461492147273758

> <r_i_glide_evdw>
-44.0144653320312

> <r_i_glide_ecoul>
-9.05625629425049

> <r_i_glide_erotb>
0.711181155203042

> <r_i_glide_esite>
-0.0503947780178687

> <r_i_glide_emodel>
-66.7194472300571

> <r_i_glide_energy>
-53.0707216262817

> <r_i_glide_einternal>
12.2122745513916

> <i_i_glide_confnum>
48

> <i_i_glide_posenum>
235

> <r_i_glide_eff_state_penalty>
0

> <s_user_duplicate_titles>
CHEMBL2083_lig67

> <i_f3d_flags>
0

> <s_m_subgroup_title>
dock_pv

> <s_m_subgroupid>
dock_pv

> <b_m_subgroup_collapsed>
1

$$$$
CHEMBL2083_lig196
                    3D
 Schrodinger Suite 2021-1.
 47 51  0  0  1  0            999 V2000
    2.3724    8.6257   15.9000 C   0  0  0  0  0  0
    2.2593    7.6988   17.0381 N   0  0  0  0  0  0
    1.1102    6.7414   16.9929 C   0  0  1  0  0  0
    3.1500    7.8073   18.1466 C   0  0  0  0  0  0
    3.9218    8.9935   18.3339 C   0  0  0  0  0  0
    4.7458    9.0672   19.4749 C   0  0  0  0  0  0
    4.7192    8.0558   20.4315 C   0  0  0  0  0  0
    3.9342    6.9165   20.2679 C   0  0  0  0  0  0
    3.2242    6.7274   19.0663 C   0  0  0  0  0  0
    3.8879   10.0794   17.2326 C   0  0  1  0  0  0
    2.5611   10.0193   16.4965 C   0  0  1  0  0  0
    2.4835   11.2737   15.6439 C   0  0  0  0  0  0
    3.2261   12.2380   16.5571 C   0  0  0  0  0  0
    3.9350   11.5785   17.5011 C   0  0  0  0  0  0
    1.0999    5.8343   18.2546 C   0  0  2  0  0  0
    2.5160    5.4381   18.6258 C   0  0  2  0  0  0
    2.2872    4.2297   19.5062 C   0  0  0  0  0  0
    1.0742    3.7090   19.2629 C   0  0  0  0  0  0
    0.3045    4.5321   18.2515 C   0  0  0  0  0  0
    3.8316    5.9700   21.4574 C   0  0  0  0  0  0
    5.7110   10.2195   19.7143 C   0  0  0  0  0  0
   -0.2483    7.5058   16.9543 C   0  0  0  0  0  0
   -1.1687    6.9092   16.1421 O   0  0  0  0  0  0
   -0.4898    8.5090   17.6224 O   0  0  0  0  0  0
    3.2681    8.4184   15.3111 H   0  0  0  0  0  0
    1.5206    8.5531   15.2299 H   0  0  0  0  0  0
    1.1698    6.1546   16.0753 H   0  0  0  0  0  0
    5.3028    8.1710   21.3348 H   0  0  0  0  0  0
    4.7172    9.8301   16.5676 H   0  0  0  0  0  0
    1.7689   10.1293   17.2476 H   0  0  0  0  0  0
    1.4493   11.5712   15.4674 H   0  0  0  0  0  0
    2.9604   11.1556   14.6714 H   0  0  0  0  0  0
    3.1559   13.3096   16.4446 H   0  0  0  0  0  0
    4.5663   12.0532   18.2335 H   0  0  0  0  0  0
    0.7141    6.4291   19.0913 H   0  0  0  0  0  0
    3.0640    5.0918   17.7461 H   0  0  0  0  0  0
    3.0363    3.7835   20.1389 H   0  0  0  0  0  0
    0.6671    2.8167   19.7097 H   0  0  0  0  0  0
   -0.7332    4.6993   18.5417 H   0  0  0  0  0  0
    0.2892    4.0362   17.2887 H   0  0  0  0  0  0
    4.3199    5.0204   21.2721 H   0  0  0  0  0  0
    4.2595    6.3983   22.3645 H   0  0  0  0  0  0
    2.7838    5.7702   21.6827 H   0  0  0  0  0  0
    6.5194    9.9350   20.3866 H   0  0  0  0  0  0
    6.1965   10.5191   18.7854 H   0  0  0  0  0  0
    5.1946   11.0789   20.1414 H   0  0  0  0  0  0
   -2.0173    7.3493   16.2635 H   0  0  0  0  0  0
  1 11  1  0  0  0
  1  2  1  0  0  0
  1 25  1  0  0  0
  1 26  1  0  0  0
  2  4  1  0  0  0
  2  3  1  0  0  0
  3 15  1  0  0  0
  3 22  1  0  0  0
  3 27  1  0  0  0
  4  5  2  0  0  0
  4  9  1  0  0  0
  5 10  1  0  0  0
  5  6  1  0  0  0
  6  7  2  0  0  0
  6 21  1  0  0  0
  7  8  1  0  0  0
  7 28  1  0  0  0
  8  9  2  0  0  0
  8 20  1  0  0  0
  9 16  1  0  0  0
 10 11  1  0  0  0
 10 14  1  0  0  0
 10 29  1  0  0  0
 11 12  1  0  0  0
 11 30  1  0  0  0
 12 13  1  0  0  0
 12 31  1  0  0  0
 12 32  1  0  0  0
 13 14  2  0  0  0
 13 33  1  0  0  0
 14 34  1  0  0  0
 15 16  1  0  0  0
 15 19  1  0  0  0
 15 35  1  0  0  0
 16 17  1  0  0  0
 16 36  1  0  0  0
 17 18  2  0  0  0
 17 37  1  0  0  0
 18 19  1  0  0  0
 18 38  1  0  0  0
 19 39  1  0  0  0
 19 40  1  0  0  0
 20 41  1  0  0  0
 20 42  1  0  0  0
 20 43  1  0  0  0
 21 44  1  0  0  0
 21 45  1  0  0  0
 21 46  1  0  0  0
 22 23  1  0  0  0
 22 24  2  0  0  0
 23 47  1  0  0  0
M  END
> <s_m_entry_id>
2511

> <s_m_entry_name>
dock_pv.39

> <s_m_Source_Path>
/home/csk/Desktop/cluster/DUD-E-result/fabp4

> <s_m_Source_File>
dock_pv.maegz

> <i_m_Source_File_Index>
39

> <chembl_id>
CHEMBL3827900

> <chembl_pref_name>
None

> <i_lp_mmshare_version>
53161

> <r_lp_tautomer_probability>
1

> <s_lp_Force_Field>
OPLS_2005

> <r_lp_Energy>
89.102051

> <b_lp_Chiralities_Consistent>
1

> <s_lp_Variant>
CHEMBL2083_lig196-8

> <s_i_glide_gridfile>
glide-grid_2nnq

> <i_i_glide_lignum>
253

> <i_i_glide_rotatable_bonds>
2

> <r_i_docking_score>
-7.69959749770728

> <r_i_glide_ligand_efficiency>
-0.32081656240447

> <r_i_glide_ligand_efficiency_sa>
-0.925395097570375

> <r_i_glide_ligand_efficiency_ln>
-1.84286699270844

> <r_i_glide_gscore>
-7.69959749770728

> <r_i_glide_lipo>
-3.43285455517504

> <r_i_glide_hbond>
-0.0199979800292038

> <r_i_glide_metal>
0

> <r_i_glide_rewards>
-1.97191050536353

> <r_i_glide_evdw>
-33.2842445373535

> <r_i_glide_ecoul>
-5.27669429779053

> <r_i_glide_erotb>
0.180881914396739

> <r_i_glide_esite>
0

> <r_i_glide_emodel>
-55.8870658391333

> <r_i_glide_energy>
-38.560938835144

> <r_i_glide_einternal>
0.759013295173645

> <i_i_glide_confnum>
1

> <i_i_glide_posenum>
209

> <r_i_glide_eff_state_penalty>
0

> <s_user_duplicate_titles>
CHEMBL2083_lig196

> <i_f3d_flags>
0

> <s_m_subgroup_title>
dock_pv

> <s_m_subgroupid>
dock_pv

> <b_m_subgroup_collapsed>
1

$$$$
CHEMBL2083_lig40
                    3D
 Schrodinger Suite 2021-1.
 45 48  0  0  1  0            999 V2000
    7.9954    8.2838   17.5437 C   0  0  0  0  0  0
    7.4687    7.4291   16.5895 C   0  0  0  0  0  0
    6.2948    6.6919   16.7962 C   0  0  0  0  0  0
    7.3882    8.4236   18.7803 C   0  0  0  0  0  0
    6.2047    7.7201   19.0521 C   0  0  0  0  0  0
    5.6252    6.8837   18.0395 C   0  0  0  0  0  0
    4.4130    6.4315   18.5882 N   0  0  0  0  0  0
    3.3188    5.7170   17.9061 C   0  0  0  0  0  0
    2.1104    6.5925   17.5850 C   0  0  0  0  0  0
    2.2848    7.7976   16.8961 C   0  0  0  0  0  0
    1.1807    8.5847   16.5827 C   0  0  0  0  0  0
   -0.0981    8.1608   16.9414 C   0  0  0  0  0  0
   -0.2783    6.9667   17.6357 C   0  0  0  0  0  0
    0.8269    6.1800   17.9585 C   0  0  0  0  0  0
    5.9178    5.6825   15.7496 C   0  0  0  0  0  0
    5.9196    6.1598   14.4768 O   0  0  0  0  0  0
    5.6737    4.5099   16.0198 O   0  0  0  0  0  0
    3.1833    6.3465   20.8317 C   0  0  0  0  0  0
    3.3262    6.6618   22.3410 C   0  0  0  0  0  0
    4.6919    6.2730   22.9451 C   0  0  0  0  0  0
    4.3231    6.8142   19.9225 C   0  0  0  0  0  0
    5.4035    7.6211   20.2305 C   0  0  0  0  0  0
    5.7212    8.2702   21.5634 C   0  0  0  0  0  0
    5.8569    7.2680   22.7291 C   0  0  0  0  0  0
   -1.1694    8.9083   16.5926 F   0  0  0  0  0  0
    8.9154    8.8113   17.3346 H   0  0  0  0  0  0
    8.0226    7.3113   15.6683 H   0  0  0  0  0  0
    7.8350    9.0642   19.5266 H   0  0  0  0  0  0
    3.0319    4.8598   18.5180 H   0  0  0  0  0  0
    3.6443    5.2904   16.9692 H   0  0  0  0  0  0
    3.2714    8.1249   16.6006 H   0  0  0  0  0  0
    1.3110    9.5131   16.0472 H   0  0  0  0  0  0
   -1.2740    6.6516   17.9151 H   0  0  0  0  0  0
    0.6810    5.2556   18.5002 H   0  0  0  0  0  0
    5.6177    5.4655   13.8769 H   0  0  0  0  0  0
    2.2295    6.7309   20.4752 H   0  0  0  0  0  0
    3.0958    5.2636   20.7494 H   0  0  0  0  0  0
    2.5460    6.1181   22.8768 H   0  0  0  0  0  0
    3.1211    7.7127   22.5422 H   0  0  0  0  0  0
    4.9807    5.3051   22.5390 H   0  0  0  0  0  0
    4.5765    6.1069   24.0168 H   0  0  0  0  0  0
    4.9381    8.9934   21.7929 H   0  0  0  0  0  0
    6.6359    8.8610   21.5105 H   0  0  0  0  0  0
    6.0132    7.8227   23.6539 H   0  0  0  0  0  0
    6.7776    6.6978   22.5970 H   0  0  0  0  0  0
  1  2  2  0  0  0
  1  4  1  0  0  0
  1 26  1  0  0  0
  2  3  1  0  0  0
  2 27  1  0  0  0
  3  6  2  0  0  0
  3 15  1  0  0  0
  4  5  2  0  0  0
  4 28  1  0  0  0
  5 22  1  0  0  0
  5  6  1  0  0  0
  6  7  1  0  0  0
  7 21  1  0  0  0
  7  8  1  0  0  0
  8  9  1  0  0  0
  8 29  1  0  0  0
  8 30  1  0  0  0
  9 14  1  0  0  0
  9 10  2  0  0  0
 10 11  1  0  0  0
 10 31  1  0  0  0
 11 12  2  0  0  0
 11 32  1  0  0  0
 12 13  1  0  0  0
 12 25  1  0  0  0
 13 14  2  0  0  0
 13 33  1  0  0  0
 14 34  1  0  0  0
 15 16  1  0  0  0
 15 17  2  0  0  0
 16 35  1  0  0  0
 18 19  1  0  0  0
 18 21  1  0  0  0
 18 36  1  0  0  0
 18 37  1  0  0  0
 19 20  1  0  0  0
 19 38  1  0  0  0
 19 39  1  0  0  0
 20 24  1  0  0  0
 20 40  1  0  0  0
 20 41  1  0  0  0
 21 22  2  0  0  0
 22 23  1  0  0  0
 23 24  1  0  0  0
 23 42  1  0  0  0
 23 43  1  0  0  0
 24 44  1  0  0  0
 24 45  1  0  0  0
M  END
> <s_m_entry_id>
2512

> <s_m_entry_name>
dock_pv.40

> <s_m_Source_Path>
/home/csk/Desktop/cluster/DUD-E-result/fabp4

> <s_m_Source_File>
dock_pv.maegz

> <i_m_Source_File_Index>
40

> <chembl_id>
CHEMBL518181

> <chembl_pref_name>
None

> <i_lp_mmshare_version>
53161

> <r_lp_tautomer_probability>
1

> <s_lp_Force_Field>
OPLS_2005

> <r_lp_Energy>
28.244463

> <b_lp_Chiralities_Consistent>
1

> <s_lp_Variant>
CHEMBL2083_lig40-1

> <s_i_glide_gridfile>
glide-grid_2nnq

> <i_i_glide_lignum>
50

> <i_i_glide_rotatable_bonds>
4

> <r_i_docking_score>
-7.67901704683368

> <r_i_glide_ligand_efficiency>
-0.307160681873347

> <r_i_glide_ligand_efficiency_sa>
-0.898143281315555

> <r_i_glide_ligand_efficiency_ln>
-1.8201571616708

> <r_i_glide_gscore>
-7.67901704683368

> <r_i_glide_lipo>
-3.75966311174329

> <r_i_glide_hbond>
-0.209902228366739

> <r_i_glide_metal>
0

> <r_i_glide_rewards>
-1.51471794194599

> <r_i_glide_evdw>
-35.2279663085938

> <r_i_glide_ecoul>
-5.89010572433472

> <r_i_glide_erotb>
0.49807208830082

> <r_i_glide_esite>
-0.0478916789985784

> <r_i_glide_emodel>
-58.8000618631045

> <r_i_glide_energy>
-41.1180720329285

> <r_i_glide_einternal>
2.76086711883545

> <i_i_glide_confnum>
8

> <i_i_glide_posenum>
391

> <r_i_glide_eff_state_penalty>
0

> <s_user_duplicate_titles>
CHEMBL2083_lig40,457192

> <i_f3d_flags>
0

> <s_m_subgroup_title>
dock_pv

> <s_m_subgroupid>
dock_pv

> <b_m_subgroup_collapsed>
1

$$$$
CHEMBL2083_lig198
                    3D
 Schrodinger Suite 2021-1.
 44 48  0  0  1  0            999 V2000
    2.0367    9.3489   15.7918 C   0  0  0  0  0  0
    2.0438    8.3981   16.9292 N   0  0  0  0  0  0
    1.0779    7.2608   16.8461 C   0  0  1  0  0  0
    3.0916    8.4429   17.8855 C   0  0  0  0  0  0
    3.7445    9.6714   18.1363 C   0  0  0  0  0  0
    4.7252    9.7269   19.1299 C   0  0  0  0  0  0
    5.0631    8.5917   19.8665 C   0  0  0  0  0  0
    4.4267    7.3783   19.5974 C   0  0  0  0  0  0
    3.4425    7.2822   18.6091 C   0  0  0  0  0  0
    3.2905   10.8790   17.3251 C   0  0  2  0  0  0
    3.1436   10.4190   15.8810 C   0  0  2  0  0  0
    3.0045   11.7294   15.1113 C   0  0  0  0  0  0
    3.9180   12.6334   15.9290 C   0  0  0  0  0  0
    4.1527   12.1083   17.1491 C   0  0  0  0  0  0
    1.2687    6.2944   18.0494 C   0  0  2  0  0  0
    2.7462    5.9822   18.2272 C   0  0  2  0  0  0
    2.6916    4.7855   19.1539 C   0  0  0  0  0  0
    1.5207    4.1414   18.9737 C   0  0  0  0  0  0
    0.6013    4.9235   18.0469 C   0  0  0  0  0  0
   -0.3853    7.7899   16.8726 C   0  0  0  0  0  0
   -1.2799    6.9409   16.2931 O   0  0  0  0  0  0
   -0.7199    8.8680   17.3422 O   0  0  0  0  0  0
    6.1208    8.6845   20.9501 C   0  0  0  0  0  0
    2.1168    8.8078   14.8498 H   0  0  0  0  0  0
    1.0652    9.8346   15.7422 H   0  0  0  0  0  0
    1.2015    6.7392   15.8957 H   0  0  0  0  0  0
    5.2220   10.6631   19.3402 H   0  0  0  0  0  0
    4.7027    6.5019   20.1645 H   0  0  0  0  0  0
    2.3296   11.1830   17.7482 H   0  0  0  0  0  0
    4.0737    9.9356   15.5670 H   0  0  0  0  0  0
    1.9764   12.0919   15.0695 H   0  0  0  0  0  0
    3.3539   11.6117   14.0863 H   0  0  0  0  0  0
    4.3194   13.5607   15.5451 H   0  0  0  0  0  0
    4.7395   12.5543   17.9394 H   0  0  0  0  0  0
    0.9183    6.8113   18.9504 H   0  0  0  0  0  0
    3.1994    5.6670   17.2830 H   0  0  0  0  0  0
    3.5296    4.4504   19.7464 H   0  0  0  0  0  0
    1.2231    3.2094   19.4336 H   0  0  0  0  0  0
   -0.4231    4.9769   18.4127 H   0  0  0  0  0  0
    0.5678    4.5081   17.0462 H   0  0  0  0  0  0
   -2.1683    7.3081   16.4318 H   0  0  0  0  0  0
    6.3508    7.7122   21.3886 H   0  0  0  0  0  0
    7.0437    9.0943   20.5376 H   0  0  0  0  0  0
    5.7870    9.3558   21.7419 H   0  0  0  0  0  0
  1 11  1  0  0  0
  1  2  1  0  0  0
  1 24  1  0  0  0
  1 25  1  0  0  0
  2  4  1  0  0  0
  2  3  1  0  0  0
  3 15  1  0  0  0
  3 20  1  0  0  0
  3 26  1  0  0  0
  4  5  2  0  0  0
  4  9  1  0  0  0
  5 10  1  0  0  0
  5  6  1  0  0  0
  6  7  2  0  0  0
  6 27  1  0  0  0
  7  8  1  0  0  0
  7 23  1  0  0  0
  8  9  2  0  0  0
  8 28  1  0  0  0
  9 16  1  0  0  0
 10 11  1  0  0  0
 10 14  1  0  0  0
 10 29  1  0  0  0
 11 12  1  0  0  0
 11 30  1  0  0  0
 12 13  1  0  0  0
 12 31  1  0  0  0
 12 32  1  0  0  0
 13 14  2  0  0  0
 13 33  1  0  0  0
 14 34  1  0  0  0
 15 16  1  0  0  0
 15 19  1  0  0  0
 15 35  1  0  0  0
 16 17  1  0  0  0
 16 36  1  0  0  0
 17 18  2  0  0  0
 17 37  1  0  0  0
 18 19  1  0  0  0
 18 38  1  0  0  0
 19 39  1  0  0  0
 19 40  1  0  0  0
 20 21  1  0  0  0
 20 22  2  0  0  0
 21 41  1  0  0  0
 23 42  1  0  0  0
 23 43  1  0  0  0
 23 44  1  0  0  0
M  END
> <s_m_entry_id>
2513

> <s_m_entry_name>
dock_pv.41

> <s_m_Source_Path>
/home/csk/Desktop/cluster/DUD-E-result/fabp4

> <s_m_Source_File>
dock_pv.maegz

> <i_m_Source_File_Index>
41

> <chembl_id>
CHEMBL3827483

> <chembl_pref_name>
None

> <i_lp_mmshare_version>
53161

> <r_lp_tautomer_probability>
1

> <s_lp_Force_Field>
OPLS_2005

> <r_lp_Energy>
79.121591

> <b_lp_Chiralities_Consistent>
1

> <s_lp_Variant>
CHEMBL2083_lig198-2

> <s_i_glide_gridfile>
glide-grid_2nnq

> <i_i_glide_lignum>
311

> <i_i_glide_rotatable_bonds>
2

> <r_i_docking_score>
-7.67747847915681

> <r_i_glide_ligand_efficiency>
-0.333803412137253

> <r_i_glide_ligand_efficiency_sa>
-0.949292500546749

> <r_i_glide_ligand_efficiency_ln>
-1.85648391178607

> <r_i_glide_gscore>
-7.67747847915681

> <r_i_glide_lipo>
-3.21225164942857

> <r_i_glide_hbond>
-0.0933010697019842

> <r_i_glide_metal>
0

> <r_i_glide_rewards>
-2.07552423233513

> <r_i_glide_evdw>
-28.1127262115479

> <r_i_glide_ecoul>
-7.2427544593811

> <r_i_glide_erotb>
0.195647951793434

> <r_i_glide_esite>
0

> <r_i_glide_emodel>
-52.0627820053838

> <r_i_glide_energy>
-35.355480670929

> <r_i_glide_einternal>
0.674266338348389

> <i_i_glide_confnum>
1

> <i_i_glide_posenum>
300

> <r_i_glide_eff_state_penalty>
0

> <s_user_duplicate_titles>
CHEMBL2083_lig198

> <i_f3d_flags>
0

> <s_m_subgroup_title>
dock_pv

> <s_m_subgroupid>
dock_pv

> <b_m_subgroup_collapsed>
1

$$$$
CHEMBL2083_lig158 
                    3D
 Schrodinger Suite 2021-1.
 50 53  0  0  1  0            999 V2000
    7.4793    5.6226   15.5829 O   0  0  0  0  0  0
    7.1089    7.0123   15.8730 S   0  0  0  0  0  0
    8.0691    8.1089   15.7354 O   0  0  0  0  0  0
    5.1232    6.4864   17.6255 C   0  0  0  0  0  0
    4.3734    6.5596   18.7889 C   0  0  0  0  0  0
    4.8916    7.2043   19.9170 C   0  0  0  0  0  0
    6.3912    7.0349   17.5218 C   0  0  0  0  0  0
    6.9840    7.6538   18.6638 C   0  0  0  0  0  0
    6.2064    7.7625   19.8671 C   0  0  0  0  0  0
    6.7739    8.4186   20.9921 C   0  0  0  0  0  0
    8.0707    8.9135   20.9418 C   0  0  0  0  0  0
    8.8300    8.7959   19.7902 C   0  0  0  0  0  0
    8.3118    8.1655   18.6716 C   0  0  0  0  0  0
    5.7636    7.4065   14.7827 N   0  0  0  0  0  0
    5.0720    8.6308   14.7926 C   0  0  0  0  0  0
    5.1992    9.5802   15.8199 C   0  0  0  0  0  0
    4.4188   10.7437   15.8242 C   0  0  0  0  0  0
    3.5268   10.9796   14.7717 C   0  0  0  0  0  0
    3.4126   10.0493   13.7421 C   0  0  0  0  0  0
    4.1709    8.8801   13.7567 C   0  0  0  0  0  0
    2.7654   12.0994   14.7336 F   0  0  0  0  0  0
    4.5481   11.7333   16.9412 C   0  0  0  0  0  0
    5.6601   12.5090   16.8477 O   0  0  0  0  0  0
    3.7110   11.8298   17.8359 O   0  0  0  0  0  0
    4.1338    7.2865   21.0635 O   0  0  0  0  0  0
    3.0648    5.8823   18.7573 C   0  0  0  0  0  0
    4.4220    6.3087   22.0585 C   0  0  0  0  0  0
    2.9614    4.5753   19.2348 C   0  0  0  0  0  0
    1.8288    3.8184   18.9657 C   0  0  0  0  0  0
    0.7921    4.3615   18.2125 C   0  0  0  0  0  0
    0.8441    5.6996   17.7987 C   0  0  0  0  0  0
    1.9847    6.4539   18.0759 C   0  0  0  0  0  0
   -0.4800    3.3091   17.7419 Cl  0  0  0  0  0  0
   -0.4453    6.4280   16.9026 Cl  0  0  0  0  0  0
    4.6898    6.0001   16.7625 H   0  0  0  0  0  0
    6.1989    8.5181   21.9024 H   0  0  0  0  0  0
    8.5177    9.3640   21.8111 H   0  0  0  0  0  0
    9.8466    9.1634   19.7760 H   0  0  0  0  0  0
    8.9668    8.0501   17.8259 H   0  0  0  0  0  0
    5.3420    6.6308   14.2933 H   0  0  0  0  0  0
    5.8900    9.4206   16.6336 H   0  0  0  0  0  0
    2.7202   10.2308   12.9357 H   0  0  0  0  0  0
    4.0496    8.1643   12.9570 H   0  0  0  0  0  0
    5.6331   13.2339   17.4936 H   0  0  0  0  0  0
    3.8569    6.5411   22.9608 H   0  0  0  0  0  0
    4.1273    5.3100   21.7377 H   0  0  0  0  0  0
    5.4783    6.2811   22.3299 H   0  0  0  0  0  0
    3.7948    4.1137   19.7417 H   0  0  0  0  0  0
    1.7809    2.7910   19.2935 H   0  0  0  0  0  0
    2.0592    7.4643   17.6987 H   0  0  0  0  0  0
  1  2  2  0  0  0
  2  3  2  0  0  0
  2  7  1  0  0  0
  2 14  1  0  0  0
  4  5  2  0  0  0
  4  7  1  0  0  0
  4 35  1  0  0  0
  5  6  1  0  0  0
  5 26  1  0  0  0
  6  9  2  0  0  0
  6 25  1  0  0  0
  7  8  2  0  0  0
  8  9  1  0  0  0
  8 13  1  0  0  0
  9 10  1  0  0  0
 10 11  2  0  0  0
 10 36  1  0  0  0
 11 12  1  0  0  0
 11 37  1  0  0  0
 12 13  2  0  0  0
 12 38  1  0  0  0
 13 39  1  0  0  0
 14 15  1  0  0  0
 14 40  1  0  0  0
 15 16  2  0  0  0
 15 20  1  0  0  0
 16 17  1  0  0  0
 16 41  1  0  0  0
 17 18  2  0  0  0
 17 22  1  0  0  0
 18 19  1  0  0  0
 18 21  1  0  0  0
 19 20  2  0  0  0
 19 42  1  0  0  0
 20 43  1  0  0  0
 22 23  1  0  0  0
 22 24  2  0  0  0
 23 44  1  0  0  0
 25 27  1  0  0  0
 26 28  2  0  0  0
 26 32  1  0  0  0
 27 45  1  0  0  0
 27 46  1  0  0  0
 27 47  1  0  0  0
 28 29  1  0  0  0
 28 48  1  0  0  0
 29 30  2  0  0  0
 29 49  1  0  0  0
 30 31  1  0  0  0
 30 33  1  0  0  0
 31 32  2  0  0  0
 31 34  1  0  0  0
 32 50  1  0  0  0
M  END
> <s_m_entry_id>
2514

> <s_m_entry_name>
dock_pv.42

> <s_m_Source_Path>
/home/csk/Desktop/cluster/DUD-E-result/fabp4

> <s_m_Source_File>
dock_pv.maegz

> <i_m_Source_File_Index>
42

> <chembl_id>
CHEMBL4550496

> <chembl_pref_name>
None

> <i_lp_mmshare_version>
53161

> <r_lp_tautomer_probability>
1

> <s_lp_Force_Field>
OPLS_2005

> <r_lp_Energy>
32.566375

> <b_lp_Chiralities_Consistent>
1

> <s_lp_Variant>
CHEMBL2083_lig158 -1

> <s_i_glide_gridfile>
glide-grid_2nnq

> <i_i_glide_lignum>
172

> <i_i_glide_rotatable_bonds>
7

> <r_i_docking_score>
-7.67708848235916

> <r_i_glide_ligand_efficiency>
-0.225796720069387

> <r_i_glide_ligand_efficiency_sa>
-0.731493718166698

> <r_i_glide_ligand_efficiency_ln>
-1.69608418079118

> <r_i_glide_gscore>
-7.67708848235916

> <r_i_glide_lipo>
-4.21918348532483

> <r_i_glide_hbond>
0

> <r_i_glide_metal>
0

> <r_i_glide_rewards>
-0.0941484010087527

> <r_i_glide_evdw>
-48.9365882873535

> <r_i_glide_ecoul>
-7.99471759796143

> <r_i_glide_erotb>
0.379483130001651

> <r_i_glide_esite>
-0.0972026719653379

> <r_i_glide_emodel>
-67.256836330545

> <r_i_glide_energy>
-56.9313058853149

> <r_i_glide_einternal>
17.0302124023438

> <i_i_glide_confnum>
208

> <i_i_glide_posenum>
40

> <r_i_glide_eff_state_penalty>
0

> <s_user_duplicate_titles>
CHEMBL2083_lig158 

> <i_f3d_flags>
0

> <s_m_subgroup_title>
dock_pv

> <s_m_subgroupid>
dock_pv

> <b_m_subgroup_collapsed>
1

$$$$
CHEMBL2083_lig198
                    3D
 Schrodinger Suite 2021-1.
 44 48  0  0  1  0            999 V2000
    3.3754    8.9342   17.1114 C   0  0  0  0  0  0
    4.4811    8.7363   18.0585 N   0  0  0  0  0  0
    5.5714    9.7441   17.9325 C   0  0  2  0  0  0
    4.3190    7.9206   19.1994 C   0  0  0  0  0  0
    3.3250    6.9122   19.2060 C   0  0  0  0  0  0
    3.1400    6.1703   20.3809 C   0  0  0  0  0  0
    3.9016    6.4081   21.5214 C   0  0  0  0  0  0
    4.9300    7.3419   21.4747 C   0  0  0  0  0  0
    5.1773    8.0860   20.3194 C   0  0  0  0  0  0
    2.5218    6.5920   17.9369 C   0  0  2  0  0  0
    2.3452    7.7875   16.9909 C   0  0  1  0  0  0
    0.8786    8.2361   17.1112 C   0  0  0  0  0  0
    0.1949    7.0331   17.7197 C   0  0  0  0  0  0
    1.0898    6.1308   18.1548 C   0  0  0  0  0  0
    6.7463    9.3100   18.8402 C   0  0  2  0  0  0
    6.2878    9.1316   20.2804 C   0  0  2  0  0  0
    7.6244    8.9025   20.9520 C   0  0  0  0  0  0
    8.5946    9.5260   20.2510 C   0  0  0  0  0  0
    8.0579   10.0911   18.9438 C   0  0  0  0  0  0
    5.0913   11.1780   18.2973 C   0  0  0  0  0  0
    5.7823   12.1092   17.5832 O   0  0  0  0  0  0
    4.2341   11.4366   19.1435 O   0  0  0  0  0  0
    3.6226    5.6414   22.7994 C   0  0  0  0  0  0
    2.8269    9.7193   17.6352 H   0  0  0  0  0  0
    3.6579    9.4038   16.1674 H   0  0  0  0  0  0
    5.8999    9.7943   16.8946 H   0  0  0  0  0  0
    2.3805    5.4038   20.4198 H   0  0  0  0  0  0
    5.5325    7.5132   22.3543 H   0  0  0  0  0  0
    3.0879    5.8160   17.4201 H   0  0  0  0  0  0
    2.4215    7.4311   15.9611 H   0  0  0  0  0  0
    0.7447    9.1138   17.7418 H   0  0  0  0  0  0
    0.4529    8.4797   16.1401 H   0  0  0  0  0  0
   -0.8808    6.9500   17.7810 H   0  0  0  0  0  0
    0.8589    5.1857   18.6235 H   0  0  0  0  0  0
    7.0405    8.3310   18.4431 H   0  0  0  0  0  0
    5.8519   10.0408   20.6964 H   0  0  0  0  0  0
    7.7276    8.4216   21.9133 H   0  0  0  0  0  0
    9.6367    9.6068   20.5238 H   0  0  0  0  0  0
    7.9235   11.1727   18.9746 H   0  0  0  0  0  0
    8.7192    9.8694   18.1036 H   0  0  0  0  0  0
    5.5702   13.0252   17.8322 H   0  0  0  0  0  0
    3.5204    4.5788   22.5823 H   0  0  0  0  0  0
    4.4322    5.7383   23.5236 H   0  0  0  0  0  0
    2.6935    5.9791   23.2568 H   0  0  0  0  0  0
  1 11  1  0  0  0
  1  2  1  0  0  0
  1 24  1  0  0  0
  1 25  1  0  0  0
  2  4  1  0  0  0
  2  3  1  0  0  0
  3 15  1  0  0  0
  3 20  1  0  0  0
  3 26  1  0  0  0
  4  5  2  0  0  0
  4  9  1  0  0  0
  5 10  1  0  0  0
  5  6  1  0  0  0
  6  7  2  0  0  0
  6 27  1  0  0  0
  7  8  1  0  0  0
  7 23  1  0  0  0
  8  9  2  0  0  0
  8 28  1  0  0  0
  9 16  1  0  0  0
 10 11  1  0  0  0
 10 14  1  0  0  0
 10 29  1  0  0  0
 11 12  1  0  0  0
 11 30  1  0  0  0
 12 13  1  0  0  0
 12 31  1  0  0  0
 12 32  1  0  0  0
 13 14  2  0  0  0
 13 33  1  0  0  0
 14 34  1  0  0  0
 15 16  1  0  0  0
 15 19  1  0  0  0
 15 35  1  0  0  0
 16 17  1  0  0  0
 16 36  1  0  0  0
 17 18  2  0  0  0
 17 37  1  0  0  0
 18 19  1  0  0  0
 18 38  1  0  0  0
 19 39  1  0  0  0
 19 40  1  0  0  0
 20 21  1  0  0  0
 20 22  2  0  0  0
 21 41  1  0  0  0
 23 42  1  0  0  0
 23 43  1  0  0  0
 23 44  1  0  0  0
M  END
> <s_m_entry_id>
2515

> <s_m_entry_name>
dock_pv.43

> <s_m_Source_Path>
/home/csk/Desktop/cluster/DUD-E-result/fabp4

> <s_m_Source_File>
dock_pv.maegz

> <i_m_Source_File_Index>
43

> <chembl_id>
CHEMBL3827483

> <chembl_pref_name>
None

> <i_lp_mmshare_version>
53161

> <r_lp_tautomer_probability>
1

> <s_lp_Force_Field>
OPLS_2005

> <r_lp_Energy>
75.669963

> <b_lp_Chiralities_Consistent>
1

> <s_lp_Variant>
CHEMBL2083_lig198-5

> <s_i_glide_gridfile>
glide-grid_2nnq

> <i_i_glide_lignum>
314

> <i_i_glide_rotatable_bonds>
2

> <r_i_docking_score>
-7.65024568673271

> <r_i_glide_ligand_efficiency>
-0.332619377684031

> <r_i_glide_ligand_efficiency_sa>
-0.945925264065744

> <r_i_glide_ligand_efficiency_ln>
-1.84989877564461

> <r_i_glide_gscore>
-7.65024568673271

> <r_i_glide_lipo>
-3.42659507394687

> <r_i_glide_hbond>
-0.12357151254079

> <r_i_glide_metal>
0

> <r_i_glide_rewards>
-1.51303446391927

> <r_i_glide_evdw>
-32.4201240539551

> <r_i_glide_ecoul>
-7.47216081619263

> <r_i_glide_erotb>
0.195647951793434

> <r_i_glide_esite>
-0.0408622629925645

> <r_i_glide_emodel>
-56.0061866819674

> <r_i_glide_energy>
-39.8922848701477

> <r_i_glide_einternal>
0.421629995107651

> <i_i_glide_confnum>
1

> <i_i_glide_posenum>
249

> <r_i_glide_eff_state_penalty>
0

> <s_user_duplicate_titles>
CHEMBL2083_lig198

> <i_f3d_flags>
0

> <s_m_subgroup_title>
dock_pv

> <s_m_subgroupid>
dock_pv

> <b_m_subgroup_collapsed>
1

$$$$
CHEMBL2083_lig157 
                    3D
 Schrodinger Suite 2021-1.
 50 53  0  0  1  0            999 V2000
    7.5155    5.5596   15.6130 O   0  0  0  0  0  0
    7.1325    6.9508   15.8781 S   0  0  0  0  0  0
    8.0896    8.0513   15.7416 O   0  0  0  0  0  0
    5.1133    6.4263   17.5862 C   0  0  0  0  0  0
    4.3379    6.4936   18.7318 C   0  0  0  0  0  0
    4.8251    7.1340   19.8751 C   0  0  0  0  0  0
    6.3763    6.9914   17.5098 C   0  0  0  0  0  0
    6.9309    7.6303   18.6616 C   0  0  0  0  0  0
    6.1274    7.7210   19.8501 C   0  0  0  0  0  0
    6.6569    8.3878   20.9871 C   0  0  0  0  0  0
    7.9450    8.9031   20.9671 C   0  0  0  0  0  0
    8.7276    8.8102   19.8299 C   0  0  0  0  0  0
    8.2447    8.1767   18.6960 C   0  0  0  0  0  0
    5.8029    7.3219   14.7613 N   0  0  0  0  0  0
    5.1147    8.5472   14.7472 C   0  0  0  0  0  0
    5.3070    9.5460   15.7148 C   0  0  0  0  0  0
    4.5848   10.7439   15.6629 C   0  0  0  0  0  0
    3.6427   10.9405   14.6477 C   0  0  0  0  0  0
    3.4425    9.9471   13.6949 C   0  0  0  0  0  0
    4.1696    8.7587   13.7429 C   0  0  0  0  0  0
    2.9161   12.0814   14.5720 F   0  0  0  0  0  0
    4.8109   11.7964   16.7009 C   0  0  0  0  0  0
    5.4165   12.9090   16.2086 O   0  0  0  0  0  0
    4.4898   11.6429   17.8772 O   0  0  0  0  0  0
    4.0402    7.1950   21.0060 O   0  0  0  0  0  0
    3.0234    5.8338   18.6768 C   0  0  0  0  0  0
    4.3607    6.2603   22.0335 C   0  0  0  0  0  0
    2.8535    4.5775   19.2596 C   0  0  0  0  0  0
    1.6669    3.8792   19.0837 C   0  0  0  0  0  0
    0.6471    4.4270   18.3150 C   0  0  0  0  0  0
    0.7890    5.6993   17.7516 C   0  0  0  0  0  0
    1.9804    6.3981   17.9351 C   0  0  0  0  0  0
   -0.4769    3.7091   18.1405 F   0  0  0  0  0  0
   -0.4793    6.4179   16.8235 Cl  0  0  0  0  0  0
    4.7033    5.9327   16.7161 H   0  0  0  0  0  0
    6.0649    8.4730   21.8875 H   0  0  0  0  0  0
    8.3739    9.3183   21.8615 H   0  0  0  0  0  0
    9.7392    9.1915   19.8423 H   0  0  0  0  0  0
    8.9182    8.0800   17.8626 H   0  0  0  0  0  0
    5.3840    6.5372   14.2841 H   0  0  0  0  0  0
    6.0221    9.4108   16.5125 H   0  0  0  0  0  0
    2.7203   10.1074   12.9092 H   0  0  0  0  0  0
    3.9942    8.0016   12.9929 H   0  0  0  0  0  0
    5.5201   13.5746   16.9096 H   0  0  0  0  0  0
    3.7759    6.4931   22.9238 H   0  0  0  0  0  0
    4.1130    5.2409   21.7404 H   0  0  0  0  0  0
    5.4135    6.2816   22.3179 H   0  0  0  0  0  0
    3.6579    4.1188   19.8118 H   0  0  0  0  0  0
    1.5393    2.9089   19.5336 H   0  0  0  0  0  0
    2.1065    7.3680   17.4746 H   0  0  0  0  0  0
  1  2  2  0  0  0
  2  3  2  0  0  0
  2  7  1  0  0  0
  2 14  1  0  0  0
  4  5  2  0  0  0
  4  7  1  0  0  0
  4 35  1  0  0  0
  5  6  1  0  0  0
  5 26  1  0  0  0
  6  9  2  0  0  0
  6 25  1  0  0  0
  7  8  2  0  0  0
  8  9  1  0  0  0
  8 13  1  0  0  0
  9 10  1  0  0  0
 10 11  2  0  0  0
 10 36  1  0  0  0
 11 12  1  0  0  0
 11 37  1  0  0  0
 12 13  2  0  0  0
 12 38  1  0  0  0
 13 39  1  0  0  0
 14 15  1  0  0  0
 14 40  1  0  0  0
 15 16  2  0  0  0
 15 20  1  0  0  0
 16 17  1  0  0  0
 16 41  1  0  0  0
 17 18  2  0  0  0
 17 22  1  0  0  0
 18 19  1  0  0  0
 18 21  1  0  0  0
 19 20  2  0  0  0
 19 42  1  0  0  0
 20 43  1  0  0  0
 22 23  1  0  0  0
 22 24  2  0  0  0
 23 44  1  0  0  0
 25 27  1  0  0  0
 26 28  2  0  0  0
 26 32  1  0  0  0
 27 45  1  0  0  0
 27 46  1  0  0  0
 27 47  1  0  0  0
 28 29  1  0  0  0
 28 48  1  0  0  0
 29 30  2  0  0  0
 29 49  1  0  0  0
 30 31  1  0  0  0
 30 33  1  0  0  0
 31 32  2  0  0  0
 31 34  1  0  0  0
 32 50  1  0  0  0
M  END
> <s_m_entry_id>
2516

> <s_m_entry_name>
dock_pv.44

> <s_m_Source_Path>
/home/csk/Desktop/cluster/DUD-E-result/fabp4

> <s_m_Source_File>
dock_pv.maegz

> <i_m_Source_File_Index>
44

> <chembl_id>
CHEMBL4515058

> <chembl_pref_name>
None

> <i_lp_mmshare_version>
53161

> <r_lp_tautomer_probability>
1

> <s_lp_Force_Field>
OPLS_2005

> <r_lp_Energy>
32.398315

> <b_lp_Chiralities_Consistent>
1

> <s_lp_Variant>
CHEMBL2083_lig157 -1

> <s_i_glide_gridfile>
glide-grid_2nnq

> <i_i_glide_lignum>
171

> <i_i_glide_rotatable_bonds>
7

> <r_i_docking_score>
-7.64156091480885

> <r_i_glide_ligand_efficiency>
-0.224751791612025

> <r_i_glide_ligand_efficiency_sa>
-0.728108555608716

> <r_i_glide_ligand_efficiency_ln>
-1.68823514460481

> <r_i_glide_gscore>
-7.64156091480885

> <r_i_glide_lipo>
-4.28730384595431

> <r_i_glide_hbond>
0

> <r_i_glide_metal>
0

> <r_i_glide_rewards>
-0.118233062371733

> <r_i_glide_evdw>
-48.3998336791992

> <r_i_glide_ecoul>
-7.23087787628174

> <r_i_glide_erotb>
0.402551903865549

> <r_i_glide_esite>
-0.133952544946132

> <r_i_glide_emodel>
-68.5606719381474

> <r_i_glide_energy>
-55.630711555481

> <r_i_glide_einternal>
15.6094846725464

> <i_i_glide_confnum>
184

> <i_i_glide_posenum>
182

> <r_i_glide_eff_state_penalty>
0

> <s_user_duplicate_titles>
CHEMBL2083_lig157 

> <i_f3d_flags>
0

> <s_m_subgroup_title>
dock_pv

> <s_m_subgroupid>
dock_pv

> <b_m_subgroup_collapsed>
1

$$$$
CHEMBL2083_lig116
                    3D
 Schrodinger Suite 2021-1.
 45 48  0  0  1  0            999 V2000
    5.5191   12.5089   14.7530 C   0  0  0  0  0  0
    5.1006   11.4667   15.7539 C   0  0  0  0  0  0
    6.1700   11.0874   17.0648 S   0  0  0  0  0  0
    5.1052    9.8602   17.6162 C   0  0  0  0  0  0
    5.5082    9.1150   18.6985 N   0  0  0  0  0  0
    5.1009    9.3912   19.9501 C   0  0  0  0  0  0
    4.3201   10.2974   20.2400 O   0  0  0  0  0  0
    5.6127    8.4707   20.9432 C   0  0  0  0  0  0
    6.9254    8.2350   21.2195 C   0  0  0  0  0  0
    7.0860    7.1565   22.2737 C   0  0  0  0  0  0
    5.6573    6.9004   22.7464 C   0  0  0  0  0  0
    4.7037    7.5835   21.7708 C   0  0  0  0  0  0
    8.0449    8.9279   20.6176 C   0  0  0  0  0  0
    8.4159   10.0542   20.9421 O   0  0  0  0  0  0
    8.6522    8.1785   19.6594 O   0  0  0  0  0  0
    3.9312    9.7737   16.8708 C   0  0  0  0  0  0
    2.8543    8.8230   17.1671 C   0  0  0  0  0  0
    3.1579    7.6278   17.7348 O   0  0  0  0  0  0
    1.9369    6.9705   17.8719 N   0  0  0  0  0  0
    1.0771    7.8358   17.3769 C   0  0  0  0  0  0
    1.5799    8.9680   16.9313 N   0  0  0  0  0  0
   -0.4114    7.5452   17.3287 C   0  0  0  0  0  0
   -0.6691    6.5086   16.5383 F   0  0  0  0  0  0
   -0.8796    7.2594   18.5417 F   0  0  0  0  0  0
   -1.1109    8.5785   16.8569 F   0  0  0  0  0  0
    3.9121   10.7167   15.8126 C   0  0  0  0  0  0
    2.7536   10.8626   14.8304 C   0  0  0  0  0  0
    1.5214   11.6474   15.2331 C   0  0  0  0  0  0
    2.4107   12.1628   14.1421 C   0  0  0  0  0  0
    5.0163   13.4430   14.9831 H   0  0  0  0  0  0
    6.5892   12.7188   14.7616 H   0  0  0  0  0  0
    5.2534   12.2338   13.7324 H   0  0  0  0  0  0
    6.1315    8.3374   18.5425 H   0  0  0  0  0  0
    7.7297    7.4611   23.1012 H   0  0  0  0  0  0
    7.5208    6.2610   21.8272 H   0  0  0  0  0  0
    5.4471    5.8330   22.8289 H   0  0  0  0  0  0
    5.5199    7.3109   23.7479 H   0  0  0  0  0  0
    4.1961    6.8625   21.1275 H   0  0  0  0  0  0
    3.9338    8.1458   22.3028 H   0  0  0  0  0  0
    9.4205    8.6424   19.3198 H   0  0  0  0  0  0
    2.5787    9.9636   14.2380 H   0  0  0  0  0  0
    0.5288   11.3080   14.9419 H   0  0  0  0  0  0
    1.5210   12.1550   16.1983 H   0  0  0  0  0  0
    2.9431   13.0879   14.3440 H   0  0  0  0  0  0
    2.0559   12.1089   13.1141 H   0  0  0  0  0  0
  1  2  1  0  0  0
  1 30  1  0  0  0
  1 31  1  0  0  0
  1 32  1  0  0  0
  2  3  1  0  0  0
  2 26  2  0  0  0
  3  4  1  0  0  0
  4  5  1  0  0  0
  4 16  2  0  0  0
  5  6  1  0  0  0
  5 33  1  0  0  0
  6  7  2  0  0  0
  6  8  1  0  0  0
  8  9  2  0  0  0
  8 12  1  0  0  0
  9 10  1  0  0  0
  9 13  1  0  0  0
 10 11  1  0  0  0
 10 34  1  0  0  0
 10 35  1  0  0  0
 11 12  1  0  0  0
 11 36  1  0  0  0
 11 37  1  0  0  0
 12 38  1  0  0  0
 12 39  1  0  0  0
 13 14  2  0  0  0
 13 15  1  0  0  0
 15 40  1  0  0  0
 16 17  1  0  0  0
 16 26  1  0  0  0
 17 18  1  0  0  0
 17 21  2  0  0  0
 18 19  1  0  0  0
 19 20  2  0  0  0
 20 21  1  0  0  0
 20 22  1  0  0  0
 22 23  1  0  0  0
 22 24  1  0  0  0
 22 25  1  0  0  0
 26 27  1  0  0  0
 27 28  1  0  0  0
 27 29  1  0  0  0
 27 41  1  0  0  0
 28 29  1  0  0  0
 28 42  1  0  0  0
 28 43  1  0  0  0
 29 44  1  0  0  0
 29 45  1  0  0  0
M  END
> <s_m_entry_id>
2517

> <s_m_entry_name>
dock_pv.45

> <s_m_Source_Path>
/home/csk/Desktop/cluster/DUD-E-result/fabp4

> <s_m_Source_File>
dock_pv.maegz

> <i_m_Source_File_Index>
45

> <chembl_id>
CHEMBL3896829

> <chembl_pref_name>
None

> <i_lp_mmshare_version>
53161

> <r_lp_tautomer_probability>
1

> <s_lp_Force_Field>
OPLS_2005

> <r_lp_Energy>
41.331795

> <b_lp_Chiralities_Consistent>
1

> <s_lp_Variant>
CHEMBL2083_lig116-1

> <s_i_glide_gridfile>
glide-grid_2nnq

> <i_i_glide_lignum>
126

> <i_i_glide_rotatable_bonds>
8

> <r_i_docking_score>
-7.63416947881235

> <r_i_glide_ligand_efficiency>
-0.263247223407322

> <r_i_glide_ligand_efficiency_sa>
-0.808778872881599

> <r_i_glide_ligand_efficiency_ln>
-1.74803122481309

> <r_i_glide_gscore>
-7.63416947881235

> <r_i_glide_lipo>
-2.52817291104357

> <r_i_glide_hbond>
-0.588065379468042

> <r_i_glide_metal>
0

> <r_i_glide_rewards>
-1.73346905952771

> <r_i_glide_evdw>
-46.3192481994629

> <r_i_glide_ecoul>
-7.31669425964355

> <r_i_glide_erotb>
0.652146789676061

> <r_i_glide_esite>
-0.0231423695294091

> <r_i_glide_emodel>
-71.0463814414021

> <r_i_glide_energy>
-53.6359424591064

> <r_i_glide_einternal>
13.1223497390747

> <i_i_glide_confnum>
57

> <i_i_glide_posenum>
124

> <r_i_glide_eff_state_penalty>
0

> <s_user_duplicate_titles>
CHEMBL2083_lig116

> <i_f3d_flags>
0

> <s_m_subgroup_title>
dock_pv

> <s_m_subgroupid>
dock_pv

> <b_m_subgroup_collapsed>
1

$$$$
CHEMBL2083_lig152 
                    3D
 Schrodinger Suite 2021-1.
 50 53  0  0  1  0            999 V2000
    7.2944    5.6169   15.7309 O   0  0  0  0  0  0
    6.8850    6.9874   16.0582 S   0  0  0  0  0  0
    7.8448    8.0966   16.0550 O   0  0  0  0  0  0
    4.7549    6.3104   17.6005 C   0  0  0  0  0  0
    3.9248    6.2523   18.7125 C   0  0  0  0  0  0
    4.3424    6.8219   19.9211 C   0  0  0  0  0  0
    6.0108    6.9075   17.6347 C   0  0  0  0  0  0
    6.4938    7.4559   18.8638 C   0  0  0  0  0  0
    5.6266    7.4424   20.0086 C   0  0  0  0  0  0
    6.0846    8.0193   21.2252 C   0  0  0  0  0  0
    7.3685    8.5398   21.3246 C   0  0  0  0  0  0
    8.2183    8.5338   20.2295 C   0  0  0  0  0  0
    7.8020    7.9975   19.0205 C   0  0  0  0  0  0
    5.6337    7.4247   14.8785 N   0  0  0  0  0  0
    4.9748    8.6653   14.8631 C   0  0  0  0  0  0
    5.1315    9.6289   15.8720 C   0  0  0  0  0  0
    4.4366   10.8433   15.8199 C   0  0  0  0  0  0
    3.5606   11.0905   14.7550 C   0  0  0  0  0  0
    3.3957   10.1306   13.7573 C   0  0  0  0  0  0
    4.0969    8.9281   13.8108 C   0  0  0  0  0  0
    2.8625   12.2484   14.6751 F   0  0  0  0  0  0
    4.6229   11.8529   16.9119 C   0  0  0  0  0  0
    5.3990   12.9089   16.5420 O   0  0  0  0  0  0
    4.1309   11.7074   18.0287 O   0  0  0  0  0  0
    3.5232    6.7657   21.0259 O   0  0  0  0  0  0
    3.7990    5.7074   21.9373 C   0  0  0  0  0  0
    2.6254    5.5593   18.5670 C   0  0  0  0  0  0
    1.5472    6.2063   17.9561 C   0  0  0  0  0  0
    0.3534    5.5233   17.7424 C   0  0  0  0  0  0
    0.2430    4.1927   18.1420 C   0  0  0  0  0  0
    1.3055    3.5431   18.7601 C   0  0  0  0  0  0
    2.4981    4.2269   18.9691 C   0  0  0  0  0  0
    4.4016    5.8820   16.6732 H   0  0  0  0  0  0
    5.4400    8.0277   22.0936 H   0  0  0  0  0  0
    7.7225    8.9084   22.2723 H   0  0  0  0  0  0
    9.2243    8.9184   20.3263 H   0  0  0  0  0  0
    8.5230    7.9707   18.2225 H   0  0  0  0  0  0
    5.2405    6.6700   14.3360 H   0  0  0  0  0  0
    5.7919    9.4485   16.7075 H   0  0  0  0  0  0
    2.7205   10.3218   12.9367 H   0  0  0  0  0  0
    3.9508    8.1990   13.0272 H   0  0  0  0  0  0
    5.5171   13.5742   17.2503 H   0  0  0  0  0  0
    3.1680    5.8216   22.8190 H   0  0  0  0  0  0
    3.5722    4.7371   21.4981 H   0  0  0  0  0  0
    4.8368    5.6981   22.2756 H   0  0  0  0  0  0
    1.6413    7.2334   17.6333 H   0  0  0  0  0  0
   -0.4806    6.0188   17.2671 H   0  0  0  0  0  0
   -0.6816    3.6600   17.9752 H   0  0  0  0  0  0
    1.2080    2.5102   19.0600 H   0  0  0  0  0  0
    3.3323    3.7123   19.4220 H   0  0  0  0  0  0
  1  2  2  0  0  0
  2  3  2  0  0  0
  2  7  1  0  0  0
  2 14  1  0  0  0
  4  5  2  0  0  0
  4  7  1  0  0  0
  4 33  1  0  0  0
  5  6  1  0  0  0
  5 27  1  0  0  0
  6  9  2  0  0  0
  6 25  1  0  0  0
  7  8  2  0  0  0
  8  9  1  0  0  0
  8 13  1  0  0  0
  9 10  1  0  0  0
 10 11  2  0  0  0
 10 34  1  0  0  0
 11 12  1  0  0  0
 11 35  1  0  0  0
 12 13  2  0  0  0
 12 36  1  0  0  0
 13 37  1  0  0  0
 14 15  1  0  0  0
 14 38  1  0  0  0
 15 16  2  0  0  0
 15 20  1  0  0  0
 16 17  1  0  0  0
 16 39  1  0  0  0
 17 18  2  0  0  0
 17 22  1  0  0  0
 18 19  1  0  0  0
 18 21  1  0  0  0
 19 20  2  0  0  0
 19 40  1  0  0  0
 20 41  1  0  0  0
 22 23  1  0  0  0
 22 24  2  0  0  0
 23 42  1  0  0  0
 25 26  1  0  0  0
 26 43  1  0  0  0
 26 44  1  0  0  0
 26 45  1  0  0  0
 27 28  2  0  0  0
 27 32  1  0  0  0
 28 29  1  0  0  0
 28 46  1  0  0  0
 29 30  2  0  0  0
 29 47  1  0  0  0
 30 31  1  0  0  0
 30 48  1  0  0  0
 31 32  2  0  0  0
 31 49  1  0  0  0
 32 50  1  0  0  0
M  END
> <s_m_entry_id>
2518

> <s_m_entry_name>
dock_pv.46

> <s_m_Source_Path>
/home/csk/Desktop/cluster/DUD-E-result/fabp4

> <s_m_Source_File>
dock_pv.maegz

> <i_m_Source_File_Index>
46

> <chembl_id>
CHEMBL4555281

> <chembl_pref_name>
None

> <i_lp_mmshare_version>
53161

> <r_lp_tautomer_probability>
1

> <s_lp_Force_Field>
OPLS_2005

> <r_lp_Energy>
33.766416

> <b_lp_Chiralities_Consistent>
1

> <s_lp_Variant>
CHEMBL2083_lig152 -1

> <s_i_glide_gridfile>
glide-grid_2nnq

> <i_i_glide_lignum>
166

> <i_i_glide_rotatable_bonds>
7

> <r_i_docking_score>
-7.63175972502416

> <r_i_glide_ligand_efficiency>
-0.238492491407005

> <r_i_glide_ligand_efficiency_sa>
-0.75716646261728

> <r_i_glide_ligand_efficiency_ln>
-1.70895903634596

> <r_i_glide_gscore>
-7.63175972502416

> <r_i_glide_lipo>
-3.84299771047528

> <r_i_glide_hbond>
0

> <r_i_glide_metal>
0

> <r_i_glide_rewards>
-0.440352212352491

> <r_i_glide_evdw>
-44.0188407897949

> <r_i_glide_ecoul>
-10.3366851806641

> <r_i_glide_erotb>
0.492027196322717

> <r_i_glide_esite>
-0.0889921819297527

> <r_i_glide_emodel>
-71.6325564354043

> <r_i_glide_energy>
-54.355525970459

> <r_i_glide_einternal>
12.4529228210449

> <i_i_glide_confnum>
212

> <i_i_glide_posenum>
362

> <r_i_glide_eff_state_penalty>
0

> <s_user_duplicate_titles>
CHEMBL2083_lig152 

> <i_f3d_flags>
0

> <s_m_subgroup_title>
dock_pv

> <s_m_subgroupid>
dock_pv

> <b_m_subgroup_collapsed>
1

$$$$
CHEMBL2083_lig45
                    3D
 Schrodinger Suite 2021-1.
 45 48  0  0  1  0            999 V2000
    7.0677    6.3244   14.9508 C   0  0  0  0  0  0
    5.8349    6.6580   14.4135 C   0  0  0  0  0  0
    4.8982    7.4432   15.0934 C   0  0  0  0  0  0
    7.4411    6.7766   16.2077 C   0  0  0  0  0  0
    6.5475    7.5664   16.9459 C   0  0  0  0  0  0
    5.2680    7.9074   16.3840 C   0  0  0  0  0  0
    4.6174    8.6813   17.3552 N   0  0  0  0  0  0
    6.6312    8.1414   18.2503 C   0  0  0  0  0  0
    5.4337    8.8002   18.4688 C   0  0  0  0  0  0
    5.0807    9.5661   19.7467 C   0  0  0  0  0  0
    6.3353    9.7155   20.6361 C   0  0  0  0  0  0
    7.2017    8.4425   20.6706 C   0  0  0  0  0  0
    7.7591    8.0816   19.2744 C   0  0  0  0  0  0
    3.2363    9.1881   17.3062 C   0  0  0  0  0  0
    2.1445    8.1239   17.4266 C   0  0  0  0  0  0
    2.3927    6.8900   18.0413 C   0  0  0  0  0  0
    1.3803    5.9378   18.1823 C   0  0  0  0  0  0
    0.0933    6.2369   17.7186 C   0  0  0  0  0  0
   -0.1671    7.4648   17.1106 C   0  0  0  0  0  0
    0.8561    8.4016   16.9589 C   0  0  0  0  0  0
    3.5953    7.7500   14.4114 C   0  0  0  0  0  0
    2.8421    6.6504   14.1204 O   0  0  0  0  0  0
    3.2500    8.8956   14.1419 O   0  0  0  0  0  0
    1.7034    4.6010   18.8435 C   0  0  0  0  0  0
    0.7199    3.7087   18.7059 F   0  0  0  0  0  0
    2.8100    4.0867   18.3098 F   0  0  0  0  0  0
    1.9202    4.8008   20.1418 F   0  0  0  0  0  0
    7.7421    5.7032   14.3796 H   0  0  0  0  0  0
    5.6011    6.2829   13.4254 H   0  0  0  0  0  0
    8.4037    6.5103   16.6191 H   0  0  0  0  0  0
    4.6760   10.5560   19.5341 H   0  0  0  0  0  0
    4.3199    9.0157   20.3002 H   0  0  0  0  0  0
    6.9395   10.5484   20.2714 H   0  0  0  0  0  0
    6.0257    9.9866   21.6466 H   0  0  0  0  0  0
    8.0280    8.5629   21.3731 H   0  0  0  0  0  0
    6.6062    7.6122   21.0529 H   0  0  0  0  0  0
    8.2099    7.0887   19.3047 H   0  0  0  0  0  0
    8.5555    8.7727   18.9956 H   0  0  0  0  0  0
    3.0792    9.9079   18.1077 H   0  0  0  0  0  0
    3.1226    9.7721   16.3960 H   0  0  0  0  0  0
    3.3777    6.6631   18.4234 H   0  0  0  0  0  0
   -0.7080    5.5220   17.8265 H   0  0  0  0  0  0
   -1.1641    7.6912   16.7579 H   0  0  0  0  0  0
    0.6450    9.3478   16.4843 H   0  0  0  0  0  0
    1.9920    6.9093   13.7416 H   0  0  0  0  0  0
  1  2  2  0  0  0
  1  4  1  0  0  0
  1 28  1  0  0  0
  2  3  1  0  0  0
  2 29  1  0  0  0
  3  6  2  0  0  0
  3 21  1  0  0  0
  4  5  2  0  0  0
  4 30  1  0  0  0
  5  8  1  0  0  0
  5  6  1  0  0  0
  6  7  1  0  0  0
  7 14  1  0  0  0
  7  9  1  0  0  0
  8  9  2  0  0  0
  8 13  1  0  0  0
  9 10  1  0  0  0
 10 11  1  0  0  0
 10 31  1  0  0  0
 10 32  1  0  0  0
 11 12  1  0  0  0
 11 33  1  0  0  0
 11 34  1  0  0  0
 12 13  1  0  0  0
 12 35  1  0  0  0
 12 36  1  0  0  0
 13 37  1  0  0  0
 13 38  1  0  0  0
 14 15  1  0  0  0
 14 39  1  0  0  0
 14 40  1  0  0  0
 15 16  2  0  0  0
 15 20  1  0  0  0
 16 17  1  0  0  0
 16 41  1  0  0  0
 17 18  2  0  0  0
 17 24  1  0  0  0
 18 19  1  0  0  0
 18 42  1  0  0  0
 19 20  2  0  0  0
 19 43  1  0  0  0
 20 44  1  0  0  0
 21 22  1  0  0  0
 21 23  2  0  0  0
 22 45  1  0  0  0
 24 25  1  0  0  0
 24 26  1  0  0  0
 24 27  1  0  0  0
M  END
> <s_m_entry_id>
2519

> <s_m_entry_name>
dock_pv.47

> <s_m_Source_Path>
/home/csk/Desktop/cluster/DUD-E-result/fabp4

> <s_m_Source_File>
dock_pv.maegz

> <i_m_Source_File_Index>
47

> <chembl_id>
CHEMBL510638

> <chembl_pref_name>
None

> <i_lp_mmshare_version>
53161

> <r_lp_tautomer_probability>
1

> <s_lp_Force_Field>
OPLS_2005

> <r_lp_Energy>
24.508938

> <b_lp_Chiralities_Consistent>
1

> <s_lp_Variant>
CHEMBL2083_lig45-1

> <s_i_glide_gridfile>
glide-grid_2nnq

> <i_i_glide_lignum>
55

> <i_i_glide_rotatable_bonds>
5

> <r_i_docking_score>
-7.63141996722707

> <r_i_glide_ligand_efficiency>
-0.282645183971373

> <r_i_glide_ligand_efficiency_sa>
-0.847935550982566

> <r_i_glide_ligand_efficiency_ln>
-1.77646875457942

> <r_i_glide_gscore>
-7.63141996722707

> <r_i_glide_lipo>
-3.55641635614849

> <r_i_glide_hbond>
0

> <r_i_glide_metal>
0

> <r_i_glide_rewards>
-1.94096141537051

> <r_i_glide_evdw>
-36.1940155029297

> <r_i_glide_ecoul>
-4.93469858169556

> <r_i_glide_erotb>
0.415863366692752

> <r_i_glide_esite>
0

> <r_i_glide_emodel>
-59.6781150202303

> <r_i_glide_energy>
-41.1287140846252

> <r_i_glide_einternal>
1.34553587436676

> <i_i_glide_confnum>
1

> <i_i_glide_posenum>
206

> <r_i_glide_eff_state_penalty>
0

> <s_user_duplicate_titles>
CHEMBL2083_lig45

> <i_f3d_flags>
0

> <s_m_subgroup_title>
dock_pv

> <s_m_subgroupid>
dock_pv

> <b_m_subgroup_collapsed>
1

$$$$
CHEMBL2083_lig189
                    3D
 Schrodinger Suite 2021-1.
 56 60  0  0  1  0            999 V2000
    3.0077   10.9800   16.4614 C   0  0  0  0  0  0
    2.3808   12.0455   15.8153 C   0  0  0  0  0  0
    2.3259   13.2942   16.4170 C   0  0  0  0  0  0
    2.8624   13.4995   17.6878 C   0  0  0  0  0  0
    3.5118   12.4558   18.3376 C   0  0  0  0  0  0
    3.6140   11.2106   17.7194 C   0  0  0  0  0  0
    3.0237    9.6453   15.8035 C   0  0  0  0  0  0
    3.6679    9.4629   14.5758 C   0  0  0  0  0  0
    3.7577    8.1941   14.0074 C   0  0  0  0  0  0
    3.1880    7.0990   14.6536 C   0  0  0  0  0  0
    2.5176    7.2564   15.8671 C   0  0  0  0  0  0
    2.4408    8.5380   16.4336 C   0  0  0  0  0  0
    1.9882    6.1122   16.4349 O   0  0  0  0  0  0
    1.1670    6.1750   17.6074 C   0  0  1  0  0  0
   -0.2554    6.6729   17.2541 C   0  0  0  0  0  0
   -0.8792    7.2424   18.3162 O   0  0  0  0  0  0
   -0.7841    6.5504   16.1495 O   0  0  0  0  0  0
    4.4392   10.1915   18.4026 C   0  0  0  0  0  0
    5.2978    9.5001   17.7068 N   0  0  0  0  0  0
    5.7628    8.5555   18.5198 N   0  0  0  0  0  0
    5.2905    8.6955   19.8043 C   0  0  0  0  0  0
    4.4704    9.8066   19.7425 C   0  0  0  0  0  0
    6.4524    7.5277   17.8775 C   0  0  0  0  0  0
    5.7707    6.3396   17.6036 C   0  0  0  0  0  0
    6.2618    5.4968   16.6130 C   0  0  0  0  0  0
    7.4253    5.8421   15.9293 C   0  0  0  0  0  0
    8.1534    6.9771   16.2838 C   0  0  0  0  0  0
    7.6706    7.8261   17.2674 C   0  0  0  0  0  0
    5.5982    7.8760   20.9288 C   0  0  0  0  0  0
    4.3307    7.0580   21.7897 S   0  0  0  0  0  0
    5.4652    6.5170   22.9740 C   0  0  0  0  0  0
    6.7611    6.9271   22.6896 C   0  0  0  0  0  0
    6.8389    7.6754   21.5156 C   0  0  0  0  0  0
    7.9189    4.9200   14.5645 Cl  0  0  0  0  0  0
    1.1400    4.7338   18.1458 C   0  0  0  0  0  0
    1.9233   11.9097   14.8461 H   0  0  0  0  0  0
    1.8099   14.0846   15.8989 H   0  0  0  0  0  0
    2.8102   14.4763   18.1499 H   0  0  0  0  0  0
    3.9812   12.6292   19.2943 H   0  0  0  0  0  0
    4.1260   10.3037   14.0737 H   0  0  0  0  0  0
    4.2708    8.0548   13.0667 H   0  0  0  0  0  0
    3.2614    6.1197   14.2070 H   0  0  0  0  0  0
    1.9493    8.6954   17.3794 H   0  0  0  0  0  0
    1.6286    6.7985   18.3756 H   0  0  0  0  0  0
   -1.7781    7.4720   18.0585 H   0  0  0  0  0  0
    3.9162   10.2260   20.5625 H   0  0  0  0  0  0
    4.8113    6.1330   18.0547 H   0  0  0  0  0  0
    5.6944    4.6277   16.3181 H   0  0  0  0  0  0
    9.0675    7.2337   15.7705 H   0  0  0  0  0  0
    8.1836    8.7546   17.4734 H   0  0  0  0  0  0
    5.1236    5.9316   23.8143 H   0  0  0  0  0  0
    7.6161    6.6923   23.3064 H   0  0  0  0  0  0
    7.7576    8.0920   21.1300 H   0  0  0  0  0  0
    0.7199    4.6739   19.1461 H   0  0  0  0  0  0
    0.5593    4.0677   17.5076 H   0  0  0  0  0  0
    2.1489    4.3285   18.2143 H   0  0  0  0  0  0
  1  7  1  0  0  0
  1  6  1  0  0  0
  1  2  2  0  0  0
  2  3  1  0  0  0
  2 36  1  0  0  0
  3  4  2  0  0  0
  3 37  1  0  0  0
  4  5  1  0  0  0
  4 38  1  0  0  0
  5  6  2  0  0  0
  5 39  1  0  0  0
  6 18  1  0  0  0
  7 12  1  0  0  0
  7  8  2  0  0  0
  8  9  1  0  0  0
  8 40  1  0  0  0
  9 10  2  0  0  0
  9 41  1  0  0  0
 10 11  1  0  0  0
 10 42  1  0  0  0
 11 12  2  0  0  0
 11 13  1  0  0  0
 12 43  1  0  0  0
 13 14  1  0  0  0
 14 15  1  0  0  0
 14 35  1  0  0  0
 14 44  1  0  0  0
 15 17  2  0  0  0
 15 16  1  0  0  0
 16 45  1  0  0  0
 18 19  2  0  0  0
 18 22  1  0  0  0
 19 20  1  0  0  0
 20 21  1  0  0  0
 20 23  1  0  0  0
 21 22  2  0  0  0
 21 29  1  0  0  0
 22 46  1  0  0  0
 23 24  2  0  0  0
 23 28  1  0  0  0
 24 25  1  0  0  0
 24 47  1  0  0  0
 25 26  2  0  0  0
 25 48  1  0  0  0
 26 27  1  0  0  0
 26 34  1  0  0  0
 27 28  2  0  0  0
 27 49  1  0  0  0
 28 50  1  0  0  0
 29 30  1  0  0  0
 29 33  2  0  0  0
 30 31  1  0  0  0
 31 32  2  0  0  0
 31 51  1  0  0  0
 32 33  1  0  0  0
 32 52  1  0  0  0
 33 53  1  0  0  0
 35 54  1  0  0  0
 35 55  1  0  0  0
 35 56  1  0  0  0
M  END
> <s_m_entry_id>
2520

> <s_m_entry_name>
dock_pv.48

> <s_m_Source_Path>
/home/csk/Desktop/cluster/DUD-E-result/fabp4

> <s_m_Source_File>
dock_pv.maegz

> <i_m_Source_File_Index>
48

> <chembl_id>
CHEMBL1782967

> <chembl_pref_name>
None

> <i_lp_mmshare_version>
53161

> <r_lp_tautomer_probability>
1

> <s_lp_Force_Field>
OPLS_2005

> <r_lp_Energy>
33.062656

> <b_lp_Chiralities_Consistent>
1

> <s_lp_Variant>
CHEMBL2083_lig189-2

> <s_i_glide_gridfile>
glide-grid_2nnq

> <i_i_glide_lignum>
207

> <i_i_glide_rotatable_bonds>
8

> <r_i_docking_score>
-7.61529329078638

> <r_i_glide_ligand_efficiency>
-0.217579808308182

> <r_i_glide_ligand_efficiency_sa>
-0.711717979890718

> <r_i_glide_ligand_efficiency_ln>
-1.67172588965606

> <r_i_glide_gscore>
-7.61529329078638

> <r_i_glide_lipo>
-4.50885577932784

> <r_i_glide_hbond>
-0.241373043289438

> <r_i_glide_metal>
0

> <r_i_glide_rewards>
-0.726446832682262

> <r_i_glide_evdw>
-51.4229850769043

> <r_i_glide_ecoul>
-0.913678050041199

> <r_i_glide_erotb>
0.56958332586455

> <r_i_glide_esite>
0

> <r_i_glide_emodel>
-50.4813039280097

> <r_i_glide_energy>
-52.3366631269455

> <r_i_glide_einternal>
9.82199573516846

> <i_i_glide_confnum>
52

> <i_i_glide_posenum>
213

> <r_i_glide_eff_state_penalty>
0

> <s_user_duplicate_titles>
CHEMBL2083_lig189

> <i_f3d_flags>
0

> <s_m_subgroup_title>
dock_pv

> <s_m_subgroupid>
dock_pv

> <b_m_subgroup_collapsed>
1

$$$$
CHEMBL2083_lig68
                    3D
 Schrodinger Suite 2021-1.
 55 58  0  0  1  0            999 V2000
    2.3717   12.1701   15.3852 C   0  0  0  0  0  0
    2.5104   11.1968   16.3731 C   0  0  0  0  0  0
    3.4825   10.1985   16.2508 C   0  0  0  0  0  0
    4.3423   10.1898   15.1409 C   0  0  0  0  0  0
    4.2151   11.1898   14.1751 C   0  0  0  0  0  0
    3.2241   12.1620   14.2840 C   0  0  0  0  0  0
    3.5692    9.1677   17.3089 C   0  0  0  0  0  0
    5.3045    9.2144   14.9960 O   0  0  0  0  0  0
    5.1097    8.3313   13.8919 C   0  0  0  0  0  0
    2.8631    8.0704   17.2339 N   0  0  0  0  0  0
    3.1702    7.3391   18.3221 N   0  0  0  0  0  0
    4.0988    7.9876   19.1333 C   0  0  0  0  0  0
    4.3485    9.1787   18.4619 C   0  0  0  0  0  0
    4.6755    7.5431   20.4453 C   0  0  0  0  0  0
    2.5561    6.0649   18.4486 C   0  0  0  0  0  0
    6.1989    7.2398   13.8907 C   0  0  0  0  0  0
    1.2199    5.8871   18.0525 C   0  0  0  0  0  0
    0.6238    4.6344   18.1419 C   0  0  0  0  0  0
    1.3535    3.5644   18.6503 C   0  0  0  0  0  0
    2.6758    3.7265   19.0445 C   0  0  0  0  0  0
    3.2841    4.9714   18.9281 C   0  0  0  0  0  0
    5.9871    7.9166   20.7598 C   0  0  0  0  0  0
    6.5325    7.6010   22.0023 C   0  0  0  0  0  0
    5.7637    6.9085   22.9332 C   0  0  0  0  0  0
    4.4651    6.5089   22.6256 C   0  0  0  0  0  0
    3.9198    6.8365   21.3880 C   0  0  0  0  0  0
    6.0940    6.1736   15.0088 C   0  0  0  0  0  0
    6.2544    6.6294   16.4793 C   0  0  0  0  0  0
    7.6092    7.2200   16.8802 C   0  0  0  0  0  0
    7.9197    6.9398   18.1734 O   0  0  0  0  0  0
    8.3200    7.8881   16.1406 O   0  0  0  0  0  0
    1.6127   12.9335   15.4750 H   0  0  0  0  0  0
    1.8611   11.2127   17.2345 H   0  0  0  0  0  0
    4.8937   11.2069   13.3420 H   0  0  0  0  0  0
    3.1224   12.9088   13.5131 H   0  0  0  0  0  0
    5.1594    8.8826   12.9442 H   0  0  0  0  0  0
    4.1193    7.8725   13.9370 H   0  0  0  0  0  0
    5.0198    9.9682   18.7695 H   0  0  0  0  0  0
    7.1848    7.7003   13.8847 H   0  0  0  0  0  0
    6.1305    6.7087   12.9398 H   0  0  0  0  0  0
    0.6382    6.7145   17.6709 H   0  0  0  0  0  0
   -0.4052    4.4990   17.8375 H   0  0  0  0  0  0
    0.8971    2.5934   18.7398 H   0  0  0  0  0  0
    3.2225    2.8825   19.4350 H   0  0  0  0  0  0
    4.3188    5.0784   19.2143 H   0  0  0  0  0  0
    6.5848    8.4690   20.0486 H   0  0  0  0  0  0
    7.5399    7.9018   22.2462 H   0  0  0  0  0  0
    6.1716    6.6892   23.9068 H   0  0  0  0  0  0
    3.8750    5.9731   23.3560 H   0  0  0  0  0  0
    2.8982    6.5562   21.1785 H   0  0  0  0  0  0
    6.8061    5.3717   14.8021 H   0  0  0  0  0  0
    5.1116    5.7087   14.9311 H   0  0  0  0  0  0
    6.0490    5.7759   17.1257 H   0  0  0  0  0  0
    5.4968    7.3647   16.7160 H   0  0  0  0  0  0
    8.7903    7.2919   18.3689 H   0  0  0  0  0  0
  1  2  2  0  0  0
  1  6  1  0  0  0
  1 32  1  0  0  0
  2  3  1  0  0  0
  2 33  1  0  0  0
  3  4  2  0  0  0
  3  7  1  0  0  0
  4  5  1  0  0  0
  4  8  1  0  0  0
  5  6  2  0  0  0
  5 34  1  0  0  0
  6 35  1  0  0  0
  7 10  2  0  0  0
  7 13  1  0  0  0
  8  9  1  0  0  0
  9 16  1  0  0  0
  9 36  1  0  0  0
  9 37  1  0  0  0
 10 11  1  0  0  0
 11 12  1  0  0  0
 11 15  1  0  0  0
 12 13  2  0  0  0
 12 14  1  0  0  0
 13 38  1  0  0  0
 14 22  2  0  0  0
 14 26  1  0  0  0
 15 17  2  0  0  0
 15 21  1  0  0  0
 16 27  1  0  0  0
 16 39  1  0  0  0
 16 40  1  0  0  0
 17 18  1  0  0  0
 17 41  1  0  0  0
 18 19  2  0  0  0
 18 42  1  0  0  0
 19 20  1  0  0  0
 19 43  1  0  0  0
 20 21  2  0  0  0
 20 44  1  0  0  0
 21 45  1  0  0  0
 22 23  1  0  0  0
 22 46  1  0  0  0
 23 24  2  0  0  0
 23 47  1  0  0  0
 24 25  1  0  0  0
 24 48  1  0  0  0
 25 26  2  0  0  0
 25 49  1  0  0  0
 26 50  1  0  0  0
 27 28  1  0  0  0
 27 51  1  0  0  0
 27 52  1  0  0  0
 28 29  1  0  0  0
 28 53  1  0  0  0
 28 54  1  0  0  0
 29 30  1  0  0  0
 29 31  2  0  0  0
 30 55  1  0  0  0
M  END
> <s_m_entry_id>
2521

> <s_m_entry_name>
dock_pv.49

> <s_m_Source_Path>
/home/csk/Desktop/cluster/DUD-E-result/fabp4

> <s_m_Source_File>
dock_pv.maegz

> <i_m_Source_File_Index>
49

> <chembl_id>
CHEMBL2334252

> <chembl_pref_name>
None

> <i_lp_mmshare_version>
53161

> <r_lp_tautomer_probability>
1

> <s_lp_Force_Field>
OPLS_2005

> <r_lp_Energy>
27.108743

> <b_lp_Chiralities_Consistent>
1

> <s_lp_Variant>
CHEMBL2083_lig68-1

> <s_i_glide_gridfile>
glide-grid_2nnq

> <i_i_glide_lignum>
78

> <i_i_glide_rotatable_bonds>
10

> <r_i_docking_score>
-7.61292010866687

> <r_i_glide_ligand_efficiency>
-0.245578068021512

> <r_i_glide_ligand_efficiency_sa>
-0.771454190651381

> <r_i_glide_ligand_efficiency_ln>
-1.71694679248648

> <r_i_glide_gscore>
-7.61292010866687

> <r_i_glide_lipo>
-4.83812976772974

> <r_i_glide_hbond>
0

> <r_i_glide_metal>
0

> <r_i_glide_rewards>
-1.10188789615753

> <r_i_glide_evdw>
-47.5372924804688

> <r_i_glide_ecoul>
-2.2609531879425

> <r_i_glide_erotb>
1.04310515743522

> <r_i_glide_esite>
0

> <r_i_glide_emodel>
-67.7167570405939

> <r_i_glide_energy>
-49.7982456684113

> <r_i_glide_einternal>
7.98726367950439

> <i_i_glide_confnum>
231

> <i_i_glide_posenum>
83

> <r_i_glide_eff_state_penalty>
0

> <s_user_duplicate_titles>
CHEMBL2083_lig68

> <i_f3d_flags>
0

> <s_m_subgroup_title>
dock_pv

> <s_m_subgroupid>
dock_pv

> <b_m_subgroup_collapsed>
1

$$$$
CHEMBL2083_lig47
                    3D
 Schrodinger Suite 2021-1.
 48 51  0  0  1  0            999 V2000
    6.0152    7.0939   23.0921 C   0  0  0  0  0  0
    6.9844    7.7953   22.4027 C   0  0  0  0  0  0
    6.8622    8.1234   21.0495 C   0  0  0  0  0  0
    4.8693    6.6484   22.4608 C   0  0  0  0  0  0
    4.6964    6.9118   21.0955 C   0  0  0  0  0  0
    5.6864    7.6707   20.3806 C   0  0  0  0  0  0
    5.1900    7.7788   19.0701 N   0  0  0  0  0  0
    5.8537    8.4396   17.9301 C   0  0  0  0  0  0
    5.0054    9.4231   17.1350 C   0  0  0  0  0  0
    4.4288   10.5277   17.7674 C   0  0  0  0  0  0
    3.6573   11.4246   17.0327 C   0  0  0  0  0  0
    3.4557   11.2158   15.6635 C   0  0  0  0  0  0
    4.0376   10.1104   15.0358 C   0  0  0  0  0  0
    4.8176    9.2221   15.7661 C   0  0  0  0  0  0
    7.9849    8.9185   20.4497 C   0  0  0  0  0  0
    8.6640    8.2709   19.4640 O   0  0  0  0  0  0
    8.3222   10.0143   20.8989 O   0  0  0  0  0  0
    3.2613    6.8811   17.6242 C   0  0  0  0  0  0
    2.0113    5.9724   17.6258 C   0  0  0  0  0  0
    2.2209    4.5518   18.1877 C   0  0  0  0  0  0
    4.0099    7.0421   18.9488 C   0  0  0  0  0  0
    3.6690    6.5260   20.1840 C   0  0  0  0  0  0
    2.4521    5.6970   20.5453 C   0  0  0  0  0  0
    2.2909    4.4058   19.7247 C   0  0  0  0  0  0
    2.6321   12.1886   14.8272 C   0  0  0  0  0  0
    3.3305   12.5089   13.7421 F   0  0  0  0  0  0
    1.5015   11.6006   14.4464 F   0  0  0  0  0  0
    2.3204   13.3076   15.4823 F   0  0  0  0  0  0
    6.1554    6.9072   24.1422 H   0  0  0  0  0  0
    7.8585    8.1075   22.9585 H   0  0  0  0  0  0
    4.1335    6.0880   23.0178 H   0  0  0  0  0  0
    6.2699    7.6582   17.2927 H   0  0  0  0  0  0
    6.6907    9.0374   18.2606 H   0  0  0  0  0  0
    4.5850   10.6957   18.8235 H   0  0  0  0  0  0
    3.2277   12.2828   17.5305 H   0  0  0  0  0  0
    3.8889    9.9422   13.9784 H   0  0  0  0  0  0
    5.2574    8.3708   15.2679 H   0  0  0  0  0  0
    9.4294    8.7872   19.2034 H   0  0  0  0  0  0
    2.9236    7.8544   17.2722 H   0  0  0  0  0  0
    3.9493    6.5101   16.8636 H   0  0  0  0  0  0
    1.6626    5.8880   16.5952 H   0  0  0  0  0  0
    1.1927    6.4628   18.1536 H   0  0  0  0  0  0
    3.1223    4.1263   17.7466 H   0  0  0  0  0  0
    1.3984    3.9264   17.8374 H   0  0  0  0  0  0
    1.5596    6.3056   20.4084 H   0  0  0  0  0  0
    2.4511    5.4339   21.6030 H   0  0  0  0  0  0
    1.3859    3.9012   20.0675 H   0  0  0  0  0  0
    3.1045    3.7232   19.9766 H   0  0  0  0  0  0
  1  2  2  0  0  0
  1  4  1  0  0  0
  1 29  1  0  0  0
  2  3  1  0  0  0
  2 30  1  0  0  0
  3  6  2  0  0  0
  3 15  1  0  0  0
  4  5  2  0  0  0
  4 31  1  0  0  0
  5 22  1  0  0  0
  5  6  1  0  0  0
  6  7  1  0  0  0
  7 21  1  0  0  0
  7  8  1  0  0  0
  8  9  1  0  0  0
  8 32  1  0  0  0
  8 33  1  0  0  0
  9 14  1  0  0  0
  9 10  2  0  0  0
 10 11  1  0  0  0
 10 34  1  0  0  0
 11 12  2  0  0  0
 11 35  1  0  0  0
 12 13  1  0  0  0
 12 25  1  0  0  0
 13 14  2  0  0  0
 13 36  1  0  0  0
 14 37  1  0  0  0
 15 16  1  0  0  0
 15 17  2  0  0  0
 16 38  1  0  0  0
 18 19  1  0  0  0
 18 21  1  0  0  0
 18 39  1  0  0  0
 18 40  1  0  0  0
 19 20  1  0  0  0
 19 41  1  0  0  0
 19 42  1  0  0  0
 20 24  1  0  0  0
 20 43  1  0  0  0
 20 44  1  0  0  0
 21 22  2  0  0  0
 22 23  1  0  0  0
 23 24  1  0  0  0
 23 45  1  0  0  0
 23 46  1  0  0  0
 24 47  1  0  0  0
 24 48  1  0  0  0
 25 26  1  0  0  0
 25 27  1  0  0  0
 25 28  1  0  0  0
M  END
> <s_m_entry_id>
2522

> <s_m_entry_name>
dock_pv.50

> <s_m_Source_Path>
/home/csk/Desktop/cluster/DUD-E-result/fabp4

> <s_m_Source_File>
dock_pv.maegz

> <i_m_Source_File_Index>
50

> <chembl_id>
CHEMBL514654

> <chembl_pref_name>
None

> <i_lp_mmshare_version>
53161

> <r_lp_tautomer_probability>
1

> <s_lp_Force_Field>
OPLS_2005

> <r_lp_Energy>
27.962738

> <b_lp_Chiralities_Consistent>
1

> <s_lp_Variant>
CHEMBL2083_lig47-1

> <s_i_glide_gridfile>
glide-grid_2nnq

> <i_i_glide_lignum>
57

> <i_i_glide_rotatable_bonds>
5

> <r_i_docking_score>
-7.61201720113329

> <r_i_glide_ligand_efficiency>
-0.271857757183332

> <r_i_glide_ligand_efficiency_sa>
-0.825520266464823

> <r_i_glide_ligand_efficiency_ln>
-1.75707706855821

> <r_i_glide_gscore>
-7.61201720113329

> <r_i_glide_lipo>
-3.26949998528931

> <r_i_glide_hbond>
-0.190355759583075

> <r_i_glide_metal>
0

> <r_i_glide_rewards>
-2.28970849178797

> <r_i_glide_evdw>
-37.2249336242676

> <r_i_glide_ecoul>
-2.60318422317505

> <r_i_glide_erotb>
0.3892713502167

> <r_i_glide_esite>
0

> <r_i_glide_emodel>
-55.9662495272458

> <r_i_glide_energy>
-39.8281178474426

> <r_i_glide_einternal>
4.62879753112793

> <i_i_glide_confnum>
30

> <i_i_glide_posenum>
370

> <r_i_glide_eff_state_penalty>
0

> <s_user_duplicate_titles>
CHEMBL2083_lig47

> <i_f3d_flags>
0

> <s_m_subgroup_title>
dock_pv

> <s_m_subgroupid>
dock_pv

> <b_m_subgroup_collapsed>
1

$$$$
CHEMBL2083_lig202
                    3D
 Schrodinger Suite 2021-1.
 56 60  0  0  1  0            999 V2000
    3.1958    8.8142   16.3740 C   0  0  2  0  0  0
    2.0874    8.4087   17.2179 N   0  0  0  0  0  0
    3.2252    6.3404   17.8222 C   0  0  0  0  0  0
    2.0286    7.0638   17.6206 C   0  0  0  0  0  0
    0.7730    6.4349   17.7254 C   0  0  0  0  0  0
    0.7105    5.1030   18.1422 C   0  0  0  0  0  0
    1.8746    4.4184   18.4783 C   0  0  0  0  0  0
    3.1148    5.0259   18.2957 C   0  0  0  0  0  0
    4.5323    8.4475   17.0522 C   0  0  1  0  0  0
    4.5991    6.9975   17.6097 C   0  0  2  0  0  0
    5.6023    6.3238   16.6529 C   0  0  1  0  0  0
    6.6538    7.3970   16.3220 C   0  0  1  0  0  0
    5.7221    8.5565   16.0607 C   0  0  0  0  0  0
    7.9256    7.7775   17.5898 S   0  0  0  0  0  0
    7.2431    8.6092   18.9971 C   0  0  0  0  0  0
    6.4036    4.9087   17.3420 Cl  0  0  0  0  0  0
   -0.5025    7.1792   17.4435 C   0  0  0  0  0  0
   -0.8795    8.1101   18.1429 O   0  0  0  0  0  0
   -1.1825    6.7909   16.3315 O   0  0  0  0  0  0
    3.1263   10.2924   15.9628 C   0  0  0  0  0  0
    2.7166   11.2443   16.9089 C   0  0  0  0  0  0
    2.5896   12.5848   16.5615 C   0  0  0  0  0  0
    2.8363   12.9831   15.2537 C   0  0  0  0  0  0
    3.3210   12.0759   14.3270 C   0  0  0  0  0  0
    3.4864   10.7339   14.6723 C   0  0  0  0  0  0
    6.9152    9.9845   19.0001 C   0  0  0  0  0  0
    6.2359   10.5078   20.1063 C   0  0  0  0  0  0
    5.9161    9.6958   21.1901 C   0  0  0  0  0  0
    6.3126    8.3630   21.2169 C   0  0  0  0  0  0
    6.9876    7.8266   20.1254 C   0  0  0  0  0  0
    7.2477   10.8971   17.8874 N   0  3  0  0  0  0
    6.3960   11.7086   17.5407 O   0  0  0  0  0  0
    8.3503   10.8145   17.3599 O   0  5  0  0  0  0
    4.1069    9.8431   13.6886 N   0  3  0  0  0  0
    3.5144    8.8343   13.3422 O   0  0  0  0  0  0
    5.2407   10.1257   13.3245 O   0  5  0  0  0  0
    3.0713    8.1998   15.4876 H   0  0  0  0  0  0
    1.2219    8.8843   17.0085 H   0  0  0  0  0  0
   -0.2414    4.5988   18.2405 H   0  0  0  0  0  0
    1.8154    3.4008   18.8408 H   0  0  0  0  0  0
    4.0040    4.4617   18.5327 H   0  0  0  0  0  0
    4.6660    9.1429   17.8806 H   0  0  0  0  0  0
    5.0329    7.0386   18.6054 H   0  0  0  0  0  0
    5.0765    6.0375   15.7377 H   0  0  0  0  0  0
    7.1702    7.0727   15.4169 H   0  0  0  0  0  0
    5.3791    8.3704   15.0533 H   0  0  0  0  0  0
    6.2043    9.5262   16.0687 H   0  0  0  0  0  0
   -1.9950    7.3084   16.3162 H   0  0  0  0  0  0
    2.4911   10.9441   17.9216 H   0  0  0  0  0  0
    2.2922   13.3124   17.3003 H   0  0  0  0  0  0
    2.6919   14.0061   14.9423 H   0  0  0  0  0  0
    3.5790   12.4335   13.3420 H   0  0  0  0  0  0
    5.9559   11.5527   20.1239 H   0  0  0  0  0  0
    5.3842   10.1088   22.0301 H   0  0  0  0  0  0
    6.0818    7.7456   22.0729 H   0  0  0  0  0  0
    7.2661    6.7840   20.1338 H   0  0  0  0  0  0
  1  9  1  0  0  0
  1  2  1  0  0  0
  1 20  1  0  0  0
  1 37  1  0  0  0
  2  4  1  0  0  0
  2 38  1  0  0  0
  3 10  1  0  0  0
  3  4  2  0  0  0
  3  8  1  0  0  0
  4  5  1  0  0  0
  5  6  2  0  0  0
  5 17  1  0  0  0
  6  7  1  0  0  0
  6 39  1  0  0  0
  7  8  2  0  0  0
  7 40  1  0  0  0
  8 41  1  0  0  0
  9 10  1  0  0  0
  9 13  1  0  0  0
  9 42  1  0  0  0
 10 11  1  0  0  0
 10 43  1  0  0  0
 11 12  1  0  0  0
 11 16  1  0  0  0
 11 44  1  0  0  0
 12 13  1  0  0  0
 12 14  1  0  0  0
 12 45  1  0  0  0
 13 46  1  0  0  0
 13 47  1  0  0  0
 14 15  1  0  0  0
 15 26  2  0  0  0
 15 30  1  0  0  0
 17 18  2  0  0  0
 17 19  1  0  0  0
 19 48  1  0  0  0
 20 21  2  0  0  0
 20 25  1  0  0  0
 21 22  1  0  0  0
 21 49  1  0  0  0
 22 23  2  0  0  0
 22 50  1  0  0  0
 23 24  1  0  0  0
 23 51  1  0  0  0
 24 25  2  0  0  0
 24 52  1  0  0  0
 25 34  1  0  0  0
 26 27  1  0  0  0
 26 31  1  0  0  0
 27 28  2  0  0  0
 27 53  1  0  0  0
 28 29  1  0  0  0
 28 54  1  0  0  0
 29 30  2  0  0  0
 29 55  1  0  0  0
 30 56  1  0  0  0
 31 32  2  0  0  0
 31 33  1  0  0  0
 34 35  2  0  0  0
 34 36  1  0  0  0
M  CHG  4  31   1  33  -1  34   1  36  -1
M  END
> <s_m_entry_id>
2523

> <s_m_entry_name>
dock_pv.51

> <s_m_Source_Path>
/home/csk/Desktop/cluster/DUD-E-result/fabp4

> <s_m_Source_File>
dock_pv.maegz

> <i_m_Source_File_Index>
51

> <chembl_id>
CHEMBL3827527

> <chembl_pref_name>
None

> <i_lp_mmshare_version>
53161

> <r_lp_tautomer_probability>
1

> <s_lp_Force_Field>
OPLS_2005

> <r_lp_Energy>
56.842413

> <b_lp_Chiralities_Consistent>
1

> <s_lp_Variant>
CHEMBL2083_lig202-28

> <s_i_glide_gridfile>
glide-grid_2nnq

> <i_i_glide_lignum>
403

> <i_i_glide_rotatable_bonds>
7

> <r_i_docking_score>
-7.60692933948951

> <r_i_glide_ligand_efficiency>
-0.211303592763598

> <r_i_glide_ligand_efficiency_sa>
-0.697709089902038

> <r_i_glide_ligand_efficiency_ln>
-1.6596264663961

> <r_i_glide_gscore>
-7.60692933948951

> <r_i_glide_lipo>
-4.01763174972708

> <r_i_glide_hbond>
-0.00290203992926103

> <r_i_glide_metal>
0

> <r_i_glide_rewards>
-0.750518205399678

> <r_i_glide_evdw>
-52.2958984375

> <r_i_glide_ecoul>
-1.98124170303345

> <r_i_glide_erotb>
0.297662755552557

> <r_i_glide_esite>
-0.221558922656028

> <r_i_glide_emodel>
-70.2445385463363

> <r_i_glide_energy>
-54.2771401405334

> <r_i_glide_einternal>
9.37709045410156

> <i_i_glide_confnum>
31

> <i_i_glide_posenum>
243

> <r_i_glide_eff_state_penalty>
0

> <s_user_duplicate_titles>
CHEMBL2083_lig202

> <i_f3d_flags>
0

> <s_m_subgroup_title>
dock_pv

> <s_m_subgroupid>
dock_pv

> <b_m_subgroup_collapsed>
1

$$$$
CHEMBL2083_lig33
                    3D
 Schrodinger Suite 2021-1.
 45 48  0  0  1  0            999 V2000
    8.0241    8.2771   17.5936 C   0  0  0  0  0  0
    7.5047    7.4284   16.6304 C   0  0  0  0  0  0
    6.3268    6.6970   16.8253 C   0  0  0  0  0  0
    7.4076    8.4111   18.8282 C   0  0  0  0  0  0
    6.2186    7.7109   19.0843 C   0  0  0  0  0  0
    5.6437    6.8888   18.0592 C   0  0  0  0  0  0
    4.4206    6.4410   18.5871 N   0  0  0  0  0  0
    3.3302    5.7402   17.8811 C   0  0  0  0  0  0
    2.1183    6.6127   17.5612 C   0  0  0  0  0  0
    2.2881    7.8993   17.0373 C   0  0  0  0  0  0
    1.1781    8.6858   16.7433 C   0  0  0  0  0  0
   -0.1021    8.1817   16.9587 C   0  0  0  0  0  0
   -0.2807    6.9031   17.4805 C   0  0  0  0  0  0
    0.8293    6.1142   17.7723 C   0  0  0  0  0  0
    5.9492    5.6921   15.7767 C   0  0  0  0  0  0
    5.9005    6.1838   14.5121 O   0  0  0  0  0  0
    5.7346    4.5114   16.0402 O   0  0  0  0  0  0
    3.1593    6.3503   20.8093 C   0  0  0  0  0  0
    3.2867    6.6466   22.3243 C   0  0  0  0  0  0
    4.6330    6.2223   22.9412 C   0  0  0  0  0  0
    4.3198    6.8107   19.9233 C   0  0  0  0  0  0
    5.4071    7.5998   20.2560 C   0  0  0  0  0  0
    5.7207    8.2194   21.6033 C   0  0  0  0  0  0
    5.8209    7.1940   22.7524 C   0  0  0  0  0  0
    8.9466    8.8010   17.3942 H   0  0  0  0  0  0
    8.0667    7.3097   15.7142 H   0  0  0  0  0  0
    7.8509    9.0409   19.5845 H   0  0  0  0  0  0
    3.0432    4.8749   18.4774 H   0  0  0  0  0  0
    3.6662    5.3286   16.9421 H   0  0  0  0  0  0
    3.2775    8.2920   16.8562 H   0  0  0  0  0  0
    1.3117    9.6799   16.3421 H   0  0  0  0  0  0
   -0.9653    8.7885   16.7262 H   0  0  0  0  0  0
   -1.2775    6.5243   17.6541 H   0  0  0  0  0  0
    0.6810    5.1205   18.1680 H   0  0  0  0  0  0
    5.5946    5.4940   13.9086 H   0  0  0  0  0  0
    2.2161    6.7549   20.4405 H   0  0  0  0  0  0
    3.0566    5.2693   20.7146 H   0  0  0  0  0  0
    2.4895    6.1105   22.8420 H   0  0  0  0  0  0
    3.1010    7.6987   22.5418 H   0  0  0  0  0  0
    4.9050    5.2463   22.5404 H   0  0  0  0  0  0
    4.4934    6.0712   24.0125 H   0  0  0  0  0  0
    4.9506    8.9536   21.8397 H   0  0  0  0  0  0
    6.6487    8.7909   21.5728 H   0  0  0  0  0  0
    5.9772    7.7292   23.6880 H   0  0  0  0  0  0
    6.7320    6.6072   22.6181 H   0  0  0  0  0  0
  1  2  2  0  0  0
  1  4  1  0  0  0
  1 25  1  0  0  0
  2  3  1  0  0  0
  2 26  1  0  0  0
  3  6  2  0  0  0
  3 15  1  0  0  0
  4  5  2  0  0  0
  4 27  1  0  0  0
  5 22  1  0  0  0
  5  6  1  0  0  0
  6  7  1  0  0  0
  7 21  1  0  0  0
  7  8  1  0  0  0
  8  9  1  0  0  0
  8 28  1  0  0  0
  8 29  1  0  0  0
  9 14  1  0  0  0
  9 10  2  0  0  0
 10 11  1  0  0  0
 10 30  1  0  0  0
 11 12  2  0  0  0
 11 31  1  0  0  0
 12 13  1  0  0  0
 12 32  1  0  0  0
 13 14  2  0  0  0
 13 33  1  0  0  0
 14 34  1  0  0  0
 15 16  1  0  0  0
 15 17  2  0  0  0
 16 35  1  0  0  0
 18 19  1  0  0  0
 18 21  1  0  0  0
 18 36  1  0  0  0
 18 37  1  0  0  0
 19 20  1  0  0  0
 19 38  1  0  0  0
 19 39  1  0  0  0
 20 24  1  0  0  0
 20 40  1  0  0  0
 20 41  1  0  0  0
 21 22  2  0  0  0
 22 23  1  0  0  0
 23 24  1  0  0  0
 23 42  1  0  0  0
 23 43  1  0  0  0
 24 44  1  0  0  0
 24 45  1  0  0  0
M  END
> <s_m_entry_id>
2524

> <s_m_entry_name>
dock_pv.52

> <s_m_Source_Path>
/home/csk/Desktop/cluster/DUD-E-result/fabp4

> <s_m_Source_File>
dock_pv.maegz

> <i_m_Source_File_Index>
52

> <chembl_id>
CHEMBL514969

> <chembl_pref_name>
None

> <i_lp_mmshare_version>
53161

> <r_lp_tautomer_probability>
1

> <s_lp_Force_Field>
OPLS_2005

> <r_lp_Energy>
28.077509

> <b_lp_Chiralities_Consistent>
1

> <s_lp_Variant>
CHEMBL2083_lig33-1

> <s_i_glide_gridfile>
glide-grid_2nnq

> <i_i_glide_lignum>
43

> <i_i_glide_rotatable_bonds>
4

> <r_i_docking_score>
-7.59762389223068

> <r_i_glide_ligand_efficiency>
-0.316567662176278

> <r_i_glide_ligand_efficiency_sa>
-0.913139148526581

> <r_i_glide_ligand_efficiency_ln>
-1.81846002965403

> <r_i_glide_gscore>
-7.59762389223068

> <r_i_glide_lipo>
-3.84766920437297

> <r_i_glide_hbond>
-0.204170376814629

> <r_i_glide_metal>
0

> <r_i_glide_rewards>
-1.65034754034307

> <r_i_glide_evdw>
-34.8090171813965

> <r_i_glide_ecoul>
-4.6912088394165

> <r_i_glide_erotb>
0.548695414282298

> <r_i_glide_esite>
0

> <r_i_glide_emodel>
-56.7843210933716

> <r_i_glide_energy>
-39.500226020813

> <r_i_glide_einternal>
2.8039984703064

> <i_i_glide_confnum>
6

> <i_i_glide_posenum>
346

> <r_i_glide_eff_state_penalty>
0

> <s_user_duplicate_titles>
CHEMBL2083_lig33,457571

> <i_f3d_flags>
0

> <s_m_subgroup_title>
dock_pv

> <s_m_subgroupid>
dock_pv

> <b_m_subgroup_collapsed>
1

$$$$
CHEMBL2083_lig173
                    3D
 Schrodinger Suite 2021-1.
 59 63  0  0  1  0            999 V2000
    6.1000    6.9982   15.8597 C   0  0  0  0  0  0
    6.3932    6.1053   14.8323 C   0  0  0  0  0  0
    7.5197    5.3092   14.9285 C   0  0  0  0  0  0
    8.3304    5.4363   16.0429 C   0  0  0  0  0  0
    8.0342    6.3294   17.0586 C   0  0  0  0  0  0
    6.9377    7.1678   16.9764 C   0  0  0  0  0  0
    6.7612    8.1950   18.0501 C   0  0  0  0  0  0
    6.7055   10.1464   20.0736 C   0  0  0  0  0  0
    6.5670   10.5219   18.7400 C   0  0  0  0  0  0
    6.6005    9.5514   17.7398 C   0  0  0  0  0  0
    6.8520    8.8029   20.4179 C   0  0  0  0  0  0
    6.8741    7.8374   19.4007 C   0  0  0  0  0  0
    5.0994    6.9733   22.1418 C   0  0  0  0  0  0
    6.6154    7.2203   22.2794 C   0  0  0  0  0  0
    6.9930    8.5085   21.7615 O   0  0  0  0  0  0
    4.7283    5.7229   22.5420 O   0  0  0  0  0  0
    4.3198    7.8134   21.7084 O   0  0  0  0  0  0
    4.8053    7.6295   15.8059 C   0  0  0  0  0  0
    3.8136    7.1076   16.4489 N   0  0  0  0  0  0
    2.8479    7.9937   16.4035 C   0  0  0  0  0  0
    3.3066    9.1494   15.7563 C   0  0  0  0  0  0
    4.5100    8.8090   15.1973 N   0  0  0  0  0  0
    1.5419    7.6322   17.0239 C   0  0  0  0  0  0
    1.3827    6.3625   17.6025 C   0  0  0  0  0  0
    0.1698    5.9840   18.1420 C   0  0  0  0  0  0
   -0.8800    6.8882   18.1418 C   0  0  0  0  0  0
   -0.7543    8.1349   17.5440 C   0  0  0  0  0  0
    0.4590    8.5091   16.9817 C   0  0  0  0  0  0
    2.7883   10.5090   15.6217 C   0  0  0  0  0  0
    2.3199   10.9320   14.3886 C   0  0  0  0  0  0
    1.8276   12.2168   14.2681 C   0  0  0  0  0  0
    1.9200   13.1005   15.3399 C   0  0  0  0  0  0
    2.4564   12.6928   16.5566 C   0  0  0  0  0  0
    2.8630   11.3746   16.7120 C   0  0  0  0  0  0
    5.3589    9.5962   14.3154 C   0  0  0  0  0  0
    5.7375    6.0188   13.9787 H   0  0  0  0  0  0
    7.7844    4.6213   14.1420 H   0  0  0  0  0  0
    9.2669    4.9090   16.0966 H   0  0  0  0  0  0
    8.7200    6.4194   17.8890 H   0  0  0  0  0  0
    6.6861   10.9015   20.8453 H   0  0  0  0  0  0
    6.4561   11.5667   18.4830 H   0  0  0  0  0  0
    6.5404    9.8677   16.7132 H   0  0  0  0  0  0
    7.0195    6.7994   19.6484 H   0  0  0  0  0  0
    6.8645    7.2192   23.3407 H   0  0  0  0  0  0
    7.1958    6.4232   21.8149 H   0  0  0  0  0  0
    5.4385    5.1835   22.8948 H   0  0  0  0  0  0
    2.1879    5.6434   17.6237 H   0  0  0  0  0  0
    0.0447    4.9901   18.5418 H   0  0  0  0  0  0
   -1.8240    6.5924   18.5719 H   0  0  0  0  0  0
   -1.6013    8.8008   17.5025 H   0  0  0  0  0  0
    0.5502    9.4708   16.5068 H   0  0  0  0  0  0
    2.3168   10.2609   13.5432 H   0  0  0  0  0  0
    1.3742   12.5089   13.3419 H   0  0  0  0  0  0
    1.5522   14.1085   15.2330 H   0  0  0  0  0  0
    2.5269   13.3871   17.3817 H   0  0  0  0  0  0
    3.2649   11.0373   17.6563 H   0  0  0  0  0  0
    5.5193   10.5881   14.7384 H   0  0  0  0  0  0
    6.3093    9.0818   14.1744 H   0  0  0  0  0  0
    4.8723    9.6825   13.3433 H   0  0  0  0  0  0
  1 18  1  0  0  0
  1  6  1  0  0  0
  1  2  2  0  0  0
  2  3  1  0  0  0
  2 36  1  0  0  0
  3  4  2  0  0  0
  3 37  1  0  0  0
  4  5  1  0  0  0
  4 38  1  0  0  0
  5  6  2  0  0  0
  5 39  1  0  0  0
  6  7  1  0  0  0
  7 10  1  0  0  0
  7 12  2  0  0  0
  8  9  1  0  0  0
  8 11  2  0  0  0
  8 40  1  0  0  0
  9 10  2  0  0  0
  9 41  1  0  0  0
 10 42  1  0  0  0
 11 12  1  0  0  0
 11 15  1  0  0  0
 12 43  1  0  0  0
 13 17  2  0  0  0
 13 14  1  0  0  0
 13 16  1  0  0  0
 14 15  1  0  0  0
 14 44  1  0  0  0
 14 45  1  0  0  0
 16 46  1  0  0  0
 18 19  2  0  0  0
 18 22  1  0  0  0
 19 20  1  0  0  0
 20 21  2  0  0  0
 20 23  1  0  0  0
 21 22  1  0  0  0
 21 29  1  0  0  0
 22 35  1  0  0  0
 23 24  2  0  0  0
 23 28  1  0  0  0
 24 25  1  0  0  0
 24 47  1  0  0  0
 25 26  2  0  0  0
 25 48  1  0  0  0
 26 27  1  0  0  0
 26 49  1  0  0  0
 27 28  2  0  0  0
 27 50  1  0  0  0
 28 51  1  0  0  0
 29 30  2  0  0  0
 29 34  1  0  0  0
 30 31  1  0  0  0
 30 52  1  0  0  0
 31 32  2  0  0  0
 31 53  1  0  0  0
 32 33  1  0  0  0
 32 54  1  0  0  0
 33 34  2  0  0  0
 33 55  1  0  0  0
 34 56  1  0  0  0
 35 57  1  0  0  0
 35 58  1  0  0  0
 35 59  1  0  0  0
M  END
> <s_m_entry_id>
2525

> <s_m_entry_name>
dock_pv.53

> <s_m_Source_Path>
/home/csk/Desktop/cluster/DUD-E-result/fabp4

> <s_m_Source_File>
dock_pv.maegz

> <i_m_Source_File_Index>
53

> <chembl_id>
CHEMBL396698

> <chembl_pref_name>
None

> <i_lp_mmshare_version>
53161

> <r_lp_tautomer_probability>
1

> <s_lp_Force_Field>
OPLS_2005

> <r_lp_Energy>
36.489582

> <b_lp_Chiralities_Consistent>
1

> <s_lp_Variant>
CHEMBL2083_lig173-1

> <s_i_glide_gridfile>
glide-grid_2nnq

> <i_i_glide_lignum>
189

> <i_i_glide_rotatable_bonds>
8

> <r_i_docking_score>
-7.58876412988425

> <r_i_glide_ligand_efficiency>
-0.216821832282407

> <r_i_glide_ligand_efficiency_sa>
-0.709238590051813

> <r_i_glide_ligand_efficiency_ln>
-1.66590215005504

> <r_i_glide_gscore>
-7.58876412988425

> <r_i_glide_lipo>
-5.04356887424125

> <r_i_glide_hbond>
0

> <r_i_glide_metal>
0

> <r_i_glide_rewards>
-0.805459983891588

> <r_i_glide_evdw>
-44.8980484008789

> <r_i_glide_ecoul>
-1.06144487857819

> <r_i_glide_erotb>
0.664383880079258

> <r_i_glide_esite>
0

> <r_i_glide_emodel>
-46.2008681606772

> <r_i_glide_energy>
-45.9594932794571

> <r_i_glide_einternal>
7.37881803512573

> <i_i_glide_confnum>
121

> <i_i_glide_posenum>
104

> <r_i_glide_eff_state_penalty>
0

> <s_user_duplicate_titles>
CHEMBL2083_lig173,412699

> <i_f3d_flags>
0

> <s_m_subgroup_title>
dock_pv

> <s_m_subgroupid>
dock_pv

> <b_m_subgroup_collapsed>
1

$$$$
CHEMBL2083_lig91
                    3D
 Schrodinger Suite 2021-1.
 37 39  0  0  1  0            999 V2000
    4.9712   12.5090   17.4142 O   0  0  0  0  0  0
    3.7084   12.3145   16.9420 C   0  0  0  0  0  0
    2.8299   13.1720   16.9572 O   0  0  0  0  0  0
    3.5637   11.0273   16.2954 C   0  0  0  0  0  0
    3.7227    9.7923   16.8646 C   0  0  0  0  0  0
    3.4912    8.7074   15.8119 C   0  0  0  0  0  0
    3.4595    9.4695   14.4945 C   0  0  0  0  0  0
    3.1895   10.9283   14.8268 C   0  0  0  0  0  0
    3.9853    9.5036   18.2783 C   0  0  0  0  0  0
    3.9200   10.3506   19.1748 O   0  0  0  0  0  0
    4.2547    8.1989   18.5152 N   0  0  0  0  0  0
    4.3200    7.6161   19.7715 C   0  0  0  0  0  0
    5.4891    8.1746   20.9420 S   0  0  0  0  0  0
    4.9250    7.0076   22.0853 C   0  0  0  0  0  0
    3.9200    6.2070   21.5612 C   0  0  0  0  0  0
    3.5684    6.5207   20.2328 C   0  0  0  0  0  0
    2.5061    5.7888   19.4716 C   0  0  0  0  0  0
    1.5995    6.4759   18.6542 C   0  0  0  0  0  0
    0.5946    5.7840   17.9839 C   0  0  0  0  0  0
    0.4854    4.4046   18.1420 C   0  0  0  0  0  0
    1.3876    3.7090   18.9414 C   0  0  0  0  0  0
    2.3995    4.4000   19.6004 C   0  0  0  0  0  0
    5.1200   13.4223   17.7420 H   0  0  0  0  0  0
    2.5435    8.1994   16.0006 H   0  0  0  0  0  0
    4.2669    7.9405   15.7827 H   0  0  0  0  0  0
    2.7200    9.0618   13.8050 H   0  0  0  0  0  0
    4.4274    9.3832   13.9970 H   0  0  0  0  0  0
    3.7708   11.5891   14.1809 H   0  0  0  0  0  0
    2.1386   11.1905   14.6906 H   0  0  0  0  0  0
    4.1883    7.5668   17.7333 H   0  0  0  0  0  0
    5.3554    6.9683   23.0756 H   0  0  0  0  0  0
    3.4496    5.4172   22.1291 H   0  0  0  0  0  0
    1.6515    7.5496   18.5514 H   0  0  0  0  0  0
   -0.1109    6.3158   17.3621 H   0  0  0  0  0  0
   -0.3060    3.8696   17.6367 H   0  0  0  0  0  0
    1.3002    2.6380   19.0492 H   0  0  0  0  0  0
    3.0953    3.8513   20.2175 H   0  0  0  0  0  0
  1  2  1  0  0  0
  1 23  1  0  0  0
  2  3  2  0  0  0
  2  4  1  0  0  0
  4  5  2  0  0  0
  4  8  1  0  0  0
  5  6  1  0  0  0
  5  9  1  0  0  0
  6  7  1  0  0  0
  6 24  1  0  0  0
  6 25  1  0  0  0
  7  8  1  0  0  0
  7 26  1  0  0  0
  7 27  1  0  0  0
  8 28  1  0  0  0
  8 29  1  0  0  0
  9 10  2  0  0  0
  9 11  1  0  0  0
 11 12  1  0  0  0
 11 30  1  0  0  0
 12 13  1  0  0  0
 12 16  2  0  0  0
 13 14  1  0  0  0
 14 15  2  0  0  0
 14 31  1  0  0  0
 15 16  1  0  0  0
 15 32  1  0  0  0
 16 17  1  0  0  0
 17 18  2  0  0  0
 17 22  1  0  0  0
 18 19  1  0  0  0
 18 33  1  0  0  0
 19 20  2  0  0  0
 19 34  1  0  0  0
 20 21  1  0  0  0
 20 35  1  0  0  0
 21 22  2  0  0  0
 21 36  1  0  0  0
 22 37  1  0  0  0
M  END
> <s_m_entry_id>
2526

> <s_m_entry_name>
dock_pv.54

> <s_m_Source_Path>
/home/csk/Desktop/cluster/DUD-E-result/fabp4

> <s_m_Source_File>
dock_pv.maegz

> <i_m_Source_File_Index>
54

> <chembl_id>
CHEMBL3972884

> <chembl_pref_name>
None

> <i_lp_mmshare_version>
53161

> <r_lp_tautomer_probability>
1

> <s_lp_Force_Field>
OPLS_2005

> <r_lp_Energy>
37.015685

> <b_lp_Chiralities_Consistent>
1

> <s_lp_Variant>
CHEMBL2083_lig91-1

> <s_i_glide_gridfile>
glide-grid_2nnq

> <i_i_glide_lignum>
101

> <i_i_glide_rotatable_bonds>
6

> <r_i_docking_score>
-7.58741697882479

> <r_i_glide_ligand_efficiency>
-0.344882589946581

> <r_i_glide_ligand_efficiency_sa>
-0.966374580492914

> <r_i_glide_ligand_efficiency_ln>
-1.85464146738353

> <r_i_glide_gscore>
-7.58741697882479

> <r_i_glide_lipo>
-3.59855005040493

> <r_i_glide_hbond>
-0.16239428371637

> <r_i_glide_metal>
0

> <r_i_glide_rewards>
-1.51618279269819

> <r_i_glide_evdw>
-34.7694892883301

> <r_i_glide_ecoul>
-9.79537010192871

> <r_i_glide_erotb>
0.94566014693266

> <r_i_glide_esite>
-0.0481700192321558

> <r_i_glide_emodel>
-62.7724836662733

> <r_i_glide_energy>
-44.5648593902588

> <r_i_glide_einternal>
5.48344421386719

> <i_i_glide_confnum>
22

> <i_i_glide_posenum>
390

> <r_i_glide_eff_state_penalty>
0

> <s_user_duplicate_titles>
CHEMBL2083_lig91

> <i_f3d_flags>
0

> <s_m_subgroup_title>
dock_pv

> <s_m_subgroupid>
dock_pv

> <b_m_subgroup_collapsed>
1

$$$$
CHEMBL2083_lig198
                    3D
 Schrodinger Suite 2021-1.
 44 48  0  0  1  0            999 V2000
    5.4688    8.3764   19.4525 C   0  0  0  0  0  0
    4.5587    8.9897   18.4591 N   0  0  0  0  0  0
    5.1721   10.0786   17.6565 C   0  0  1  0  0  0
    3.2992    8.4111   18.1342 C   0  0  0  0  0  0
    2.8810    7.2123   18.7706 C   0  0  0  0  0  0
    1.6300    6.6778   18.4468 C   0  0  0  0  0  0
    0.7812    7.3173   17.5461 C   0  0  0  0  0  0
    1.1875    8.5047   16.9419 C   0  0  0  0  0  0
    2.4337    9.0710   17.2246 C   0  0  0  0  0  0
    3.8116    6.5338   19.7776 C   0  0  1  0  0  0
    4.6295    7.6041   20.4738 C   0  0  1  0  0  0
    5.1892    6.9848   21.7426 C   0  0  0  0  0  0
    4.0689    5.9992   22.0569 C   0  0  0  0  0  0
    3.2647    5.7995   20.9885 C   0  0  0  0  0  0
    4.3567   10.3325   16.3553 C   0  0  1  0  0  0
    2.8672   10.4164   16.6493 C   0  0  1  0  0  0
    2.3343   10.9464   15.3320 C   0  0  0  0  0  0
    3.3088   11.6125   14.6792 C   0  0  0  0  0  0
    4.6394   11.5040   15.4092 C   0  0  0  0  0  0
    5.2442   11.3686   18.5147 C   0  0  0  0  0  0
    6.3326   12.1089   18.1750 O   0  0  0  0  0  0
    4.3983   11.7090   19.3418 O   0  0  0  0  0  0
   -0.5836    6.7274   17.2414 C   0  0  0  0  0  0
    6.0952    7.6320   18.9581 H   0  0  0  0  0  0
    6.1748    9.0939   19.8725 H   0  0  0  0  0  0
    6.2048    9.8246   17.4112 H   0  0  0  0  0  0
    1.3067    5.7592   18.9142 H   0  0  0  0  0  0
    0.5189    9.0061   16.2578 H   0  0  0  0  0  0
    4.4452    5.8572   19.2006 H   0  0  0  0  0  0
    3.9297    8.3570   20.8415 H   0  0  0  0  0  0
    5.3026    7.7358   22.5271 H   0  0  0  0  0  0
    6.1613    6.5114   21.6029 H   0  0  0  0  0  0
    3.9592    5.5468   23.0326 H   0  0  0  0  0  0
    2.4153    5.1343   20.9383 H   0  0  0  0  0  0
    4.5310    9.4394   15.7471 H   0  0  0  0  0  0
    2.6432   11.1549   17.4212 H   0  0  0  0  0  0
    1.2934   10.9093   15.0486 H   0  0  0  0  0  0
    3.1977   12.1658   13.7572 H   0  0  0  0  0  0
    4.8939   12.4303   15.9254 H   0  0  0  0  0  0
    5.4630   11.2724   14.7336 H   0  0  0  0  0  0
    6.2875   13.0052   18.5422 H   0  0  0  0  0  0
   -1.0954    7.2592   16.4395 H   0  0  0  0  0  0
   -0.4837    5.6850   16.9418 H   0  0  0  0  0  0
   -1.2121    6.7532   18.1318 H   0  0  0  0  0  0
  1 11  1  0  0  0
  1  2  1  0  0  0
  1 24  1  0  0  0
  1 25  1  0  0  0
  2  4  1  0  0  0
  2  3  1  0  0  0
  3 15  1  0  0  0
  3 20  1  0  0  0
  3 26  1  0  0  0
  4  5  2  0  0  0
  4  9  1  0  0  0
  5 10  1  0  0  0
  5  6  1  0  0  0
  6  7  2  0  0  0
  6 27  1  0  0  0
  7  8  1  0  0  0
  7 23  1  0  0  0
  8  9  2  0  0  0
  8 28  1  0  0  0
  9 16  1  0  0  0
 10 11  1  0  0  0
 10 14  1  0  0  0
 10 29  1  0  0  0
 11 12  1  0  0  0
 11 30  1  0  0  0
 12 13  1  0  0  0
 12 31  1  0  0  0
 12 32  1  0  0  0
 13 14  2  0  0  0
 13 33  1  0  0  0
 14 34  1  0  0  0
 15 16  1  0  0  0
 15 19  1  0  0  0
 15 35  1  0  0  0
 16 17  1  0  0  0
 16 36  1  0  0  0
 17 18  2  0  0  0
 17 37  1  0  0  0
 18 19  1  0  0  0
 18 38  1  0  0  0
 19 39  1  0  0  0
 19 40  1  0  0  0
 20 21  1  0  0  0
 20 22  2  0  0  0
 21 41  1  0  0  0
 23 42  1  0  0  0
 23 43  1  0  0  0
 23 44  1  0  0  0
M  END
> <s_m_entry_id>
2527

> <s_m_entry_name>
dock_pv.55

> <s_m_Source_Path>
/home/csk/Desktop/cluster/DUD-E-result/fabp4

> <s_m_Source_File>
dock_pv.maegz

> <i_m_Source_File_Index>
55

> <chembl_id>
CHEMBL3827483

> <chembl_pref_name>
None

> <i_lp_mmshare_version>
53161

> <r_lp_tautomer_probability>
1

> <s_lp_Force_Field>
OPLS_2005

> <r_lp_Energy>
79.418297

> <b_lp_Chiralities_Consistent>
1

> <s_lp_Variant>
CHEMBL2083_lig198-32

> <s_i_glide_gridfile>
glide-grid_2nnq

> <i_i_glide_lignum>
341

> <i_i_glide_rotatable_bonds>
2

> <r_i_docking_score>
-7.57171869036125

> <r_i_glide_ligand_efficiency>
-0.329205160450489

> <r_i_glide_ligand_efficiency_sa>
-0.936215684423383

> <r_i_glide_ligand_efficiency_ln>
-1.83091023587856

> <r_i_glide_gscore>
-7.57171869036125

> <r_i_glide_lipo>
-3.52020838415419

> <r_i_glide_hbond>
-0.12060830627682

> <r_i_glide_metal>
0

> <r_i_glide_rewards>
-1.55036016635694

> <r_i_glide_evdw>
-31.6982822418213

> <r_i_glide_ecoul>
-6.22190570831299

> <r_i_glide_erotb>
0.195647951793434

> <r_i_glide_esite>
-0.0579898170287155

> <r_i_glide_emodel>
-53.2916036859711

> <r_i_glide_energy>
-37.9201879501343

> <r_i_glide_einternal>
0.544779658317566

> <i_i_glide_confnum>
1

> <i_i_glide_posenum>
74

> <r_i_glide_eff_state_penalty>
0

> <s_user_duplicate_titles>
CHEMBL2083_lig198

> <i_f3d_flags>
0

> <s_m_subgroup_title>
dock_pv

> <s_m_subgroupid>
dock_pv

> <b_m_subgroup_collapsed>
1

$$$$
CHEMBL2083_lig105
                    3D
 Schrodinger Suite 2021-1.
 45 48  0  0  1  0            999 V2000
    0.9489    3.7090   18.9422 C   0  0  0  0  0  0
    1.7152    5.0020   18.7397 C   0  0  0  0  0  0
    3.1193    5.3151   19.7117 S   0  0  0  0  0  0
    3.4252    6.8166   18.8926 C   0  0  0  0  0  0
    4.5343    7.6104   19.1422 N   0  0  0  0  0  0
    5.1365    7.8406   20.3261 C   0  0  0  0  0  0
    4.8434    7.3064   21.3950 O   0  0  0  0  0  0
    6.2734    8.7313   20.2005 C   0  0  0  0  0  0
    6.2637   10.0391   19.7951 C   0  0  0  0  0  0
    7.6863   10.5763   19.7232 C   0  0  0  0  0  0
    8.5624    9.3458   19.9122 C   0  0  0  0  0  0
    7.6803    8.2466   20.4851 C   0  0  0  0  0  0
    5.0831   10.8575   19.5327 C   0  0  0  0  0  0
    3.9214   10.5082   19.7277 O   0  0  0  0  0  0
    5.3866   12.1090   19.0888 O   0  0  0  0  0  0
    2.5007    7.0367   17.8784 C   0  0  0  0  0  0
    1.4792    6.0629   17.8484 C   0  0  0  0  0  0
    0.2725    6.1609   16.9419 C   0  0  0  0  0  0
    2.6085    8.1546   16.9423 C   0  0  0  0  0  0
    2.4468    9.4101   17.2570 N   0  0  0  0  0  0
    2.7349   10.1711   16.2164 C   0  0  0  0  0  0
    3.1105    9.6416   15.0644 N   0  0  0  0  0  0
    3.1201    7.9474   15.3049 S   0  0  0  0  0  0
    2.6629   11.6842   16.3822 C   0  0  0  0  0  0
    3.7269   12.5847   15.8002 C   0  0  0  0  0  0
    2.3197   12.5958   15.2260 C   0  0  0  0  0  0
    1.4509    2.8699   18.4610 H   0  0  0  0  0  0
    0.8540    3.4551   19.9992 H   0  0  0  0  0  0
   -0.0639    3.7425   18.5435 H   0  0  0  0  0  0
    4.7977    8.2252   18.3876 H   0  0  0  0  0  0
    7.8428   11.3070   20.5169 H   0  0  0  0  0  0
    7.9239   11.0737   18.7808 H   0  0  0  0  0  0
    8.9556    9.0252   18.9447 H   0  0  0  0  0  0
    9.4312    9.5484   20.5413 H   0  0  0  0  0  0
    7.9158    7.2844   20.0257 H   0  0  0  0  0  0
    7.8186    8.1326   21.5618 H   0  0  0  0  0  0
    6.3192   12.3190   19.0015 H   0  0  0  0  0  0
   -0.2232    7.1254   17.0580 H   0  0  0  0  0  0
    0.5646    6.1108   15.8931 H   0  0  0  0  0  0
   -0.4801    5.3965   17.1227 H   0  0  0  0  0  0
    2.2817   11.9965   17.3563 H   0  0  0  0  0  0
    4.0690   13.4304   16.4002 H   0  0  0  0  0  0
    4.5349   12.1404   15.2188 H   0  0  0  0  0  0
    2.1458   12.1632   14.2398 H   0  0  0  0  0  0
    1.6774   13.4564   15.4145 H   0  0  0  0  0  0
  1  2  1  0  0  0
  1 27  1  0  0  0
  1 28  1  0  0  0
  1 29  1  0  0  0
  2  3  1  0  0  0
  2 17  2  0  0  0
  3  4  1  0  0  0
  4  5  1  0  0  0
  4 16  2  0  0  0
  5  6  1  0  0  0
  5 30  1  0  0  0
  6  7  2  0  0  0
  6  8  1  0  0  0
  8  9  2  0  0  0
  8 12  1  0  0  0
  9 10  1  0  0  0
  9 13  1  0  0  0
 10 11  1  0  0  0
 10 31  1  0  0  0
 10 32  1  0  0  0
 11 12  1  0  0  0
 11 33  1  0  0  0
 11 34  1  0  0  0
 12 35  1  0  0  0
 12 36  1  0  0  0
 13 14  2  0  0  0
 13 15  1  0  0  0
 15 37  1  0  0  0
 16 17  1  0  0  0
 16 19  1  0  0  0
 17 18  1  0  0  0
 18 38  1  0  0  0
 18 39  1  0  0  0
 18 40  1  0  0  0
 19 20  2  0  0  0
 19 23  1  0  0  0
 20 21  1  0  0  0
 21 22  2  0  0  0
 21 24  1  0  0  0
 22 23  1  0  0  0
 24 25  1  0  0  0
 24 26  1  0  0  0
 24 41  1  0  0  0
 25 26  1  0  0  0
 25 42  1  0  0  0
 25 43  1  0  0  0
 26 44  1  0  0  0
 26 45  1  0  0  0
M  END
> <s_m_entry_id>
2528

> <s_m_entry_name>
dock_pv.56

> <s_m_Source_Path>
/home/csk/Desktop/cluster/DUD-E-result/fabp4

> <s_m_Source_File>
dock_pv.maegz

> <i_m_Source_File_Index>
56

> <chembl_id>
CHEMBL3915309

> <chembl_pref_name>
None

> <i_lp_mmshare_version>
53161

> <r_lp_tautomer_probability>
1

> <s_lp_Force_Field>
OPLS_2005

> <r_lp_Energy>
39.296916

> <b_lp_Chiralities_Consistent>
1

> <s_lp_Variant>
CHEMBL2083_lig105-1

> <s_i_glide_gridfile>
glide-grid_2nnq

> <i_i_glide_lignum>
115

> <i_i_glide_rotatable_bonds>
7

> <r_i_docking_score>
-7.53643098574041

> <r_i_glide_ligand_efficiency>
-0.289862730220785

> <r_i_glide_ligand_efficiency_sa>
-0.858717197724307

> <r_i_glide_ligand_efficiency_ln>
-1.76990608795408

> <r_i_glide_gscore>
-7.53643098574041

> <r_i_glide_lipo>
-3.29935158101829

> <r_i_glide_hbond>
-0.32

> <r_i_glide_metal>
0

> <r_i_glide_rewards>
-1.26088314788875

> <r_i_glide_evdw>
-47.5574493408203

> <r_i_glide_ecoul>
-6.81697654724121

> <r_i_glide_erotb>
0.771027149198903

> <r_i_glide_esite>
-0.0268044569050801

> <r_i_glide_emodel>
-76.421894776279

> <r_i_glide_energy>
-54.3744258880615

> <r_i_glide_einternal>
1.3581258058548

> <i_i_glide_confnum>
63

> <i_i_glide_posenum>
273

> <r_i_glide_eff_state_penalty>
0

> <s_user_duplicate_titles>
CHEMBL2083_lig105

> <i_f3d_flags>
0

> <s_m_subgroup_title>
dock_pv

> <s_m_subgroupid>
dock_pv

> <b_m_subgroup_collapsed>
1

$$$$
CHEMBL2083_lig199
                    3D
 Schrodinger Suite 2021-1.
 41 45  0  0  1  0            999 V2000
    5.6886    8.4344   19.5102 C   0  0  0  0  0  0
    4.7991    9.1333   18.5450 N   0  0  0  0  0  0
    5.4043   10.2526   17.7592 C   0  0  1  0  0  0
    3.6340    8.4516   18.0744 C   0  0  0  0  0  0
    3.1200    7.3303   18.7863 C   0  0  0  0  0  0
    1.8816    6.7951   18.4163 C   0  0  0  0  0  0
    1.1579    7.3321   17.3575 C   0  0  0  0  0  0
    1.6892    8.3793   16.6163 C   0  0  0  0  0  0
    2.9233    8.9445   16.9487 C   0  0  0  0  0  0
    3.9689    6.6872   19.8780 C   0  0  1  0  0  0
    4.7943    7.7549   20.5539 C   0  0  1  0  0  0
    5.3181    7.1473   21.8444 C   0  0  0  0  0  0
    4.1689    6.1933   22.1639 C   0  0  0  0  0  0
    3.3710    6.0012   21.0897 C   0  0  0  0  0  0
    4.2859   10.9989   16.9841 C   0  0  2  0  0  0
    3.5778   10.0113   16.0820 C   0  0  2  0  0  0
    2.7708   10.9407   15.1978 C   0  0  0  0  0  0
    3.3880   12.1362   15.1286 C   0  0  0  0  0  0
    4.5870   12.1859   16.0659 C   0  0  0  0  0  0
    6.1033   11.2911   18.6782 C   0  0  0  0  0  0
    7.2846   11.7091   18.1425 O   0  0  0  0  0  0
    5.6392   11.6976   19.7418 O   0  0  0  0  0  0
   -0.3863    6.6845   16.9389 Cl  0  0  0  0  0  0
    6.2758    7.6640   19.0050 H   0  0  0  0  0  0
    6.4327    9.0899   19.9601 H   0  0  0  0  0  0
    6.1676    9.8583   17.0867 H   0  0  0  0  0  0
    1.4804    5.9446   18.9467 H   0  0  0  0  0  0
    1.1393    8.7466   15.7627 H   0  0  0  0  0  0
    4.6087    5.9742   19.3498 H   0  0  0  0  0  0
    4.1110    8.5410   20.8895 H   0  0  0  0  0  0
    5.4433    7.9118   22.6118 H   0  0  0  0  0  0
    6.2746    6.6397   21.7233 H   0  0  0  0  0  0
    4.0346    5.7644   23.1439 H   0  0  0  0  0  0
    2.5051    5.3568   21.0375 H   0  0  0  0  0  0
    3.5700   11.3694   17.7295 H   0  0  0  0  0  0
    4.2901    9.4763   15.4492 H   0  0  0  0  0  0
    1.9209   10.6253   14.6162 H   0  0  0  0  0  0
    3.0951   12.9739   14.5129 H   0  0  0  0  0  0
    4.6205   13.1192   16.6309 H   0  0  0  0  0  0
    5.5374   12.0859   15.5437 H   0  0  0  0  0  0
    7.6610   12.4091   18.6967 H   0  0  0  0  0  0
  1 11  1  0  0  0
  1  2  1  0  0  0
  1 24  1  0  0  0
  1 25  1  0  0  0
  2  4  1  0  0  0
  2  3  1  0  0  0
  3 15  1  0  0  0
  3 20  1  0  0  0
  3 26  1  0  0  0
  4  5  2  0  0  0
  4  9  1  0  0  0
  5 10  1  0  0  0
  5  6  1  0  0  0
  6  7  2  0  0  0
  6 27  1  0  0  0
  7  8  1  0  0  0
  7 23  1  0  0  0
  8  9  2  0  0  0
  8 28  1  0  0  0
  9 16  1  0  0  0
 10 11  1  0  0  0
 10 14  1  0  0  0
 10 29  1  0  0  0
 11 12  1  0  0  0
 11 30  1  0  0  0
 12 13  1  0  0  0
 12 31  1  0  0  0
 12 32  1  0  0  0
 13 14  2  0  0  0
 13 33  1  0  0  0
 14 34  1  0  0  0
 15 16  1  0  0  0
 15 19  1  0  0  0
 15 35  1  0  0  0
 16 17  1  0  0  0
 16 36  1  0  0  0
 17 18  2  0  0  0
 17 37  1  0  0  0
 18 19  1  0  0  0
 18 38  1  0  0  0
 19 39  1  0  0  0
 19 40  1  0  0  0
 20 21  1  0  0  0
 20 22  2  0  0  0
 21 41  1  0  0  0
M  END
> <s_m_entry_id>
2529

> <s_m_entry_name>
dock_pv.57

> <s_m_Source_Path>
/home/csk/Desktop/cluster/DUD-E-result/fabp4

> <s_m_Source_File>
dock_pv.maegz

> <i_m_Source_File_Index>
57

> <chembl_id>
CHEMBL3828043

> <chembl_pref_name>
None

> <i_lp_mmshare_version>
53161

> <r_lp_tautomer_probability>
1

> <s_lp_Force_Field>
OPLS_2005

> <r_lp_Energy>
82.149528

> <b_lp_Chiralities_Consistent>
1

> <s_lp_Variant>
CHEMBL2083_lig199-8

> <s_i_glide_gridfile>
glide-grid_2nnq

> <i_i_glide_lignum>
349

> <i_i_glide_rotatable_bonds>
2

> <r_i_docking_score>
-7.49839867200564

> <r_i_glide_ligand_efficiency>
-0.326017333565463

> <r_i_glide_ligand_efficiency_sa>
-0.927149928817048

> <r_i_glide_ligand_efficiency_ln>
-1.813180790611

> <r_i_glide_gscore>
-7.49839867200564

> <r_i_glide_lipo>
-3.2001701620185

> <r_i_glide_hbond>
0

> <r_i_glide_metal>
0

> <r_i_glide_rewards>
-1.3723426336516

> <r_i_glide_evdw>
-36.5524101257324

> <r_i_glide_ecoul>
-6.93471622467041

> <r_i_glide_erotb>
0

> <r_i_glide_esite>
-0.0580579363483514

> <r_i_glide_emodel>
-62.7703080499358

> <r_i_glide_energy>
-43.4871263504028

> <r_i_glide_einternal>
0.523450434207916

> <i_i_glide_confnum>
1

> <i_i_glide_posenum>
89

> <r_i_glide_eff_state_penalty>
0

> <s_user_duplicate_titles>
CHEMBL2083_lig199

> <i_f3d_flags>
0

> <s_m_subgroup_title>
dock_pv

> <s_m_subgroupid>
dock_pv

> <b_m_subgroup_collapsed>
1

$$$$
CHEMBL2083_lig199
                    3D
 Schrodinger Suite 2021-1.
 41 45  0  0  1  0            999 V2000
    1.9201    9.5696   16.7480 C   0  0  0  0  0  0
    2.2026    8.1152   16.8426 N   0  0  0  0  0  0
    1.3857    7.3403   17.8276 C   0  0  2  0  0  0
    3.4217    7.6007   16.3281 C   0  0  0  0  0  0
    4.0293    8.2309   15.2186 C   0  0  0  0  0  0
    5.1766    7.6613   14.6541 C   0  0  0  0  0  0
    5.7321    6.5055   15.1995 C   0  0  0  0  0  0
    5.1612    5.9149   16.3189 C   0  0  0  0  0  0
    4.0048    6.4460   16.8923 C   0  0  0  0  0  0
    3.3585    9.4887   14.6930 C   0  0  1  0  0  0
    2.9636   10.3298   15.9005 C   0  0  1  0  0  0
    2.6219   11.6833   15.2866 C   0  0  0  0  0  0
    3.6246   11.7342   14.1429 C   0  0  0  0  0  0
    4.1021   10.5045   13.8606 C   0  0  0  0  0  0
    1.8570    5.8609   17.8875 C   0  0  1  0  0  0
    3.3543    5.8637   18.1292 C   0  0  1  0  0  0
    3.6068    4.4392   18.5470 C   0  0  0  0  0  0
    2.4829    3.9094   19.0643 C   0  0  0  0  0  0
    1.3309    4.8862   18.9391 C   0  0  0  0  0  0
   -0.1318    7.4043   17.5076 C   0  0  0  0  0  0
   -0.8826    6.9599   18.5421 O   0  0  0  0  0  0
   -0.6299    7.8156   16.4662 O   0  0  0  0  0  0
    7.1194    5.7762   14.4967 Cl  0  0  0  0  0  0
    0.9342    9.7083   16.3091 H   0  0  0  0  0  0
    1.8404   10.0172   17.7395 H   0  0  0  0  0  0
    1.4858    7.7853   18.8146 H   0  0  0  0  0  0
    5.6274    8.1055   13.7801 H   0  0  0  0  0  0
    5.6248    5.0362   16.7377 H   0  0  0  0  0  0
    2.4801    9.1479   14.1421 H   0  0  0  0  0  0
    3.8416   10.4650   16.5391 H   0  0  0  0  0  0
    2.7848   12.4857   16.0071 H   0  0  0  0  0  0
    1.5873   11.7489   14.9472 H   0  0  0  0  0  0
    3.8931   12.6577   13.6498 H   0  0  0  0  0  0
    4.7918   10.2385   13.0725 H   0  0  0  0  0  0
    1.6435    5.4072   16.9136 H   0  0  0  0  0  0
    3.6282    6.5199   18.9591 H   0  0  0  0  0  0
    4.5872    3.9873   18.5431 H   0  0  0  0  0  0
    2.3699    2.9343   19.5186 H   0  0  0  0  0  0
    1.1215    5.3899   19.8797 H   0  0  0  0  0  0
    0.4149    4.4018   18.5982 H   0  0  0  0  0  0
   -1.8096    7.0416   18.3017 H   0  0  0  0  0  0
  1 11  1  0  0  0
  1  2  1  0  0  0
  1 24  1  0  0  0
  1 25  1  0  0  0
  2  4  1  0  0  0
  2  3  1  0  0  0
  3 15  1  0  0  0
  3 20  1  0  0  0
  3 26  1  0  0  0
  4  5  2  0  0  0
  4  9  1  0  0  0
  5 10  1  0  0  0
  5  6  1  0  0  0
  6  7  2  0  0  0
  6 27  1  0  0  0
  7  8  1  0  0  0
  7 23  1  0  0  0
  8  9  2  0  0  0
  8 28  1  0  0  0
  9 16  1  0  0  0
 10 11  1  0  0  0
 10 14  1  0  0  0
 10 29  1  0  0  0
 11 12  1  0  0  0
 11 30  1  0  0  0
 12 13  1  0  0  0
 12 31  1  0  0  0
 12 32  1  0  0  0
 13 14  2  0  0  0
 13 33  1  0  0  0
 14 34  1  0  0  0
 15 16  1  0  0  0
 15 19  1  0  0  0
 15 35  1  0  0  0
 16 17  1  0  0  0
 16 36  1  0  0  0
 17 18  2  0  0  0
 17 37  1  0  0  0
 18 19  1  0  0  0
 18 38  1  0  0  0
 19 39  1  0  0  0
 19 40  1  0  0  0
 20 21  1  0  0  0
 20 22  2  0  0  0
 21 41  1  0  0  0
M  END
> <s_m_entry_id>
2530

> <s_m_entry_name>
dock_pv.58

> <s_m_Source_Path>
/home/csk/Desktop/cluster/DUD-E-result/fabp4

> <s_m_Source_File>
dock_pv.maegz

> <i_m_Source_File_Index>
58

> <chembl_id>
CHEMBL3828043

> <chembl_pref_name>
None

> <i_lp_mmshare_version>
53161

> <r_lp_tautomer_probability>
1

> <s_lp_Force_Field>
OPLS_2005

> <r_lp_Energy>
77.670971

> <b_lp_Chiralities_Consistent>
1

> <s_lp_Variant>
CHEMBL2083_lig199-31

> <s_i_glide_gridfile>
glide-grid_2nnq

> <i_i_glide_lignum>
372

> <i_i_glide_rotatable_bonds>
2

> <r_i_docking_score>
-7.49245968002734

> <r_i_glide_ligand_efficiency>
-0.325759116522928

> <r_i_glide_ligand_efficiency_sa>
-0.926415593896916

> <r_i_glide_ligand_efficiency_ln>
-1.81174468849885

> <r_i_glide_gscore>
-7.49245968002734

> <r_i_glide_lipo>
-3.11101239890813

> <r_i_glide_hbond>
-0.202532390891097

> <r_i_glide_metal>
0

> <r_i_glide_rewards>
-1.96481083386977

> <r_i_glide_evdw>
-35.934398651123

> <r_i_glide_ecoul>
-2.7825608253479

> <r_i_glide_erotb>
0

> <r_i_glide_esite>
0

> <r_i_glide_emodel>
-56.2382892804185

> <r_i_glide_energy>
-38.7169594764709

> <r_i_glide_einternal>
0.623781859874725

> <i_i_glide_confnum>
1

> <i_i_glide_posenum>
387

> <r_i_glide_eff_state_penalty>
0

> <s_user_duplicate_titles>
CHEMBL2083_lig199

> <i_f3d_flags>
0

> <s_m_subgroup_title>
dock_pv

> <s_m_subgroupid>
dock_pv

> <b_m_subgroup_collapsed>
1

$$$$
CHEMBL2083_lig165
                    3D
 Schrodinger Suite 2021-1.
 46 48  0  0  1  0            999 V2000
    6.6918    5.9255   15.6288 C   0  0  0  0  0  0
    7.4913    5.7708   16.7604 C   0  0  0  0  0  0
    7.3833    6.6633   17.8259 C   0  0  0  0  0  0
    6.4771    7.7315   17.7703 C   0  0  0  0  0  0
    5.6808    7.8785   16.6260 C   0  0  0  0  0  0
    5.7709    6.9738   15.5551 C   0  0  0  0  0  0
    4.8997    7.1370   14.3029 C   0  0  0  0  0  0
    3.3957    6.9074   14.5298 C   0  0  0  0  0  0
    4.7871    8.9139   16.5600 O   0  0  0  0  0  0
    5.3612   10.1326   16.1217 C   0  0  0  0  0  0
    4.2388   11.1150   15.8725 C   0  0  0  0  0  0
    3.7145   11.8919   16.9151 C   0  0  0  0  0  0
    2.7073   12.8131   16.6416 C   0  0  0  0  0  0
    2.1685   12.9095   15.3580 C   0  0  0  0  0  0
    2.6583   12.1075   14.3317 C   0  0  0  0  0  0
    3.7047   11.2240   14.5829 C   0  0  0  0  0  0
    4.2650   11.7155   18.5494 Cl  0  0  0  0  0  0
    6.3133    8.6830   18.7643 O   0  0  0  0  0  0
    6.7162    8.4277   20.1113 C   0  0  0  0  0  0
    5.6732    7.6231   20.8949 C   0  0  0  0  0  0
    5.9207    7.2518   22.2274 C   0  0  0  0  0  0
    4.9739    6.5100   22.9374 C   0  0  0  0  0  0
    3.7782    6.1266   22.3332 C   0  0  0  0  0  0
    3.5210    6.4944   21.0159 C   0  0  0  0  0  0
    4.4549    7.2465   20.3043 C   0  0  0  0  0  0
    7.3908    7.6927   23.0282 Cl  0  0  0  0  0  0
    2.7200    6.9313   13.3488 O   0  0  0  0  0  0
    2.8693    6.7174   15.6241 O   0  0  0  0  0  0
    6.7877    5.2278   14.8098 H   0  0  0  0  0  0
    8.2035    4.9622   16.8161 H   0  0  0  0  0  0
    8.0286    6.5214   18.6765 H   0  0  0  0  0  0
    5.0116    8.1557   13.9357 H   0  0  0  0  0  0
    5.2507    6.5032   13.4896 H   0  0  0  0  0  0
    5.9196    9.9860   15.1979 H   0  0  0  0  0  0
    6.0724   10.5314   16.8488 H   0  0  0  0  0  0
    2.3248   13.4349   17.4376 H   0  0  0  0  0  0
    1.3739   13.6132   15.1590 H   0  0  0  0  0  0
    2.2346   12.1824   13.3418 H   0  0  0  0  0  0
    4.0841   10.6138   13.7751 H   0  0  0  0  0  0
    7.7011    7.9671   20.1751 H   0  0  0  0  0  0
    6.8160    9.3987   20.5971 H   0  0  0  0  0  0
    5.1623    6.2283   23.9620 H   0  0  0  0  0  0
    3.0521    5.5513   22.8876 H   0  0  0  0  0  0
    2.5937    6.1998   20.5447 H   0  0  0  0  0  0
    4.2209    7.5262   19.2868 H   0  0  0  0  0  0
    1.7564    6.9087   13.4717 H   0  0  0  0  0  0
  1  6  1  0  0  0
  1  2  2  0  0  0
  1 29  1  0  0  0
  2  3  1  0  0  0
  2 30  1  0  0  0
  3  4  2  0  0  0
  3 31  1  0  0  0
  4  5  1  0  0  0
  4 18  1  0  0  0
  5  6  2  0  0  0
  5  9  1  0  0  0
  6  7  1  0  0  0
  7  8  1  0  0  0
  7 32  1  0  0  0
  7 33  1  0  0  0
  8 27  1  0  0  0
  8 28  2  0  0  0
  9 10  1  0  0  0
 10 11  1  0  0  0
 10 34  1  0  0  0
 10 35  1  0  0  0
 11 12  2  0  0  0
 11 16  1  0  0  0
 12 13  1  0  0  0
 12 17  1  0  0  0
 13 14  2  0  0  0
 13 36  1  0  0  0
 14 15  1  0  0  0
 14 37  1  0  0  0
 15 16  2  0  0  0
 15 38  1  0  0  0
 16 39  1  0  0  0
 18 19  1  0  0  0
 19 20  1  0  0  0
 19 40  1  0  0  0
 19 41  1  0  0  0
 20 21  2  0  0  0
 20 25  1  0  0  0
 21 22  1  0  0  0
 21 26  1  0  0  0
 22 23  2  0  0  0
 22 42  1  0  0  0
 23 24  1  0  0  0
 23 43  1  0  0  0
 24 25  2  0  0  0
 24 44  1  0  0  0
 25 45  1  0  0  0
 27 46  1  0  0  0
M  END
> <s_m_entry_id>
2531

> <s_m_entry_name>
dock_pv.59

> <s_m_Source_Path>
/home/csk/Desktop/cluster/DUD-E-result/fabp4

> <s_m_Source_File>
dock_pv.maegz

> <i_m_Source_File_Index>
59

> <chembl_id>
CHEMBL212860

> <chembl_pref_name>
None

> <i_lp_mmshare_version>
53161

> <r_lp_tautomer_probability>
1

> <s_lp_Force_Field>
OPLS_2005

> <r_lp_Energy>
29.915747

> <b_lp_Chiralities_Consistent>
1

> <s_lp_Variant>
CHEMBL2083_lig165-1

> <s_i_glide_gridfile>
glide-grid_2nnq

> <i_i_glide_lignum>
181

> <i_i_glide_rotatable_bonds>
9

> <r_i_docking_score>
-7.49018914178869

> <r_i_glide_ligand_efficiency>
-0.267506755063882

> <r_i_glide_ligand_efficiency_sa>
-0.812308061426969

> <r_i_glide_ligand_efficiency_ln>
-1.72895557543422

> <r_i_glide_gscore>
-7.49018914178869

> <r_i_glide_lipo>
-4.00246460887374

> <r_i_glide_hbond>
0

> <r_i_glide_metal>
0

> <r_i_glide_rewards>
-0.867535401620011

> <r_i_glide_evdw>
-46.0991287231445

> <r_i_glide_ecoul>
-8.15508651733398

> <r_i_glide_erotb>
0.908030282462386

> <r_i_glide_esite>
0

> <r_i_glide_emodel>
-77.1846207280405

> <r_i_glide_energy>
-54.2542152404785

> <r_i_glide_einternal>
4.79736137390137

> <i_i_glide_confnum>
90

> <i_i_glide_posenum>
391

> <r_i_glide_eff_state_penalty>
0

> <s_user_duplicate_titles>
CHEMBL2083_lig165,355661

> <i_f3d_flags>
0

> <s_m_subgroup_title>
dock_pv

> <s_m_subgroupid>
dock_pv

> <b_m_subgroup_collapsed>
1

$$$$
CHEMBL2083_lig94
                    3D
 Schrodinger Suite 2021-1.
 52 56  0  0  1  0            999 V2000
    1.8918    3.8352   19.7420 C   0  0  0  0  0  0
    2.4817    5.1839   19.4170 C   0  0  0  0  0  0
    2.0375    5.9357   17.9183 S   0  0  0  0  0  0
    3.1111    7.2479   18.2247 C   0  0  0  0  0  0
    3.3005    8.2406   17.2882 N   0  0  0  0  0  0
    2.3353    9.0534   16.8230 C   0  0  0  0  0  0
    1.1309    8.9357   17.0577 O   0  0  0  0  0  0
    2.8742   10.1631   16.0665 C   0  0  0  0  0  0
    3.7115   10.1111   14.9791 C   0  0  0  0  0  0
    4.1476   11.5025   14.4652 C   0  0  2  0  0  0
    2.8272   12.2624   14.1421 C   0  0  0  0  0  0
    1.9141   12.3429   15.3962 C   0  0  0  0  0  0
    2.5685   11.5853   16.5835 C   0  0  1  0  0  0
    3.9432   12.2415   16.9082 C   0  0  0  0  0  0
    4.8703   12.2099   15.6507 C   0  0  0  0  0  0
    4.1399    8.9162   14.2658 C   0  0  0  0  0  0
    3.4715    7.8943   14.1422 O   0  0  0  0  0  0
    5.3903    9.0241   13.7422 O   0  0  0  0  0  0
    3.8050    7.1033   19.4201 C   0  0  0  0  0  0
    4.8358    8.0576   19.7855 C   0  0  0  0  0  0
    4.5151    9.3741   19.8602 O   0  0  0  0  0  0
    5.7180   10.0164   20.1422 N   0  0  0  0  0  0
    6.5839    9.0237   20.1796 C   0  0  0  0  0  0
    6.0981    7.8109   19.9966 N   0  0  0  0  0  0
    8.0549    9.2409   20.4820 C   0  0  0  0  0  0
    8.8338    8.5093   19.6854 F   0  0  0  0  0  0
    8.4185   10.5106   20.3291 F   0  0  0  0  0  0
    8.3205    8.9090   21.7415 F   0  0  0  0  0  0
    3.3820    5.9716   20.1624 C   0  0  0  0  0  0
    3.8577    5.5720   21.5643 C   0  0  0  0  0  0
    4.5355    6.5099   22.5457 C   0  0  0  0  0  0
    3.1200    6.0468   22.7944 C   0  0  0  0  0  0
    1.1200    3.9198   20.5058 H   0  0  0  0  0  0
    1.4368    3.3429   18.8813 H   0  0  0  0  0  0
    2.6487    3.1526   20.1289 H   0  0  0  0  0  0
    4.2527    8.4930   17.0765 H   0  0  0  0  0  0
    4.7901   11.4680   13.5842 H   0  0  0  0  0  0
    2.2920   11.7525   13.3408 H   0  0  0  0  0  0
    3.0296   13.2612   13.7686 H   0  0  0  0  0  0
    1.7407   13.3851   15.6677 H   0  0  0  0  0  0
    0.9325   11.9252   15.1684 H   0  0  0  0  0  0
    1.9196   11.5950   17.4615 H   0  0  0  0  0  0
    4.4203   11.7256   17.7437 H   0  0  0  0  0  0
    3.8012   13.2716   17.2419 H   0  0  0  0  0  0
    5.8067   11.7017   15.8855 H   0  0  0  0  0  0
    5.1435   13.2279   15.3672 H   0  0  0  0  0  0
    5.5518    8.2316   13.2238 H   0  0  0  0  0  0
    4.1876    4.5330   21.6224 H   0  0  0  0  0  0
    5.3399    6.1108   23.1649 H   0  0  0  0  0  0
    4.6729    7.5710   22.3420 H   0  0  0  0  0  0
    2.3203    6.7799   22.7013 H   0  0  0  0  0  0
    2.9290    5.3298   23.5943 H   0  0  0  0  0  0
  1  2  1  0  0  0
  1 33  1  0  0  0
  1 34  1  0  0  0
  1 35  1  0  0  0
  2  3  1  0  0  0
  2 29  2  0  0  0
  3  4  1  0  0  0
  4  5  1  0  0  0
  4 19  2  0  0  0
  5  6  1  0  0  0
  5 36  1  0  0  0
  6  7  2  0  0  0
  6  8  1  0  0  0
  8  9  2  0  0  0
  8 13  1  0  0  0
  9 10  1  0  0  0
  9 16  1  0  0  0
 10 11  1  0  0  0
 10 15  1  0  0  0
 10 37  1  0  0  0
 11 12  1  0  0  0
 11 38  1  0  0  0
 11 39  1  0  0  0
 12 13  1  0  0  0
 12 40  1  0  0  0
 12 41  1  0  0  0
 13 14  1  0  0  0
 13 42  1  0  0  0
 14 15  1  0  0  0
 14 43  1  0  0  0
 14 44  1  0  0  0
 15 45  1  0  0  0
 15 46  1  0  0  0
 16 17  2  0  0  0
 16 18  1  0  0  0
 18 47  1  0  0  0
 19 20  1  0  0  0
 19 29  1  0  0  0
 20 21  1  0  0  0
 20 24  2  0  0  0
 21 22  1  0  0  0
 22 23  2  0  0  0
 23 24  1  0  0  0
 23 25  1  0  0  0
 25 26  1  0  0  0
 25 27  1  0  0  0
 25 28  1  0  0  0
 29 30  1  0  0  0
 30 31  1  0  0  0
 30 32  1  0  0  0
 30 48  1  0  0  0
 31 32  1  0  0  0
 31 49  1  0  0  0
 31 50  1  0  0  0
 32 51  1  0  0  0
 32 52  1  0  0  0
M  END
> <s_m_entry_id>
2532

> <s_m_entry_name>
dock_pv.60

> <s_m_Source_Path>
/home/csk/Desktop/cluster/DUD-E-result/fabp4

> <s_m_Source_File>
dock_pv.maegz

> <i_m_Source_File_Index>
60

> <chembl_id>
CHEMBL3913234

> <chembl_pref_name>
None

> <i_lp_mmshare_version>
53161

> <r_lp_tautomer_probability>
1

> <s_lp_Force_Field>
OPLS_2005

> <r_lp_Energy>
58.434515

> <b_lp_Chiralities_Consistent>
1

> <s_lp_Variant>
CHEMBL2083_lig94-1

> <s_i_glide_gridfile>
glide-grid_2nnq

> <i_i_glide_lignum>
104

> <i_i_glide_rotatable_bonds>
8

> <r_i_docking_score>
-7.47423128129145

> <r_i_glide_ligand_efficiency>
-0.233569727540358

> <r_i_glide_ligand_efficiency_sa>
-0.741537661554322

> <r_i_glide_ligand_efficiency_ln>
-1.67368412373101

> <r_i_glide_gscore>
-7.47423128129145

> <r_i_glide_lipo>
-3.70282715124459

> <r_i_glide_hbond>
0

> <r_i_glide_metal>
0

> <r_i_glide_rewards>
-1.34384117548658

> <r_i_glide_evdw>
-51.2079086303711

> <r_i_glide_ecoul>
-2.14208483695984

> <r_i_glide_erotb>
0.55415792000589

> <r_i_glide_esite>
-0.100012717503634

> <r_i_glide_emodel>
-65.8507401859358

> <r_i_glide_energy>
-53.3499934673309

> <r_i_glide_einternal>
10.1245737075806

> <i_i_glide_confnum>
115

> <i_i_glide_posenum>
240

> <r_i_glide_eff_state_penalty>
0

> <s_user_duplicate_titles>
CHEMBL2083_lig94

> <i_f3d_flags>
0

> <s_m_subgroup_title>
dock_pv

> <s_m_subgroupid>
dock_pv

> <b_m_subgroup_collapsed>
1

$$$$
CHEMBL2083_lig202
                    3D
 Schrodinger Suite 2021-1.
 56 60  0  0  1  0            999 V2000
    3.8802    6.8534   16.1487 C   0  0  1  0  0  0
    3.0954    6.3461   17.2623 N   0  0  0  0  0  0
    1.4255    8.0629   16.8931 C   0  0  0  0  0  0
    1.7856    6.8041   17.4275 C   0  0  0  0  0  0
    0.8179    5.9511   18.0061 C   0  0  0  0  0  0
   -0.4818    6.4470   18.1413 C   0  0  0  0  0  0
   -0.8041    7.7242   17.7238 C   0  0  0  0  0  0
    0.1148    8.4866   17.0448 C   0  0  0  0  0  0
    3.8339    8.4017   16.1373 C   0  0  1  0  0  0
    2.4121    9.0011   16.1971 C   0  0  2  0  0  0
    2.5898   10.3445   16.9381 C   0  0  1  0  0  0
    3.6435    9.9856   17.9869 C   0  0  1  0  0  0
    4.6399    9.0834   17.2554 C   0  0  0  0  0  0
    4.3926   11.3315   18.9420 S   0  0  0  0  0  0
    6.0156   10.7164   19.2863 C   0  0  0  0  0  0
    3.2474   11.5425   15.7753 Cl  0  0  0  0  0  0
    1.1312    4.5535   18.5128 C   0  0  0  0  0  0
    2.2573    4.1846   18.8408 O   0  0  0  0  0  0
    0.0675    3.7090   18.5420 O   0  0  0  0  0  0
    5.3110    6.3131   16.1068 C   0  0  0  0  0  0
    5.8845    5.7715   17.2660 C   0  0  0  0  0  0
    7.1884    5.3083   17.2513 C   0  0  0  0  0  0
    7.9200    5.3090   16.0783 C   0  0  0  0  0  0
    7.3539    5.7924   14.9174 C   0  0  0  0  0  0
    6.0951    6.3876   14.9406 C   0  0  0  0  0  0
    6.2683    9.5893   20.1015 C   0  0  0  0  0  0
    7.5817    9.1118   20.2069 C   0  0  0  0  0  0
    8.6134    9.7149   19.4966 C   0  0  0  0  0  0
    8.3384   10.8029   18.6706 C   0  0  0  0  0  0
    7.0524   11.3090   18.5783 C   0  0  0  0  0  0
    5.2025    8.8850   20.8347 N   0  3  0  0  0  0
    4.3200    9.5564   21.3420 O   0  0  0  0  0  0
    5.2676    7.6621   20.9234 O   0  5  0  0  0  0
    5.6922    7.1702   13.7706 N   0  3  0  0  0  0
    6.5322    7.9591   13.3420 O   0  0  0  0  0  0
    4.5527    7.0480   13.3420 O   0  5  0  0  0  0
    3.3725    6.4643   15.2663 H   0  0  0  0  0  0
    3.3055    5.4001   17.5499 H   0  0  0  0  0  0
   -1.2799    5.8425   18.5420 H   0  0  0  0  0  0
   -1.7660    8.1433   17.9069 H   0  0  0  0  0  0
   -0.1986    9.4286   16.6408 H   0  0  0  0  0  0
    4.2630    8.7540   15.2005 H   0  0  0  0  0  0
    2.0277    9.1414   15.1855 H   0  0  0  0  0  0
    1.6767   10.7229   17.3971 H   0  0  0  0  0  0
    3.1712    9.3865   18.7673 H   0  0  0  0  0  0
    5.0604    8.3471   17.9393 H   0  0  0  0  0  0
    5.4575    9.6568   16.8159 H   0  0  0  0  0  0
    0.3566    2.8616   18.8848 H   0  0  0  0  0  0
    5.3435    5.7335   18.2003 H   0  0  0  0  0  0
    7.6220    4.9120   18.1420 H   0  0  0  0  0  0
    8.9237    4.9097   16.0605 H   0  0  0  0  0  0
    7.9200    5.7494   13.9993 H   0  0  0  0  0  0
    7.8038    8.2568   20.8301 H   0  0  0  0  0  0
    9.6195    9.3317   19.5860 H   0  0  0  0  0  0
    9.1200   11.2836   18.1073 H   0  0  0  0  0  0
    6.8601   12.1656   17.9458 H   0  0  0  0  0  0
  1  9  1  0  0  0
  1  2  1  0  0  0
  1 20  1  0  0  0
  1 37  1  0  0  0
  2  4  1  0  0  0
  2 38  1  0  0  0
  3 10  1  0  0  0
  3  4  2  0  0  0
  3  8  1  0  0  0
  4  5  1  0  0  0
  5  6  2  0  0  0
  5 17  1  0  0  0
  6  7  1  0  0  0
  6 39  1  0  0  0
  7  8  2  0  0  0
  7 40  1  0  0  0
  8 41  1  0  0  0
  9 10  1  0  0  0
  9 13  1  0  0  0
  9 42  1  0  0  0
 10 11  1  0  0  0
 10 43  1  0  0  0
 11 12  1  0  0  0
 11 16  1  0  0  0
 11 44  1  0  0  0
 12 13  1  0  0  0
 12 14  1  0  0  0
 12 45  1  0  0  0
 13 46  1  0  0  0
 13 47  1  0  0  0
 14 15  1  0  0  0
 15 26  2  0  0  0
 15 30  1  0  0  0
 17 18  2  0  0  0
 17 19  1  0  0  0
 19 48  1  0  0  0
 20 21  2  0  0  0
 20 25  1  0  0  0
 21 22  1  0  0  0
 21 49  1  0  0  0
 22 23  2  0  0  0
 22 50  1  0  0  0
 23 24  1  0  0  0
 23 51  1  0  0  0
 24 25  2  0  0  0
 24 52  1  0  0  0
 25 34  1  0  0  0
 26 27  1  0  0  0
 26 31  1  0  0  0
 27 28  2  0  0  0
 27 53  1  0  0  0
 28 29  1  0  0  0
 28 54  1  0  0  0
 29 30  2  0  0  0
 29 55  1  0  0  0
 30 56  1  0  0  0
 31 32  2  0  0  0
 31 33  1  0  0  0
 34 35  2  0  0  0
 34 36  1  0  0  0
M  CHG  4  31   1  33  -1  34   1  36  -1
M  END
> <s_m_entry_id>
2533

> <s_m_entry_name>
dock_pv.61

> <s_m_Source_Path>
/home/csk/Desktop/cluster/DUD-E-result/fabp4

> <s_m_Source_File>
dock_pv.maegz

> <i_m_Source_File_Index>
61

> <chembl_id>
CHEMBL3827527

> <chembl_pref_name>
None

> <i_lp_mmshare_version>
53161

> <r_lp_tautomer_probability>
1

> <s_lp_Force_Field>
OPLS_2005

> <r_lp_Energy>
60.403196

> <b_lp_Chiralities_Consistent>
1

> <s_lp_Variant>
CHEMBL2083_lig202-27

> <s_i_glide_gridfile>
glide-grid_2nnq

> <i_i_glide_lignum>
402

> <i_i_glide_rotatable_bonds>
7

> <r_i_docking_score>
-7.47203795269867

> <r_i_glide_ligand_efficiency>
-0.207556609797185

> <r_i_glide_ligand_efficiency_sa>
-0.685336824758876

> <r_i_glide_ligand_efficiency_ln>
-1.63019681014245

> <r_i_glide_gscore>
-7.47203795269867

> <r_i_glide_lipo>
-3.93136849121821

> <r_i_glide_hbond>
0

> <r_i_glide_metal>
0

> <r_i_glide_rewards>
-0.978585242661467

> <r_i_glide_evdw>
-46.2763900756836

> <r_i_glide_ecoul>
-3.06159925460815

> <r_i_glide_erotb>
0.297662755552557

> <r_i_glide_esite>
-0.0866875823961487

> <r_i_glide_emodel>
-62.338156861491

> <r_i_glide_energy>
-49.3379893302917

> <r_i_glide_einternal>
4.22577095031738

> <i_i_glide_confnum>
118

> <i_i_glide_posenum>
343

> <r_i_glide_eff_state_penalty>
0

> <s_user_duplicate_titles>
CHEMBL2083_lig202

> <i_f3d_flags>
0

> <s_m_subgroup_title>
dock_pv

> <s_m_subgroupid>
dock_pv

> <b_m_subgroup_collapsed>
1

$$$$
CHEMBL2083_lig166
                    3D
 Schrodinger Suite 2021-1.
 47 49  0  0  1  0            999 V2000
    5.0271   11.0992   15.0887 C   0  0  0  0  0  0
    4.7117   10.1995   14.0697 C   0  0  0  0  0  0
    4.3508    8.8912   14.3754 C   0  0  0  0  0  0
    4.3040    8.4794   15.7057 C   0  0  0  0  0  0
    4.6656    9.3608   16.7332 C   0  0  0  0  0  0
    4.9996   10.6964   16.4313 C   0  0  0  0  0  0
    5.3331   11.7233   17.5230 C   0  0  1  0  0  0
    4.2334   11.8006   18.6142 C   0  0  0  0  0  0
    4.6248    8.9132   18.0331 O   0  0  0  0  0  0
    5.8079    8.2434   18.4617 C   0  0  0  0  0  0
    5.6873    7.8221   19.9271 C   0  0  0  0  0  0
    6.7860    7.8773   20.8055 C   0  0  0  0  0  0
    6.6518    7.4205   22.1185 C   0  0  0  0  0  0
    5.4290    6.9245   22.5745 C   0  0  0  0  0  0
    4.3296    6.8948   21.7190 C   0  0  0  0  0  0
    4.4619    7.3360   20.4022 C   0  0  0  0  0  0
    8.3204    8.5096   20.3130 Cl  0  0  0  0  0  0
    3.8517    7.2222   16.0074 O   0  0  0  0  0  0
    2.4532    7.1981   16.2921 C   0  0  0  0  0  0
    2.0715    6.0476   17.2133 C   0  0  0  0  0  0
    0.7215    5.6883   17.3575 C   0  0  0  0  0  0
    0.3772    4.5868   18.1423 C   0  0  0  0  0  0
    1.3550    3.8769   18.8390 C   0  0  0  0  0  0
    2.6914    4.2584   18.7359 C   0  0  0  0  0  0
    3.0503    5.3290   17.9167 C   0  0  0  0  0  0
   -0.5439    6.5499   16.5477 Cl  0  0  0  0  0  0
    4.3256   11.3094   19.7409 O   0  0  0  0  0  0
    6.6081   11.5044   18.1123 O   0  0  0  0  0  0
    3.1201   12.4429   18.1576 O   0  0  0  0  0  0
    5.2914   12.1153   14.8277 H   0  0  0  0  0  0
    4.7267   10.5101   13.0350 H   0  0  0  0  0  0
    4.0745    8.2055   13.5868 H   0  0  0  0  0  0
    5.3940   12.7156   17.0712 H   0  0  0  0  0  0
    6.6629    8.8959   18.3136 H   0  0  0  0  0  0
    5.9811    7.3518   17.8590 H   0  0  0  0  0  0
    7.4956    7.4571   22.7924 H   0  0  0  0  0  0
    5.3313    6.5811   23.5954 H   0  0  0  0  0  0
    3.3780    6.5296   22.0758 H   0  0  0  0  0  0
    3.6012    7.3017   19.7506 H   0  0  0  0  0  0
    2.0941    8.1199   16.7544 H   0  0  0  0  0  0
    1.9334    7.0854   15.3417 H   0  0  0  0  0  0
   -0.6579    4.2891   18.2241 H   0  0  0  0  0  0
    1.0775    3.0366   19.4607 H   0  0  0  0  0  0
    3.4521    3.7149   19.2769 H   0  0  0  0  0  0
    4.0942    5.6020   17.8432 H   0  0  0  0  0  0
    6.8711   12.3049   18.5826 H   0  0  0  0  0  0
    3.2578   12.8598   17.3030 H   0  0  0  0  0  0
  1  6  1  0  0  0
  1  2  2  0  0  0
  1 30  1  0  0  0
  2  3  1  0  0  0
  2 31  1  0  0  0
  3  4  2  0  0  0
  3 32  1  0  0  0
  4  5  1  0  0  0
  4 18  1  0  0  0
  5  6  2  0  0  0
  5  9  1  0  0  0
  6  7  1  0  0  0
  7  8  1  0  0  0
  7 28  1  0  0  0
  7 33  1  0  0  0
  8 27  2  0  0  0
  8 29  1  0  0  0
  9 10  1  0  0  0
 10 11  1  0  0  0
 10 34  1  0  0  0
 10 35  1  0  0  0
 11 12  2  0  0  0
 11 16  1  0  0  0
 12 13  1  0  0  0
 12 17  1  0  0  0
 13 14  2  0  0  0
 13 36  1  0  0  0
 14 15  1  0  0  0
 14 37  1  0  0  0
 15 16  2  0  0  0
 15 38  1  0  0  0
 16 39  1  0  0  0
 18 19  1  0  0  0
 19 20  1  0  0  0
 19 40  1  0  0  0
 19 41  1  0  0  0
 20 21  2  0  0  0
 20 25  1  0  0  0
 21 22  1  0  0  0
 21 26  1  0  0  0
 22 23  2  0  0  0
 22 42  1  0  0  0
 23 24  1  0  0  0
 23 43  1  0  0  0
 24 25  2  0  0  0
 24 44  1  0  0  0
 25 45  1  0  0  0
 28 46  1  0  0  0
 29 47  1  0  0  0
M  END
> <s_m_entry_id>
2534

> <s_m_entry_name>
dock_pv.62

> <s_m_Source_Path>
/home/csk/Desktop/cluster/DUD-E-result/fabp4

> <s_m_Source_File>
dock_pv.maegz

> <i_m_Source_File_Index>
62

> <chembl_id>
CHEMBL378857

> <chembl_pref_name>
None

> <i_lp_mmshare_version>
53161

> <r_lp_tautomer_probability>
1

> <s_lp_Force_Field>
OPLS_2005

> <r_lp_Energy>
30.654786

> <b_lp_Chiralities_Consistent>
1

> <s_lp_Variant>
CHEMBL2083_lig166-1

> <s_i_glide_gridfile>
glide-grid_2nnq

> <i_i_glide_lignum>
182

> <i_i_glide_rotatable_bonds>
10

> <r_i_docking_score>
-7.46173422583119

> <r_i_glide_ligand_efficiency>
-0.257301180201076

> <r_i_glide_ligand_efficiency_sa>
-0.790510744313296

> <r_i_glide_ligand_efficiency_ln>
-1.70854792446114

> <r_i_glide_gscore>
-7.46173422583119

> <r_i_glide_lipo>
-3.59442097861581

> <r_i_glide_hbond>
-0.32

> <r_i_glide_metal>
0

> <r_i_glide_rewards>
-0.605215529347556

> <r_i_glide_evdw>
-44.3936004638672

> <r_i_glide_ecoul>
-9.99709224700928

> <r_i_glide_erotb>
0.848263586369127

> <r_i_glide_esite>
-0.0711174439921988

> <r_i_glide_emodel>
-75.4412035920603

> <r_i_glide_energy>
-54.3906927108765

> <r_i_glide_einternal>
12.1114501953125

> <i_i_glide_confnum>
65

> <i_i_glide_posenum>
110

> <r_i_glide_eff_state_penalty>
0

> <s_user_duplicate_titles>
CHEMBL2083_lig166,355918

> <i_f3d_flags>
0

> <s_m_subgroup_title>
dock_pv

> <s_m_subgroupid>
dock_pv

> <b_m_subgroup_collapsed>
1

$$$$
CHEMBL2083_lig104
                    3D
 Schrodinger Suite 2021-1.
 48 51  0  0  1  0            999 V2000
   -0.1146    6.6188   17.1398 C   0  0  0  0  0  0
    0.9937    6.0679   18.0066 C   0  0  0  0  0  0
    1.1227    4.7637   18.1461 N   0  0  0  0  0  0
    2.4526    4.5445   19.2041 S   0  0  0  0  0  0
    2.6824    6.2608   19.3294 C   0  0  0  0  0  0
    1.8179    6.9112   18.5943 N   0  0  0  0  0  0
    3.7718    6.9089   20.1015 C   0  0  0  0  0  0
    4.2136    6.5346   21.3967 C   0  0  0  0  0  0
    3.5207    5.5135   22.2724 C   0  0  0  0  0  0
    5.3229    7.2781   21.8310 C   0  0  0  0  0  0
    6.1346    7.1484   23.0987 C   0  0  0  0  0  0
    5.7627    8.4933   20.6838 S   0  0  0  0  0  0
    4.4525    8.0415   19.6499 C   0  0  0  0  0  0
    4.2506    8.7272   18.4704 N   0  0  0  0  0  0
    4.0361   10.0568   18.3742 C   0  0  0  0  0  0
    3.9184   10.8133   19.3413 O   0  0  0  0  0  0
    3.9593   10.5390   17.0046 C   0  0  0  0  0  0
    4.7604   10.1840   15.9463 C   0  0  0  0  0  0
    4.3793   10.8445   14.6025 C   0  0  2  0  0  0
    4.4864   12.3800   14.8381 C   0  0  0  0  0  0
    3.5850   12.8023   16.0421 C   0  0  0  0  0  0
    2.8594   11.5644   16.6476 C   0  0  1  0  0  0
    1.9944   10.9039   15.5353 C   0  0  0  0  0  0
    2.8911   10.4769   14.3294 C   0  0  0  0  0  0
    5.9161    9.3041   15.9650 C   0  0  0  0  0  0
    6.1789    8.5043   15.0704 O   0  0  0  0  0  0
    6.7473    9.5470   17.0220 O   0  0  0  0  0  0
    0.2842    7.3486   16.4344 H   0  0  0  0  0  0
   -0.6254    5.8622   16.5435 H   0  0  0  0  0  0
   -0.8430    7.1838   17.7238 H   0  0  0  0  0  0
    2.4514    5.4632   22.0673 H   0  0  0  0  0  0
    3.9338    4.5136   22.1414 H   0  0  0  0  0  0
    3.5882    5.7631   23.3309 H   0  0  0  0  0  0
    7.0104    6.5129   22.9410 H   0  0  0  0  0  0
    6.5122    8.1076   23.4497 H   0  0  0  0  0  0
    5.5613    6.7242   23.9258 H   0  0  0  0  0  0
    4.2123    8.1761   17.6253 H   0  0  0  0  0  0
    5.0117   10.5348   13.7675 H   0  0  0  0  0  0
    4.1833   12.9084   13.9332 H   0  0  0  0  0  0
    5.5223   12.6714   15.0235 H   0  0  0  0  0  0
    4.1775   13.3045   16.8079 H   0  0  0  0  0  0
    2.8476   13.5334   15.7047 H   0  0  0  0  0  0
    2.2470   11.8555   17.5046 H   0  0  0  0  0  0
    1.2206   11.5973   15.2015 H   0  0  0  0  0  0
    1.4697   10.0345   15.9361 H   0  0  0  0  0  0
    2.5437   10.9655   13.4177 H   0  0  0  0  0  0
    2.7984    9.4043   14.1498 H   0  0  0  0  0  0
    6.4222   10.2518   17.5858 H   0  0  0  0  0  0
  1  2  1  0  0  0
  1 28  1  0  0  0
  1 29  1  0  0  0
  1 30  1  0  0  0
  2  3  2  0  0  0
  2  6  1  0  0  0
  3  4  1  0  0  0
  4  5  1  0  0  0
  5  6  2  0  0  0
  5  7  1  0  0  0
  7  8  1  0  0  0
  7 13  2  0  0  0
  8  9  1  0  0  0
  8 10  2  0  0  0
  9 31  1  0  0  0
  9 32  1  0  0  0
  9 33  1  0  0  0
 10 11  1  0  0  0
 10 12  1  0  0  0
 11 34  1  0  0  0
 11 35  1  0  0  0
 11 36  1  0  0  0
 12 13  1  0  0  0
 13 14  1  0  0  0
 14 15  1  0  0  0
 14 37  1  0  0  0
 15 16  2  0  0  0
 15 17  1  0  0  0
 17 18  2  0  0  0
 17 22  1  0  0  0
 18 19  1  0  0  0
 18 25  1  0  0  0
 19 20  1  0  0  0
 19 24  1  0  0  0
 19 38  1  0  0  0
 20 21  1  0  0  0
 20 39  1  0  0  0
 20 40  1  0  0  0
 21 22  1  0  0  0
 21 41  1  0  0  0
 21 42  1  0  0  0
 22 23  1  0  0  0
 22 43  1  0  0  0
 23 24  1  0  0  0
 23 44  1  0  0  0
 23 45  1  0  0  0
 24 46  1  0  0  0
 24 47  1  0  0  0
 25 26  2  0  0  0
 25 27  1  0  0  0
 27 48  1  0  0  0
M  END
> <s_m_entry_id>
2535

> <s_m_entry_name>
dock_pv.63

> <s_m_Source_Path>
/home/csk/Desktop/cluster/DUD-E-result/fabp4

> <s_m_Source_File>
dock_pv.maegz

> <i_m_Source_File_Index>
63

> <chembl_id>
CHEMBL3943278

> <chembl_pref_name>
None

> <i_lp_mmshare_version>
53161

> <r_lp_tautomer_probability>
1

> <s_lp_Force_Field>
OPLS_2005

> <r_lp_Energy>
54.887932

> <b_lp_Chiralities_Consistent>
1

> <s_lp_Variant>
CHEMBL2083_lig104-1

> <s_i_glide_gridfile>
glide-grid_2nnq

> <i_i_glide_lignum>
114

> <i_i_glide_rotatable_bonds>
6

> <r_i_docking_score>
-7.46015708270564

> <r_i_glide_ligand_efficiency>
-0.276302114174283

> <r_i_glide_ligand_efficiency_sa>
-0.828906341612202

> <r_i_glide_ligand_efficiency_ln>
-1.73660157855215

> <r_i_glide_gscore>
-7.46015708270564

> <r_i_glide_lipo>
-3.35030297390724

> <r_i_glide_hbond>
-0.471382787164369

> <r_i_glide_metal>
0

> <r_i_glide_rewards>
-1.28711277644659

> <r_i_glide_evdw>
-44.7889060974121

> <r_i_glide_ecoul>
-4.55051612854004

> <r_i_glide_erotb>
0.602911599021377

> <r_i_glide_esite>
-0.0322474200572047

> <r_i_glide_emodel>
-70.2442551492183

> <r_i_glide_energy>
-49.3394222259521

> <r_i_glide_einternal>
5.26151466369629

> <i_i_glide_confnum>
73

> <i_i_glide_posenum>
285

> <r_i_glide_eff_state_penalty>
0

> <s_user_duplicate_titles>
CHEMBL2083_lig104

> <i_f3d_flags>
0

> <s_m_subgroup_title>
dock_pv

> <s_m_subgroupid>
dock_pv

> <b_m_subgroup_collapsed>
1

$$$$
CHEMBL2083_lig198
                    3D
 Schrodinger Suite 2021-1.
 44 48  0  0  1  0            999 V2000
    5.2121    8.7154   19.9278 C   0  0  0  0  0  0
    4.6025    8.9334   18.6115 N   0  0  0  0  0  0
    5.2257   10.0207   17.8060 C   0  0  1  0  0  0
    3.3931    8.3031   18.2555 C   0  0  0  0  0  0
    3.0148    7.1009   18.8916 C   0  0  0  0  0  0
    1.7963    6.5126   18.5233 C   0  0  0  0  0  0
    0.9629    7.0871   17.5662 C   0  0  0  0  0  0
    1.3610    8.2589   16.9287 C   0  0  0  0  0  0
    2.5671    8.8827   17.2581 C   0  0  0  0  0  0
    3.9354    6.4204   19.9094 C   0  0  1  0  0  0
    4.9131    7.3740   20.6207 C   0  0  2  0  0  0
    4.4505    7.4888   22.0834 C   0  0  0  0  0  0
    3.5211    6.3108   22.2491 C   0  0  0  0  0  0
    3.2384    5.7332   21.0695 C   0  0  0  0  0  0
    4.4993   10.1747   16.4411 C   0  0  1  0  0  0
    2.9923   10.2116   16.6409 C   0  0  1  0  0  0
    2.5298   10.6505   15.2684 C   0  0  0  0  0  0
    3.5070   11.3465   14.6545 C   0  0  0  0  0  0
    4.7903   11.3235   15.4662 C   0  0  0  0  0  0
    5.2151   11.3656   18.5733 C   0  0  0  0  0  0
    6.3031   12.1093   18.2396 O   0  0  0  0  0  0
    4.3208   11.7243   19.3402 O   0  0  0  0  0  0
   -0.3602    6.4331   17.2104 C   0  0  0  0  0  0
    6.2331    9.0849   20.0409 H   0  0  0  0  0  0
    4.5984    9.4036   20.5113 H   0  0  0  0  0  0
    6.2796    9.7889   17.6489 H   0  0  0  0  0  0
    1.4866    5.5885   18.9896 H   0  0  0  0  0  0
    0.7185    8.6976   16.1770 H   0  0  0  0  0  0
    4.5022    5.6950   19.3268 H   0  0  0  0  0  0
    5.8936    6.9091   20.7019 H   0  0  0  0  0  0
    5.2899    7.4381   22.7790 H   0  0  0  0  0  0
    3.9169    8.4151   22.2914 H   0  0  0  0  0  0
    3.1398    6.0117   23.2158 H   0  0  0  0  0  0
    2.5911    4.8843   20.9206 H   0  0  0  0  0  0
    4.7485    9.2616   15.8895 H   0  0  0  0  0  0
    2.6920   10.9806   17.3556 H   0  0  0  0  0  0
    1.5199   10.5338   14.9248 H   0  0  0  0  0  0
    3.4279   11.8623   13.7093 H   0  0  0  0  0  0
    5.6549   11.0999   14.8436 H   0  0  0  0  0  0
    4.9762   12.2829   15.9501 H   0  0  0  0  0  0
    6.2250   13.0281   18.5415 H   0  0  0  0  0  0
   -0.3524    5.3663   17.4359 H   0  0  0  0  0  0
   -1.1784    6.9045   17.7550 H   0  0  0  0  0  0
   -0.5622    6.5235   16.1447 H   0  0  0  0  0  0
  1 11  1  0  0  0
  1  2  1  0  0  0
  1 24  1  0  0  0
  1 25  1  0  0  0
  2  4  1  0  0  0
  2  3  1  0  0  0
  3 15  1  0  0  0
  3 20  1  0  0  0
  3 26  1  0  0  0
  4  5  2  0  0  0
  4  9  1  0  0  0
  5 10  1  0  0  0
  5  6  1  0  0  0
  6  7  2  0  0  0
  6 27  1  0  0  0
  7  8  1  0  0  0
  7 23  1  0  0  0
  8  9  2  0  0  0
  8 28  1  0  0  0
  9 16  1  0  0  0
 10 11  1  0  0  0
 10 14  1  0  0  0
 10 29  1  0  0  0
 11 12  1  0  0  0
 11 30  1  0  0  0
 12 13  1  0  0  0
 12 31  1  0  0  0
 12 32  1  0  0  0
 13 14  2  0  0  0
 13 33  1  0  0  0
 14 34  1  0  0  0
 15 16  1  0  0  0
 15 19  1  0  0  0
 15 35  1  0  0  0
 16 17  1  0  0  0
 16 36  1  0  0  0
 17 18  2  0  0  0
 17 37  1  0  0  0
 18 19  1  0  0  0
 18 38  1  0  0  0
 19 39  1  0  0  0
 19 40  1  0  0  0
 20 21  1  0  0  0
 20 22  2  0  0  0
 21 41  1  0  0  0
 23 42  1  0  0  0
 23 43  1  0  0  0
 23 44  1  0  0  0
M  END
> <s_m_entry_id>
2536

> <s_m_entry_name>
dock_pv.64

> <s_m_Source_Path>
/home/csk/Desktop/cluster/DUD-E-result/fabp4

> <s_m_Source_File>
dock_pv.maegz

> <i_m_Source_File_Index>
64

> <chembl_id>
CHEMBL3827483

> <chembl_pref_name>
None

> <i_lp_mmshare_version>
53161

> <r_lp_tautomer_probability>
1

> <s_lp_Force_Field>
OPLS_2005

> <r_lp_Energy>
75.67125

> <b_lp_Chiralities_Consistent>
1

> <s_lp_Variant>
CHEMBL2083_lig198-28

> <s_i_glide_gridfile>
glide-grid_2nnq

> <i_i_glide_lignum>
337

> <i_i_glide_rotatable_bonds>
2

> <r_i_docking_score>
-7.45810941861118

> <r_i_glide_ligand_efficiency>
-0.324265626896138

> <r_i_glide_ligand_efficiency_sa>
-0.922168308066978

> <r_i_glide_ligand_efficiency_ln>
-1.80343848381747

> <r_i_glide_gscore>
-7.45810941861118

> <r_i_glide_lipo>
-3.32807181335259

> <r_i_glide_hbond>
-0.158983829145254

> <r_i_glide_metal>
0

> <r_i_glide_rewards>
-1.59414240355441

> <r_i_glide_evdw>
-32.0000801086426

> <r_i_glide_ecoul>
-6.09940576553345

> <r_i_glide_erotb>
0.195647951793434

> <r_i_glide_esite>
-0.0576444540902143

> <r_i_glide_emodel>
-55.498827105123

> <r_i_glide_energy>
-38.099485874176

> <r_i_glide_einternal>
0.992591857910156

> <i_i_glide_confnum>
1

> <i_i_glide_posenum>
295

> <r_i_glide_eff_state_penalty>
0

> <s_user_duplicate_titles>
CHEMBL2083_lig198

> <i_f3d_flags>
0

> <s_m_subgroup_title>
dock_pv

> <s_m_subgroupid>
dock_pv

> <b_m_subgroup_collapsed>
1

$$$$
CHEMBL2083_lig198
                    3D
 Schrodinger Suite 2021-1.
 44 48  0  0  1  0            999 V2000
    1.5487    9.2788   16.5423 C   0  0  0  0  0  0
    1.9624    8.0323   17.2587 N   0  0  0  0  0  0
    0.9896    6.9010   17.2354 C   0  0  1  0  0  0
    3.3270    7.6426   17.2588 C   0  0  0  0  0  0
    4.3246    8.4799   16.6863 C   0  0  0  0  0  0
    5.6421    8.0216   16.6045 C   0  0  0  0  0  0
    5.9995    6.7768   17.1114 C   0  0  0  0  0  0
    5.0374    6.0011   17.7489 C   0  0  0  0  0  0
    3.7079    6.4286   17.8777 C   0  0  0  0  0  0
    3.9185    9.8714   16.2241 C   0  0  2  0  0  0
    2.5862    9.7555   15.5216 C   0  0  2  0  0  0
    2.4142   11.0736   14.7779 C   0  0  0  0  0  0
    3.8647   11.4170   14.4708 C   0  0  0  0  0  0
    4.7115   10.6762   15.2157 C   0  0  0  0  0  0
    1.2354    5.9066   18.4223 C   0  0  2  0  0  0
    2.7190    5.6671   18.7674 C   0  0  1  0  0  0
    2.8533    4.1568   18.8141 C   0  0  0  0  0  0
    1.6940    3.5361   18.5514 C   0  0  0  0  0  0
    0.5887    4.5166   18.2525 C   0  0  0  0  0  0
   -0.4799    7.3934   17.3556 C   0  0  0  0  0  0
   -1.2799    6.9778   16.3334 O   0  0  0  0  0  0
   -0.8797    8.1090   18.2668 O   0  0  0  0  0  0
    7.4302    6.2841   16.9930 C   0  0  0  0  0  0
    0.5385    9.2841   16.1411 H   0  0  0  0  0  0
    1.5575   10.0746   17.2877 H   0  0  0  0  0  0
    1.0649    6.3948   16.2705 H   0  0  0  0  0  0
    6.4016    8.6451   16.1562 H   0  0  0  0  0  0
    5.3469    5.0641   18.1895 H   0  0  0  0  0  0
    3.8405   10.4702   17.1353 H   0  0  0  0  0  0
    2.6794    8.9587   14.7756 H   0  0  0  0  0  0
    1.8321   10.9242   13.8660 H   0  0  0  0  0  0
    1.9157   11.8391   15.3754 H   0  0  0  0  0  0
    4.1374   12.1586   13.7329 H   0  0  0  0  0  0
    5.7878   10.7409   15.2217 H   0  0  0  0  0  0
    0.8220    6.3525   19.3311 H   0  0  0  0  0  0
    2.9163    6.0511   19.7705 H   0  0  0  0  0  0
    3.7792    3.6703   19.0799 H   0  0  0  0  0  0
    1.5215    2.4680   18.5506 H   0  0  0  0  0  0
    0.2045    4.3570   17.2517 H   0  0  0  0  0  0
   -0.2338    4.3385   18.9415 H   0  0  0  0  0  0
   -2.1764    7.3090   16.5065 H   0  0  0  0  0  0
    7.8466    6.5431   16.0185 H   0  0  0  0  0  0
    8.0581    6.7383   17.7612 H   0  0  0  0  0  0
    7.4898    5.1968   17.0825 H   0  0  0  0  0  0
  1 11  1  0  0  0
  1  2  1  0  0  0
  1 24  1  0  0  0
  1 25  1  0  0  0
  2  4  1  0  0  0
  2  3  1  0  0  0
  3 15  1  0  0  0
  3 20  1  0  0  0
  3 26  1  0  0  0
  4  5  2  0  0  0
  4  9  1  0  0  0
  5 10  1  0  0  0
  5  6  1  0  0  0
  6  7  2  0  0  0
  6 27  1  0  0  0
  7  8  1  0  0  0
  7 23  1  0  0  0
  8  9  2  0  0  0
  8 28  1  0  0  0
  9 16  1  0  0  0
 10 11  1  0  0  0
 10 14  1  0  0  0
 10 29  1  0  0  0
 11 12  1  0  0  0
 11 30  1  0  0  0
 12 13  1  0  0  0
 12 31  1  0  0  0
 12 32  1  0  0  0
 13 14  2  0  0  0
 13 33  1  0  0  0
 14 34  1  0  0  0
 15 16  1  0  0  0
 15 19  1  0  0  0
 15 35  1  0  0  0
 16 17  1  0  0  0
 16 36  1  0  0  0
 17 18  2  0  0  0
 17 37  1  0  0  0
 18 19  1  0  0  0
 18 38  1  0  0  0
 19 39  1  0  0  0
 19 40  1  0  0  0
 20 21  1  0  0  0
 20 22  2  0  0  0
 21 41  1  0  0  0
 23 42  1  0  0  0
 23 43  1  0  0  0
 23 44  1  0  0  0
M  END
> <s_m_entry_id>
2537

> <s_m_entry_name>
dock_pv.65

> <s_m_Source_Path>
/home/csk/Desktop/cluster/DUD-E-result/fabp4

> <s_m_Source_File>
dock_pv.maegz

> <i_m_Source_File_Index>
65

> <chembl_id>
CHEMBL3827483

> <chembl_pref_name>
None

> <i_lp_mmshare_version>
53161

> <r_lp_tautomer_probability>
1

> <s_lp_Force_Field>
OPLS_2005

> <r_lp_Energy>
73.987213

> <b_lp_Chiralities_Consistent>
1

> <s_lp_Variant>
CHEMBL2083_lig198-18

> <s_i_glide_gridfile>
glide-grid_2nnq

> <i_i_glide_lignum>
327

> <i_i_glide_rotatable_bonds>
2

> <r_i_docking_score>
-7.44935804426865

> <r_i_glide_ligand_efficiency>
-0.323885132359507

> <r_i_glide_ligand_efficiency_sa>
-0.921086232219368

> <r_i_glide_ligand_efficiency_ln>
-1.80132232214837

> <r_i_glide_gscore>
-7.44935804426865

> <r_i_glide_lipo>
-3.11928709752728

> <r_i_glide_hbond>
-0.000572915677553663

> <r_i_glide_metal>
0

> <r_i_glide_rewards>
-2.0848654738622

> <r_i_glide_evdw>
-30.4818439483643

> <r_i_glide_ecoul>
-6.10792207717896

> <r_i_glide_erotb>
0.195647951793434

> <r_i_glide_esite>
0

> <r_i_glide_emodel>
-53.038912378244

> <r_i_glide_energy>
-36.5897660255432

> <r_i_glide_einternal>
1.21637868881226

> <i_i_glide_confnum>
1

> <i_i_glide_posenum>
115

> <r_i_glide_eff_state_penalty>
0

> <s_user_duplicate_titles>
CHEMBL2083_lig198

> <i_f3d_flags>
0

> <s_m_subgroup_title>
dock_pv

> <s_m_subgroupid>
dock_pv

> <b_m_subgroup_collapsed>
1

$$$$
CHEMBL2083_lig207
                    3D
 Schrodinger Suite 2021-1.
 45 48  0  0  1  0            999 V2000
    2.9114    9.4746   17.2318 C   0  0  0  0  0  0
    3.8151    9.2623   18.2970 C   0  0  0  0  0  0
    3.8416    7.9983   18.9421 C   0  0  0  0  0  0
    2.0114    8.5409   16.8525 N   0  0  0  0  0  0
    1.9536    7.3618   17.5030 C   0  0  0  0  0  0
    2.8695    7.0187   18.5418 C   0  0  0  0  0  0
    2.7535    5.7221   19.1188 C   0  0  0  0  0  0
    1.7384    4.8582   18.7177 C   0  0  0  0  0  0
    0.8229    5.2305   17.7419 C   0  0  0  0  0  0
    0.9347    6.4647   17.1172 C   0  0  0  0  0  0
    2.8146   10.6302   16.4626 N   0  0  0  0  0  0
    4.8330    7.6988   20.0297 C   0  0  0  0  0  0
    4.4212    7.3821   21.3326 C   0  0  0  0  0  0
    5.3578    7.1815   22.3430 C   0  0  0  0  0  0
    6.7143    7.3077   22.0596 C   0  0  0  0  0  0
    7.1386    7.6041   20.7675 C   0  0  0  0  0  0
    6.2033    7.7762   19.7554 C   0  0  0  0  0  0
    4.7083   10.3781   18.7723 C   0  0  0  0  0  0
    5.8438   10.5553   18.0398 O   0  0  0  0  0  0
    4.4118   11.0689   19.7412 O   0  0  0  0  0  0
    1.6064    3.3097   19.4445 Cl  0  0  0  0  0  0
    2.7645   10.6123   14.9915 C   0  0  0  0  0  0
    4.0034   11.3429   14.4364 C   0  0  0  0  0  0
    4.0372   12.7916   14.9417 C   0  0  0  0  0  0
    3.9107   12.8536   16.4671 C   0  0  0  0  0  0
    2.7208   12.0095   16.9649 C   0  0  0  0  0  0
    3.4426    5.4016   19.8868 H   0  0  0  0  0  0
    0.0349    4.5492   17.4538 H   0  0  0  0  0  0
    0.2413    6.7464   16.3378 H   0  0  0  0  0  0
    3.3719    7.3081   21.5758 H   0  0  0  0  0  0
    5.0319    6.9541   23.3490 H   0  0  0  0  0  0
    7.4423    7.1700   22.8471 H   0  0  0  0  0  0
    8.1900    7.7040   20.5410 H   0  0  0  0  0  0
    6.5459    8.0064   18.7565 H   0  0  0  0  0  0
    6.3182   11.3222   18.3737 H   0  0  0  0  0  0
    2.7228    9.5941   14.6014 H   0  0  0  0  0  0
    1.8492   11.1070   14.6620 H   0  0  0  0  0  0
    4.9092   10.8068   14.7252 H   0  0  0  0  0  0
    3.9856   11.3287   13.3449 H   0  0  0  0  0  0
    3.1817   13.3083   14.5082 H   0  0  0  0  0  0
    4.9361   13.3081   14.6048 H   0  0  0  0  0  0
    3.7794   13.8855   16.7916 H   0  0  0  0  0  0
    4.8381   12.5444   16.9410 H   0  0  0  0  0  0
    1.7924   12.4397   16.5892 H   0  0  0  0  0  0
    2.6411   12.0344   18.0509 H   0  0  0  0  0  0
  1  2  2  0  0  0
  1  4  1  0  0  0
  1 11  1  0  0  0
  2  3  1  0  0  0
  2 18  1  0  0  0
  3  6  2  0  0  0
  3 12  1  0  0  0
  4  5  2  0  0  0
  5  6  1  0  0  0
  5 10  1  0  0  0
  6  7  1  0  0  0
  7  8  2  0  0  0
  7 27  1  0  0  0
  8  9  1  0  0  0
  8 21  1  0  0  0
  9 10  2  0  0  0
  9 28  1  0  0  0
 10 29  1  0  0  0
 11 22  1  0  0  0
 11 26  1  0  0  0
 12 13  2  0  0  0
 12 17  1  0  0  0
 13 14  1  0  0  0
 13 30  1  0  0  0
 14 15  2  0  0  0
 14 31  1  0  0  0
 15 16  1  0  0  0
 15 32  1  0  0  0
 16 17  2  0  0  0
 16 33  1  0  0  0
 17 34  1  0  0  0
 18 19  1  0  0  0
 18 20  2  0  0  0
 19 35  1  0  0  0
 22 23  1  0  0  0
 22 36  1  0  0  0
 22 37  1  0  0  0
 23 24  1  0  0  0
 23 38  1  0  0  0
 23 39  1  0  0  0
 24 25  1  0  0  0
 24 40  1  0  0  0
 24 41  1  0  0  0
 25 26  1  0  0  0
 25 42  1  0  0  0
 25 43  1  0  0  0
 26 44  1  0  0  0
 26 45  1  0  0  0
M  END
> <s_m_entry_id>
2538

> <s_m_entry_name>
dock_pv.66

> <s_m_Source_Path>
/home/csk/Desktop/cluster/DUD-E-result/fabp4

> <s_m_Source_File>
dock_pv.maegz

> <i_m_Source_File_Index>
66

> <chembl_id>
CHEMBL3941588

> <chembl_pref_name>
None

> <i_lp_mmshare_version>
53161

> <r_lp_tautomer_probability>
1

> <s_lp_Force_Field>
OPLS_2005

> <r_lp_Energy>
39.106287

> <b_lp_Chiralities_Consistent>
1

> <s_lp_Variant>
CHEMBL2083_lig207-1

> <s_i_glide_gridfile>
glide-grid_2nnq

> <i_i_glide_lignum>
412

> <i_i_glide_rotatable_bonds>
4

> <r_i_docking_score>
-7.43816558634843

> <r_i_glide_ligand_efficiency>
-0.286083291782632

> <r_i_glide_ligand_efficiency_sa>
-0.847520626222651

> <r_i_glide_ligand_efficiency_ln>
-1.74682878134195

> <r_i_glide_gscore>
-7.43816558634843

> <r_i_glide_lipo>
-3.8014503087998

> <r_i_glide_hbond>
-0.32

> <r_i_glide_metal>
0

> <r_i_glide_rewards>
-1.29173620727442

> <r_i_glide_evdw>
-39.4599456787109

> <r_i_glide_ecoul>
-3.20775938034058

> <r_i_glide_erotb>
0.429182120712423

> <r_i_glide_esite>
0

> <r_i_glide_emodel>
-60.1079880320235

> <r_i_glide_energy>
-42.6677050590515

> <r_i_glide_einternal>
1.42570865154266

> <i_i_glide_confnum>
80

> <i_i_glide_posenum>
139

> <r_i_glide_eff_state_penalty>
0

> <s_user_duplicate_titles>
CHEMBL2083_lig207

> <i_f3d_flags>
0

> <s_m_subgroup_title>
dock_pv

> <s_m_subgroupid>
dock_pv

> <b_m_subgroup_collapsed>
1

$$$$
CHEMBL2083_lig76
                    3D
 Schrodinger Suite 2021-1.
 44 46  0  0  1  0            999 V2000
    3.5200   13.3068   17.2066 O   0  0  0  0  0  0
    3.5159   12.0542   17.7486 C   0  0  0  0  0  0
    3.4582   11.8379   18.9418 O   0  0  0  0  0  0
    3.5846   10.9470   16.6308 C   0  0  0  0  0  0
    4.7776   11.1677   15.6658 C   0  0  0  0  0  0
    4.2501   12.0506   14.5302 C   0  0  0  0  0  0
    2.7956   11.6077   14.3476 C   0  0  0  0  0  0
    2.3362   11.0332   15.7027 C   0  0  0  0  0  0
    3.6525    9.5922   17.2435 N   0  0  0  0  0  0
    4.5409    9.1101   18.1370 C   0  0  0  0  0  0
    5.5950    9.6759   18.4154 O   0  0  0  0  0  0
    4.0700    7.9900   18.7163 N   0  0  0  0  0  0
    4.3653    7.4184   19.9752 C   0  0  0  0  0  0
    5.4316    7.8675   20.7788 C   0  0  0  0  0  0
    5.6651    7.3084   22.0338 C   0  0  0  0  0  0
    7.0279    7.8004   22.9717 Cl  0  0  0  0  0  0
    4.8080    6.3365   22.5290 C   0  0  0  0  0  0
    3.7625    5.8707   21.7396 C   0  0  0  0  0  0
    3.5350    6.3661   20.4446 C   0  0  0  0  0  0
    2.4419    5.7335   19.6302 C   0  0  0  0  0  0
    1.5181    6.4940   18.8948 C   0  0  0  0  0  0
    0.5250    5.8769   18.1407 C   0  0  0  0  0  0
    0.4209    4.4891   18.1418 C   0  0  0  0  0  0
    1.3182    3.7142   18.8701 C   0  0  0  0  0  0
    2.3270    4.3363   19.5988 C   0  0  0  0  0  0
    3.7938   13.9692   17.8482 H   0  0  0  0  0  0
    5.0931   10.2174   15.2323 H   0  0  0  0  0  0
    5.6666   11.5715   16.1577 H   0  0  0  0  0  0
    4.8347   11.9432   13.6158 H   0  0  0  0  0  0
    4.2950   13.1042   14.8123 H   0  0  0  0  0  0
    2.7362   10.8365   13.5759 H   0  0  0  0  0  0
    2.1630   12.4348   14.0202 H   0  0  0  0  0  0
    1.5207   11.6154   16.1314 H   0  0  0  0  0  0
    1.9152   10.0430   15.5130 H   0  0  0  0  0  0
    3.1096    8.8965   16.7592 H   0  0  0  0  0  0
    3.2859    7.5525   18.2595 H   0  0  0  0  0  0
    6.1074    8.6390   20.4486 H   0  0  0  0  0  0
    4.9743    5.9142   23.5080 H   0  0  0  0  0  0
    3.1324    5.0946   22.1455 H   0  0  0  0  0  0
    1.5480    7.5738   18.9180 H   0  0  0  0  0  0
   -0.1841    6.4707   17.5827 H   0  0  0  0  0  0
   -0.3663    4.0085   17.5790 H   0  0  0  0  0  0
    1.2325    2.6362   18.8750 H   0  0  0  0  0  0
    3.0229    3.7170   20.1430 H   0  0  0  0  0  0
  1  2  1  0  0  0
  1 26  1  0  0  0
  2  3  2  0  0  0
  2  4  1  0  0  0
  4  5  1  0  0  0
  4  8  1  0  0  0
  4  9  1  0  0  0
  5  6  1  0  0  0
  5 27  1  0  0  0
  5 28  1  0  0  0
  6  7  1  0  0  0
  6 29  1  0  0  0
  6 30  1  0  0  0
  7  8  1  0  0  0
  7 31  1  0  0  0
  7 32  1  0  0  0
  8 33  1  0  0  0
  8 34  1  0  0  0
  9 10  1  0  0  0
  9 35  1  0  0  0
 10 11  2  0  0  0
 10 12  1  0  0  0
 12 13  1  0  0  0
 12 36  1  0  0  0
 13 14  2  0  0  0
 13 19  1  0  0  0
 14 15  1  0  0  0
 14 37  1  0  0  0
 15 16  1  0  0  0
 15 17  2  0  0  0
 17 18  1  0  0  0
 17 38  1  0  0  0
 18 19  2  0  0  0
 18 39  1  0  0  0
 19 20  1  0  0  0
 20 21  2  0  0  0
 20 25  1  0  0  0
 21 22  1  0  0  0
 21 40  1  0  0  0
 22 23  2  0  0  0
 22 41  1  0  0  0
 23 24  1  0  0  0
 23 42  1  0  0  0
 24 25  2  0  0  0
 24 43  1  0  0  0
 25 44  1  0  0  0
M  END
> <s_m_entry_id>
2539

> <s_m_entry_name>
dock_pv.67

> <s_m_Source_Path>
/home/csk/Desktop/cluster/DUD-E-result/fabp4

> <s_m_Source_File>
dock_pv.maegz

> <i_m_Source_File_Index>
67

> <chembl_id>
CHEMBL3958926

> <chembl_pref_name>
None

> <i_lp_mmshare_version>
53161

> <r_lp_tautomer_probability>
1

> <s_lp_Force_Field>
OPLS_2005

> <r_lp_Energy>
34.656377

> <b_lp_Chiralities_Consistent>
1

> <s_lp_Variant>
CHEMBL2083_lig76-1

> <s_i_glide_gridfile>
glide-grid_2nnq

> <i_i_glide_lignum>
86

> <i_i_glide_rotatable_bonds>
7

> <r_i_docking_score>
-7.43221099662624

> <r_i_glide_ligand_efficiency>
-0.29728843986505

> <r_i_glide_ligand_efficiency_sa>
-0.869276670598336

> <r_i_glide_ligand_efficiency_ln>
-1.76165673159115

> <r_i_glide_gscore>
-7.43221099662624

> <r_i_glide_lipo>
-4.11590216602046

> <r_i_glide_hbond>
-0.166446311850514

> <r_i_glide_metal>
0

> <r_i_glide_rewards>
-1.15588847027962

> <r_i_glide_evdw>
-42.2342643737793

> <r_i_glide_ecoul>
-4.88125896453857

> <r_i_glide_erotb>
0.892897637604756

> <r_i_glide_esite>
-0.0429696227106555

> <r_i_glide_emodel>
-66.2567034303373

> <r_i_glide_energy>
-47.1155233383179

> <r_i_glide_einternal>
5.4123101234436

> <i_i_glide_confnum>
330

> <i_i_glide_posenum>
265

> <r_i_glide_eff_state_penalty>
0

> <s_user_duplicate_titles>
CHEMBL2083_lig76

> <i_f3d_flags>
0

> <s_m_subgroup_title>
dock_pv

> <s_m_subgroupid>
dock_pv

> <b_m_subgroup_collapsed>
1

$$$$
CHEMBL2083_lig202
                    3D
 Schrodinger Suite 2021-1.
 56 60  0  0  1  0            999 V2000
    3.5849    7.1925   18.5559 C   0  0  1  0  0  0
    4.3214    7.2217   19.8344 N   0  0  0  0  0  0
    6.3522    8.1494   18.8645 C   0  0  0  0  0  0
    5.6406    7.7092   19.9982 C   0  0  0  0  0  0
    6.2359    7.7685   21.2821 C   0  0  0  0  0  0
    7.5200    8.3267   21.3875 C   0  0  0  0  0  0
    8.2208    8.7595   20.2699 C   0  0  0  0  0  0
    7.6466    8.6524   19.0143 C   0  0  0  0  0  0
    4.5885    7.0909   17.3776 C   0  0  2  0  0  0
    5.6576    8.1610   17.5193 C   0  0  2  0  0  0
    6.4401    8.1213   16.2010 C   0  0  2  0  0  0
    5.2995    8.0071   15.1723 C   0  0  1  0  0  0
    4.1000    7.3651   15.9310 C   0  0  0  0  0  0
    4.9106    9.5992   14.3292 S   0  0  0  0  0  0
    4.3375   10.8693   15.4576 C   0  0  0  0  0  0
    7.4375    6.6304   16.1424 Cl  0  0  0  0  0  0
    5.5537    7.2583   22.5415 C   0  0  0  0  0  0
    4.4003    6.8345   22.5672 O   0  0  0  0  0  0
    6.3186    7.3091   23.6661 O   0  0  0  0  0  0
    2.5440    6.0565   18.5022 C   0  0  0  0  0  0
    2.9380    4.8373   19.0844 C   0  0  0  0  0  0
    2.0994    3.7343   19.1177 C   0  0  0  0  0  0
    0.8429    3.8151   18.5419 C   0  0  0  0  0  0
    0.4455    4.9942   17.9261 C   0  0  0  0  0  0
    1.2582    6.1423   17.8908 C   0  0  0  0  0  0
    3.0759   11.5163   15.3439 C   0  0  0  0  0  0
    2.6912   12.4023   16.3648 C   0  0  0  0  0  0
    3.5202   12.6765   17.4439 C   0  0  0  0  0  0
    4.7855   12.1090   17.4955 C   0  0  0  0  0  0
    5.2017   11.2537   16.4853 C   0  0  0  0  0  0
    2.1399   11.3331   14.2034 N   0  3  0  0  0  0
    1.1231   12.0191   14.1545 O   0  0  0  0  0  0
    2.3919   10.5122   13.3420 O   0  5  0  0  0  0
    0.7021    7.3544   17.2120 N   0  3  0  0  0  0
   -0.3215    7.2261   16.5427 O   0  0  0  0  0  0
    1.2363    8.4466   17.3421 O   0  5  0  0  0  0
    3.0886    8.1558   18.5390 H   0  0  0  0  0  0
    3.7749    7.0088   20.6615 H   0  0  0  0  0  0
    8.0173    8.4087   22.3435 H   0  0  0  0  0  0
    9.2180    9.1645   20.3752 H   0  0  0  0  0  0
    8.2043    8.9996   18.1579 H   0  0  0  0  0  0
    5.0497    6.1004   17.4137 H   0  0  0  0  0  0
    5.1176    9.0983   17.5857 H   0  0  0  0  0  0
    7.0741    8.9913   16.0581 H   0  0  0  0  0  0
    5.5926    7.3646   14.3389 H   0  0  0  0  0  0
    3.7634    6.4516   15.4356 H   0  0  0  0  0  0
    3.2465    8.0406   15.9245 H   0  0  0  0  0  0
    5.7758    7.0446   24.4103 H   0  0  0  0  0  0
    3.9163    4.7327   19.5322 H   0  0  0  0  0  0
    2.4275    2.8224   19.5925 H   0  0  0  0  0  0
    0.1810    2.9635   18.5591 H   0  0  0  0  0  0
   -0.5281    5.0063   17.4658 H   0  0  0  0  0  0
    1.7394   12.9072   16.3191 H   0  0  0  0  0  0
    3.2132   13.3760   18.2075 H   0  0  0  0  0  0
    5.4597   12.3690   18.2990 H   0  0  0  0  0  0
    6.2020   10.8632   16.5489 H   0  0  0  0  0  0
  1  9  1  0  0  0
  1  2  1  0  0  0
  1 20  1  0  0  0
  1 37  1  0  0  0
  2  4  1  0  0  0
  2 38  1  0  0  0
  3 10  1  0  0  0
  3  4  2  0  0  0
  3  8  1  0  0  0
  4  5  1  0  0  0
  5  6  2  0  0  0
  5 17  1  0  0  0
  6  7  1  0  0  0
  6 39  1  0  0  0
  7  8  2  0  0  0
  7 40  1  0  0  0
  8 41  1  0  0  0
  9 10  1  0  0  0
  9 13  1  0  0  0
  9 42  1  0  0  0
 10 11  1  0  0  0
 10 43  1  0  0  0
 11 12  1  0  0  0
 11 16  1  0  0  0
 11 44  1  0  0  0
 12 13  1  0  0  0
 12 14  1  0  0  0
 12 45  1  0  0  0
 13 46  1  0  0  0
 13 47  1  0  0  0
 14 15  1  0  0  0
 15 26  2  0  0  0
 15 30  1  0  0  0
 17 18  2  0  0  0
 17 19  1  0  0  0
 19 48  1  0  0  0
 20 21  2  0  0  0
 20 25  1  0  0  0
 21 22  1  0  0  0
 21 49  1  0  0  0
 22 23  2  0  0  0
 22 50  1  0  0  0
 23 24  1  0  0  0
 23 51  1  0  0  0
 24 25  2  0  0  0
 24 52  1  0  0  0
 25 34  1  0  0  0
 26 27  1  0  0  0
 26 31  1  0  0  0
 27 28  2  0  0  0
 27 53  1  0  0  0
 28 29  1  0  0  0
 28 54  1  0  0  0
 29 30  2  0  0  0
 29 55  1  0  0  0
 30 56  1  0  0  0
 31 32  2  0  0  0
 31 33  1  0  0  0
 34 35  2  0  0  0
 34 36  1  0  0  0
M  CHG  4  31   1  33  -1  34   1  36  -1
M  END
> <s_m_entry_id>
2540

> <s_m_entry_name>
dock_pv.68

> <s_m_Source_Path>
/home/csk/Desktop/cluster/DUD-E-result/fabp4

> <s_m_Source_File>
dock_pv.maegz

> <i_m_Source_File_Index>
68

> <chembl_id>
CHEMBL3827527

> <chembl_pref_name>
None

> <i_lp_mmshare_version>
53161

> <r_lp_tautomer_probability>
1

> <s_lp_Force_Field>
OPLS_2005

> <r_lp_Energy>
61.354655

> <b_lp_Chiralities_Consistent>
1

> <s_lp_Variant>
CHEMBL2083_lig202-17

> <s_i_glide_gridfile>
glide-grid_2nnq

> <i_i_glide_lignum>
392

> <i_i_glide_rotatable_bonds>
7

> <r_i_docking_score>
-7.42012777334107

> <r_i_glide_ligand_efficiency>
-0.206114660370585

> <r_i_glide_ligand_efficiency_sa>
-0.680575612661345

> <r_i_glide_ligand_efficiency_ln>
-1.6188714114576

> <r_i_glide_gscore>
-7.42012777334107

> <r_i_glide_lipo>
-3.53383054770594

> <r_i_glide_hbond>
0

> <r_i_glide_metal>
0

> <r_i_glide_rewards>
-1.11522379754434

> <r_i_glide_evdw>
-54.8967018127441

> <r_i_glide_ecoul>
-2.15934062004089

> <r_i_glide_erotb>
0.297662755552557

> <r_i_glide_esite>
0

> <r_i_glide_emodel>
-78.9312105120346

> <r_i_glide_energy>
-57.056042432785

> <r_i_glide_einternal>
7.85237836837769

> <i_i_glide_confnum>
21

> <i_i_glide_posenum>
248

> <r_i_glide_eff_state_penalty>
0

> <s_user_duplicate_titles>
CHEMBL2083_lig202

> <i_f3d_flags>
0

> <s_m_subgroup_title>
dock_pv

> <s_m_subgroupid>
dock_pv

> <b_m_subgroup_collapsed>
1

$$$$
CHEMBL2083_lig195
                    3D
 Schrodinger Suite 2021-1.
 56 61  0  0  1  0            999 V2000
    2.9954    6.1114   20.2925 C   0  0  0  0  0  0
    3.8249    6.3523   19.0751 N   0  0  0  0  0  0
    3.1226    6.8093   17.8469 C   0  0  1  0  0  0
    5.1209    6.9106   19.2098 C   0  0  0  0  0  0
    5.6185    7.3090   20.4811 C   0  0  0  0  0  0
    6.9257    7.7886   20.5949 C   0  0  0  0  0  0
    7.7671    7.8250   19.4979 C   0  0  0  0  0  0
    7.2954    7.4074   18.2648 C   0  0  0  0  0  0
    5.9709    6.9782   18.0807 C   0  0  0  0  0  0
    4.7241    7.1998   21.7004 C   0  0  1  0  0  0
    3.8619    5.9667   21.5409 C   0  0  1  0  0  0
    3.2970    5.7090   22.9190 C   0  0  0  0  0  0
    4.4961    6.1090   23.7420 C   0  0  0  0  0  0
    5.3301    6.9090   23.0532 C   0  0  0  0  0  0
    3.9317    6.5127   16.5402 C   0  0  2  0  0  0
    5.4927    6.5603   16.6849 C   0  0  1  0  0  0
    5.9887    7.4959   15.5549 C   0  0  2  0  0  0
    4.7912    8.4081   15.3276 C   0  0  2  0  0  0
    3.5799    7.4855   15.3837 C   0  0  0  0  0  0
    4.8882    9.5360   13.9162 S   0  0  0  0  0  0
    3.8412   10.8693   14.3967 C   0  0  0  0  0  0
    4.2544   11.8880   15.2721 C   0  0  0  0  0  0
    3.3572   12.9091   15.5970 C   0  0  0  0  0  0
    2.0664   12.9103   15.0706 C   0  0  0  0  0  0
    1.6776   11.9179   14.1751 C   0  0  0  0  0  0
    2.5735   10.9091   13.8351 C   0  0  0  0  0  0
    5.6328   11.9771   15.7651 N   0  3  0  0  0  0
    6.0524   11.1036   16.5185 O   0  0  0  0  0  0
    6.3072   12.9080   15.3420 O   0  5  0  0  0  0
    6.3201    6.5093   14.0985 Cl  0  0  0  0  0  0
    1.6831    6.2443   17.6743 C   0  0  0  0  0  0
    1.6074    4.9090   17.9308 O   0  0  0  0  0  0
    0.7371    6.9365   17.3064 O   0  0  0  0  0  0
    2.2754    6.9090   20.4395 H   0  0  0  0  0  0
    2.3546    5.2406   20.1687 H   0  0  0  0  0  0
    2.9635    7.8848   17.9509 H   0  0  0  0  0  0
    7.3099    8.1095   21.5513 H   0  0  0  0  0  0
    8.7881    8.1634   19.6044 H   0  0  0  0  0  0
    7.9973    7.4138   17.4445 H   0  0  0  0  0  0
    4.1312    8.1156   21.7511 H   0  0  0  0  0  0
    4.5147    5.1171   21.3420 H   0  0  0  0  0  0
    3.1200    4.6535   23.0882 H   0  0  0  0  0  0
    2.3875    6.2667   23.1456 H   0  0  0  0  0  0
    4.6231    5.7792   24.7618 H   0  0  0  0  0  0
    6.2299    7.3744   23.4265 H   0  0  0  0  0  0
    3.6978    5.5013   16.1974 H   0  0  0  0  0  0
    5.9066    5.5588   16.5543 H   0  0  0  0  0  0
    6.8626    8.0962   15.7974 H   0  0  0  0  0  0
    4.7083    9.0710   16.1895 H   0  0  0  0  0  0
    3.4459    6.9407   14.4469 H   0  0  0  0  0  0
    2.6667    8.0497   15.5811 H   0  0  0  0  0  0
    3.6692   13.7087   16.2568 H   0  0  0  0  0  0
    1.3841   13.7071   15.3275 H   0  0  0  0  0  0
    0.6960   11.9442   13.7277 H   0  0  0  0  0  0
    2.3200   10.1558   13.1110 H   0  0  0  0  0  0
    2.4474    4.5987   18.2741 H   0  0  0  0  0  0
  1 11  1  0  0  0
  1  2  1  0  0  0
  1 34  1  0  0  0
  1 35  1  0  0  0
  2  4  1  0  0  0
  2  3  1  0  0  0
  3 15  1  0  0  0
  3 31  1  0  0  0
  3 36  1  0  0  0
  4  5  2  0  0  0
  4  9  1  0  0  0
  5 10  1  0  0  0
  5  6  1  0  0  0
  6  7  2  0  0  0
  6 37  1  0  0  0
  7  8  1  0  0  0
  7 38  1  0  0  0
  8  9  2  0  0  0
  8 39  1  0  0  0
  9 16  1  0  0  0
 10 11  1  0  0  0
 10 14  1  0  0  0
 10 40  1  0  0  0
 11 12  1  0  0  0
 11 41  1  0  0  0
 12 13  1  0  0  0
 12 42  1  0  0  0
 12 43  1  0  0  0
 13 14  2  0  0  0
 13 44  1  0  0  0
 14 45  1  0  0  0
 15 16  1  0  0  0
 15 19  1  0  0  0
 15 46  1  0  0  0
 16 17  1  0  0  0
 16 47  1  0  0  0
 17 18  1  0  0  0
 17 30  1  0  0  0
 17 48  1  0  0  0
 18 19  1  0  0  0
 18 20  1  0  0  0
 18 49  1  0  0  0
 19 50  1  0  0  0
 19 51  1  0  0  0
 20 21  1  0  0  0
 21 22  2  0  0  0
 21 26  1  0  0  0
 22 23  1  0  0  0
 22 27  1  0  0  0
 23 24  2  0  0  0
 23 52  1  0  0  0
 24 25  1  0  0  0
 24 53  1  0  0  0
 25 26  2  0  0  0
 25 54  1  0  0  0
 26 55  1  0  0  0
 27 28  2  0  0  0
 27 29  1  0  0  0
 31 32  1  0  0  0
 31 33  2  0  0  0
 32 56  1  0  0  0
M  CHG  2  27   1  29  -1
M  END
> <s_m_entry_id>
2541

> <s_m_entry_name>
dock_pv.69

> <s_m_Source_Path>
/home/csk/Desktop/cluster/DUD-E-result/fabp4

> <s_m_Source_File>
dock_pv.maegz

> <i_m_Source_File_Index>
69

> <chembl_id>
CHEMBL3827833

> <chembl_pref_name>
None

> <i_lp_mmshare_version>
53161

> <r_lp_tautomer_probability>
1

> <s_lp_Force_Field>
OPLS_2005

> <r_lp_Energy>
90.915187

> <b_lp_Chiralities_Consistent>
1

> <s_lp_Variant>
CHEMBL2083_lig195-24

> <s_i_glide_gridfile>
glide-grid_2nnq

> <i_i_glide_lignum>
237

> <i_i_glide_rotatable_bonds>
5

> <r_i_docking_score>
-7.41540425908059

> <r_i_glide_ligand_efficiency>
-0.224709219972139

> <r_i_glide_ligand_efficiency_sa>
-0.72076253648717

> <r_i_glide_ligand_efficiency_ln>
-1.64914751231112

> <r_i_glide_gscore>
-7.41540425908059

> <r_i_glide_lipo>
-4.6810484353686

> <r_i_glide_hbond>
0

> <r_i_glide_metal>
0

> <r_i_glide_rewards>
-0.729924290070162

> <r_i_glide_evdw>
-43.1570854187012

> <r_i_glide_ecoul>
0.252214431762695

> <r_i_glide_erotb>
0.261038660338412

> <r_i_glide_esite>
-0.145448087809589

> <r_i_glide_emodel>
-42.0895105884896

> <r_i_glide_energy>
-42.9048709869385

> <r_i_glide_einternal>
2.57376742362976

> <i_i_glide_confnum>
20

> <i_i_glide_posenum>
90

> <r_i_glide_eff_state_penalty>
0

> <s_user_duplicate_titles>
CHEMBL2083_lig195

> <i_f3d_flags>
0

> <s_m_subgroup_title>
dock_pv

> <s_m_subgroupid>
dock_pv

> <b_m_subgroup_collapsed>
1

$$$$
CHEMBL2083_lig113
                    3D
 Schrodinger Suite 2021-1.
 56 61  0  0  1  0            999 V2000
    3.5374    5.5948   21.4063 C   0  0  0  0  0  0
    3.1551    6.1112   20.0326 C   0  0  0  0  0  0
    2.2112    5.4775   19.2169 C   0  0  0  0  0  0
    1.9564    6.3400   17.7374 S   0  0  0  0  0  0
    3.1061    7.5304   18.1998 C   0  0  0  0  0  0
    3.3280    8.6349   17.4106 N   0  0  0  0  0  0
    2.3490    9.4238   16.9387 C   0  0  0  0  0  0
    1.1388    9.2481   17.0735 O   0  0  0  0  0  0
    2.8589   10.5005   16.1495 C   0  0  0  0  0  0
    3.3273   11.7061   16.5915 C   0  0  0  0  0  0
    3.7354   12.6567   15.4469 C   0  0  2  0  0  0
    4.8366   11.9188   14.6296 C   0  0  0  0  0  0
    4.3146   10.5237   14.1554 C   0  0  0  0  0  0
    2.8467   10.3038   14.6282 C   0  0  1  0  0  0
    1.9229   11.4290   14.0910 C   0  0  0  0  0  0
    2.4675   12.8066   14.5551 C   0  0  0  0  0  0
    3.4260   12.1557   17.9691 C   0  0  0  0  0  0
    3.7369   11.4442   18.9237 O   0  0  0  0  0  0
    3.1200   13.4755   18.0923 O   0  0  0  0  0  0
    3.7860    7.1796   19.3570 C   0  0  0  0  0  0
    4.9613    7.9096   19.7924 C   0  0  0  0  0  0
    5.9618    8.1765   19.0038 N   0  0  0  0  0  0
    6.8220    8.9559   19.6245 C   0  0  0  0  0  0
    6.6475    9.3181   20.8788 N   0  0  0  0  0  0
    5.1532    8.6237   21.3419 S   0  0  0  0  0  0
    7.9973    9.5011   18.8495 C   0  0  0  0  0  0
    7.8780    9.7327   17.3610 C   0  0  0  0  0  0
    7.9506   10.9090   18.3087 C   0  0  0  0  0  0
    1.4701    4.1929   19.4648 C   0  0  0  0  0  0
    0.3698    3.7090   18.5420 C   0  0  0  0  0  0
    1.7398    3.0574   18.5420 C   0  0  0  0  0  0
    4.5500    5.8579   21.7091 H   0  0  0  0  0  0
    2.8510    5.9461   22.1768 H   0  0  0  0  0  0
    3.5200    4.5089   21.4425 H   0  0  0  0  0  0
    4.2810    8.9502   17.3107 H   0  0  0  0  0  0
    4.0979   13.6305   15.7854 H   0  0  0  0  0  0
    5.7361   11.8030   15.2366 H   0  0  0  0  0  0
    5.1296   12.5241   13.7693 H   0  0  0  0  0  0
    4.3723   10.4442   13.0694 H   0  0  0  0  0  0
    4.9558    9.7322   14.5458 H   0  0  0  0  0  0
    2.4863    9.3185   14.3231 H   0  0  0  0  0  0
    0.9012   11.3122   14.4559 H   0  0  0  0  0  0
    1.8590   11.3814   13.0023 H   0  0  0  0  0  0
    1.6973   13.4105   15.0383 H   0  0  0  0  0  0
    2.7536   13.3090   13.6494 H   0  0  0  0  0  0
    3.3437   13.8142   18.9603 H   0  0  0  0  0  0
    8.9641    9.1492   19.2135 H   0  0  0  0  0  0
    8.7318    9.4774   16.7395 H   0  0  0  0  0  0
    6.9313    9.5258   16.8615 H   0  0  0  0  0  0
    7.0578   11.5100   18.4924 H   0  0  0  0  0  0
    8.8581   11.5116   18.3436 H   0  0  0  0  0  0
    1.3114    3.9696   20.5192 H   0  0  0  0  0  0
   -0.4800    3.2212   19.0141 H   0  0  0  0  0  0
    0.0613    4.2923   17.6729 H   0  0  0  0  0  0
    2.4622    3.2491   17.7542 H   0  0  0  0  0  0
    1.8598    2.0707   18.9412 H   0  0  0  0  0  0
  1  2  1  0  0  0
  1 32  1  0  0  0
  1 33  1  0  0  0
  1 34  1  0  0  0
  2  3  2  0  0  0
  2 20  1  0  0  0
  3  4  1  0  0  0
  3 29  1  0  0  0
  4  5  1  0  0  0
  5  6  1  0  0  0
  5 20  2  0  0  0
  6  7  1  0  0  0
  6 35  1  0  0  0
  7  8  2  0  0  0
  7  9  1  0  0  0
  9 10  2  0  0  0
  9 14  1  0  0  0
 10 11  1  0  0  0
 10 17  1  0  0  0
 11 12  1  0  0  0
 11 16  1  0  0  0
 11 36  1  0  0  0
 12 13  1  0  0  0
 12 37  1  0  0  0
 12 38  1  0  0  0
 13 14  1  0  0  0
 13 39  1  0  0  0
 13 40  1  0  0  0
 14 15  1  0  0  0
 14 41  1  0  0  0
 15 16  1  0  0  0
 15 42  1  0  0  0
 15 43  1  0  0  0
 16 44  1  0  0  0
 16 45  1  0  0  0
 17 18  2  0  0  0
 17 19  1  0  0  0
 19 46  1  0  0  0
 20 21  1  0  0  0
 21 22  2  0  0  0
 21 25  1  0  0  0
 22 23  1  0  0  0
 23 24  2  0  0  0
 23 26  1  0  0  0
 24 25  1  0  0  0
 26 27  1  0  0  0
 26 28  1  0  0  0
 26 47  1  0  0  0
 27 28  1  0  0  0
 27 48  1  0  0  0
 27 49  1  0  0  0
 28 50  1  0  0  0
 28 51  1  0  0  0
 29 30  1  0  0  0
 29 31  1  0  0  0
 29 52  1  0  0  0
 30 31  1  0  0  0
 30 53  1  0  0  0
 30 54  1  0  0  0
 31 55  1  0  0  0
 31 56  1  0  0  0
M  END
> <s_m_entry_id>
2542

> <s_m_entry_name>
dock_pv.70

> <s_m_Source_Path>
/home/csk/Desktop/cluster/DUD-E-result/fabp4

> <s_m_Source_File>
dock_pv.maegz

> <i_m_Source_File_Index>
70

> <chembl_id>
CHEMBL3923099

> <chembl_pref_name>
None

> <i_lp_mmshare_version>
53161

> <r_lp_tautomer_probability>
1

> <s_lp_Force_Field>
OPLS_2005

> <r_lp_Energy>
52.834148

> <b_lp_Chiralities_Consistent>
1

> <s_lp_Variant>
CHEMBL2083_lig113-1

> <s_i_glide_gridfile>
glide-grid_2nnq

> <i_i_glide_lignum>
123

> <i_i_glide_rotatable_bonds>
8

> <r_i_docking_score>
-7.40807430189635

> <r_i_glide_ligand_efficiency>
-0.23897013877085

> <r_i_glide_ligand_efficiency_sa>
-0.750696169574741

> <r_i_glide_ligand_efficiency_ln>
-1.67074778528968

> <r_i_glide_gscore>
-7.40807430189635

> <r_i_glide_lipo>
-3.8500890040842

> <r_i_glide_hbond>
-0.182193908719558

> <r_i_glide_metal>
0

> <r_i_glide_rewards>
-0.846260956684025

> <r_i_glide_evdw>
-49.9940757751465

> <r_i_glide_ecoul>
-4.40115594863892

> <r_i_glide_erotb>
0.677527644436245

> <r_i_glide_esite>
-0.0471808957916525

> <r_i_glide_emodel>
-70.5211377124206

> <r_i_glide_energy>
-54.3952317237854

> <r_i_glide_einternal>
7.58274269104004

> <i_i_glide_confnum>
73

> <i_i_glide_posenum>
158

> <r_i_glide_eff_state_penalty>
0

> <s_user_duplicate_titles>
CHEMBL2083_lig113

> <i_f3d_flags>
0

> <s_m_subgroup_title>
dock_pv

> <s_m_subgroupid>
dock_pv

> <b_m_subgroup_collapsed>
1

$$$$
CHEMBL2083_lig108
                    3D
 Schrodinger Suite 2021-1.
 45 48  0  0  1  0            999 V2000
    7.4431    5.2044   14.7896 C   0  0  0  0  0  0
    6.3375    5.9169   15.5270 C   0  0  0  0  0  0
    5.4866    5.2094   16.2473 N   0  0  0  0  0  0
    4.3777    6.3421   16.8933 S   0  0  0  0  0  0
    5.1993    7.6356   16.0887 C   0  0  0  0  0  0
    6.2225    7.2250   15.3908 N   0  0  0  0  0  0
    4.7888    9.0264   16.1945 C   0  0  0  0  0  0
    4.2231    9.7681   15.1314 C   0  0  0  0  0  0
    3.9352    9.2049   13.7459 C   0  0  0  0  0  0
    3.8398   11.0564   15.5274 C   0  0  0  0  0  0
    4.3468   11.3877   17.1619 S   0  0  0  0  0  0
    4.9200    9.7620   17.3717 C   0  0  0  0  0  0
    5.4934    9.2980   18.5505 N   0  0  0  0  0  0
    5.1077    9.5725   19.8138 C   0  0  0  0  0  0
    4.3201   10.4573   20.1416 O   0  0  0  0  0  0
    5.6378    8.6397   20.7906 C   0  0  0  0  0  0
    6.9501    8.4459   21.1002 C   0  0  0  0  0  0
    7.1196    7.3461   22.1340 C   0  0  0  0  0  0
    5.6932    6.9941   22.5419 C   0  0  0  0  0  0
    4.7387    7.7093   21.5876 C   0  0  0  0  0  0
    8.0658    9.1819   20.5414 C   0  0  0  0  0  0
    8.7202   10.0164   21.1628 O   0  0  0  0  0  0
    8.3535    8.7969   19.2688 O   0  0  0  0  0  0
    3.0848   12.0898   14.7127 C   0  0  0  0  0  0
    1.6105   11.8727   14.4664 C   0  0  0  0  0  0
    2.0730   13.0184   15.3383 C   0  0  0  0  0  0
    7.5567    5.6328   13.7922 H   0  0  0  0  0  0
    8.4107    5.3077   15.2829 H   0  0  0  0  0  0
    7.2257    4.1556   14.5909 H   0  0  0  0  0  0
    3.1181    9.7193   13.2406 H   0  0  0  0  0  0
    4.8123    9.2594   13.1014 H   0  0  0  0  0  0
    3.6389    8.1556   13.7907 H   0  0  0  0  0  0
    6.1709    8.5571   18.4460 H   0  0  0  0  0  0
    7.7170    7.6585   22.9922 H   0  0  0  0  0  0
    7.6064    6.4836   21.6802 H   0  0  0  0  0  0
    5.5300    5.9155   22.5410 H   0  0  0  0  0  0
    5.5092    7.3197   23.5681 H   0  0  0  0  0  0
    4.2375    7.0047   20.9214 H   0  0  0  0  0  0
    3.9693    8.2510   22.1410 H   0  0  0  0  0  0
    9.1239    9.2756   18.9552 H   0  0  0  0  0  0
    3.6632   12.5037   13.8848 H   0  0  0  0  0  0
    1.2063   12.0877   13.4757 H   0  0  0  0  0  0
    1.1216   11.0232   14.9424 H   0  0  0  0  0  0
    1.9193   12.9785   16.4151 H   0  0  0  0  0  0
    1.9807   14.0309   14.9438 H   0  0  0  0  0  0
  1  2  1  0  0  0
  1 27  1  0  0  0
  1 28  1  0  0  0
  1 29  1  0  0  0
  2  3  2  0  0  0
  2  6  1  0  0  0
  3  4  1  0  0  0
  4  5  1  0  0  0
  5  6  2  0  0  0
  5  7  1  0  0  0
  7  8  1  0  0  0
  7 12  2  0  0  0
  8  9  1  0  0  0
  8 10  2  0  0  0
  9 30  1  0  0  0
  9 31  1  0  0  0
  9 32  1  0  0  0
 10 11  1  0  0  0
 10 24  1  0  0  0
 11 12  1  0  0  0
 12 13  1  0  0  0
 13 14  1  0  0  0
 13 33  1  0  0  0
 14 15  2  0  0  0
 14 16  1  0  0  0
 16 17  2  0  0  0
 16 20  1  0  0  0
 17 18  1  0  0  0
 17 21  1  0  0  0
 18 19  1  0  0  0
 18 34  1  0  0  0
 18 35  1  0  0  0
 19 20  1  0  0  0
 19 36  1  0  0  0
 19 37  1  0  0  0
 20 38  1  0  0  0
 20 39  1  0  0  0
 21 22  2  0  0  0
 21 23  1  0  0  0
 23 40  1  0  0  0
 24 25  1  0  0  0
 24 26  1  0  0  0
 24 41  1  0  0  0
 25 26  1  0  0  0
 25 42  1  0  0  0
 25 43  1  0  0  0
 26 44  1  0  0  0
 26 45  1  0  0  0
M  END
> <s_m_entry_id>
2543

> <s_m_entry_name>
dock_pv.71

> <s_m_Source_Path>
/home/csk/Desktop/cluster/DUD-E-result/fabp4

> <s_m_Source_File>
dock_pv.maegz

> <i_m_Source_File_Index>
71

> <chembl_id>
CHEMBL3957282

> <chembl_pref_name>
None

> <i_lp_mmshare_version>
53161

> <r_lp_tautomer_probability>
1

> <s_lp_Force_Field>
OPLS_2005

> <r_lp_Energy>
39.797695

> <b_lp_Chiralities_Consistent>
1

> <s_lp_Variant>
CHEMBL2083_lig108-1

> <s_i_glide_gridfile>
glide-grid_2nnq

> <i_i_glide_lignum>
118

> <i_i_glide_rotatable_bonds>
7

> <r_i_docking_score>
-7.39619488408176

> <r_i_glide_ligand_efficiency>
-0.284469034003145

> <r_i_glide_ligand_efficiency_sa>
-0.842738393902717

> <r_i_glide_ligand_efficiency_ln>
-1.73697209963173

> <r_i_glide_gscore>
-7.39619488408176

> <r_i_glide_lipo>
-2.79281351994414

> <r_i_glide_hbond>
-0.655923676098502

> <r_i_glide_metal>
0

> <r_i_glide_rewards>
-1.33043664139909

> <r_i_glide_evdw>
-47.5575485229492

> <r_i_glide_ecoul>
-6.73447179794312

> <r_i_glide_erotb>
0.771027149198903

> <r_i_glide_esite>
0

> <r_i_glide_emodel>
-74.3786972414217

> <r_i_glide_energy>
-54.2920203208923

> <r_i_glide_einternal>
8.25896167755127

> <i_i_glide_confnum>
62

> <i_i_glide_posenum>
364

> <r_i_glide_eff_state_penalty>
0

> <s_user_duplicate_titles>
CHEMBL2083_lig108

> <i_f3d_flags>
0

> <s_m_subgroup_title>
dock_pv

> <s_m_subgroupid>
dock_pv

> <b_m_subgroup_collapsed>
1

$$$$
CHEMBL2083_lig109
                    3D
 Schrodinger Suite 2021-1.
 48 51  0  0  1  0            999 V2000
    7.5196    5.1568   14.8234 C   0  0  0  0  0  0
    6.3539    5.8167   15.5145 C   0  0  0  0  0  0
    5.4709    5.0657   16.1445 N   0  0  0  0  0  0
    4.3006    6.1528   16.7626 S   0  0  0  0  0  0
    5.1523    7.4933   16.0731 C   0  0  0  0  0  0
    6.2233    7.1259   15.4279 N   0  0  0  0  0  0
    4.7195    8.8744   16.2012 C   0  0  0  0  0  0
    4.1793    9.6278   15.1355 C   0  0  0  0  0  0
    3.9187    9.0726   13.7478 C   0  0  0  0  0  0
    3.7965   10.9152   15.5281 C   0  0  0  0  0  0
    4.2631   11.2246   17.1748 S   0  0  0  0  0  0
    4.8085    9.5904   17.3927 C   0  0  0  0  0  0
    5.3277    9.0997   18.5864 N   0  0  0  0  0  0
    5.0471    9.5030   19.8432 C   0  0  0  0  0  0
    4.3195   10.4499   20.1413 O   0  0  0  0  0  0
    5.6345    8.6539   20.8678 C   0  0  0  0  0  0
    6.9745    8.5865   21.1463 C   0  0  0  0  0  0
    7.5200    7.7009   22.2644 C   0  0  0  0  0  0
    6.4764    7.3077   23.2999 C   0  0  0  0  0  0
    5.1859    6.8201   22.6371 C   0  0  0  0  0  0
    4.5844    7.8479   21.6573 C   0  0  0  0  0  0
    8.0158    9.3138   20.4403 C   0  0  0  0  0  0
    8.7201   10.1752   20.9586 O   0  0  0  0  0  0
    8.1975    8.8659   19.1656 O   0  0  0  0  0  0
    3.0696   11.9626   14.7087 C   0  0  0  0  0  0
    1.5962   11.7749   14.4614 C   0  0  0  0  0  0
    2.0785   12.9132   15.3302 C   0  0  0  0  0  0
    7.6538    5.6019   13.8370 H   0  0  0  0  0  0
    8.4655    5.3089   15.3425 H   0  0  0  0  0  0
    7.3592    4.1016   14.6137 H   0  0  0  0  0  0
    3.1379    9.6141   13.2140 H   0  0  0  0  0  0
    4.8189    9.0871   13.1304 H   0  0  0  0  0  0
    3.5841    8.0355   13.7817 H   0  0  0  0  0  0
    5.9377    8.2991   18.4999 H   0  0  0  0  0  0
    8.3830    8.1346   22.7751 H   0  0  0  0  0  0
    7.8766    6.7748   21.8114 H   0  0  0  0  0  0
    6.3183    8.1102   24.0085 H   0  0  0  0  0  0
    6.8943    6.5141   23.9024 H   0  0  0  0  0  0
    5.3935    5.8870   22.1165 H   0  0  0  0  0  0
    4.4496    6.5604   23.3980 H   0  0  0  0  0  0
    3.8851    7.3358   20.9939 H   0  0  0  0  0  0
    3.9796    8.5472   22.2355 H   0  0  0  0  0  0
    8.9206    9.3490   18.7626 H   0  0  0  0  0  0
    3.6565   12.3557   13.8780 H   0  0  0  0  0  0
    1.1978   11.9964   13.4711 H   0  0  0  0  0  0
    1.0995   10.9337   14.9421 H   0  0  0  0  0  0
    1.9204   12.8735   16.4075 H   0  0  0  0  0  0
    2.0132   13.9296   14.9405 H   0  0  0  0  0  0
  1  2  1  0  0  0
  1 28  1  0  0  0
  1 29  1  0  0  0
  1 30  1  0  0  0
  2  3  2  0  0  0
  2  6  1  0  0  0
  3  4  1  0  0  0
  4  5  1  0  0  0
  5  6  2  0  0  0
  5  7  1  0  0  0
  7  8  1  0  0  0
  7 12  2  0  0  0
  8  9  1  0  0  0
  8 10  2  0  0  0
  9 31  1  0  0  0
  9 32  1  0  0  0
  9 33  1  0  0  0
 10 11  1  0  0  0
 10 25  1  0  0  0
 11 12  1  0  0  0
 12 13  1  0  0  0
 13 14  1  0  0  0
 13 34  1  0  0  0
 14 15  2  0  0  0
 14 16  1  0  0  0
 16 17  2  0  0  0
 16 21  1  0  0  0
 17 18  1  0  0  0
 17 22  1  0  0  0
 18 19  1  0  0  0
 18 35  1  0  0  0
 18 36  1  0  0  0
 19 20  1  0  0  0
 19 37  1  0  0  0
 19 38  1  0  0  0
 20 21  1  0  0  0
 20 39  1  0  0  0
 20 40  1  0  0  0
 21 41  1  0  0  0
 21 42  1  0  0  0
 22 23  2  0  0  0
 22 24  1  0  0  0
 24 43  1  0  0  0
 25 26  1  0  0  0
 25 27  1  0  0  0
 25 44  1  0  0  0
 26 27  1  0  0  0
 26 45  1  0  0  0
 26 46  1  0  0  0
 27 47  1  0  0  0
 27 48  1  0  0  0
M  END
> <s_m_entry_id>
2544

> <s_m_entry_name>
dock_pv.72

> <s_m_Source_Path>
/home/csk/Desktop/cluster/DUD-E-result/fabp4

> <s_m_Source_File>
dock_pv.maegz

> <i_m_Source_File_Index>
72

> <chembl_id>
CHEMBL3929717

> <chembl_pref_name>
None

> <i_lp_mmshare_version>
53161

> <r_lp_tautomer_probability>
1

> <s_lp_Force_Field>
OPLS_2005

> <r_lp_Energy>
31.194863

> <b_lp_Chiralities_Consistent>
1

> <s_lp_Variant>
CHEMBL2083_lig109-1

> <s_i_glide_gridfile>
glide-grid_2nnq

> <i_i_glide_lignum>
119

> <i_i_glide_rotatable_bonds>
7

> <r_i_docking_score>
-7.39265191931635

> <r_i_glide_ligand_efficiency>
-0.273801922937643

> <r_i_glide_ligand_efficiency_sa>
-0.821405767910521

> <r_i_glide_ligand_efficiency_ln>
-1.72088748942472

> <r_i_glide_gscore>
-7.39265191931635

> <r_i_glide_lipo>
-2.99556330005563

> <r_i_glide_hbond>
-0.703743417027796

> <r_i_glide_metal>
0

> <r_i_glide_rewards>
-1.23701782055199

> <r_i_glide_evdw>
-44.6078224182129

> <r_i_glide_ecoul>
-6.32953453063965

> <r_i_glide_erotb>
0.723493918825653

> <r_i_glide_esite>
0

> <r_i_glide_emodel>
-71.7479060750429

> <r_i_glide_energy>
-50.9373569488525

> <r_i_glide_einternal>
2.8508620262146

> <i_i_glide_confnum>
93

> <i_i_glide_posenum>
347

> <r_i_glide_eff_state_penalty>
0

> <s_user_duplicate_titles>
CHEMBL2083_lig109

> <i_f3d_flags>
0

> <s_m_subgroup_title>
dock_pv

> <s_m_subgroupid>
dock_pv

> <b_m_subgroup_collapsed>
1

$$$$
CHEMBL2083_lig54
                    3D
 Schrodinger Suite 2021-1.
 45 48  0  0  1  0            999 V2000
    3.1861    9.1051   15.7568 F   0  0  0  0  0  0
    4.3857    9.3510   15.2280 C   0  0  0  0  0  0
    4.8493   10.5082   15.7033 F   0  0  0  0  0  0
    4.2274    9.4999   13.9094 F   0  0  0  0  0  0
    5.3572    8.2106   15.5761 C   0  0  0  0  0  0
    5.8140    7.3739   14.5440 C   0  0  0  0  0  0
    6.7201    6.3474   14.7983 C   0  0  0  0  0  0
    7.1985    6.1469   16.0886 C   0  0  0  0  0  0
    6.7490    6.9583   17.1259 C   0  0  0  0  0  0
    5.8183    7.9847   16.8977 C   0  0  0  0  0  0
    5.3227    8.8118   18.0998 C   0  0  0  0  0  0
    5.0563    8.0235   19.3133 N   0  0  0  0  0  0
    3.9690    7.1699   19.4040 C   0  0  0  0  0  0
    2.8921    6.9894   18.3313 C   0  0  0  0  0  0
    1.7182    6.1627   18.9095 C   0  0  0  0  0  0
    2.1941    4.9757   19.7698 C   0  0  0  0  0  0
    2.9869    5.4370   21.0153 C   0  0  0  0  0  0
    3.9865    6.5099   20.6149 C   0  0  0  0  0  0
    5.8337    7.9118   20.4819 C   0  0  0  0  0  0
    5.1028    7.0152   21.3406 C   0  0  0  0  0  0
    5.5686    6.7393   22.6312 C   0  0  0  0  0  0
    6.7624    7.3007   23.0535 C   0  0  0  0  0  0
    7.4964    8.1093   22.2068 C   0  0  0  0  0  0
    7.0661    8.4728   20.9248 C   0  0  0  0  0  0
    7.9275    9.4441   20.1654 C   0  0  0  0  0  0
    8.3201    9.0209   18.9362 O   0  0  0  0  0  0
    8.3189   10.4978   20.6674 O   0  0  0  0  0  0
    5.4666    7.5056   13.5274 H   0  0  0  0  0  0
    7.0519    5.7103   13.9915 H   0  0  0  0  0  0
    7.9113    5.3587   16.2897 H   0  0  0  0  0  0
    7.1268    6.7751   18.1229 H   0  0  0  0  0  0
    4.3925    9.3237   17.8655 H   0  0  0  0  0  0
    6.0104    9.6240   18.3141 H   0  0  0  0  0  0
    2.5164    7.9456   17.9665 H   0  0  0  0  0  0
    3.3123    6.4628   17.4748 H   0  0  0  0  0  0
    1.0876    6.8100   19.5207 H   0  0  0  0  0  0
    1.0832    5.8079   18.0976 H   0  0  0  0  0  0
    1.3444    4.3649   20.0806 H   0  0  0  0  0  0
    2.8185    4.3207   19.1605 H   0  0  0  0  0  0
    3.5200    4.5872   21.4441 H   0  0  0  0  0  0
    2.3204    5.8079   21.7928 H   0  0  0  0  0  0
    5.0197    6.0772   23.2858 H   0  0  0  0  0  0
    7.1364    7.0924   24.0457 H   0  0  0  0  0  0
    8.4269    8.5079   22.5905 H   0  0  0  0  0  0
    8.9115    9.6704   18.5502 H   0  0  0  0  0  0
  1  2  1  0  0  0
  2  3  1  0  0  0
  2  4  1  0  0  0
  2  5  1  0  0  0
  5  6  2  0  0  0
  5 10  1  0  0  0
  6  7  1  0  0  0
  6 28  1  0  0  0
  7  8  2  0  0  0
  7 29  1  0  0  0
  8  9  1  0  0  0
  8 30  1  0  0  0
  9 10  2  0  0  0
  9 31  1  0  0  0
 10 11  1  0  0  0
 11 12  1  0  0  0
 11 32  1  0  0  0
 11 33  1  0  0  0
 12 13  1  0  0  0
 12 19  1  0  0  0
 13 14  1  0  0  0
 13 18  2  0  0  0
 14 15  1  0  0  0
 14 34  1  0  0  0
 14 35  1  0  0  0
 15 16  1  0  0  0
 15 36  1  0  0  0
 15 37  1  0  0  0
 16 17  1  0  0  0
 16 38  1  0  0  0
 16 39  1  0  0  0
 17 18  1  0  0  0
 17 40  1  0  0  0
 17 41  1  0  0  0
 18 20  1  0  0  0
 19 24  1  0  0  0
 19 20  2  0  0  0
 20 21  1  0  0  0
 21 22  2  0  0  0
 21 42  1  0  0  0
 22 23  1  0  0  0
 22 43  1  0  0  0
 23 24  2  0  0  0
 23 44  1  0  0  0
 24 25  1  0  0  0
 25 27  2  0  0  0
 25 26  1  0  0  0
 26 45  1  0  0  0
M  END
> <s_m_entry_id>
2545

> <s_m_entry_name>
dock_pv.73

> <s_m_Source_Path>
/home/csk/Desktop/cluster/DUD-E-result/fabp4

> <s_m_Source_File>
dock_pv.maegz

> <i_m_Source_File_Index>
73

> <chembl_id>
CHEMBL474942

> <chembl_pref_name>
None

> <i_lp_mmshare_version>
53161

> <r_lp_tautomer_probability>
1

> <s_lp_Force_Field>
OPLS_2005

> <r_lp_Energy>
26.511235

> <b_lp_Chiralities_Consistent>
1

> <s_lp_Variant>
CHEMBL2083_lig54-1

> <s_i_glide_gridfile>
glide-grid_2nnq

> <i_i_glide_lignum>
64

> <i_i_glide_rotatable_bonds>
5

> <r_i_docking_score>
-7.39237383909248

> <r_i_glide_ligand_efficiency>
-0.273791623670092

> <r_i_glide_ligand_efficiency_sa>
-0.821374870107904

> <r_i_glide_ligand_efficiency_ln>
-1.72082275693312

> <r_i_glide_gscore>
-7.39237383909248

> <r_i_glide_lipo>
-3.3415188590916

> <r_i_glide_hbond>
-0.386096812445088

> <r_i_glide_metal>
0

> <r_i_glide_rewards>
-1.84095740139937

> <r_i_glide_evdw>
-35.4362602233887

> <r_i_glide_ecoul>
-3.06741452217102

> <r_i_glide_erotb>
0.415863366692752

> <r_i_glide_esite>
-0.00773894335409372

> <r_i_glide_emodel>
-54.2170280819771

> <r_i_glide_energy>
-38.5036747455597

> <r_i_glide_einternal>
2.38161730766296

> <i_i_glide_confnum>
31

> <i_i_glide_posenum>
292

> <r_i_glide_eff_state_penalty>
0

> <s_user_duplicate_titles>
CHEMBL2083_lig54,457638

> <i_f3d_flags>
0

> <s_m_subgroup_title>
dock_pv

> <s_m_subgroupid>
dock_pv

> <b_m_subgroup_collapsed>
1

$$$$
CHEMBL2083_lig30
                    3D
 Schrodinger Suite 2021-1.
 49 52  0  0  1  0            999 V2000
    4.6778    7.3077   13.3420 O   0  0  0  0  0  0
    5.7061    7.4692   14.1982 C   0  0  0  0  0  0
    6.7200    8.1090   13.9294 O   0  0  0  0  0  0
    5.5300    6.6933   15.4601 C   0  0  0  0  0  0
    4.3314    6.6516   16.2251 C   0  0  0  0  0  0
    4.2351    5.7822   17.3525 C   0  0  0  0  0  0
    2.9393    5.9204   17.9232 C   0  0  0  0  0  0
    2.4474    5.1674   19.1420 C   0  0  0  0  0  0
    1.1803    4.3407   18.8852 C   0  0  0  0  0  0
    0.0367    5.0636   18.1420 C   0  0  0  0  0  0
   -0.0541    6.5980   18.3251 C   0  0  0  0  0  0
    0.8315    7.3794   17.3410 C   0  0  0  0  0  0
    2.2620    6.8659   17.1718 C   0  0  0  0  0  0
    5.3279    4.9868   17.7096 C   0  0  0  0  0  0
    6.5176    5.0928   17.0067 C   0  0  0  0  0  0
    6.6120    5.9287   15.9097 C   0  0  0  0  0  0
    3.1081    7.3479   16.1815 N   0  0  0  0  0  0
    2.7506    8.4978   15.3187 C   0  0  0  0  0  0
    3.5352    9.7919   15.5394 C   0  0  0  0  0  0
    4.6201    9.8593   16.4205 C   0  0  0  0  0  0
    5.3312   11.0429   16.6111 C   0  0  0  0  0  0
    6.5262   11.0273   17.5225 C   0  0  0  0  0  0
    6.7200   12.1090   18.2587 N   0  0  0  0  0  0
    7.2749   10.0555   17.5934 O   0  0  0  0  0  0
    4.9188   12.2000   15.9333 C   0  0  0  0  0  0
    3.8310   12.1489   15.0608 C   0  0  0  0  0  0
    3.1499   10.9492   14.8557 C   0  0  0  0  0  0
    4.8754    7.7335   12.5023 H   0  0  0  0  0  0
    2.2473    5.8806   19.9427 H   0  0  0  0  0  0
    3.2136    4.5078   19.5496 H   0  0  0  0  0  0
    0.8177    3.9659   19.8433 H   0  0  0  0  0  0
    1.4460    3.4451   18.3216 H   0  0  0  0  0  0
   -0.8800    4.5949   18.4776 H   0  0  0  0  0  0
    0.1018    4.8506   17.0782 H   0  0  0  0  0  0
    0.1909    6.9087   19.3420 H   0  0  0  0  0  0
   -1.0895    6.9110   18.1786 H   0  0  0  0  0  0
    0.8357    8.4313   17.6301 H   0  0  0  0  0  0
    0.3243    7.3370   16.3768 H   0  0  0  0  0  0
    5.2475    4.3078   18.5420 H   0  0  0  0  0  0
    7.3749    4.5090   17.3120 H   0  0  0  0  0  0
    7.5529    5.9575   15.3756 H   0  0  0  0  0  0
    1.7098    8.7644   15.4729 H   0  0  0  0  0  0
    2.7619    8.1928   14.2783 H   0  0  0  0  0  0
    4.9319    8.9901   16.9774 H   0  0  0  0  0  0
    7.5228   12.1850   18.8703 H   0  0  0  0  0  0
    6.1549   12.9494   18.1420 H   0  0  0  0  0  0
    5.4374   13.1402   16.0678 H   0  0  0  0  0  0
    3.5140   13.0404   14.5420 H   0  0  0  0  0  0
    2.3131   10.9274   14.1724 H   0  0  0  0  0  0
  1  2  1  0  0  0
  1 28  1  0  0  0
  2  3  2  0  0  0
  2  4  1  0  0  0
  4  5  2  0  0  0
  4 16  1  0  0  0
  5 17  1  0  0  0
  5  6  1  0  0  0
  6  7  1  0  0  0
  6 14  2  0  0  0
  7 13  2  0  0  0
  7  8  1  0  0  0
  8  9  1  0  0  0
  8 29  1  0  0  0
  8 30  1  0  0  0
  9 10  1  0  0  0
  9 31  1  0  0  0
  9 32  1  0  0  0
 10 11  1  0  0  0
 10 33  1  0  0  0
 10 34  1  0  0  0
 11 12  1  0  0  0
 11 35  1  0  0  0
 11 36  1  0  0  0
 12 13  1  0  0  0
 12 37  1  0  0  0
 12 38  1  0  0  0
 13 17  1  0  0  0
 14 15  1  0  0  0
 14 39  1  0  0  0
 15 16  2  0  0  0
 15 40  1  0  0  0
 16 41  1  0  0  0
 17 18  1  0  0  0
 18 19  1  0  0  0
 18 42  1  0  0  0
 18 43  1  0  0  0
 19 20  2  0  0  0
 19 27  1  0  0  0
 20 21  1  0  0  0
 20 44  1  0  0  0
 21 22  1  0  0  0
 21 25  2  0  0  0
 22 23  1  0  0  0
 22 24  2  0  0  0
 23 45  1  0  0  0
 23 46  1  0  0  0
 25 26  1  0  0  0
 25 47  1  0  0  0
 26 27  2  0  0  0
 26 48  1  0  0  0
 27 49  1  0  0  0
M  END
> <s_m_entry_id>
2546

> <s_m_entry_name>
dock_pv.74

> <s_m_Source_Path>
/home/csk/Desktop/cluster/DUD-E-result/fabp4

> <s_m_Source_File>
dock_pv.maegz

> <i_m_Source_File_Index>
74

> <chembl_id>
CHEMBL516023

> <chembl_pref_name>
None

> <i_lp_mmshare_version>
53161

> <r_lp_tautomer_probability>
1

> <s_lp_Force_Field>
OPLS_2005

> <r_lp_Energy>
26.68261

> <b_lp_Chiralities_Consistent>
1

> <s_lp_Variant>
CHEMBL2083_lig30-1

> <s_i_glide_gridfile>
glide-grid_2nnq

> <i_i_glide_lignum>
40

> <i_i_glide_rotatable_bonds>
5

> <r_i_docking_score>
-7.38891500923346

> <r_i_glide_ligand_efficiency>
-0.273663518860498

> <r_i_glide_ligand_efficiency_sa>
-0.820990555679545

> <r_i_glide_ligand_efficiency_ln>
-1.7200175983652

> <r_i_glide_gscore>
-7.38891500923346

> <r_i_glide_lipo>
-2.75698272640444

> <r_i_glide_hbond>
-0.531534247052974

> <r_i_glide_metal>
0

> <r_i_glide_rewards>
-1.21762383326235

> <r_i_glide_evdw>
-32.7987480163574

> <r_i_glide_ecoul>
-10.2125911712646

> <r_i_glide_erotb>
0.438566023126752

> <r_i_glide_esite>
-0.149514149132883

> <r_i_glide_emodel>
-62.4336453644539

> <r_i_glide_energy>
-43.0113391876221

> <r_i_glide_einternal>
4.57929229736328

> <i_i_glide_confnum>
10

> <i_i_glide_posenum>
375

> <r_i_glide_eff_state_penalty>
0

> <s_user_duplicate_titles>
CHEMBL2083_lig30,457642

> <i_f3d_flags>
0

> <s_m_subgroup_title>
dock_pv

> <s_m_subgroupid>
dock_pv

> <b_m_subgroup_collapsed>
1

$$$$
CHEMBL2083_lig125
                    3D
 Schrodinger Suite 2021-1.
 46 50  0  0  1  0            999 V2000
    8.7821    8.1678   19.7404 O   0  0  0  0  0  0
    8.1503    8.9402   20.6625 C   0  0  0  0  0  0
    8.4974   10.0865   20.9419 O   0  0  0  0  0  0
    7.0055    8.2617   21.2373 C   0  0  0  0  0  0
    5.7031    8.5326   20.9423 C   0  0  0  0  0  0
    4.7604    7.6491   21.7413 C   0  0  0  0  0  0
    5.6814    6.9093   22.7093 C   0  0  0  0  0  0
    7.1197    7.1413   22.2567 C   0  0  0  0  0  0
    5.2270    9.4964   19.9671 C   0  0  0  0  0  0
    4.3211   10.2884   20.2283 O   0  0  0  0  0  0
    5.8164    9.4005   18.7589 N   0  0  0  0  0  0
    5.4821   10.2246   17.7149 C   0  0  0  0  0  0
    6.5549   11.5221   17.3423 S   0  0  0  0  0  0
    5.4776   12.0288   16.0915 C   0  0  0  0  0  0
    4.3395   11.2350   15.9584 C   0  0  0  0  0  0
    3.2587   11.5008   14.9272 C   0  0  0  0  0  0
    1.8404   11.8746   15.3114 C   0  0  0  0  0  0
    2.7696   12.9092   14.7468 C   0  0  0  0  0  0
    4.3539   10.1736   16.8937 C   0  0  0  0  0  0
    3.3126    9.1641   17.0325 C   0  0  0  0  0  0
    3.6469    7.9030   17.4088 O   0  0  0  0  0  0
    2.4365    7.2164   17.4740 N   0  0  0  0  0  0
    1.5589    8.1378   17.1272 C   0  0  0  0  0  0
    2.0344    9.3255   16.8499 N   0  0  0  0  0  0
    0.0682    7.8982   17.0788 C   0  0  0  0  0  0
   -0.4790    6.5090   16.9113 C   0  0  0  0  0  0
   -0.6154    7.2244   18.2375 C   0  0  0  0  0  0
    9.5601    8.6260   19.4116 H   0  0  0  0  0  0
    4.2433    6.9589   21.0724 H   0  0  0  0  0  0
    3.9966    8.2137   22.2788 H   0  0  0  0  0  0
    5.4390    5.8486   22.7667 H   0  0  0  0  0  0
    5.5473    7.3080   23.7177 H   0  0  0  0  0  0
    7.7657    7.3918   23.1008 H   0  0  0  0  0  0
    7.5246    6.2495   21.7793 H   0  0  0  0  0  0
    6.5571    8.7298   18.6235 H   0  0  0  0  0  0
    5.7172   12.9093   15.5154 H   0  0  0  0  0  0
    3.3619   10.8981   14.0247 H   0  0  0  0  0  0
    1.0197   11.5092   14.6923 H   0  0  0  0  0  0
    1.5513   11.9629   16.3586 H   0  0  0  0  0  0
    3.1481   13.6965   15.4017 H   0  0  0  0  0  0
    2.6015   13.2770   13.7421 H   0  0  0  0  0  0
   -0.4928    8.7007   16.5955 H   0  0  0  0  0  0
   -1.3440    6.3922   16.2601 H   0  0  0  0  0  0
    0.2164    5.6757   16.8358 H   0  0  0  0  0  0
    0.0036    6.9365   19.0866 H   0  0  0  0  0  0
   -1.6019    7.5711   18.5419 H   0  0  0  0  0  0
  1  2  1  0  0  0
  1 28  1  0  0  0
  2  3  2  0  0  0
  2  4  1  0  0  0
  4  5  2  0  0  0
  4  8  1  0  0  0
  5  6  1  0  0  0
  5  9  1  0  0  0
  6  7  1  0  0  0
  6 29  1  0  0  0
  6 30  1  0  0  0
  7  8  1  0  0  0
  7 31  1  0  0  0
  7 32  1  0  0  0
  8 33  1  0  0  0
  8 34  1  0  0  0
  9 10  2  0  0  0
  9 11  1  0  0  0
 11 12  1  0  0  0
 11 35  1  0  0  0
 12 13  1  0  0  0
 12 19  2  0  0  0
 13 14  1  0  0  0
 14 15  2  0  0  0
 14 36  1  0  0  0
 15 16  1  0  0  0
 15 19  1  0  0  0
 16 17  1  0  0  0
 16 18  1  0  0  0
 16 37  1  0  0  0
 17 18  1  0  0  0
 17 38  1  0  0  0
 17 39  1  0  0  0
 18 40  1  0  0  0
 18 41  1  0  0  0
 19 20  1  0  0  0
 20 21  1  0  0  0
 20 24  2  0  0  0
 21 22  1  0  0  0
 22 23  2  0  0  0
 23 24  1  0  0  0
 23 25  1  0  0  0
 25 26  1  0  0  0
 25 27  1  0  0  0
 25 42  1  0  0  0
 26 27  1  0  0  0
 26 43  1  0  0  0
 26 44  1  0  0  0
 27 45  1  0  0  0
 27 46  1  0  0  0
M  END
> <s_m_entry_id>
2547

> <s_m_entry_name>
dock_pv.75

> <s_m_Source_Path>
/home/csk/Desktop/cluster/DUD-E-result/fabp4

> <s_m_Source_File>
dock_pv.maegz

> <i_m_Source_File_Index>
75

> <chembl_id>
CHEMBL3903803

> <chembl_pref_name>
None

> <i_lp_mmshare_version>
53161

> <r_lp_tautomer_probability>
1

> <s_lp_Force_Field>
OPLS_2005

> <r_lp_Energy>
40.168024

> <b_lp_Chiralities_Consistent>
1

> <s_lp_Variant>
CHEMBL2083_lig125-1

> <s_i_glide_gridfile>
glide-grid_2nnq

> <i_i_glide_lignum>
135

> <i_i_glide_rotatable_bonds>
8

> <r_i_docking_score>
-7.38205489031278

> <r_i_glide_ligand_efficiency>
-0.273409440381955

> <r_i_glide_ligand_efficiency_sa>
-0.820228320244752

> <r_i_glide_ligand_efficiency_ln>
-1.71842067577837

> <r_i_glide_gscore>
-7.38205489031278

> <r_i_glide_lipo>
-2.99559932842867

> <r_i_glide_hbond>
-0.610866057782439

> <r_i_glide_metal>
0

> <r_i_glide_rewards>
-1.44747063125054

> <r_i_glide_evdw>
-45.776237487793

> <r_i_glide_ecoul>
-6.37266063690186

> <r_i_glide_erotb>
0.916592097073798

> <r_i_glide_esite>
0

> <r_i_glide_emodel>
-69.1230163015931

> <r_i_glide_energy>
-52.1488981246948

> <r_i_glide_einternal>
12.1460752487183

> <i_i_glide_confnum>
149

> <i_i_glide_posenum>
209

> <r_i_glide_eff_state_penalty>
0

> <s_user_duplicate_titles>
CHEMBL2083_lig125

> <i_f3d_flags>
0

> <s_m_subgroup_title>
dock_pv

> <s_m_subgroupid>
dock_pv

> <b_m_subgroup_collapsed>
1

$$$$
CHEMBL2083_lig188
                    3D
 Schrodinger Suite 2021-1.
 53 57  0  0  1  0            999 V2000
    4.3350   10.8999   15.8368 C   0  0  0  0  0  0
    4.3026   11.8706   14.8257 C   0  0  0  0  0  0
    3.1135   12.1886   14.1766 C   0  0  0  0  0  0
    1.9283   11.5682   14.5486 C   0  0  0  0  0  0
    1.9420   10.6044   15.5536 C   0  0  0  0  0  0
    3.1315   10.2513   16.1973 C   0  0  0  0  0  0
    5.6396   10.5832   16.4831 C   0  0  0  0  0  0
    6.4021   11.6022   17.0605 C   0  0  0  0  0  0
    7.5958   11.3090   17.7139 C   0  0  0  0  0  0
    8.0205    9.9887   17.8282 C   0  0  0  0  0  0
    7.2854    8.9522   17.2571 C   0  0  0  0  0  0
    6.1174    9.2655   16.5461 C   0  0  0  0  0  0
    7.7459    7.6653   17.4470 O   0  0  0  0  0  0
    6.7812    6.6154   17.6096 C   0  0  0  0  0  0
    6.8136    5.6542   16.4204 C   0  0  0  0  0  0
    7.9922    5.7091   15.7445 O   0  0  0  0  0  0
    5.8765    4.9094   16.1427 O   0  0  0  0  0  0
    3.0559    9.1543   17.2155 C   0  0  0  0  0  0
    3.6822    9.2175   18.3667 N   0  0  0  0  0  0
    3.6045    7.9956   18.9343 N   0  0  0  0  0  0
    2.7895    7.1594   18.1841 C   0  0  0  0  0  0
    2.4130    7.9260   17.0893 C   0  0  0  0  0  0
    4.3723    7.7522   20.1140 C   0  0  0  0  0  0
    3.9225    6.9090   21.1436 C   0  0  0  0  0  0
    4.6936    6.7409   22.2957 C   0  0  0  0  0  0
    5.9137    7.4069   22.4174 C   0  0  0  0  0  0
    6.3798    8.2206   21.3943 C   0  0  0  0  0  0
    5.6070    8.4025   20.2595 C   0  0  0  0  0  0
    2.4330    5.7833   18.4565 C   0  0  0  0  0  0
    0.8093    5.2454   18.1418 S   0  0  0  0  0  0
    1.1779    3.6703   18.7465 C   0  0  0  0  0  0
    2.5068    3.5540   19.1170 C   0  0  0  0  0  0
    3.2195    4.7388   18.9291 C   0  0  0  0  0  0
    6.8448    7.3089   23.8636 Cl  0  0  0  0  0  0
    5.2103   12.3716   14.5232 H   0  0  0  0  0  0
    3.1171   12.9097   13.3750 H   0  0  0  0  0  0
    1.0059   11.8217   14.0455 H   0  0  0  0  0  0
    1.0220   10.1091   15.8173 H   0  0  0  0  0  0
    6.0582   12.6270   17.0237 H   0  0  0  0  0  0
    8.1773   12.1091   18.1419 H   0  0  0  0  0  0
    8.9106    9.7660   18.3933 H   0  0  0  0  0  0
    5.5424    8.4783   16.0817 H   0  0  0  0  0  0
    5.7613    6.9660   17.7524 H   0  0  0  0  0  0
    7.0378    6.0644   18.5143 H   0  0  0  0  0  0
    8.5672    6.3671   16.1493 H   0  0  0  0  0  0
    1.8080    7.5989   16.2551 H   0  0  0  0  0  0
    2.9631    6.4173   21.0796 H   0  0  0  0  0  0
    4.3364    6.1193   23.1033 H   0  0  0  0  0  0
    7.3211    8.7385   21.4934 H   0  0  0  0  0  0
    5.9728    9.0776   19.5040 H   0  0  0  0  0  0
    0.4137    2.9100   18.7886 H   0  0  0  0  0  0
    2.9435    2.6459   19.5057 H   0  0  0  0  0  0
    4.2686    4.8414   19.1557 H   0  0  0  0  0  0
  1  7  1  0  0  0
  1  6  1  0  0  0
  1  2  2  0  0  0
  2  3  1  0  0  0
  2 35  1  0  0  0
  3  4  2  0  0  0
  3 36  1  0  0  0
  4  5  1  0  0  0
  4 37  1  0  0  0
  5  6  2  0  0  0
  5 38  1  0  0  0
  6 18  1  0  0  0
  7 12  1  0  0  0
  7  8  2  0  0  0
  8  9  1  0  0  0
  8 39  1  0  0  0
  9 10  2  0  0  0
  9 40  1  0  0  0
 10 11  1  0  0  0
 10 41  1  0  0  0
 11 12  2  0  0  0
 11 13  1  0  0  0
 12 42  1  0  0  0
 13 14  1  0  0  0
 14 15  1  0  0  0
 14 43  1  0  0  0
 14 44  1  0  0  0
 15 17  2  0  0  0
 15 16  1  0  0  0
 16 45  1  0  0  0
 18 19  2  0  0  0
 18 22  1  0  0  0
 19 20  1  0  0  0
 20 21  1  0  0  0
 20 23  1  0  0  0
 21 22  2  0  0  0
 21 29  1  0  0  0
 22 46  1  0  0  0
 23 24  2  0  0  0
 23 28  1  0  0  0
 24 25  1  0  0  0
 24 47  1  0  0  0
 25 26  2  0  0  0
 25 48  1  0  0  0
 26 27  1  0  0  0
 26 34  1  0  0  0
 27 28  2  0  0  0
 27 49  1  0  0  0
 28 50  1  0  0  0
 29 30  1  0  0  0
 29 33  2  0  0  0
 30 31  1  0  0  0
 31 32  2  0  0  0
 31 51  1  0  0  0
 32 33  1  0  0  0
 32 52  1  0  0  0
 33 53  1  0  0  0
M  END
> <s_m_entry_id>
2548

> <s_m_entry_name>
dock_pv.76

> <s_m_Source_Path>
/home/csk/Desktop/cluster/DUD-E-result/fabp4

> <s_m_Source_File>
dock_pv.maegz

> <i_m_Source_File_Index>
76

> <chembl_id>
CHEMBL1782966

> <chembl_pref_name>
None

> <i_lp_mmshare_version>
53161

> <r_lp_tautomer_probability>
1

> <s_lp_Force_Field>
OPLS_2005

> <r_lp_Energy>
30.289013

> <b_lp_Chiralities_Consistent>
1

> <s_lp_Variant>
CHEMBL2083_lig188-1

> <s_i_glide_gridfile>
glide-grid_2nnq

> <i_i_glide_lignum>
205

> <i_i_glide_rotatable_bonds>
8

> <r_i_docking_score>
-7.37877244797075

> <r_i_glide_ligand_efficiency>
-0.217022719057963

> <r_i_glide_ligand_efficiency_sa>
-0.70306936097908

> <r_i_glide_ligand_efficiency_ln>
-1.63017780131345

> <r_i_glide_gscore>
-7.37877244797075

> <r_i_glide_lipo>
-4.39657165368303

> <r_i_glide_hbond>
-0.00525538137639422

> <r_i_glide_metal>
0

> <r_i_glide_rewards>
-0.465922184601161

> <r_i_glide_evdw>
-50.8541946411133

> <r_i_glide_ecoul>
-3.78870749473572

> <r_i_glide_erotb>
0.599992627955854

> <r_i_glide_esite>
0

> <r_i_glide_emodel>
-75.3481297171094

> <r_i_glide_energy>
-54.642902135849

> <r_i_glide_einternal>
3.62276124954224

> <i_i_glide_confnum>
117

> <i_i_glide_posenum>
230

> <r_i_glide_eff_state_penalty>
0

> <s_user_duplicate_titles>
CHEMBL2083_lig188

> <i_f3d_flags>
0

> <s_m_subgroup_title>
dock_pv

> <s_m_subgroupid>
dock_pv

> <b_m_subgroup_collapsed>
1

$$$$
CHEMBL2083_lig92
                    3D
 Schrodinger Suite 2021-1.
 52 55  0  0  1  0            999 V2000
    7.8234    7.5329   23.7417 C   0  0  0  0  0  0
    6.9970    7.6042   22.5899 O   0  0  0  0  0  0
    5.7461    7.0726   22.5998 C   0  0  0  0  0  0
    5.2450    6.5090   23.5709 O   0  0  0  0  0  0
    5.0409    7.2397   21.3200 C   0  0  0  0  0  0
    5.5630    8.4889   20.2336 S   0  0  0  0  0  0
    4.2996    8.0898   19.1223 C   0  0  0  0  0  0
    4.0236    8.9476   18.0780 N   0  0  0  0  0  0
    4.8913    9.5292   17.2357 C   0  0  0  0  0  0
    6.0998    9.2978   17.1821 O   0  0  0  0  0  0
    4.2344   10.4274   16.3116 C   0  0  0  0  0  0
    3.5204   11.5714   16.5862 C   0  0  0  0  0  0
    2.8999   12.2315   15.3232 C   0  0  2  0  0  0
    1.9664   11.1617   14.6870 C   0  0  0  0  0  0
    2.7675    9.8500   14.4014 C   0  0  0  0  0  0
    4.2542   10.0104   14.8312 C   0  0  1  0  0  0
    4.8765   11.1940   14.0562 C   0  0  0  0  0  0
    4.0745   12.5073   14.3345 C   0  0  0  0  0  0
    3.2496   12.1450   17.9028 C   0  0  0  0  0  0
    3.1202   11.4941   18.9372 O   0  0  0  0  0  0
    3.1200   13.5005   17.8867 O   0  0  0  0  0  0
    3.5198    6.9990   19.5383 C   0  0  0  0  0  0
    3.9236    6.5297   20.8254 C   0  0  0  0  0  0
    3.1869    5.4628   21.6258 C   0  0  0  0  0  0
    2.3623    6.4462   18.7593 C   0  0  0  0  0  0
    1.9984    5.1845   18.8127 N   0  0  0  0  0  0
    0.8899    4.9283   18.1419 C   0  0  0  0  0  0
    0.3543    3.5191   18.2262 C   0  0  0  0  0  0
    0.3459    6.0102   17.4598 C   0  0  0  0  0  0
    1.3177    7.4101   17.7420 S   0  0  0  0  0  0
    8.7183    8.1370   23.5913 H   0  0  0  0  0  0
    7.2986    7.9029   24.6244 H   0  0  0  0  0  0
    8.1433    6.5089   23.9324 H   0  0  0  0  0  0
    3.0519    9.1872   17.9529 H   0  0  0  0  0  0
    2.3371   13.1443   15.5233 H   0  0  0  0  0  0
    1.1201   10.9556   15.3426 H   0  0  0  0  0  0
    1.5348   11.5486   13.7604 H   0  0  0  0  0  0
    2.7207    9.6175   13.3382 H   0  0  0  0  0  0
    2.3190    9.0001   14.9197 H   0  0  0  0  0  0
    4.8093    9.0889   14.6443 H   0  0  0  0  0  0
    5.9190   11.3351   14.3350 H   0  0  0  0  0  0
    4.8701   10.9201   13.0034 H   0  0  0  0  0  0
    3.6844   12.9086   13.3975 H   0  0  0  0  0  0
    4.7348   13.2754   14.7412 H   0  0  0  0  0  0
    3.6323   13.9161   17.1860 H   0  0  0  0  0  0
    3.1004    5.7284   22.6776 H   0  0  0  0  0  0
    2.1539    5.3091   21.3263 H   0  0  0  0  0  0
    3.7120    4.5091   21.5937 H   0  0  0  0  0  0
   -0.4553    3.3459   17.5162 H   0  0  0  0  0  0
   -0.0452    3.3092   19.2191 H   0  0  0  0  0  0
    1.1210    2.7698   18.0276 H   0  0  0  0  0  0
   -0.5417    6.0648   16.8504 H   0  0  0  0  0  0
  1  2  1  0  0  0
  1 31  1  0  0  0
  1 32  1  0  0  0
  1 33  1  0  0  0
  2  3  1  0  0  0
  3  4  2  0  0  0
  3  5  1  0  0  0
  5  6  1  0  0  0
  5 23  2  0  0  0
  6  7  1  0  0  0
  7  8  1  0  0  0
  7 22  2  0  0  0
  8  9  1  0  0  0
  8 34  1  0  0  0
  9 10  2  0  0  0
  9 11  1  0  0  0
 11 12  2  0  0  0
 11 16  1  0  0  0
 12 13  1  0  0  0
 12 19  1  0  0  0
 13 14  1  0  0  0
 13 18  1  0  0  0
 13 35  1  0  0  0
 14 15  1  0  0  0
 14 36  1  0  0  0
 14 37  1  0  0  0
 15 16  1  0  0  0
 15 38  1  0  0  0
 15 39  1  0  0  0
 16 17  1  0  0  0
 16 40  1  0  0  0
 17 18  1  0  0  0
 17 41  1  0  0  0
 17 42  1  0  0  0
 18 43  1  0  0  0
 18 44  1  0  0  0
 19 20  2  0  0  0
 19 21  1  0  0  0
 21 45  1  0  0  0
 22 23  1  0  0  0
 22 25  1  0  0  0
 23 24  1  0  0  0
 24 46  1  0  0  0
 24 47  1  0  0  0
 24 48  1  0  0  0
 25 26  2  0  0  0
 25 30  1  0  0  0
 26 27  1  0  0  0
 27 28  1  0  0  0
 27 29  2  0  0  0
 28 49  1  0  0  0
 28 50  1  0  0  0
 28 51  1  0  0  0
 29 30  1  0  0  0
 29 52  1  0  0  0
M  END
> <s_m_entry_id>
2549

> <s_m_entry_name>
dock_pv.77

> <s_m_Source_Path>
/home/csk/Desktop/cluster/DUD-E-result/fabp4

> <s_m_Source_File>
dock_pv.maegz

> <i_m_Source_File_Index>
77

> <chembl_id>
CHEMBL3964559

> <chembl_pref_name>
None

> <i_lp_mmshare_version>
53161

> <r_lp_tautomer_probability>
1

> <s_lp_Force_Field>
OPLS_2005

> <r_lp_Energy>
53.350849

> <b_lp_Chiralities_Consistent>
1

> <s_lp_Variant>
CHEMBL2083_lig92-1

> <s_i_glide_gridfile>
glide-grid_2nnq

> <i_i_glide_lignum>
102

> <i_i_glide_rotatable_bonds>
8

> <r_i_docking_score>
-7.36639524436042

> <r_i_glide_ligand_efficiency>
-0.245546508145347

> <r_i_glide_ligand_efficiency_sa>
-0.762970090967683

> <r_i_glide_ligand_efficiency_ln>
-1.67372526282346

> <r_i_glide_gscore>
-7.36639524436042

> <r_i_glide_lipo>
-3.74533280407016

> <r_i_glide_hbond>
-0.23149877652405

> <r_i_glide_metal>
0

> <r_i_glide_rewards>
-0.90631230949113

> <r_i_glide_evdw>
-48.9426536560059

> <r_i_glide_ecoul>
-4.04581451416016

> <r_i_glide_erotb>
0.6023263582452

> <r_i_glide_esite>
-0.0315728525959578

> <r_i_glide_emodel>
-72.8301156686425

> <r_i_glide_energy>
-52.988468170166

> <r_i_glide_einternal>
6.21692895889282

> <i_i_glide_confnum>
41

> <i_i_glide_posenum>
109

> <r_i_glide_eff_state_penalty>
0

> <s_user_duplicate_titles>
CHEMBL2083_lig92

> <i_f3d_flags>
0

> <s_m_subgroup_title>
dock_pv

> <s_m_subgroupid>
dock_pv

> <b_m_subgroup_collapsed>
1

$$$$
CHEMBL2083_lig52
                    3D
 Schrodinger Suite 2021-1.
 42 45  0  0  1  0            999 V2000
    8.1732    8.2891   17.6687 C   0  0  0  0  0  0
    7.6704    7.6662   16.5393 C   0  0  0  0  0  0
    6.4596    6.9648   16.5384 C   0  0  0  0  0  0
    7.4943    8.2330   18.8747 C   0  0  0  0  0  0
    6.2675    7.5598   18.9378 C   0  0  0  0  0  0
    5.7247    6.9411   17.7564 C   0  0  0  0  0  0
    4.4763    6.4220   18.1443 N   0  0  0  0  0  0
    5.3817    7.3097   20.0259 C   0  0  0  0  0  0
    4.3114    6.6071   19.5076 C   0  0  0  0  0  0
    3.1758    6.0188   20.3468 C   0  0  0  0  0  0
    3.6078    5.9782   21.8291 C   0  0  0  0  0  0
    4.2565    7.2990   22.2825 C   0  0  0  0  0  0
    5.5444    7.6476   21.5038 C   0  0  0  0  0  0
    3.4441    5.7774   17.3169 C   0  0  0  0  0  0
    2.1078    6.5205   17.3183 C   0  0  0  0  0  0
    0.9278    5.8872   17.7344 C   0  0  0  0  0  0
   -0.2771    6.5904   17.7490 C   0  0  0  0  0  0
   -0.3188    7.9240   17.3485 C   0  0  0  0  0  0
    0.8513    8.5598   16.9386 C   0  0  0  0  0  0
    2.0584    7.8615   16.9184 C   0  0  0  0  0  0
    6.0561    6.2972   15.2596 C   0  0  0  0  0  0
    5.9177    4.9448   15.3420 O   0  0  0  0  0  0
    5.9341    6.9222   14.2097 O   0  0  0  0  0  0
    0.9437    4.5964   18.1406 F   0  0  0  0  0  0
    9.1197    8.8018   17.6102 H   0  0  0  0  0  0
    8.2656    7.7133   15.6375 H   0  0  0  0  0  0
    7.9113    8.6991   19.7551 H   0  0  0  0  0  0
    2.2844    6.6375   20.2483 H   0  0  0  0  0  0
    2.8960    5.0180   20.0171 H   0  0  0  0  0  0
    2.7451    5.7512   22.4573 H   0  0  0  0  0  0
    4.3141    5.1600   21.9838 H   0  0  0  0  0  0
    3.5354    8.1104   22.1847 H   0  0  0  0  0  0
    4.4970    7.2448   23.3418 H   0  0  0  0  0  0
    6.3844    7.0854   21.9142 H   0  0  0  0  0  0
    5.7857    8.7021   21.6444 H   0  0  0  0  0  0
    3.7522    5.7129   16.2816 H   0  0  0  0  0  0
    3.3334    4.7497   17.6647 H   0  0  0  0  0  0
   -1.1811    6.1052   18.0837 H   0  0  0  0  0  0
   -1.2562    8.4607   17.3602 H   0  0  0  0  0  0
    0.8237    9.5932   16.6279 H   0  0  0  0  0  0
    2.9578    8.3665   16.5949 H   0  0  0  0  0  0
    5.6292    4.6314   14.4700 H   0  0  0  0  0  0
  1  2  2  0  0  0
  1  4  1  0  0  0
  1 25  1  0  0  0
  2  3  1  0  0  0
  2 26  1  0  0  0
  3  6  2  0  0  0
  3 21  1  0  0  0
  4  5  2  0  0  0
  4 27  1  0  0  0
  5  8  1  0  0  0
  5  6  1  0  0  0
  6  7  1  0  0  0
  7 14  1  0  0  0
  7  9  1  0  0  0
  8 13  1  0  0  0
  8  9  2  0  0  0
  9 10  1  0  0  0
 10 11  1  0  0  0
 10 28  1  0  0  0
 10 29  1  0  0  0
 11 12  1  0  0  0
 11 30  1  0  0  0
 11 31  1  0  0  0
 12 13  1  0  0  0
 12 32  1  0  0  0
 12 33  1  0  0  0
 13 34  1  0  0  0
 13 35  1  0  0  0
 14 15  1  0  0  0
 14 36  1  0  0  0
 14 37  1  0  0  0
 15 16  2  0  0  0
 15 20  1  0  0  0
 16 17  1  0  0  0
 16 24  1  0  0  0
 17 18  2  0  0  0
 17 38  1  0  0  0
 18 19  1  0  0  0
 18 39  1  0  0  0
 19 20  2  0  0  0
 19 40  1  0  0  0
 20 41  1  0  0  0
 21 22  1  0  0  0
 21 23  2  0  0  0
 22 42  1  0  0  0
M  END
> <s_m_entry_id>
2550

> <s_m_entry_name>
dock_pv.78

> <s_m_Source_Path>
/home/csk/Desktop/cluster/DUD-E-result/fabp4

> <s_m_Source_File>
dock_pv.maegz

> <i_m_Source_File_Index>
78

> <chembl_id>
CHEMBL474743

> <chembl_pref_name>
None

> <i_lp_mmshare_version>
53161

> <r_lp_tautomer_probability>
1

> <s_lp_Force_Field>
OPLS_2005

> <r_lp_Energy>
23.438276

> <b_lp_Chiralities_Consistent>
1

> <s_lp_Variant>
CHEMBL2083_lig52-1

> <s_i_glide_gridfile>
glide-grid_2nnq

> <i_i_glide_lignum>
62

> <i_i_glide_rotatable_bonds>
4

> <r_i_docking_score>
-7.35566942544086

> <r_i_glide_ligand_efficiency>
-0.306486226060036

> <r_i_glide_ligand_efficiency_sa>
-0.884059254743923

> <r_i_glide_ligand_efficiency_ln>
-1.7605492231842

> <r_i_glide_gscore>
-7.35566942544086

> <r_i_glide_lipo>
-3.55677618629309

> <r_i_glide_hbond>
0

> <r_i_glide_metal>
0

> <r_i_glide_rewards>
-2.01354600067519

> <r_i_glide_evdw>
-34.6801338195801

> <r_i_glide_ecoul>
-3.92156958580017

> <r_i_glide_erotb>
0.536894890376446

> <r_i_glide_esite>
0

> <r_i_glide_emodel>
-53.1748048054257

> <r_i_glide_energy>
-38.6017034053802

> <r_i_glide_einternal>
4.15574312210083

> <i_i_glide_confnum>
43

> <i_i_glide_posenum>
367

> <r_i_glide_eff_state_penalty>
0

> <s_user_duplicate_titles>
CHEMBL2083_lig52,457635

> <i_f3d_flags>
0

> <s_m_subgroup_title>
dock_pv

> <s_m_subgroupid>
dock_pv

> <b_m_subgroup_collapsed>
1

$$$$
CHEMBL2083_lig28
                    3D
 Schrodinger Suite 2021-1.
 36 38  0  0  1  0            999 V2000
    5.6509    8.5605   20.5193 S   0  0  0  0  0  0
    4.4923    7.3092   20.7640 N   0  0  0  0  0  0
    6.6834    8.1064   19.0956 C   0  0  0  0  0  0
    7.6365    8.9943   18.5438 C   0  0  0  0  0  0
    3.5550    6.8194   19.8655 C   0  0  0  0  0  0
    4.3511    6.6623   21.9674 C   0  0  0  0  0  0
    7.9749   10.3250   19.1684 C   0  0  0  0  0  0
    3.3768    5.7038   21.8619 C   0  0  0  0  0  0
    6.5090    8.5444   21.7106 O   0  0  0  0  0  0
    4.8673    9.7431   20.1427 O   0  0  0  0  0  0
    2.8737    5.7476   20.5213 C   0  0  0  0  0  0
    3.2710    7.1784   18.5407 C   0  0  0  0  0  0
    8.0800   10.5081   20.3795 O   0  0  0  0  0  0
    1.9217    5.0111   19.7982 C   0  0  0  0  0  0
    2.3234    6.4096   17.8424 C   0  0  0  0  0  0
    8.1775   11.3094   18.2556 O   0  0  0  0  0  0
    8.3197    8.6155   17.3769 C   0  0  0  0  0  0
    1.6685    5.3534   18.4719 C   0  0  0  0  0  0
    6.4954    6.8590   18.4868 C   0  0  0  0  0  0
    1.9897    6.6147   16.5184 O   0  0  0  0  0  0
    2.6602    7.6320   15.7809 C   0  0  0  0  0  0
    8.0763    7.3937   16.7604 C   0  0  0  0  0  0
    7.1741    6.5052   17.3266 C   0  0  0  0  0  0
    4.9732    6.9367   22.8105 H   0  0  0  0  0  0
    3.0977    5.0410   22.6664 H   0  0  0  0  0  0
    3.7938    7.9971   18.0731 H   0  0  0  0  0  0
    1.3936    4.1895   20.2589 H   0  0  0  0  0  0
    8.3181   12.1594   18.7052 H   0  0  0  0  0  0
    9.0610    9.2682   16.9413 H   0  0  0  0  0  0
    0.9407    4.7838   17.9104 H   0  0  0  0  0  0
    5.8128    6.1335   18.8909 H   0  0  0  0  0  0
    2.3215    7.6138   14.7448 H   0  0  0  0  0  0
    2.4449    8.6227   16.1836 H   0  0  0  0  0  0
    3.7401    7.4745   15.7690 H   0  0  0  0  0  0
    8.6186    7.1231   15.8679 H   0  0  0  0  0  0
    7.0022    5.5410   16.8705 H   0  0  0  0  0  0
  1  2  1  0  0  0
  1  3  1  0  0  0
  1  9  2  0  0  0
  1 10  2  0  0  0
  2  5  1  0  0  0
  2  6  1  0  0  0
  3  4  2  0  0  0
  3 19  1  0  0  0
  4  7  1  0  0  0
  4 17  1  0  0  0
  5 11  1  0  0  0
  5 12  2  0  0  0
  6  8  2  0  0  0
  6 24  1  0  0  0
  7 13  2  0  0  0
  7 16  1  0  0  0
  8 11  1  0  0  0
  8 25  1  0  0  0
 11 14  2  0  0  0
 12 15  1  0  0  0
 12 26  1  0  0  0
 14 18  1  0  0  0
 14 27  1  0  0  0
 15 18  2  0  0  0
 15 20  1  0  0  0
 16 28  1  0  0  0
 17 22  2  0  0  0
 17 29  1  0  0  0
 18 30  1  0  0  0
 19 23  2  0  0  0
 19 31  1  0  0  0
 20 21  1  0  0  0
 21 32  1  0  0  0
 21 33  1  0  0  0
 21 34  1  0  0  0
 22 23  1  0  0  0
 22 35  1  0  0  0
 23 36  1  0  0  0
M  END
> <s_m_entry_id>
2551

> <s_m_entry_name>
dock_pv.79

> <s_m_Source_Path>
/home/csk/Desktop/cluster/DUD-E-result/fabp4

> <s_m_Source_File>
dock_pv.maegz

> <i_m_Source_File_Index>
79

> <chembl_id>
CHEMBL365508

> <chembl_pref_name>
None

> <i_lp_mmshare_version>
53161

> <r_lp_tautomer_probability>
1

> <s_lp_Force_Field>
OPLS_2005

> <r_lp_Energy>
13.533703

> <b_lp_Chiralities_Consistent>
1

> <s_lp_Variant>
CHEMBL2083_lig28-1

> <s_i_glide_gridfile>
glide-grid_2nnq

> <i_i_glide_lignum>
38

> <i_i_glide_rotatable_bonds>
5

> <r_i_docking_score>
-7.35469268145606

> <r_i_glide_ligand_efficiency>
-0.319769247019829

> <r_i_glide_ligand_efficiency_sa>
-0.909381201821237

> <r_i_glide_ligand_efficiency_ln>
-1.77843137904224

> <r_i_glide_gscore>
-7.35469268145606

> <r_i_glide_lipo>
-2.69174134178461

> <r_i_glide_hbond>
-0.115314869769921

> <r_i_glide_metal>
0

> <r_i_glide_rewards>
-1.89847721573219

> <r_i_glide_evdw>
-34.0001029968262

> <r_i_glide_ecoul>
-9.75610542297363

> <r_i_glide_erotb>
0.514261709118001

> <r_i_glide_esite>
0

> <r_i_glide_emodel>
-61.7762354959678

> <r_i_glide_energy>
-43.7562084197998

> <r_i_glide_einternal>
5.04322147369385

> <i_i_glide_confnum>
6

> <i_i_glide_posenum>
279

> <r_i_glide_eff_state_penalty>
0

> <s_user_duplicate_titles>
CHEMBL2083_lig28

> <i_f3d_flags>
0

> <s_m_subgroup_title>
dock_pv

> <s_m_subgroupid>
dock_pv

> <b_m_subgroup_collapsed>
1

$$$$
CHEMBL2083_lig198
                    3D
 Schrodinger Suite 2021-1.
 44 48  0  0  1  0            999 V2000
    5.2972    8.8460   17.1521 C   0  0  0  0  0  0
    4.9873    8.2782   18.4826 N   0  0  0  0  0  0
    5.9070    8.7523   19.5451 C   0  0  2  0  0  0
    4.0507    7.2234   18.6714 C   0  0  0  0  0  0
    3.2918    6.7530   17.5739 C   0  0  0  0  0  0
    2.4209    5.6764   17.7553 C   0  0  0  0  0  0
    2.2913    5.0566   18.9943 C   0  0  0  0  0  0
    2.9948    5.5601   20.0863 C   0  0  0  0  0  0
    3.8624    6.6491   19.9519 C   0  0  0  0  0  0
    3.4130    7.4862   16.2478 C   0  0  1  0  0  0
    4.8651    7.8785   16.0436 C   0  0  1  0  0  0
    4.9599    8.2665   14.5774 C   0  0  0  0  0  0
    3.9386    7.3075   13.9864 C   0  0  0  0  0  0
    3.1203    6.8044   14.9316 C   0  0  0  0  0  0
    5.9362    7.7544   20.7250 C   0  0  2  0  0  0
    4.5493    7.2965   21.1455 C   0  0  2  0  0  0
    4.8715    6.5153   22.4030 C   0  0  0  0  0  0
    6.0052    7.0065   22.9415 C   0  0  0  0  0  0
    6.6420    8.0520   22.0406 C   0  0  0  0  0  0
    5.4864   10.1747   19.9780 C   0  0  0  0  0  0
    6.5681   10.9880   20.1455 O   0  0  0  0  0  0
    4.3200   10.5276   20.1420 O   0  0  0  0  0  0
    1.3520    3.8728   19.1554 C   0  0  0  0  0  0
    4.6164    9.6837   16.9900 H   0  0  0  0  0  0
    6.3096    9.2421   17.0601 H   0  0  0  0  0  0
    6.9180    8.8557   19.1459 H   0  0  0  0  0  0
    1.8357    5.3155   16.9226 H   0  0  0  0  0  0
    2.8476    5.1125   21.0573 H   0  0  0  0  0  0
    2.7702    8.3661   16.3321 H   0  0  0  0  0  0
    5.4617    6.9722   16.1881 H   0  0  0  0  0  0
    5.9633    8.0865   14.1912 H   0  0  0  0  0  0
    4.7139    9.3141   14.3989 H   0  0  0  0  0  0
    3.9171    7.0634   12.9421 H   0  0  0  0  0  0
    2.2955    6.1267   14.7764 H   0  0  0  0  0  0
    6.4779    6.9091   20.3040 H   0  0  0  0  0  0
    3.9200    8.1414   21.4313 H   0  0  0  0  0  0
    4.2057    5.7910   22.8507 H   0  0  0  0  0  0
    6.4378    6.7349   23.8903 H   0  0  0  0  0  0
    7.7223    7.9374   21.9506 H   0  0  0  0  0  0
    6.4368    9.0588   22.3886 H   0  0  0  0  0  0
    6.3056   11.9027   20.2816 H   0  0  0  0  0  0
    1.0802    3.7069   20.1964 H   0  0  0  0  0  0
    0.4219    4.0444   18.6089 H   0  0  0  0  0  0
    1.8092    2.9632   18.7639 H   0  0  0  0  0  0
  1 11  1  0  0  0
  1  2  1  0  0  0
  1 24  1  0  0  0
  1 25  1  0  0  0
  2  4  1  0  0  0
  2  3  1  0  0  0
  3 15  1  0  0  0
  3 20  1  0  0  0
  3 26  1  0  0  0
  4  5  2  0  0  0
  4  9  1  0  0  0
  5 10  1  0  0  0
  5  6  1  0  0  0
  6  7  2  0  0  0
  6 27  1  0  0  0
  7  8  1  0  0  0
  7 23  1  0  0  0
  8  9  2  0  0  0
  8 28  1  0  0  0
  9 16  1  0  0  0
 10 11  1  0  0  0
 10 14  1  0  0  0
 10 29  1  0  0  0
 11 12  1  0  0  0
 11 30  1  0  0  0
 12 13  1  0  0  0
 12 31  1  0  0  0
 12 32  1  0  0  0
 13 14  2  0  0  0
 13 33  1  0  0  0
 14 34  1  0  0  0
 15 16  1  0  0  0
 15 19  1  0  0  0
 15 35  1  0  0  0
 16 17  1  0  0  0
 16 36  1  0  0  0
 17 18  2  0  0  0
 17 37  1  0  0  0
 18 19  1  0  0  0
 18 38  1  0  0  0
 19 39  1  0  0  0
 19 40  1  0  0  0
 20 21  1  0  0  0
 20 22  2  0  0  0
 21 41  1  0  0  0
 23 42  1  0  0  0
 23 43  1  0  0  0
 23 44  1  0  0  0
M  END
> <s_m_entry_id>
2552

> <s_m_entry_name>
dock_pv.80

> <s_m_Source_Path>
/home/csk/Desktop/cluster/DUD-E-result/fabp4

> <s_m_Source_File>
dock_pv.maegz

> <i_m_Source_File_Index>
80

> <chembl_id>
CHEMBL3827483

> <chembl_pref_name>
None

> <i_lp_mmshare_version>
53161

> <r_lp_tautomer_probability>
1

> <s_lp_Force_Field>
OPLS_2005

> <r_lp_Energy>
80.733204

> <b_lp_Chiralities_Consistent>
1

> <s_lp_Variant>
CHEMBL2083_lig198-7

> <s_i_glide_gridfile>
glide-grid_2nnq

> <i_i_glide_lignum>
316

> <i_i_glide_rotatable_bonds>
2

> <r_i_docking_score>
-7.3506904978583

> <r_i_glide_ligand_efficiency>
-0.319595239037317

> <r_i_glide_ligand_efficiency_sa>
-0.908886346266059

> <r_i_glide_ligand_efficiency_ln>
-1.7774636147585

> <r_i_glide_gscore>
-7.3506904978583

> <r_i_glide_lipo>
-3.19909565357148

> <r_i_glide_hbond>
-0.32

> <r_i_glide_metal>
0

> <r_i_glide_rewards>
-1.84371029581322

> <r_i_glide_evdw>
-31.2654476165771

> <r_i_glide_ecoul>
-4.13506746292114

> <r_i_glide_erotb>
0.195647951793434

> <r_i_glide_esite>
0

> <r_i_glide_emodel>
-49.327052960989

> <r_i_glide_energy>
-35.4005150794983

> <r_i_glide_einternal>
1.34347522258759

> <i_i_glide_confnum>
2

> <i_i_glide_posenum>
183

> <r_i_glide_eff_state_penalty>
0

> <s_user_duplicate_titles>
CHEMBL2083_lig198

> <i_f3d_flags>
0

> <s_m_subgroup_title>
dock_pv

> <s_m_subgroupid>
dock_pv

> <b_m_subgroup_collapsed>
1

$$$$
CHEMBL2083_lig34
                    3D
 Schrodinger Suite 2021-1.
 46 49  0  0  1  0            999 V2000
    8.2181    8.8372   18.4303 C   0  0  0  0  0  0
    7.8716    8.3117   17.1943 C   0  0  0  0  0  0
    6.7185    7.5411   16.9881 C   0  0  0  0  0  0
    7.4346    8.6004   19.5441 C   0  0  0  0  0  0
    6.2610    7.8540   19.4056 C   0  0  0  0  0  0
    5.8675    7.3491   18.1181 C   0  0  0  0  0  0
    4.6149    6.7401   18.3284 N   0  0  0  0  0  0
    5.3152    7.4208   20.3717 C   0  0  0  0  0  0
    4.3305    6.7368   19.6896 C   0  0  0  0  0  0
    3.2114    5.9599   20.3802 C   0  0  0  0  0  0
    3.5700    5.7362   21.8658 C   0  0  0  0  0  0
    4.0939    7.0123   22.5427 C   0  0  0  0  0  0
    5.3688    7.5817   21.8839 C   0  0  0  0  0  0
    3.7395    6.1165   17.3230 C   0  0  0  0  0  0
    2.2811    6.5727   17.3544 C   0  0  0  0  0  0
    1.2525    5.6998   17.7490 C   0  0  0  0  0  0
   -0.0708    6.1651   17.7429 C   0  0  0  0  0  0
   -0.3652    7.4671   17.3449 C   0  0  0  0  0  0
    0.6567    8.3190   16.9438 C   0  0  0  0  0  0
    1.9762    7.8769   16.9508 C   0  0  0  0  0  0
    6.4971    6.9947   15.6011 C   0  0  0  0  0  0
    6.2276    5.6598   15.5428 O   0  0  0  0  0  0
    6.6352    7.6921   14.5972 O   0  0  0  0  0  0
    1.6089    4.4234   18.1423 O   0  0  0  0  0  0
    0.6127    3.4568   18.4443 C   0  0  0  0  0  0
    9.1177    9.4195   18.5444 H   0  0  0  0  0  0
    8.5462    8.4975   16.3699 H   0  0  0  0  0  0
    7.7306    8.9804   20.5101 H   0  0  0  0  0  0
    2.2707    6.5058   20.3041 H   0  0  0  0  0  0
    3.0655    4.9858   19.9217 H   0  0  0  0  0  0
    2.6994    5.3616   22.4059 H   0  0  0  0  0  0
    4.3260    4.9536   21.9443 H   0  0  0  0  0  0
    3.3071    7.7683   22.5421 H   0  0  0  0  0  0
    4.3196    6.7946   23.5859 H   0  0  0  0  0  0
    6.2462    7.0651   22.2752 H   0  0  0  0  0  0
    5.4926    8.6327   22.1422 H   0  0  0  0  0  0
    4.0679    6.3927   16.3287 H   0  0  0  0  0  0
    3.8480    5.0337   17.3892 H   0  0  0  0  0  0
   -0.8799    5.5307   18.0634 H   0  0  0  0  0  0
   -1.3834    7.8206   17.3453 H   0  0  0  0  0  0
    0.4267    9.3210   16.6230 H   0  0  0  0  0  0
    2.7635    8.5498   16.6407 H   0  0  0  0  0  0
    6.0990    5.4005   14.6249 H   0  0  0  0  0  0
    1.1198    2.5098   18.6313 H   0  0  0  0  0  0
    0.0494    3.7092   19.3424 H   0  0  0  0  0  0
   -0.0789    3.3082   17.6130 H   0  0  0  0  0  0
  1  2  2  0  0  0
  1  4  1  0  0  0
  1 26  1  0  0  0
  2  3  1  0  0  0
  2 27  1  0  0  0
  3  6  2  0  0  0
  3 21  1  0  0  0
  4  5  2  0  0  0
  4 28  1  0  0  0
  5  8  1  0  0  0
  5  6  1  0  0  0
  6  7  1  0  0  0
  7 14  1  0  0  0
  7  9  1  0  0  0
  8  9  2  0  0  0
  8 13  1  0  0  0
  9 10  1  0  0  0
 10 11  1  0  0  0
 10 29  1  0  0  0
 10 30  1  0  0  0
 11 12  1  0  0  0
 11 31  1  0  0  0
 11 32  1  0  0  0
 12 13  1  0  0  0
 12 33  1  0  0  0
 12 34  1  0  0  0
 13 35  1  0  0  0
 13 36  1  0  0  0
 14 15  1  0  0  0
 14 37  1  0  0  0
 14 38  1  0  0  0
 15 16  2  0  0  0
 15 20  1  0  0  0
 16 17  1  0  0  0
 16 24  1  0  0  0
 17 18  2  0  0  0
 17 39  1  0  0  0
 18 19  1  0  0  0
 18 40  1  0  0  0
 19 20  2  0  0  0
 19 41  1  0  0  0
 20 42  1  0  0  0
 21 22  1  0  0  0
 21 23  2  0  0  0
 22 43  1  0  0  0
 24 25  1  0  0  0
 25 44  1  0  0  0
 25 45  1  0  0  0
 25 46  1  0  0  0
M  END
> <s_m_entry_id>
2553

> <s_m_entry_name>
dock_pv.81

> <s_m_Source_Path>
/home/csk/Desktop/cluster/DUD-E-result/fabp4

> <s_m_Source_File>
dock_pv.maegz

> <i_m_Source_File_Index>
81

> <chembl_id>
CHEMBL475549

> <chembl_pref_name>
None

> <i_lp_mmshare_version>
53161

> <r_lp_tautomer_probability>
1

> <s_lp_Force_Field>
OPLS_2005

> <r_lp_Energy>
26.668932

> <b_lp_Chiralities_Consistent>
1

> <s_lp_Variant>
CHEMBL2083_lig34-1

> <s_i_glide_gridfile>
glide-grid_2nnq

> <i_i_glide_lignum>
44

> <i_i_glide_rotatable_bonds>
5

> <r_i_docking_score>
-7.34088162016593

> <r_i_glide_ligand_efficiency>
-0.293635264806637

> <r_i_glide_ligand_efficiency_sa>
-0.858594721938203

> <r_i_glide_ligand_efficiency_ln>
-1.7400089324495

> <r_i_glide_gscore>
-7.34088162016593

> <r_i_glide_lipo>
-3.95532149992632

> <r_i_glide_hbond>
-0.0616376017892096

> <r_i_glide_metal>
0

> <r_i_glide_rewards>
-1.52365684187615

> <r_i_glide_evdw>
-37.7119445800781

> <r_i_glide_ecoul>
-2.78659009933472

> <r_i_glide_erotb>
0.503320067329862

> <r_i_glide_esite>
0

> <r_i_glide_emodel>
-56.3551956393858

> <r_i_glide_energy>
-40.4985346794128

> <r_i_glide_einternal>
4.87560081481934

> <i_i_glide_confnum>
35

> <i_i_glide_posenum>
381

> <r_i_glide_eff_state_penalty>
0

> <s_user_duplicate_titles>
CHEMBL2083_lig34,457575

> <i_f3d_flags>
0

> <s_m_subgroup_title>
dock_pv

> <s_m_subgroupid>
dock_pv

> <b_m_subgroup_collapsed>
1

$$$$
CHEMBL2083_lig199
                    3D
 Schrodinger Suite 2021-1.
 41 45  0  0  1  0            999 V2000
    6.0211    8.9397   19.9766 C   0  0  0  0  0  0
    5.0789    8.7666   18.8414 N   0  0  0  0  0  0
    5.1948    9.7630   17.7385 C   0  0  1  0  0  0
    4.2228    7.6369   18.7574 C   0  0  0  0  0  0
    3.9162    6.9077   19.9277 C   0  0  0  0  0  0
    3.0423    5.8194   19.8419 C   0  0  0  0  0  0
    2.4881    5.4461   18.6207 C   0  0  0  0  0  0
    2.8152    6.1483   17.4621 C   0  0  0  0  0  0
    3.6885    7.2413   17.5083 C   0  0  0  0  0  0
    4.5281    7.3963   21.2311 C   0  0  2  0  0  0
    5.9834    7.7499   20.9559 C   0  0  2  0  0  0
    6.5811    7.8865   22.3462 C   0  0  0  0  0  0
    5.7343    6.9090   23.1488 C   0  0  0  0  0  0
    4.6364    6.5333   22.4652 C   0  0  0  0  0  0
    4.1541    9.4808   16.6185 C   0  0  2  0  0  0
    4.1551    8.0022   16.2724 C   0  0  2  0  0  0
    3.3770    8.0010   14.9728 C   0  0  0  0  0  0
    3.5172    9.2001   14.3710 C   0  0  0  0  0  0
    4.2551   10.1850   15.2657 C   0  0  0  0  0  0
    4.9572   11.2043   18.2678 C   0  0  0  0  0  0
    5.6716   12.1090   17.5437 O   0  0  0  0  0  0
    4.2016   11.4930   19.1980 O   0  0  0  0  0  0
    1.3991    4.1086   18.5475 Cl  0  0  0  0  0  0
    7.0274    9.1860   19.6338 H   0  0  0  0  0  0
    5.7079    9.8125   20.5519 H   0  0  0  0  0  0
    6.2119    9.7417   17.3439 H   0  0  0  0  0  0
    2.7801    5.2646   20.7307 H   0  0  0  0  0  0
    2.3933    5.8338   16.5191 H   0  0  0  0  0  0
    3.9603    8.2876   21.5106 H   0  0  0  0  0  0
    6.4586    6.9090   20.4472 H   0  0  0  0  0  0
    6.4934    8.9076   22.7107 H   0  0  0  0  0  0
    7.6369    7.6164   22.3506 H   0  0  0  0  0  0
    6.0108    6.5750   24.1399 H   0  0  0  0  0  0
    3.8536    5.8722   22.8079 H   0  0  0  0  0  0
    3.1648    9.7309   17.0202 H   0  0  0  0  0  0
    5.1681    7.6477   16.0689 H   0  0  0  0  0  0
    2.9081    7.1219   14.5556 H   0  0  0  0  0  0
    3.1435    9.4740   13.3948 H   0  0  0  0  0  0
    3.7621   11.1579   15.2962 H   0  0  0  0  0  0
    5.2856   10.3499   14.9524 H   0  0  0  0  0  0
    5.5275   13.0259   17.8347 H   0  0  0  0  0  0
  1 11  1  0  0  0
  1  2  1  0  0  0
  1 24  1  0  0  0
  1 25  1  0  0  0
  2  4  1  0  0  0
  2  3  1  0  0  0
  3 15  1  0  0  0
  3 20  1  0  0  0
  3 26  1  0  0  0
  4  5  2  0  0  0
  4  9  1  0  0  0
  5 10  1  0  0  0
  5  6  1  0  0  0
  6  7  2  0  0  0
  6 27  1  0  0  0
  7  8  1  0  0  0
  7 23  1  0  0  0
  8  9  2  0  0  0
  8 28  1  0  0  0
  9 16  1  0  0  0
 10 11  1  0  0  0
 10 14  1  0  0  0
 10 29  1  0  0  0
 11 12  1  0  0  0
 11 30  1  0  0  0
 12 13  1  0  0  0
 12 31  1  0  0  0
 12 32  1  0  0  0
 13 14  2  0  0  0
 13 33  1  0  0  0
 14 34  1  0  0  0
 15 16  1  0  0  0
 15 19  1  0  0  0
 15 35  1  0  0  0
 16 17  1  0  0  0
 16 36  1  0  0  0
 17 18  2  0  0  0
 17 37  1  0  0  0
 18 19  1  0  0  0
 18 38  1  0  0  0
 19 39  1  0  0  0
 19 40  1  0  0  0
 20 21  1  0  0  0
 20 22  2  0  0  0
 21 41  1  0  0  0
M  END
> <s_m_entry_id>
2554

> <s_m_entry_name>
dock_pv.82

> <s_m_Source_Path>
/home/csk/Desktop/cluster/DUD-E-result/fabp4

> <s_m_Source_File>
dock_pv.maegz

> <i_m_Source_File_Index>
82

> <chembl_id>
CHEMBL3828043

> <chembl_pref_name>
None

> <i_lp_mmshare_version>
53161

> <r_lp_tautomer_probability>
1

> <s_lp_Force_Field>
OPLS_2005

> <r_lp_Energy>
78.220239

> <b_lp_Chiralities_Consistent>
1

> <s_lp_Variant>
CHEMBL2083_lig199-2

> <s_i_glide_gridfile>
glide-grid_2nnq

> <i_i_glide_lignum>
343

> <i_i_glide_rotatable_bonds>
2

> <r_i_docking_score>
-7.31523082233515

> <r_i_glide_ligand_efficiency>
-0.318053514014572

> <r_i_glide_ligand_efficiency_sa>
-0.904501885386445

> <r_i_glide_ligand_efficiency_ln>
-1.76888914368644

> <r_i_glide_gscore>
-7.31523082233515

> <r_i_glide_lipo>
-3.00718693030989

> <r_i_glide_hbond>
-0.164031429703051

> <r_i_glide_metal>
0

> <r_i_glide_rewards>
-1.45024550089911

> <r_i_glide_evdw>
-33.9530639648438

> <r_i_glide_ecoul>
-6.36526536941528

> <r_i_glide_erotb>
0

> <r_i_glide_esite>
-0.0413239577686149

> <r_i_glide_emodel>
-58.8284759301083

> <r_i_glide_energy>
-40.318329334259

> <r_i_glide_einternal>
0.40594619512558

> <i_i_glide_confnum>
1

> <i_i_glide_posenum>
390

> <r_i_glide_eff_state_penalty>
0

> <s_user_duplicate_titles>
CHEMBL2083_lig199

> <i_f3d_flags>
0

> <s_m_subgroup_title>
dock_pv

> <s_m_subgroupid>
dock_pv

> <b_m_subgroup_collapsed>
1

$$$$
CHEMBL2083_lig55
                    3D
 Schrodinger Suite 2021-1.
 49 52  0  0  1  0            999 V2000
    1.5032    4.7564   18.9022 C   0  0  0  0  0  0
    1.4902    5.5660   17.7799 C   0  0  0  0  0  0
    2.2725    6.7211   17.6817 C   0  0  0  0  0  0
    2.2884    5.0883   19.9929 C   0  0  0  0  0  0
    3.1211    6.2035   19.9427 C   0  0  0  0  0  0
    3.1135    7.0328   18.7840 C   0  0  0  0  0  0
    4.0545    8.0348   19.0471 N   0  0  0  0  0  0
    4.5451    9.0351   18.0942 C   0  0  0  0  0  0
    5.8291    8.5620   17.4003 C   0  0  0  0  0  0
    7.0117    9.3379   17.3619 C   0  0  0  0  0  0
    8.1927    8.7112   16.9406 C   0  0  0  0  0  0
    8.1987    7.4040   16.4667 C   0  0  0  0  0  0
    7.0171    6.6833   16.4039 C   0  0  0  0  0  0
    5.8442    7.2598   16.8711 C   0  0  0  0  0  0
    2.1512    7.5271   16.4295 C   0  0  0  0  0  0
    2.6354    6.8890   15.3292 O   0  0  0  0  0  0
    1.6231    8.6351   16.4065 O   0  0  0  0  0  0
    5.7720    8.6789   20.8612 C   0  0  0  0  0  0
    7.0019    7.8489   21.2827 C   0  0  0  0  0  0
    6.8335    6.8927   22.4913 C   0  0  0  0  0  0
    4.6441    7.8227   20.2930 C   0  0  0  0  0  0
    4.0636    6.7144   20.8799 C   0  0  0  0  0  0
    4.3656    6.0517   22.2152 C   0  0  0  0  0  0
    5.4210    6.7383   23.0968 C   0  0  0  0  0  0
    7.0392   10.8152   17.7060 C   0  0  0  0  0  0
    6.0787   11.5474   17.4980 O   0  0  0  0  0  0
    8.1767   11.3068   18.1913 N   0  0  0  0  0  0
    0.8660    3.8835   18.9418 H   0  0  0  0  0  0
    0.8359    5.2914   16.9632 H   0  0  0  0  0  0
    2.2595    4.5089   20.8893 H   0  0  0  0  0  0
    4.6618    9.9583   18.6553 H   0  0  0  0  0  0
    3.7984    9.2900   17.3538 H   0  0  0  0  0  0
    9.1195    9.2526   16.9419 H   0  0  0  0  0  0
    9.1200    6.9500   16.1393 H   0  0  0  0  0  0
    7.0144    5.6725   16.0243 H   0  0  0  0  0  0
    4.9496    6.6582   16.8562 H   0  0  0  0  0  0
    2.4089    7.3831   14.5376 H   0  0  0  0  0  0
    6.1209    9.4377   20.1662 H   0  0  0  0  0  0
    5.4085    9.2464   21.7185 H   0  0  0  0  0  0
    7.8221    8.5358   21.5005 H   0  0  0  0  0  0
    7.3468    7.2763   20.4187 H   0  0  0  0  0  0
    7.4958    7.2341   23.2886 H   0  0  0  0  0  0
    7.2143    5.9071   22.2196 H   0  0  0  0  0  0
    4.6815    5.0218   22.0482 H   0  0  0  0  0  0
    3.4432    5.9708   22.7930 H   0  0  0  0  0  0
    5.4992    6.1754   24.0265 H   0  0  0  0  0  0
    5.0430    7.7084   23.3980 H   0  0  0  0  0  0
    8.2147   12.2867   18.4635 H   0  0  0  0  0  0
    8.9534   10.7021   18.4013 H   0  0  0  0  0  0
  1  2  2  0  0  0
  1  4  1  0  0  0
  1 28  1  0  0  0
  2  3  1  0  0  0
  2 29  1  0  0  0
  3  6  2  0  0  0
  3 15  1  0  0  0
  4  5  2  0  0  0
  4 30  1  0  0  0
  5 22  1  0  0  0
  5  6  1  0  0  0
  6  7  1  0  0  0
  7 21  1  0  0  0
  7  8  1  0  0  0
  8  9  1  0  0  0
  8 31  1  0  0  0
  8 32  1  0  0  0
  9 14  1  0  0  0
  9 10  2  0  0  0
 10 11  1  0  0  0
 10 25  1  0  0  0
 11 12  2  0  0  0
 11 33  1  0  0  0
 12 13  1  0  0  0
 12 34  1  0  0  0
 13 14  2  0  0  0
 13 35  1  0  0  0
 14 36  1  0  0  0
 15 16  1  0  0  0
 15 17  2  0  0  0
 16 37  1  0  0  0
 18 19  1  0  0  0
 18 21  1  0  0  0
 18 38  1  0  0  0
 18 39  1  0  0  0
 19 20  1  0  0  0
 19 40  1  0  0  0
 19 41  1  0  0  0
 20 24  1  0  0  0
 20 42  1  0  0  0
 20 43  1  0  0  0
 21 22  2  0  0  0
 22 23  1  0  0  0
 23 24  1  0  0  0
 23 44  1  0  0  0
 23 45  1  0  0  0
 24 46  1  0  0  0
 24 47  1  0  0  0
 25 26  2  0  0  0
 25 27  1  0  0  0
 27 48  1  0  0  0
 27 49  1  0  0  0
M  END
> <s_m_entry_id>
2555

> <s_m_entry_name>
dock_pv.83

> <s_m_Source_Path>
/home/csk/Desktop/cluster/DUD-E-result/fabp4

> <s_m_Source_File>
dock_pv.maegz

> <i_m_Source_File_Index>
83

> <chembl_id>
CHEMBL474944

> <chembl_pref_name>
None

> <i_lp_mmshare_version>
53161

> <r_lp_tautomer_probability>
1

> <s_lp_Force_Field>
OPLS_2005

> <r_lp_Energy>
33.808502

> <b_lp_Chiralities_Consistent>
1

> <s_lp_Variant>
CHEMBL2083_lig55-1

> <s_i_glide_gridfile>
glide-grid_2nnq

> <i_i_glide_lignum>
65

> <i_i_glide_rotatable_bonds>
5

> <r_i_docking_score>
-7.3098946919967

> <r_i_glide_ligand_efficiency>
-0.270736840444322

> <r_i_glide_ligand_efficiency_sa>
-0.812210520440662

> <r_i_glide_ligand_efficiency_ln>
-1.70162297126423

> <r_i_glide_gscore>
-7.3098946919967

> <r_i_glide_lipo>
-3.39267049405761

> <r_i_glide_hbond>
-0.32

> <r_i_glide_metal>
0

> <r_i_glide_rewards>
-1.39256394011918

> <r_i_glide_evdw>
-34.9360122680664

> <r_i_glide_ecoul>
-5.21635675430298

> <r_i_glide_erotb>
0.438566023126752

> <r_i_glide_esite>
-0.113972154397888

> <r_i_glide_emodel>
-58.1955944542729

> <r_i_glide_energy>
-40.1523690223694

> <r_i_glide_einternal>
1.86108791828156

> <i_i_glide_confnum>
6

> <i_i_glide_posenum>
385

> <r_i_glide_eff_state_penalty>
0

> <s_user_duplicate_titles>
CHEMBL2083_lig55,457641

> <i_f3d_flags>
0

> <s_m_subgroup_title>
dock_pv

> <s_m_subgroupid>
dock_pv

> <b_m_subgroup_collapsed>
1

$$$$
CHEMBL2083_lig198
                    3D
 Schrodinger Suite 2021-1.
 44 48  0  0  1  0            999 V2000
    4.4008    9.3019   16.6746 C   0  0  0  0  0  0
    4.5105    8.7456   18.0266 N   0  0  0  0  0  0
    5.6064    9.3712   18.8152 C   0  0  2  0  0  0
    3.8334    7.5744   18.4288 C   0  0  0  0  0  0
    2.9398    6.9339   17.5431 C   0  0  0  0  0  0
    2.2708    5.7862   17.9816 C   0  0  0  0  0  0
    2.4743    5.2572   19.2519 C   0  0  0  0  0  0
    3.3418    5.9042   20.1262 C   0  0  0  0  0  0
    4.0233    7.0639   19.7421 C   0  0  0  0  0  0
    2.6803    7.4366   16.1238 C   0  0  1  0  0  0
    3.1977    8.8518   15.8170 C   0  0  2  0  0  0
    3.5417    8.8193   14.3194 C   0  0  0  0  0  0
    3.7689    7.3523   14.0312 C   0  0  0  0  0  0
    3.3247    6.5904   15.0432 C   0  0  0  0  0  0
    6.0924    8.3859   19.9131 C   0  0  2  0  0  0
    4.9257    7.8283   20.7095 C   0  0  2  0  0  0
    5.6523    7.1384   21.8470 C   0  0  0  0  0  0
    6.8617    7.7086   22.0256 C   0  0  0  0  0  0
    7.1443    8.7564   20.9564 C   0  0  0  0  0  0
    5.0905   10.7086   19.4175 C   0  0  0  0  0  0
    6.0878   11.6239   19.5861 O   0  0  0  0  0  0
    3.9201   10.9085   19.7420 O   0  0  0  0  0  0
    1.7634    3.9842   19.6793 C   0  0  0  0  0  0
    4.6601   10.3596   16.5951 H   0  0  0  0  0  0
    5.2493    8.8242   16.1798 H   0  0  0  0  0  0
    6.4391    9.6341   18.1607 H   0  0  0  0  0  0
    1.5830    5.2976   17.3075 H   0  0  0  0  0  0
    3.4783    5.5054   21.1205 H   0  0  0  0  0  0
    1.5973    7.4172   15.9777 H   0  0  0  0  0  0
    2.3987    9.5764   15.9870 H   0  0  0  0  0  0
    2.7225    9.2162   13.7207 H   0  0  0  0  0  0
    4.4193    9.4221   14.0829 H   0  0  0  0  0  0
    4.2202    7.0058   13.1107 H   0  0  0  0  0  0
    3.3305    5.5121   15.0799 H   0  0  0  0  0  0
    6.5448    7.5608   19.3516 H   0  0  0  0  0  0
    4.3172    8.6236   21.1413 H   0  0  0  0  0  0
    5.1943    6.3916   22.4790 H   0  0  0  0  0  0
    7.5687    7.4737   22.8084 H   0  0  0  0  0  0
    7.0310    9.7729   21.3298 H   0  0  0  0  0  0
    8.1504    8.6656   20.5444 H   0  0  0  0  0  0
    6.9249   11.3893   19.1835 H   0  0  0  0  0  0
    1.1519    3.5622   18.8807 H   0  0  0  0  0  0
    2.4971    3.2333   19.9738 H   0  0  0  0  0  0
    1.1208    4.1652   20.5410 H   0  0  0  0  0  0
  1 11  1  0  0  0
  1  2  1  0  0  0
  1 24  1  0  0  0
  1 25  1  0  0  0
  2  4  1  0  0  0
  2  3  1  0  0  0
  3 15  1  0  0  0
  3 20  1  0  0  0
  3 26  1  0  0  0
  4  5  2  0  0  0
  4  9  1  0  0  0
  5 10  1  0  0  0
  5  6  1  0  0  0
  6  7  2  0  0  0
  6 27  1  0  0  0
  7  8  1  0  0  0
  7 23  1  0  0  0
  8  9  2  0  0  0
  8 28  1  0  0  0
  9 16  1  0  0  0
 10 11  1  0  0  0
 10 14  1  0  0  0
 10 29  1  0  0  0
 11 12  1  0  0  0
 11 30  1  0  0  0
 12 13  1  0  0  0
 12 31  1  0  0  0
 12 32  1  0  0  0
 13 14  2  0  0  0
 13 33  1  0  0  0
 14 34  1  0  0  0
 15 16  1  0  0  0
 15 19  1  0  0  0
 15 35  1  0  0  0
 16 17  1  0  0  0
 16 36  1  0  0  0
 17 18  2  0  0  0
 17 37  1  0  0  0
 18 19  1  0  0  0
 18 38  1  0  0  0
 19 39  1  0  0  0
 19 40  1  0  0  0
 20 21  1  0  0  0
 20 22  2  0  0  0
 21 41  1  0  0  0
 23 42  1  0  0  0
 23 43  1  0  0  0
 23 44  1  0  0  0
M  END
> <s_m_entry_id>
2556

> <s_m_entry_name>
dock_pv.84

> <s_m_Source_Path>
/home/csk/Desktop/cluster/DUD-E-result/fabp4

> <s_m_Source_File>
dock_pv.maegz

> <i_m_Source_File_Index>
84

> <chembl_id>
CHEMBL3827483

> <chembl_pref_name>
None

> <i_lp_mmshare_version>
53161

> <r_lp_tautomer_probability>
1

> <s_lp_Force_Field>
OPLS_2005

> <r_lp_Energy>
74.19532

> <b_lp_Chiralities_Consistent>
1

> <s_lp_Variant>
CHEMBL2083_lig198-3

> <s_i_glide_gridfile>
glide-grid_2nnq

> <i_i_glide_lignum>
312

> <i_i_glide_rotatable_bonds>
2

> <r_i_docking_score>
-7.30569249765305

> <r_i_glide_ligand_efficiency>
-0.317638804245785

> <r_i_glide_ligand_efficiency_sa>
-0.903322505970001

> <r_i_glide_ligand_efficiency_ln>
-1.76658269028956

> <r_i_glide_gscore>
-7.30569249765305

> <r_i_glide_lipo>
-3.31961003496747

> <r_i_glide_hbond>
-0.32

> <r_i_glide_metal>
0

> <r_i_glide_rewards>
-1.51362507724991

> <r_i_glide_evdw>
-30.3614158630371

> <r_i_glide_ecoul>
-5.44441843032837

> <r_i_glide_erotb>
0.195647951793434

> <r_i_glide_esite>
-0.0133717795279887

> <r_i_glide_emodel>
-51.3484335036916

> <r_i_glide_energy>
-35.8058342933655

> <r_i_glide_einternal>
0.730909585952759

> <i_i_glide_confnum>
1

> <i_i_glide_posenum>
49

> <r_i_glide_eff_state_penalty>
0

> <s_user_duplicate_titles>
CHEMBL2083_lig198

> <i_f3d_flags>
0

> <s_m_subgroup_title>
dock_pv

> <s_m_subgroupid>
dock_pv

> <b_m_subgroup_collapsed>
1

$$$$
CHEMBL2083_lig155 
                    3D
 Schrodinger Suite 2021-1.
 50 53  0  0  1  0            999 V2000
    7.4587    5.7799   15.8374 O   0  0  0  0  0  0
    6.9977    7.1386   16.1419 S   0  0  0  0  0  0
    7.9206    8.2755   16.1416 O   0  0  0  0  0  0
    4.8733    6.4472   17.6766 C   0  0  0  0  0  0
    4.0577    6.3623   18.7953 C   0  0  0  0  0  0
    4.4721    6.9091   20.0119 C   0  0  0  0  0  0
    6.1208    7.0553   17.7126 C   0  0  0  0  0  0
    6.6033    7.5912   18.9465 C   0  0  0  0  0  0
    5.7503    7.5339   20.1018 C   0  0  0  0  0  0
    6.2188    8.0617   21.3326 C   0  0  0  0  0  0
    7.4992    8.5819   21.4305 C   0  0  0  0  0  0
    8.3201    8.6601   20.3202 C   0  0  0  0  0  0
    7.8992    8.1593   19.1000 C   0  0  0  0  0  0
    5.7527    7.5138   14.9359 N   0  0  0  0  0  0
    5.0269    8.7159   14.8968 C   0  0  0  0  0  0
    5.0999    9.6977   15.8985 C   0  0  0  0  0  0
    4.3034   10.8502   15.8309 C   0  0  0  0  0  0
    3.4449   11.0328   14.7400 C   0  0  0  0  0  0
    3.3803   10.0647   13.7428 C   0  0  0  0  0  0
    4.1584    8.9124   13.8230 C   0  0  0  0  0  0
    2.6719   12.1401   14.6290 F   0  0  0  0  0  0
    4.3986   11.9011   16.8945 C   0  0  0  0  0  0
    5.6135   12.5089   16.9414 O   0  0  0  0  0  0
    3.4479   12.2006   17.6132 O   0  0  0  0  0  0
    3.6484    6.8280   21.1137 O   0  0  0  0  0  0
    2.7973    5.6156   18.6571 C   0  0  0  0  0  0
    3.9266    5.7563   22.0096 C   0  0  0  0  0  0
    2.7840    4.2603   18.9866 C   0  0  0  0  0  0
    1.6566    3.4977   18.7342 C   0  0  0  0  0  0
    0.5528    4.0906   18.1419 C   0  0  0  0  0  0
    0.5371    5.4489   17.8364 C   0  0  0  0  0  0
    1.6660    6.2178   18.1002 C   0  0  0  0  0  0
   -0.4801    3.3091   17.7913 F   0  0  0  0  0  0
    4.5210    6.0177   16.7492 H   0  0  0  0  0  0
    5.5904    8.0288   22.2120 H   0  0  0  0  0  0
    7.8668    8.9090   22.3882 H   0  0  0  0  0  0
    9.3196    9.0612   20.4172 H   0  0  0  0  0  0
    8.6109    8.1784   18.2944 H   0  0  0  0  0  0
    5.4022    6.7342   14.3994 H   0  0  0  0  0  0
    5.7631    9.5717   16.7420 H   0  0  0  0  0  0
    2.7189   10.2079   12.9036 H   0  0  0  0  0  0
    4.0807    8.1703   13.0419 H   0  0  0  0  0  0
    5.5720   13.3391   17.4607 H   0  0  0  0  0  0
    3.2769    5.8384   22.8809 H   0  0  0  0  0  0
    3.7327    4.7895   21.5487 H   0  0  0  0  0  0
    4.9573    5.7612   22.3664 H   0  0  0  0  0  0
    3.6665    3.7862   19.3885 H   0  0  0  0  0  0
    1.6504    2.4404   18.9419 H   0  0  0  0  0  0
   -0.3317    5.8886   17.3691 H   0  0  0  0  0  0
    1.6781    7.2653   17.8339 H   0  0  0  0  0  0
  1  2  2  0  0  0
  2  3  2  0  0  0
  2  7  1  0  0  0
  2 14  1  0  0  0
  4  5  2  0  0  0
  4  7  1  0  0  0
  4 34  1  0  0  0
  5  6  1  0  0  0
  5 26  1  0  0  0
  6  9  2  0  0  0
  6 25  1  0  0  0
  7  8  2  0  0  0
  8  9  1  0  0  0
  8 13  1  0  0  0
  9 10  1  0  0  0
 10 11  2  0  0  0
 10 35  1  0  0  0
 11 12  1  0  0  0
 11 36  1  0  0  0
 12 13  2  0  0  0
 12 37  1  0  0  0
 13 38  1  0  0  0
 14 15  1  0  0  0
 14 39  1  0  0  0
 15 16  2  0  0  0
 15 20  1  0  0  0
 16 17  1  0  0  0
 16 40  1  0  0  0
 17 18  2  0  0  0
 17 22  1  0  0  0
 18 19  1  0  0  0
 18 21  1  0  0  0
 19 20  2  0  0  0
 19 41  1  0  0  0
 20 42  1  0  0  0
 22 23  1  0  0  0
 22 24  2  0  0  0
 23 43  1  0  0  0
 25 27  1  0  0  0
 26 28  2  0  0  0
 26 32  1  0  0  0
 27 44  1  0  0  0
 27 45  1  0  0  0
 27 46  1  0  0  0
 28 29  1  0  0  0
 28 47  1  0  0  0
 29 30  2  0  0  0
 29 48  1  0  0  0
 30 31  1  0  0  0
 30 33  1  0  0  0
 31 32  2  0  0  0
 31 49  1  0  0  0
 32 50  1  0  0  0
M  END
> <s_m_entry_id>
2557

> <s_m_entry_name>
dock_pv.85

> <s_m_Source_Path>
/home/csk/Desktop/cluster/DUD-E-result/fabp4

> <s_m_Source_File>
dock_pv.maegz

> <i_m_Source_File_Index>
85

> <chembl_id>
CHEMBL4531350

> <chembl_pref_name>
None

> <i_lp_mmshare_version>
53161

> <r_lp_tautomer_probability>
1

> <s_lp_Force_Field>
OPLS_2005

> <r_lp_Energy>
32.998207

> <b_lp_Chiralities_Consistent>
1

> <s_lp_Variant>
CHEMBL2083_lig155 -1

> <s_i_glide_gridfile>
glide-grid_2nnq

> <i_i_glide_lignum>
169

> <i_i_glide_rotatable_bonds>
7

> <r_i_docking_score>
-7.30425944103257

> <r_i_glide_ligand_efficiency>
-0.221341195182805

> <r_i_glide_ligand_efficiency_sa>
-0.709959481363694

> <r_i_glide_ligand_efficiency_ln>
-1.62442948025431

> <r_i_glide_gscore>
-7.30425944103257

> <r_i_glide_lipo>
-3.9310112081575

> <r_i_glide_hbond>
0

> <r_i_glide_metal>
0

> <r_i_glide_rewards>
-0.262686010699179

> <r_i_glide_evdw>
-43.9138336181641

> <r_i_glide_ecoul>
-8.52771186828613

> <r_i_glide_erotb>
0.458223294308002

> <r_i_glide_esite>
-0.0939370553327641

> <r_i_glide_emodel>
-64.6796846847143

> <r_i_glide_energy>
-52.4415454864502

> <r_i_glide_einternal>
12.8962144851685

> <i_i_glide_confnum>
188

> <i_i_glide_posenum>
196

> <r_i_glide_eff_state_penalty>
0

> <s_user_duplicate_titles>
CHEMBL2083_lig155 

> <i_f3d_flags>
0

> <s_m_subgroup_title>
dock_pv

> <s_m_subgroupid>
dock_pv

> <b_m_subgroup_collapsed>
1

$$$$
CHEMBL2083_lig121
                    3D
 Schrodinger Suite 2021-1.
 45 48  0  0  1  0            999 V2000
    1.4157    3.7423   19.2639 C   0  0  0  0  0  0
    2.1118    5.0813   19.1105 C   0  0  0  0  0  0
    3.5195    5.3953   20.0624 S   0  0  0  0  0  0
    3.7969    6.8928   19.2500 C   0  0  0  0  0  0
    4.9252    7.6485   19.4803 N   0  0  0  0  0  0
    5.4385    7.9934   20.6730 C   0  0  0  0  0  0
    5.1383    7.4980   21.7581 O   0  0  0  0  0  0
    6.4837    8.9796   20.5262 C   0  0  0  0  0  0
    6.3583   10.2298   19.9855 C   0  0  0  0  0  0
    7.7156   10.8977   19.9189 C   0  0  0  0  0  0
    8.7082    9.7999   20.2781 C   0  0  0  0  0  0
    7.9172    8.6619   20.8964 C   0  0  0  0  0  0
    5.1209   10.8909   19.5730 C   0  0  0  0  0  0
    3.9873   10.4492   19.7421 O   0  0  0  0  0  0
    5.3310   12.1086   19.0007 O   0  0  0  0  0  0
    2.8291    7.1672   18.2913 C   0  0  0  0  0  0
    2.9233    8.3610   17.4127 C   0  0  0  0  0  0
    4.1576    8.7425   16.9938 O   0  0  0  0  0  0
    3.9470    9.8525   16.1830 N   0  0  0  0  0  0
    2.6372    9.9823   16.1949 C   0  0  0  0  0  0
    1.9672    9.1132   16.9312 N   0  0  0  0  0  0
    1.9203   11.0692   15.4061 C   0  0  0  0  0  0
    2.3831   12.5070   15.4766 C   0  0  0  0  0  0
    2.5486   11.7182   14.1925 C   0  0  0  0  0  0
    1.8134    6.1768   18.2748 C   0  0  0  0  0  0
    0.5867    6.2533   17.3913 C   0  0  0  0  0  0
   -0.2538    7.2019   17.8042 F   0  0  0  0  0  0
    0.9327    6.5117   16.1420 F   0  0  0  0  0  0
   -0.0800    5.1113   17.3628 F   0  0  0  0  0  0
    0.3339    3.8239   19.3569 H   0  0  0  0  0  0
    1.6076    3.0965   18.4075 H   0  0  0  0  0  0
    1.7582    3.2006   20.1418 H   0  0  0  0  0  0
    5.2169    8.2178   18.6989 H   0  0  0  0  0  0
    7.7280   11.7090   20.6422 H   0  0  0  0  0  0
    7.9541   11.3130   18.9389 H   0  0  0  0  0  0
    9.1991    9.4441   19.3700 H   0  0  0  0  0  0
    9.5056   10.1498   20.9352 H   0  0  0  0  0  0
    8.2487    7.7039   20.4967 H   0  0  0  0  0  0
    8.0282    8.6193   21.9809 H   0  0  0  0  0  0
    6.2426   12.4049   18.9448 H   0  0  0  0  0  0
    0.8438   10.9178   15.3416 H   0  0  0  0  0  0
    1.6301   13.2951   15.5188 H   0  0  0  0  0  0
    3.2647   12.7478   16.0738 H   0  0  0  0  0  0
    3.5483   11.4127   13.8815 H   0  0  0  0  0  0
    1.9081   11.9563   13.3426 H   0  0  0  0  0  0
  1  2  1  0  0  0
  1 30  1  0  0  0
  1 31  1  0  0  0
  1 32  1  0  0  0
  2  3  1  0  0  0
  2 25  2  0  0  0
  3  4  1  0  0  0
  4  5  1  0  0  0
  4 16  2  0  0  0
  5  6  1  0  0  0
  5 33  1  0  0  0
  6  7  2  0  0  0
  6  8  1  0  0  0
  8  9  2  0  0  0
  8 12  1  0  0  0
  9 10  1  0  0  0
  9 13  1  0  0  0
 10 11  1  0  0  0
 10 34  1  0  0  0
 10 35  1  0  0  0
 11 12  1  0  0  0
 11 36  1  0  0  0
 11 37  1  0  0  0
 12 38  1  0  0  0
 12 39  1  0  0  0
 13 14  2  0  0  0
 13 15  1  0  0  0
 15 40  1  0  0  0
 16 17  1  0  0  0
 16 25  1  0  0  0
 17 18  1  0  0  0
 17 21  2  0  0  0
 18 19  1  0  0  0
 19 20  2  0  0  0
 20 21  1  0  0  0
 20 22  1  0  0  0
 22 23  1  0  0  0
 22 24  1  0  0  0
 22 41  1  0  0  0
 23 24  1  0  0  0
 23 42  1  0  0  0
 23 43  1  0  0  0
 24 44  1  0  0  0
 24 45  1  0  0  0
 25 26  1  0  0  0
 26 27  1  0  0  0
 26 28  1  0  0  0
 26 29  1  0  0  0
M  END
> <s_m_entry_id>
2558

> <s_m_entry_name>
dock_pv.86

> <s_m_Source_Path>
/home/csk/Desktop/cluster/DUD-E-result/fabp4

> <s_m_Source_File>
dock_pv.maegz

> <i_m_Source_File_Index>
86

> <chembl_id>
CHEMBL3914622

> <chembl_pref_name>
None

> <i_lp_mmshare_version>
53161

> <r_lp_tautomer_probability>
1

> <s_lp_Force_Field>
OPLS_2005

> <r_lp_Energy>
36.664331

> <b_lp_Chiralities_Consistent>
1

> <s_lp_Variant>
CHEMBL2083_lig121-1

> <s_i_glide_gridfile>
glide-grid_2nnq

> <i_i_glide_lignum>
131

> <i_i_glide_rotatable_bonds>
8

> <r_i_docking_score>
-7.29835633847797

> <r_i_glide_ligand_efficiency>
-0.251667459947516

> <r_i_glide_ligand_efficiency_sa>
-0.773202170806506

> <r_i_glide_ligand_efficiency_ln>
-1.67113853116302

> <r_i_glide_gscore>
-7.29835633847797

> <r_i_glide_lipo>
-3.01810920055027

> <r_i_glide_hbond>
-0.32

> <r_i_glide_metal>
0

> <r_i_glide_rewards>
-1.57930814838005

> <r_i_glide_evdw>
-42.1383590698242

> <r_i_glide_ecoul>
-5.97734212875366

> <r_i_glide_erotb>
0.652146789676061

> <r_i_glide_esite>
-0.0295665064194511

> <r_i_glide_emodel>
-68.0285789475818

> <r_i_glide_energy>
-48.1157011985779

> <r_i_glide_einternal>
2.26925873756409

> <i_i_glide_confnum>
129

> <i_i_glide_posenum>
229

> <r_i_glide_eff_state_penalty>
0

> <s_user_duplicate_titles>
CHEMBL2083_lig121

> <i_f3d_flags>
0

> <s_m_subgroup_title>
dock_pv

> <s_m_subgroupid>
dock_pv

> <b_m_subgroup_collapsed>
1

$$$$
CHEMBL2083_lig132
                    3D
 Schrodinger Suite 2021-1.
 42 44  0  0  1  0            999 V2000
    1.9788   12.4517   14.6030 C   0  0  0  0  0  0
    3.0453   11.6370   15.2997 C   0  0  0  0  0  0
    3.6076   12.1141   16.8695 S   0  0  0  0  0  0
    4.6514   10.7322   16.9697 C   0  0  0  0  0  0
    5.4545   10.5264   18.0787 N   0  0  0  0  0  0
    4.9711   10.3331   19.3237 C   0  0  0  0  0  0
    3.9205   10.8407   19.7219 O   0  0  0  0  0  0
    5.6764    9.4607   20.0882 N   0  0  0  0  0  0
    5.1531    8.9311   21.3418 C   0  0  0  0  0  0
    5.7268    7.5333   21.4240 C   0  0  0  0  0  0
    7.1269    7.7413   20.8753 C   0  0  0  0  0  0
    7.0103    8.8718   19.8221 C   0  0  2  0  0  0
    8.1351    9.9273   19.9187 C   0  0  0  0  0  0
    8.7198   10.2222   20.9419 O   0  0  0  0  0  0
    8.3190   10.5184   18.7058 O   0  0  0  0  0  0
    4.6175    9.9659   15.8047 C   0  0  0  0  0  0
    3.7118   10.4864   14.8509 C   0  0  0  0  0  0
    3.4471    9.8455   13.5040 C   0  0  0  0  0  0
    5.4073    8.7471   15.5809 C   0  0  0  0  0  0
    5.9199    8.5159   14.3457 O   0  0  0  0  0  0
    6.5952    7.3052   14.4477 N   0  0  0  0  0  0
    6.4104    6.9701   15.7074 C   0  0  0  0  0  0
    5.7244    7.8228   16.4477 N   0  0  0  0  0  0
    6.9659    5.6790   16.2847 C   0  0  0  0  0  0
    7.8967    5.9261   17.2057 F   0  0  0  0  0  0
    6.0054    4.9572   16.8636 F   0  0  0  0  0  0
    7.5193    4.9099   15.3443 F   0  0  0  0  0  0
    2.3952   12.9702   13.7421 H   0  0  0  0  0  0
    1.1611   11.8291   14.2385 H   0  0  0  0  0  0
    1.5331   13.2111   15.2464 H   0  0  0  0  0  0
    6.3706   10.1472   17.8917 H   0  0  0  0  0  0
    4.0654    8.9306   21.4199 H   0  0  0  0  0  0
    5.5513    9.5564   22.1358 H   0  0  0  0  0  0
    5.1562    6.8775   20.7662 H   0  0  0  0  0  0
    5.7081    7.1140   22.4306 H   0  0  0  0  0  0
    7.5377    6.8245   20.4537 H   0  0  0  0  0  0
    7.7781    8.0321   21.7004 H   0  0  0  0  0  0
    7.0210    8.4014   18.8383 H   0  0  0  0  0  0
    8.9362   11.2510   18.7848 H   0  0  0  0  0  0
    3.2004    8.7883   13.6084 H   0  0  0  0  0  0
    2.6307   10.3133   12.9560 H   0  0  0  0  0  0
    4.3292    9.8779   12.8653 H   0  0  0  0  0  0
  1  2  1  0  0  0
  1 28  1  0  0  0
  1 29  1  0  0  0
  1 30  1  0  0  0
  2  3  1  0  0  0
  2 17  2  0  0  0
  3  4  1  0  0  0
  4  5  1  0  0  0
  4 16  2  0  0  0
  5  6  1  0  0  0
  5 31  1  0  0  0
  6  7  2  0  0  0
  6  8  1  0  0  0
  8  9  1  0  0  0
  8 12  1  0  0  0
  9 10  1  0  0  0
  9 32  1  0  0  0
  9 33  1  0  0  0
 10 11  1  0  0  0
 10 34  1  0  0  0
 10 35  1  0  0  0
 11 12  1  0  0  0
 11 36  1  0  0  0
 11 37  1  0  0  0
 12 13  1  0  0  0
 12 38  1  0  0  0
 13 14  2  0  0  0
 13 15  1  0  0  0
 15 39  1  0  0  0
 16 17  1  0  0  0
 16 19  1  0  0  0
 17 18  1  0  0  0
 18 40  1  0  0  0
 18 41  1  0  0  0
 18 42  1  0  0  0
 19 20  1  0  0  0
 19 23  2  0  0  0
 20 21  1  0  0  0
 21 22  2  0  0  0
 22 23  1  0  0  0
 22 24  1  0  0  0
 24 25  1  0  0  0
 24 26  1  0  0  0
 24 27  1  0  0  0
M  END
> <s_m_entry_id>
2559

> <s_m_entry_name>
dock_pv.87

> <s_m_Source_Path>
/home/csk/Desktop/cluster/DUD-E-result/fabp4

> <s_m_Source_File>
dock_pv.maegz

> <i_m_Source_File_Index>
87

> <chembl_id>
CHEMBL4113722

> <chembl_pref_name>
None

> <i_lp_mmshare_version>
53161

> <r_lp_tautomer_probability>
1

> <s_lp_Force_Field>
OPLS_2005

> <r_lp_Energy>
30.806928

> <b_lp_Chiralities_Consistent>
1

> <s_lp_Variant>
CHEMBL2083_lig132-1

> <s_i_glide_gridfile>
glide-grid_2nnq

> <i_i_glide_lignum>
145

> <i_i_glide_rotatable_bonds>
7

> <r_i_docking_score>
-7.29596569716163

> <r_i_glide_ligand_efficiency>
-0.270220951746727

> <r_i_glide_ligand_efficiency_sa>
-0.810662854349577

> <r_i_glide_ligand_efficiency_ln>
-1.69838053090405

> <r_i_glide_gscore>
-7.29596569716163

> <r_i_glide_lipo>
-1.6671447014428

> <r_i_glide_hbond>
-0.719598524913179

> <r_i_glide_metal>
0

> <r_i_glide_rewards>
-1.80678635341644

> <r_i_glide_evdw>
-41.9432487487793

> <r_i_glide_ecoul>
-10.1469564437866

> <r_i_glide_erotb>
0.600644057679694

> <r_i_glide_esite>
-0.083874271061937

> <r_i_glide_emodel>
-72.2125265315073

> <r_i_glide_energy>
-52.0902051925659

> <r_i_glide_einternal>
4.9342622756958

> <i_i_glide_confnum>
22

> <i_i_glide_posenum>
219

> <r_i_glide_eff_state_penalty>
0

> <s_user_duplicate_titles>
CHEMBL2083_lig132

> <i_f3d_flags>
0

> <s_m_subgroup_title>
dock_pv

> <s_m_subgroupid>
dock_pv

> <b_m_subgroup_collapsed>
1

$$$$
CHEMBL2083_lig199
                    3D
 Schrodinger Suite 2021-1.
 41 45  0  0  1  0            999 V2000
    6.0205    9.2890   19.8300 C   0  0  0  0  0  0
    5.0268    9.1633   18.7365 N   0  0  0  0  0  0
    5.2335   10.1342   17.6311 C   0  0  1  0  0  0
    4.0840    8.1008   18.6740 C   0  0  0  0  0  0
    3.9545    7.2218   19.7752 C   0  0  0  0  0  0
    3.0914    6.1282   19.6875 C   0  0  0  0  0  0
    2.3321    5.9142   18.5451 C   0  0  0  0  0  0
    2.4181    6.8049   17.4766 C   0  0  0  0  0  0
    3.2750    7.9139   17.5250 C   0  0  0  0  0  0
    4.7064    7.5755   21.0456 C   0  0  2  0  0  0
    6.1130    7.9962   20.6676 C   0  0  2  0  0  0
    6.8651    7.9697   21.9930 C   0  0  0  0  0  0
    6.1058    6.9090   22.7614 C   0  0  0  0  0  0
    4.9426    6.5923   22.1660 C   0  0  0  0  0  0
    4.6973    9.5449   16.3023 C   0  0  1  0  0  0
    3.2971    8.9740   16.4269 C   0  0  1  0  0  0
    3.0412    8.6095   14.9763 C   0  0  0  0  0  0
    3.7421    9.4372   14.1737 C   0  0  0  0  0  0
    4.6591   10.3332   14.9933 C   0  0  0  0  0  0
    4.6333   11.5204   17.9965 C   0  0  0  0  0  0
    5.2390   12.5084   17.2719 O   0  0  0  0  0  0
    3.7780   11.7089   18.8623 O   0  0  0  0  0  0
    1.2537    4.5666   18.4883 Cl  0  0  0  0  0  0
    6.9789    9.7022   19.5110 H   0  0  0  0  0  0
    5.6090   10.0003   20.5490 H   0  0  0  0  0  0
    6.3013   10.3339   17.5119 H   0  0  0  0  0  0
    2.9844    5.4521   20.5237 H   0  0  0  0  0  0
    1.7921    6.6444   16.6129 H   0  0  0  0  0  0
    4.1598    8.4146   21.4810 H   0  0  0  0  0  0
    6.5238    7.2178   20.0173 H   0  0  0  0  0  0
    6.8181    8.9091   22.5220 H   0  0  0  0  0  0
    7.9187    7.7177   21.8514 H   0  0  0  0  0  0
    6.4893    6.5102   23.6775 H   0  0  0  0  0  0
    4.2016    5.8909   22.5204 H   0  0  0  0  0  0
    5.3824    8.7114   16.1105 H   0  0  0  0  0  0
    2.5848    9.7416   16.7385 H   0  0  0  0  0  0
    2.3199    7.8732   14.6602 H   0  0  0  0  0  0
    3.7156    9.4660   13.0935 H   0  0  0  0  0  0
    4.2692   11.3463   15.1015 H   0  0  0  0  0  0
    5.6500   10.4165   14.5559 H   0  0  0  0  0  0
    5.1229   13.4072   17.6370 H   0  0  0  0  0  0
  1 11  1  0  0  0
  1  2  1  0  0  0
  1 24  1  0  0  0
  1 25  1  0  0  0
  2  4  1  0  0  0
  2  3  1  0  0  0
  3 15  1  0  0  0
  3 20  1  0  0  0
  3 26  1  0  0  0
  4  5  2  0  0  0
  4  9  1  0  0  0
  5 10  1  0  0  0
  5  6  1  0  0  0
  6  7  2  0  0  0
  6 27  1  0  0  0
  7  8  1  0  0  0
  7 23  1  0  0  0
  8  9  2  0  0  0
  8 28  1  0  0  0
  9 16  1  0  0  0
 10 11  1  0  0  0
 10 14  1  0  0  0
 10 29  1  0  0  0
 11 12  1  0  0  0
 11 30  1  0  0  0
 12 13  1  0  0  0
 12 31  1  0  0  0
 12 32  1  0  0  0
 13 14  2  0  0  0
 13 33  1  0  0  0
 14 34  1  0  0  0
 15 16  1  0  0  0
 15 19  1  0  0  0
 15 35  1  0  0  0
 16 17  1  0  0  0
 16 36  1  0  0  0
 17 18  2  0  0  0
 17 37  1  0  0  0
 18 19  1  0  0  0
 18 38  1  0  0  0
 19 39  1  0  0  0
 19 40  1  0  0  0
 20 21  1  0  0  0
 20 22  2  0  0  0
 21 41  1  0  0  0
M  END
> <s_m_entry_id>
2560

> <s_m_entry_name>
dock_pv.88

> <s_m_Source_Path>
/home/csk/Desktop/cluster/DUD-E-result/fabp4

> <s_m_Source_File>
dock_pv.maegz

> <i_m_Source_File_Index>
88

> <chembl_id>
CHEMBL3828043

> <chembl_pref_name>
None

> <i_lp_mmshare_version>
53161

> <r_lp_tautomer_probability>
1

> <s_lp_Force_Field>
OPLS_2005

> <r_lp_Energy>
80.337184

> <b_lp_Chiralities_Consistent>
1

> <s_lp_Variant>
CHEMBL2083_lig199-26

> <s_i_glide_gridfile>
glide-grid_2nnq

> <i_i_glide_lignum>
367

> <i_i_glide_rotatable_bonds>
2

> <r_i_docking_score>
-7.28625079401475

> <r_i_glide_ligand_efficiency>
-0.31679351278325

> <r_i_glide_ligand_efficiency_sa>
-0.900918609493861

> <r_i_glide_ligand_efficiency_ln>
-1.7618815100622

> <r_i_glide_gscore>
-7.28625079401475

> <r_i_glide_lipo>
-3.00645840651695

> <r_i_glide_hbond>
-0.0844666078959796

> <r_i_glide_metal>
0

> <r_i_glide_rewards>
-1.40878694275937

> <r_i_glide_evdw>
-30.2368412017822

> <r_i_glide_ecoul>
-8.12462043762207

> <r_i_glide_erotb>
0

> <r_i_glide_esite>
-0.0560037111100318

> <r_i_glide_emodel>
-54.1083640878607

> <r_i_glide_energy>
-38.3614616394043

> <r_i_glide_einternal>
1.52670300006866

> <i_i_glide_confnum>
1

> <i_i_glide_posenum>
57

> <r_i_glide_eff_state_penalty>
0

> <s_user_duplicate_titles>
CHEMBL2083_lig199

> <i_f3d_flags>
0

> <s_m_subgroup_title>
dock_pv

> <s_m_subgroupid>
dock_pv

> <b_m_subgroup_collapsed>
1

$$$$
CHEMBL2083_lig86
                    3D
 Schrodinger Suite 2021-1.
 47 49  0  0  1  0            999 V2000
    3.9199   13.3085   16.6248 O   0  0  0  0  0  0
    3.6293   12.1450   17.2745 C   0  0  0  0  0  0
    3.3213   12.0861   18.4489 O   0  0  0  0  0  0
    3.7344   10.9047   16.3170 C   0  0  0  0  0  0
    4.9927   10.9524   15.4084 C   0  0  0  0  0  0
    4.6519   10.1087   14.1727 C   0  0  0  0  0  0
    3.1198   10.1076   14.0725 C   0  0  0  0  0  0
    2.6069   10.9371   15.2604 C   0  0  0  0  0  0
    3.6782    9.6171   17.0526 N   0  0  0  0  0  0
    4.4726    9.1960   18.0553 C   0  0  0  0  0  0
    5.4146    9.8517   18.4963 O   0  0  0  0  0  0
    4.0509    8.0100   18.5327 N   0  0  0  0  0  0
    4.2988    7.4270   19.7931 C   0  0  0  0  0  0
    5.3968    7.7876   20.5935 C   0  0  0  0  0  0
    5.5706    7.2392   21.8664 C   0  0  0  0  0  0
    4.5913    6.3915   22.3817 C   0  0  0  0  0  0
    3.5208    6.0013   21.5852 C   0  0  0  0  0  0
    3.3903    6.4526   20.2655 C   0  0  0  0  0  0
    2.3197    5.8430   19.4180 C   0  0  0  0  0  0
    1.3827    6.6241   18.7295 C   0  0  0  0  0  0
    0.3859    6.0268   17.9651 C   0  0  0  0  0  0
    0.3196    4.6393   17.8943 C   0  0  0  0  0  0
    1.2519    3.8439   18.5476 C   0  0  0  0  0  0
    2.2458    4.4475   19.3107 C   0  0  0  0  0  0
    6.8641    7.4520   22.6378 C   0  0  0  0  0  0
    7.5208    6.3050   22.5404 F   0  0  0  0  0  0
    7.6195    8.4214   22.1175 F   0  0  0  0  0  0
    6.6737    7.7087   23.9292 F   0  0  0  0  0  0
    4.1578   14.0012   17.2579 H   0  0  0  0  0  0
    5.9014   10.6337   15.9210 H   0  0  0  0  0  0
    5.2047   11.9655   15.0609 H   0  0  0  0  0  0
    5.0181    9.0891   14.2977 H   0  0  0  0  0  0
    5.1229   10.5098   13.2762 H   0  0  0  0  0  0
    2.7440    9.0851   14.1416 H   0  0  0  0  0  0
    2.7664   10.5068   13.1213 H   0  0  0  0  0  0
    2.4325   11.9562   14.9053 H   0  0  0  0  0  0
    1.6457   10.5959   15.6499 H   0  0  0  0  0  0
    3.1829    8.8935   16.5560 H   0  0  0  0  0  0
    3.3092    7.5604   18.0191 H   0  0  0  0  0  0
    6.1558    8.4550   20.2189 H   0  0  0  0  0  0
    4.6964    5.9720   23.3727 H   0  0  0  0  0  0
    2.8010    5.3087   21.9918 H   0  0  0  0  0  0
    1.4047    7.7009   18.8053 H   0  0  0  0  0  0
   -0.3482    6.6332   17.4542 H   0  0  0  0  0  0
   -0.4799    4.1690   17.3424 H   0  0  0  0  0  0
    1.1888    2.7669   18.4899 H   0  0  0  0  0  0
    2.9583    3.8225   19.8287 H   0  0  0  0  0  0
  1  2  1  0  0  0
  1 29  1  0  0  0
  2  3  2  0  0  0
  2  4  1  0  0  0
  4  5  1  0  0  0
  4  8  1  0  0  0
  4  9  1  0  0  0
  5  6  1  0  0  0
  5 30  1  0  0  0
  5 31  1  0  0  0
  6  7  1  0  0  0
  6 32  1  0  0  0
  6 33  1  0  0  0
  7  8  1  0  0  0
  7 34  1  0  0  0
  7 35  1  0  0  0
  8 36  1  0  0  0
  8 37  1  0  0  0
  9 10  1  0  0  0
  9 38  1  0  0  0
 10 11  2  0  0  0
 10 12  1  0  0  0
 12 13  1  0  0  0
 12 39  1  0  0  0
 13 14  2  0  0  0
 13 18  1  0  0  0
 14 15  1  0  0  0
 14 40  1  0  0  0
 15 16  2  0  0  0
 15 25  1  0  0  0
 16 17  1  0  0  0
 16 41  1  0  0  0
 17 18  2  0  0  0
 17 42  1  0  0  0
 18 19  1  0  0  0
 19 20  2  0  0  0
 19 24  1  0  0  0
 20 21  1  0  0  0
 20 43  1  0  0  0
 21 22  2  0  0  0
 21 44  1  0  0  0
 22 23  1  0  0  0
 22 45  1  0  0  0
 23 24  2  0  0  0
 23 46  1  0  0  0
 24 47  1  0  0  0
 25 26  1  0  0  0
 25 27  1  0  0  0
 25 28  1  0  0  0
M  END
> <s_m_entry_id>
2561

> <s_m_entry_name>
dock_pv.89

> <s_m_Source_Path>
/home/csk/Desktop/cluster/DUD-E-result/fabp4

> <s_m_Source_File>
dock_pv.maegz

> <i_m_Source_File_Index>
89

> <chembl_id>
CHEMBL3922017

> <chembl_pref_name>
None

> <i_lp_mmshare_version>
53161

> <r_lp_tautomer_probability>
1

> <s_lp_Force_Field>
OPLS_2005

> <r_lp_Energy>
34.99837

> <b_lp_Chiralities_Consistent>
1

> <s_lp_Variant>
CHEMBL2083_lig86-1

> <s_i_glide_gridfile>
glide-grid_2nnq

> <i_i_glide_lignum>
96

> <i_i_glide_rotatable_bonds>
8

> <r_i_docking_score>
-7.28071208499788

> <r_i_glide_ligand_efficiency>
-0.260025431607067

> <r_i_glide_ligand_efficiency_sa>
-0.789590357148204

> <r_i_glide_ligand_efficiency_ln>
-1.68060212021326

> <r_i_glide_gscore>
-7.28071208499788

> <r_i_glide_lipo>
-3.89461493381583

> <r_i_glide_hbond>
0

> <r_i_glide_metal>
0

> <r_i_glide_rewards>
-1.32442789029846

> <r_i_glide_evdw>
-40.8907928466797

> <r_i_glide_ecoul>
-4.89315176010132

> <r_i_glide_erotb>
0.760898340983309

> <r_i_glide_esite>
-0.0440551955177196

> <r_i_glide_emodel>
-64.9593438485155

> <r_i_glide_energy>
-45.783944606781

> <r_i_glide_einternal>
5.4526891708374

> <i_i_glide_confnum>
113

> <i_i_glide_posenum>
117

> <r_i_glide_eff_state_penalty>
0

> <s_user_duplicate_titles>
CHEMBL2083_lig86

> <i_f3d_flags>
0

> <s_m_subgroup_title>
dock_pv

> <s_m_subgroupid>
dock_pv

> <b_m_subgroup_collapsed>
1

$$$$
CHEMBL2083_lig196
                    3D
 Schrodinger Suite 2021-1.
 47 51  0  0  1  0            999 V2000
    4.5534    9.1797   16.7473 C   0  0  0  0  0  0
    4.6336    8.7093   18.1323 N   0  0  0  0  0  0
    5.8506    9.2309   18.7984 C   0  0  2  0  0  0
    3.8360    7.6647   18.6535 C   0  0  0  0  0  0
    2.7984    7.1177   17.8529 C   0  0  0  0  0  0
    1.9709    6.1285   18.4214 C   0  0  0  0  0  0
    2.1811    5.6942   19.7213 C   0  0  0  0  0  0
    3.1721    6.2430   20.5199 C   0  0  0  0  0  0
    4.0334    7.2323   20.0043 C   0  0  0  0  0  0
    2.5688    7.5754   16.4011 C   0  0  1  0  0  0
    3.2640    8.8728   15.9741 C   0  0  2  0  0  0
    3.5210    8.7028   14.4671 C   0  0  0  0  0  0
    3.5197    7.2050   14.2713 C   0  0  0  0  0  0
    3.0307    6.5796   15.3537 C   0  0  0  0  0  0
    6.2725    8.3014   19.9526 C   0  0  2  0  0  0
    5.1011    7.9545   20.8561 C   0  0  2  0  0  0
    5.8573    7.3090   22.0135 C   0  0  0  0  0  0
    7.1200    7.7693   22.0640 C   0  0  0  0  0  0
    7.4317    8.6616   20.8781 C   0  0  0  0  0  0
    3.1901    5.8019   21.9761 C   0  0  0  0  0  0
    0.7866    5.5030   17.6880 C   0  0  0  0  0  0
    5.5935   10.6880   19.2737 C   0  0  0  0  0  0
    6.7062   11.4562   19.1063 O   0  0  0  0  0  0
    4.5296   11.0952   19.7416 O   0  0  0  0  0  0
    4.9596   10.1783   16.5806 H   0  0  0  0  0  0
    5.2994    8.5508   16.2576 H   0  0  0  0  0  0
    6.6732    9.2972   18.0836 H   0  0  0  0  0  0
    1.5222    4.9439   20.1361 H   0  0  0  0  0  0
    1.5012    7.7531   16.2762 H   0  0  0  0  0  0
    2.5913    9.7168   16.1353 H   0  0  0  0  0  0
    2.7382    9.1752   13.8739 H   0  0  0  0  0  0
    4.4669    9.1502   14.1564 H   0  0  0  0  0  0
    3.8666    6.7416   13.3585 H   0  0  0  0  0  0
    2.8843    5.5159   15.4622 H   0  0  0  0  0  0
    6.5930    7.3804   19.4524 H   0  0  0  0  0  0
    4.6094    8.8496   21.2420 H   0  0  0  0  0  0
    5.4193    6.6969   22.7824 H   0  0  0  0  0  0
    7.8493    7.5489   22.8304 H   0  0  0  0  0  0
    7.4536    9.7162   21.1484 H   0  0  0  0  0  0
    8.3903    8.4269   20.4134 H   0  0  0  0  0  0
    2.2661    5.3090   22.2700 H   0  0  0  0  0  0
    4.0167    5.1166   22.1654 H   0  0  0  0  0  0
    3.2654    6.6660   22.6359 H   0  0  0  0  0  0
    0.4040    6.0781   16.8490 H   0  0  0  0  0  0
    1.0473    4.5085   17.3420 H   0  0  0  0  0  0
   -0.0580    5.3940   18.3690 H   0  0  0  0  0  0
    6.5617   12.3792   19.3393 H   0  0  0  0  0  0
  1 11  1  0  0  0
  1  2  1  0  0  0
  1 25  1  0  0  0
  1 26  1  0  0  0
  2  4  1  0  0  0
  2  3  1  0  0  0
  3 15  1  0  0  0
  3 22  1  0  0  0
  3 27  1  0  0  0
  4  5  2  0  0  0
  4  9  1  0  0  0
  5 10  1  0  0  0
  5  6  1  0  0  0
  6  7  2  0  0  0
  6 21  1  0  0  0
  7  8  1  0  0  0
  7 28  1  0  0  0
  8  9  2  0  0  0
  8 20  1  0  0  0
  9 16  1  0  0  0
 10 11  1  0  0  0
 10 14  1  0  0  0
 10 29  1  0  0  0
 11 12  1  0  0  0
 11 30  1  0  0  0
 12 13  1  0  0  0
 12 31  1  0  0  0
 12 32  1  0  0  0
 13 14  2  0  0  0
 13 33  1  0  0  0
 14 34  1  0  0  0
 15 16  1  0  0  0
 15 19  1  0  0  0
 15 35  1  0  0  0
 16 17  1  0  0  0
 16 36  1  0  0  0
 17 18  2  0  0  0
 17 37  1  0  0  0
 18 19  1  0  0  0
 18 38  1  0  0  0
 19 39  1  0  0  0
 19 40  1  0  0  0
 20 41  1  0  0  0
 20 42  1  0  0  0
 20 43  1  0  0  0
 21 44  1  0  0  0
 21 45  1  0  0  0
 21 46  1  0  0  0
 22 23  1  0  0  0
 22 24  2  0  0  0
 23 47  1  0  0  0
M  END
> <s_m_entry_id>
2562

> <s_m_entry_name>
dock_pv.90

> <s_m_Source_Path>
/home/csk/Desktop/cluster/DUD-E-result/fabp4

> <s_m_Source_File>
dock_pv.maegz

> <i_m_Source_File_Index>
90

> <chembl_id>
CHEMBL3827900

> <chembl_pref_name>
None

> <i_lp_mmshare_version>
53161

> <r_lp_tautomer_probability>
1

> <s_lp_Force_Field>
OPLS_2005

> <r_lp_Energy>
78.406255

> <b_lp_Chiralities_Consistent>
1

> <s_lp_Variant>
CHEMBL2083_lig196-3

> <s_i_glide_gridfile>
glide-grid_2nnq

> <i_i_glide_lignum>
248

> <i_i_glide_rotatable_bonds>
2

> <r_i_docking_score>
-7.27939479785062

> <r_i_glide_ligand_efficiency>
-0.303308116577109

> <r_i_glide_ligand_efficiency_sa>
-0.874892000681352

> <r_i_glide_ligand_efficiency_ln>
-1.74229320478726

> <r_i_glide_gscore>
-7.27939479785062

> <r_i_glide_lipo>
-3.43802277891667

> <r_i_glide_hbond>
-0.289225025847359

> <r_i_glide_metal>
0

> <r_i_glide_rewards>
-1.41545817304971

> <r_i_glide_evdw>
-32.3093185424805

> <r_i_glide_ecoul>
-4.60193395614624

> <r_i_glide_erotb>
0.180881914396739

> <r_i_glide_esite>
-0.0118147138876611

> <r_i_glide_emodel>
-51.9401113157605

> <r_i_glide_energy>
-36.9112524986267

> <r_i_glide_einternal>
0.82054740190506

> <i_i_glide_confnum>
2

> <i_i_glide_posenum>
352

> <r_i_glide_eff_state_penalty>
0

> <s_user_duplicate_titles>
CHEMBL2083_lig196

> <i_f3d_flags>
0

> <s_m_subgroup_title>
dock_pv

> <s_m_subgroupid>
dock_pv

> <b_m_subgroup_collapsed>
1

$$$$
CHEMBL2083_lig198
                    3D
 Schrodinger Suite 2021-1.
 44 48  0  0  1  0            999 V2000
    5.5142    8.4475   19.5137 C   0  0  0  0  0  0
    4.6134    9.1364   18.5511 N   0  0  0  0  0  0
    5.1873   10.2780   17.7721 C   0  0  1  0  0  0
    3.4334    8.4645   18.1058 C   0  0  0  0  0  0
    2.9585    7.3085   18.7915 C   0  0  0  0  0  0
    1.7110    6.7778   18.4485 C   0  0  0  0  0  0
    0.9225    7.3585   17.4634 C   0  0  0  0  0  0
    1.4097    8.4543   16.7584 C   0  0  0  0  0  0
    2.6631    9.0052   17.0410 C   0  0  0  0  0  0
    3.8344    6.6483   19.8528 C   0  0  1  0  0  0
    4.6399    7.7186   20.5433 C   0  0  1  0  0  0
    5.1848    7.0942   21.8158 C   0  0  0  0  0  0
    4.0510    6.1250   22.1331 C   0  0  0  0  0  0
    3.2486    5.9387   21.0611 C   0  0  0  0  0  0
    4.0240   11.0584   17.1061 C   0  0  2  0  0  0
    3.2642   10.1239   16.1947 C   0  0  2  0  0  0
    2.4048   11.1067   15.4228 C   0  0  0  0  0  0
    3.0106   12.3111   15.3946 C   0  0  0  0  0  0
    4.2622   12.3116   16.2592 C   0  0  0  0  0  0
    5.9334   11.2932   18.6771 C   0  0  0  0  0  0
    7.1098   11.7094   18.1240 O   0  0  0  0  0  0
    5.4884   11.7098   19.7420 O   0  0  0  0  0  0
   -0.4473    6.7795   17.1528 C   0  0  0  0  0  0
    6.1127    7.6957   18.9939 H   0  0  0  0  0  0
    6.2463    9.1099   19.9726 H   0  0  0  0  0  0
    5.9090    9.9114   17.0428 H   0  0  0  0  0  0
    1.3409    5.9066   18.9707 H   0  0  0  0  0  0
    0.8088    8.8789   15.9703 H   0  0  0  0  0  0
    4.4768    5.9514   19.3154 H   0  0  0  0  0  0
    3.9229    8.4728   20.8915 H   0  0  0  0  0  0
    5.3132    7.8442   22.5957 H   0  0  0  0  0  0
    6.1457    6.5993   21.6736 H   0  0  0  0  0  0
    3.9287    5.6819   23.1115 H   0  0  0  0  0  0
    2.3857    5.2951   21.0105 H   0  0  0  0  0  0
    3.3531   11.3747   17.9140 H   0  0  0  0  0  0
    3.9351    9.6323   15.4878 H   0  0  0  0  0  0
    1.5213   10.8284   14.8754 H   0  0  0  0  0  0
    2.6760   13.1853   14.8534 H   0  0  0  0  0  0
    4.3201   13.2020   16.8886 H   0  0  0  0  0  0
    5.1813   12.2609   15.6752 H   0  0  0  0  0  0
    7.4948   12.4116   18.6660 H   0  0  0  0  0  0
   -0.9186    7.2611   16.2962 H   0  0  0  0  0  0
   -0.3619    5.7131   16.9400 H   0  0  0  0  0  0
   -1.1070    6.8884   18.0146 H   0  0  0  0  0  0
  1 11  1  0  0  0
  1  2  1  0  0  0
  1 24  1  0  0  0
  1 25  1  0  0  0
  2  4  1  0  0  0
  2  3  1  0  0  0
  3 15  1  0  0  0
  3 20  1  0  0  0
  3 26  1  0  0  0
  4  5  2  0  0  0
  4  9  1  0  0  0
  5 10  1  0  0  0
  5  6  1  0  0  0
  6  7  2  0  0  0
  6 27  1  0  0  0
  7  8  1  0  0  0
  7 23  1  0  0  0
  8  9  2  0  0  0
  8 28  1  0  0  0
  9 16  1  0  0  0
 10 11  1  0  0  0
 10 14  1  0  0  0
 10 29  1  0  0  0
 11 12  1  0  0  0
 11 30  1  0  0  0
 12 13  1  0  0  0
 12 31  1  0  0  0
 12 32  1  0  0  0
 13 14  2  0  0  0
 13 33  1  0  0  0
 14 34  1  0  0  0
 15 16  1  0  0  0
 15 19  1  0  0  0
 15 35  1  0  0  0
 16 17  1  0  0  0
 16 36  1  0  0  0
 17 18  2  0  0  0
 17 37  1  0  0  0
 18 19  1  0  0  0
 18 38  1  0  0  0
 19 39  1  0  0  0
 19 40  1  0  0  0
 20 21  1  0  0  0
 20 22  2  0  0  0
 21 41  1  0  0  0
 23 42  1  0  0  0
 23 43  1  0  0  0
 23 44  1  0  0  0
M  END
> <s_m_entry_id>
2563

> <s_m_entry_name>
dock_pv.91

> <s_m_Source_Path>
/home/csk/Desktop/cluster/DUD-E-result/fabp4

> <s_m_Source_File>
dock_pv.maegz

> <i_m_Source_File_Index>
91

> <chembl_id>
CHEMBL3827483

> <chembl_pref_name>
None

> <i_lp_mmshare_version>
53161

> <r_lp_tautomer_probability>
1

> <s_lp_Force_Field>
OPLS_2005

> <r_lp_Energy>
83.003953

> <b_lp_Chiralities_Consistent>
1

> <s_lp_Variant>
CHEMBL2083_lig198-8

> <s_i_glide_gridfile>
glide-grid_2nnq

> <i_i_glide_lignum>
317

> <i_i_glide_rotatable_bonds>
2

> <r_i_docking_score>
-7.2682331901428

> <r_i_glide_ligand_efficiency>
-0.316010138701861

> <r_i_glide_ligand_efficiency_sa>
-0.898690797813256

> <r_i_glide_ligand_efficiency_ln>
-1.75752469007137

> <r_i_glide_gscore>
-7.2682331901428

> <r_i_glide_lipo>
-3.37749756278743

> <r_i_glide_hbond>
0

> <r_i_glide_metal>
0

> <r_i_glide_rewards>
-1.54623025418301

> <r_i_glide_evdw>
-32.3462867736816

> <r_i_glide_ecoul>
-5.7708044052124

> <r_i_glide_erotb>
0.195647951793434

> <r_i_glide_esite>
-0.0572183254998567

> <r_i_glide_emodel>
-54.3374218394447

> <r_i_glide_energy>
-38.117091178894

> <r_i_glide_einternal>
0.624367594718933

> <i_i_glide_confnum>
2

> <i_i_glide_posenum>
391

> <r_i_glide_eff_state_penalty>
0

> <s_user_duplicate_titles>
CHEMBL2083_lig198

> <i_f3d_flags>
0

> <s_m_subgroup_title>
dock_pv

> <s_m_subgroupid>
dock_pv

> <b_m_subgroup_collapsed>
1

$$$$
CHEMBL2083_lig198
                    3D
 Schrodinger Suite 2021-1.
 44 48  0  0  1  0            999 V2000
    1.5444    9.5577   16.7726 C   0  0  0  0  0  0
    1.9489    8.1320   16.8582 N   0  0  0  0  0  0
    1.1978    7.3023   17.8462 C   0  0  2  0  0  0
    3.2091    7.7087   16.3468 C   0  0  0  0  0  0
    3.8169    8.4322   15.2984 C   0  0  0  0  0  0
    5.0032    7.9559   14.7331 C   0  0  0  0  0  0
    5.6174    6.8051   15.2206 C   0  0  0  0  0  0
    5.0525    6.1292   16.3001 C   0  0  0  0  0  0
    3.8545    6.5660   16.8747 C   0  0  0  0  0  0
    3.1231    9.6949   14.8274 C   0  0  1  0  0  0
    2.5928   10.4287   16.0545 C   0  0  1  0  0  0
    2.2156   11.7991   15.5036 C   0  0  0  0  0  0
    3.3016   11.9780   14.4538 C   0  0  0  0  0  0
    3.8804   10.8036   14.1420 C   0  0  0  0  0  0
    1.7409    5.8491   17.8788 C   0  0  1  0  0  0
    3.2396    5.9216   18.1041 C   0  0  1  0  0  0
    3.5688    4.5091   18.5225 C   0  0  0  0  0  0
    2.4710    3.9244   19.0366 C   0  0  0  0  0  0
    1.2795    4.8578   18.9418 C   0  0  0  0  0  0
   -0.3508    7.2943   17.6560 C   0  0  0  0  0  0
   -0.8456    7.7348   16.4683 O   0  0  0  0  0  0
   -1.0939    6.9084   18.5425 O   0  0  0  0  0  0
    6.9157    6.3196   14.6045 C   0  0  0  0  0  0
    0.6616    9.6219   16.1416 H   0  0  0  0  0  0
    1.2549    9.9716   17.7390 H   0  0  0  0  0  0
    1.3265    7.7273   18.8395 H   0  0  0  0  0  0
    5.4504    8.4848   13.9046 H   0  0  0  0  0  0
    5.5580    5.2651   16.7042 H   0  0  0  0  0  0
    2.3235    9.3637   14.1675 H   0  0  0  0  0  0
    3.4206   10.5555   16.7600 H   0  0  0  0  0  0
    2.2715   12.5580   16.2853 H   0  0  0  0  0  0
    1.2095   11.8304   15.0819 H   0  0  0  0  0  0
    3.5616   12.9329   14.0363 H   0  0  0  0  0  0
    4.6527   10.6381   13.4058 H   0  0  0  0  0  0
    1.5313    5.3942   16.9054 H   0  0  0  0  0  0
    3.4848    6.5827   18.9391 H   0  0  0  0  0  0
    4.5706    4.1074   18.5098 H   0  0  0  0  0  0
    2.4061    2.9419   19.4838 H   0  0  0  0  0  0
    1.1220    5.3599   19.8941 H   0  0  0  0  0  0
    0.3606    4.3498   18.6437 H   0  0  0  0  0  0
   -1.8081    7.7110   16.5266 H   0  0  0  0  0  0
    7.5236    5.7760   15.3285 H   0  0  0  0  0  0
    6.7189    5.6741   13.7493 H   0  0  0  0  0  0
    7.5109    7.1667   14.2655 H   0  0  0  0  0  0
  1 11  1  0  0  0
  1  2  1  0  0  0
  1 24  1  0  0  0
  1 25  1  0  0  0
  2  4  1  0  0  0
  2  3  1  0  0  0
  3 15  1  0  0  0
  3 20  1  0  0  0
  3 26  1  0  0  0
  4  5  2  0  0  0
  4  9  1  0  0  0
  5 10  1  0  0  0
  5  6  1  0  0  0
  6  7  2  0  0  0
  6 27  1  0  0  0
  7  8  1  0  0  0
  7 23  1  0  0  0
  8  9  2  0  0  0
  8 28  1  0  0  0
  9 16  1  0  0  0
 10 11  1  0  0  0
 10 14  1  0  0  0
 10 29  1  0  0  0
 11 12  1  0  0  0
 11 30  1  0  0  0
 12 13  1  0  0  0
 12 31  1  0  0  0
 12 32  1  0  0  0
 13 14  2  0  0  0
 13 33  1  0  0  0
 14 34  1  0  0  0
 15 16  1  0  0  0
 15 19  1  0  0  0
 15 35  1  0  0  0
 16 17  1  0  0  0
 16 36  1  0  0  0
 17 18  2  0  0  0
 17 37  1  0  0  0
 18 19  1  0  0  0
 18 38  1  0  0  0
 19 39  1  0  0  0
 19 40  1  0  0  0
 20 21  1  0  0  0
 20 22  2  0  0  0
 21 41  1  0  0  0
 23 42  1  0  0  0
 23 43  1  0  0  0
 23 44  1  0  0  0
M  END
> <s_m_entry_id>
2564

> <s_m_entry_name>
dock_pv.92

> <s_m_Source_Path>
/home/csk/Desktop/cluster/DUD-E-result/fabp4

> <s_m_Source_File>
dock_pv.maegz

> <i_m_Source_File_Index>
92

> <chembl_id>
CHEMBL3827483

> <chembl_pref_name>
None

> <i_lp_mmshare_version>
53161

> <r_lp_tautomer_probability>
1

> <s_lp_Force_Field>
OPLS_2005

> <r_lp_Energy>
78.697577

> <b_lp_Chiralities_Consistent>
1

> <s_lp_Variant>
CHEMBL2083_lig198-31

> <s_i_glide_gridfile>
glide-grid_2nnq

> <i_i_glide_lignum>
340

> <i_i_glide_rotatable_bonds>
2

> <r_i_docking_score>
-7.26542496577533

> <r_i_glide_ligand_efficiency>
-0.315888041990232

> <r_i_glide_ligand_efficiency_sa>
-0.898343571007068

> <r_i_glide_ligand_efficiency_ln>
-1.75684563595574

> <r_i_glide_gscore>
-7.26542496577533

> <r_i_glide_lipo>
-3.23691177741049

> <r_i_glide_hbond>
0

> <r_i_glide_metal>
0

> <r_i_glide_rewards>
-2.09146225853215

> <r_i_glide_evdw>
-33.049976348877

> <r_i_glide_ecoul>
-3.20133376121521

> <r_i_glide_erotb>
0.195647951793434

> <r_i_glide_esite>
0

> <r_i_glide_emodel>
-50.3281748968886

> <r_i_glide_energy>
-36.2513101100922

> <r_i_glide_einternal>
1.70393431186676

> <i_i_glide_confnum>
2

> <i_i_glide_posenum>
298

> <r_i_glide_eff_state_penalty>
0

> <s_user_duplicate_titles>
CHEMBL2083_lig198

> <i_f3d_flags>
0

> <s_m_subgroup_title>
dock_pv

> <s_m_subgroupid>
dock_pv

> <b_m_subgroup_collapsed>
1

$$$$
CHEMBL2083_lig103
                    3D
 Schrodinger Suite 2021-1.
 45 48  0  0  1  0            999 V2000
    0.4333    4.1395   18.1419 C   0  0  0  0  0  0
    1.4148    5.2960   18.1507 C   0  0  0  0  0  0
    1.3344    6.5381   16.9418 S   0  0  0  0  0  0
    2.6783    7.3926   17.6404 C   0  0  0  0  0  0
    3.2083    8.5540   17.0936 N   0  0  0  0  0  0
    2.5410    9.5524   16.4824 C   0  0  0  0  0  0
    1.3520    9.5259   16.1783 O   0  0  0  0  0  0
    3.3841   10.6724   16.1144 C   0  0  0  0  0  0
    4.0959   11.4888   16.9513 C   0  0  0  0  0  0
    4.8690   12.5135   16.1390 C   0  0  0  0  0  0
    4.7009   12.0670   14.6931 C   0  0  0  0  0  0
    3.5568   11.0671   14.6570 C   0  0  0  0  0  0
    4.0905   11.4645   18.4141 C   0  0  0  0  0  0
    3.5438   10.6125   19.1075 O   0  0  0  0  0  0
    4.7649   12.5090   18.9812 O   0  0  0  0  0  0
    3.1821    6.7269   18.7554 C   0  0  0  0  0  0
    2.4627    5.5436   19.0448 C   0  0  0  0  0  0
    2.8386    4.5774   20.1418 C   0  0  0  0  0  0
    4.3259    7.2086   19.5516 C   0  0  0  0  0  0
    4.3030    7.0442   20.8989 O   0  0  0  0  0  0
    5.4733    7.6413   21.3587 N   0  0  0  0  0  0
    6.0378    8.0799   20.2553 C   0  0  0  0  0  0
    5.3855    7.8491   19.1299 N   0  0  0  0  0  0
    7.3708    8.8097   20.3051 C   0  0  0  0  0  0
    8.4100    8.6048   19.2278 C   0  0  0  0  0  0
    7.6848    9.9343   19.3450 C   0  0  0  0  0  0
    0.1071    3.8781   19.1463 H   0  0  0  0  0  0
   -0.4671    4.3505   17.5637 H   0  0  0  0  0  0
    0.8763    3.2306   17.7421 H   0  0  0  0  0  0
    4.1499    8.7711   17.3882 H   0  0  0  0  0  0
    5.9235   12.5846   16.4091 H   0  0  0  0  0  0
    4.4360   13.5054   16.2918 H   0  0  0  0  0  0
    4.5255   12.9078   14.0219 H   0  0  0  0  0  0
    5.6165   11.5889   14.3444 H   0  0  0  0  0  0
    2.6334   11.5176   14.2820 H   0  0  0  0  0  0
    3.7937   10.2245   14.0031 H   0  0  0  0  0  0
    5.1194   13.1996   18.4015 H   0  0  0  0  0  0
    3.9196    4.5094   20.2546 H   0  0  0  0  0  0
    2.4484    4.9116   21.1006 H   0  0  0  0  0  0
    2.4962    3.5586   19.9593 H   0  0  0  0  0  0
    7.7670    8.9199   21.3161 H   0  0  0  0  0  0
    9.4567    8.5366   19.5242 H   0  0  0  0  0  0
    8.1783    7.9419   18.3927 H   0  0  0  0  0  0
    6.9442   10.2057   18.5942 H   0  0  0  0  0  0
    8.2266   10.8041   19.7154 H   0  0  0  0  0  0
  1  2  1  0  0  0
  1 27  1  0  0  0
  1 28  1  0  0  0
  1 29  1  0  0  0
  2  3  1  0  0  0
  2 17  2  0  0  0
  3  4  1  0  0  0
  4  5  1  0  0  0
  4 16  2  0  0  0
  5  6  1  0  0  0
  5 30  1  0  0  0
  6  7  2  0  0  0
  6  8  1  0  0  0
  8  9  2  0  0  0
  8 12  1  0  0  0
  9 10  1  0  0  0
  9 13  1  0  0  0
 10 11  1  0  0  0
 10 31  1  0  0  0
 10 32  1  0  0  0
 11 12  1  0  0  0
 11 33  1  0  0  0
 11 34  1  0  0  0
 12 35  1  0  0  0
 12 36  1  0  0  0
 13 14  2  0  0  0
 13 15  1  0  0  0
 15 37  1  0  0  0
 16 17  1  0  0  0
 16 19  1  0  0  0
 17 18  1  0  0  0
 18 38  1  0  0  0
 18 39  1  0  0  0
 18 40  1  0  0  0
 19 20  1  0  0  0
 19 23  2  0  0  0
 20 21  1  0  0  0
 21 22  2  0  0  0
 22 23  1  0  0  0
 22 24  1  0  0  0
 24 25  1  0  0  0
 24 26  1  0  0  0
 24 41  1  0  0  0
 25 26  1  0  0  0
 25 42  1  0  0  0
 25 43  1  0  0  0
 26 44  1  0  0  0
 26 45  1  0  0  0
M  END
> <s_m_entry_id>
2565

> <s_m_entry_name>
dock_pv.93

> <s_m_Source_Path>
/home/csk/Desktop/cluster/DUD-E-result/fabp4

> <s_m_Source_File>
dock_pv.maegz

> <i_m_Source_File_Index>
93

> <chembl_id>
CHEMBL3919426

> <chembl_pref_name>
None

> <i_lp_mmshare_version>
53161

> <r_lp_tautomer_probability>
1

> <s_lp_Force_Field>
OPLS_2005

> <r_lp_Energy>
36.503755

> <b_lp_Chiralities_Consistent>
1

> <s_lp_Variant>
CHEMBL2083_lig103-1

> <s_i_glide_gridfile>
glide-grid_2nnq

> <i_i_glide_lignum>
113

> <i_i_glide_rotatable_bonds>
7

> <r_i_docking_score>
-7.25453924984357

> <r_i_glide_ligand_efficiency>
-0.279020740378599

> <r_i_glide_ligand_efficiency_sa>
-0.826597845478001

> <r_i_glide_ligand_efficiency_ln>
-1.70370473874094

> <r_i_glide_gscore>
-7.25453924984357

> <r_i_glide_lipo>
-2.85845010774838

> <r_i_glide_hbond>
-0.304225982948268

> <r_i_glide_metal>
0

> <r_i_glide_rewards>
-1.35151602816164

> <r_i_glide_evdw>
-40.2228202819824

> <r_i_glide_ecoul>
-10.1114482879639

> <r_i_glide_erotb>
0.831492361045508

> <r_i_glide_esite>
-0.0439812347370939

> <r_i_glide_emodel>
-71.7178200795028

> <r_i_glide_energy>
-50.3342685699463

> <r_i_glide_einternal>
1.88577365875244

> <i_i_glide_confnum>
129

> <i_i_glide_posenum>
260

> <r_i_glide_eff_state_penalty>
0

> <s_user_duplicate_titles>
CHEMBL2083_lig103

> <i_f3d_flags>
0

> <s_m_subgroup_title>
dock_pv

> <s_m_subgroupid>
dock_pv

> <b_m_subgroup_collapsed>
1

$$$$
CHEMBL2083_lig180
                    3D
 Schrodinger Suite 2021-1.
 62 66  0  0  1  0            999 V2000
    5.2174    8.2464   13.9667 C   0  0  0  0  0  0
    5.8757    7.0389   13.7416 C   0  0  0  0  0  0
    6.7101    6.5003   14.7112 C   0  0  0  0  0  0
    6.8889    7.1574   15.9302 C   0  0  0  0  0  0
    6.2178    8.3693   16.1447 C   0  0  0  0  0  0
    5.3753    8.9212   15.1775 C   0  0  0  0  0  0
    4.6750   10.2044   15.4505 C   0  0  0  0  0  0
    4.8334   11.2630   14.5561 C   0  0  0  0  0  0
    4.2868   12.5095   14.8293 C   0  0  0  0  0  0
    3.5605   12.7254   15.9991 C   0  0  0  0  0  0
    3.3505   11.6718   16.8861 C   0  0  0  0  0  0
    3.8907   10.4113   16.6065 C   0  0  0  0  0  0
    3.6056    9.3388   17.4710 N   0  0  0  0  0  0
    2.9007    8.1948   17.1738 C   0  0  0  0  0  0
    3.0651    7.3813   18.2914 C   0  0  0  0  0  0
    3.9212    8.1004   19.1657 C   0  0  0  0  0  0
    4.1956    9.2888   18.6697 N   0  0  0  0  0  0
    2.1727    7.9796   15.8481 C   0  0  0  0  0  0
    2.5222    6.6346   15.1844 C   0  0  0  0  0  0
    2.4750    6.0234   18.4321 C   0  0  0  0  0  0
    1.1232    5.8217   18.1344 C   0  0  0  0  0  0
    0.5804    4.5436   18.1948 C   0  0  0  0  0  0
    1.3782    3.4900   18.6260 C   0  0  0  0  0  0
    2.7169    3.6841   18.9469 C   0  0  0  0  0  0
    3.2751    4.9483   18.8214 C   0  0  0  0  0  0
    4.4936    7.6970   20.4991 C   0  0  0  0  0  0
    5.7109    8.2330   20.9379 C   0  0  0  0  0  0
    6.2732    7.8214   22.1427 C   0  0  0  0  0  0
    5.5928    6.9092   22.9425 C   0  0  0  0  0  0
    4.3638    6.3972   22.5431 C   0  0  0  0  0  0
    3.8193    6.7916   21.3274 C   0  0  0  0  0  0
    7.7587    6.4800   16.9906 C   0  0  2  0  0  0
    7.2191    5.2144   17.3420 O   0  0  0  0  0  0
    8.0486    7.3082   18.2702 C   0  0  0  0  0  0
    8.6555    8.5005   17.9960 O   0  0  0  0  0  0
    7.8044    6.9090   19.4032 O   0  0  0  0  0  0
    4.5615    8.6448   13.2062 H   0  0  0  0  0  0
    5.7284    6.5076   12.8120 H   0  0  0  0  0  0
    7.1994    5.5551   14.5219 H   0  0  0  0  0  0
    6.3187    8.8990   17.0796 H   0  0  0  0  0  0
    5.4182   11.1356   13.6566 H   0  0  0  0  0  0
    4.4586   13.3081   14.1314 H   0  0  0  0  0  0
    3.1624   13.7066   16.2157 H   0  0  0  0  0  0
    2.7654   11.8370   17.7797 H   0  0  0  0  0  0
    1.0951    8.0372   16.0028 H   0  0  0  0  0  0
    2.3843    8.7719   15.1295 H   0  0  0  0  0  0
    1.9270    5.8216   15.5933 H   0  0  0  0  0  0
    2.3223    6.6603   14.1126 H   0  0  0  0  0  0
    3.5728    6.3742   15.3133 H   0  0  0  0  0  0
    0.4989    6.6489   17.8316 H   0  0  0  0  0  0
   -0.4594    4.3798   17.9492 H   0  0  0  0  0  0
    0.9555    2.5091   18.7182 H   0  0  0  0  0  0
    3.3196    2.8549   19.2855 H   0  0  0  0  0  0
    4.3216    5.0985   19.0418 H   0  0  0  0  0  0
    6.2490    8.9416   20.3252 H   0  0  0  0  0  0
    7.2275    8.2143   22.4595 H   0  0  0  0  0  0
    6.0129    6.6085   23.8891 H   0  0  0  0  0  0
    3.8346    5.7008   23.1779 H   0  0  0  0  0  0
    2.8562    6.3965   21.0436 H   0  0  0  0  0  0
    8.7208    6.2930   16.5161 H   0  0  0  0  0  0
    7.5121    5.0036   18.2354 H   0  0  0  0  0  0
    8.8193    8.6271   17.0611 H   0  0  0  0  0  0
  1  6  1  0  0  0
  1  2  2  0  0  0
  1 37  1  0  0  0
  2  3  1  0  0  0
  2 38  1  0  0  0
  3  4  2  0  0  0
  3 39  1  0  0  0
  4  5  1  0  0  0
  4 32  1  0  0  0
  5  6  2  0  0  0
  5 40  1  0  0  0
  6  7  1  0  0  0
  7 12  1  0  0  0
  7  8  2  0  0  0
  8  9  1  0  0  0
  8 41  1  0  0  0
  9 10  2  0  0  0
  9 42  1  0  0  0
 10 11  1  0  0  0
 10 43  1  0  0  0
 11 12  2  0  0  0
 11 44  1  0  0  0
 12 13  1  0  0  0
 13 14  1  0  0  0
 13 17  1  0  0  0
 14 18  1  0  0  0
 14 15  2  0  0  0
 15 20  1  0  0  0
 15 16  1  0  0  0
 16 26  1  0  0  0
 16 17  2  0  0  0
 18 19  1  0  0  0
 18 45  1  0  0  0
 18 46  1  0  0  0
 19 47  1  0  0  0
 19 48  1  0  0  0
 19 49  1  0  0  0
 20 21  2  0  0  0
 20 25  1  0  0  0
 21 22  1  0  0  0
 21 50  1  0  0  0
 22 23  2  0  0  0
 22 51  1  0  0  0
 23 24  1  0  0  0
 23 52  1  0  0  0
 24 25  2  0  0  0
 24 53  1  0  0  0
 25 54  1  0  0  0
 26 27  2  0  0  0
 26 31  1  0  0  0
 27 28  1  0  0  0
 27 55  1  0  0  0
 28 29  2  0  0  0
 28 56  1  0  0  0
 29 30  1  0  0  0
 29 57  1  0  0  0
 30 31  2  0  0  0
 30 58  1  0  0  0
 31 59  1  0  0  0
 32 33  1  0  0  0
 32 34  1  0  0  0
 32 60  1  0  0  0
 33 61  1  0  0  0
 34 35  1  0  0  0
 34 36  2  0  0  0
 35 62  1  0  0  0
M  END
> <s_m_entry_id>
2566

> <s_m_entry_name>
dock_pv.94

> <s_m_Source_Path>
/home/csk/Desktop/cluster/DUD-E-result/fabp4

> <s_m_Source_File>
dock_pv.maegz

> <i_m_Source_File_Index>
94

> <chembl_id>
CHEMBL248120

> <chembl_pref_name>
None

> <i_lp_mmshare_version>
53161

> <r_lp_tautomer_probability>
1

> <s_lp_Force_Field>
OPLS_2005

> <r_lp_Energy>
35.803829

> <b_lp_Chiralities_Consistent>
1

> <s_lp_Variant>
CHEMBL2083_lig180-1

> <s_i_glide_gridfile>
glide-grid_2nnq

> <i_i_glide_lignum>
196

> <i_i_glide_rotatable_bonds>
9

> <r_i_docking_score>
-7.25211300045462

> <r_i_glide_ligand_efficiency>
-0.201447583345962

> <r_i_glide_ligand_efficiency_sa>
-0.665165263879458

> <r_i_glide_ligand_efficiency_ln>
-1.58221512724836

> <r_i_glide_gscore>
-7.25211300045462

> <r_i_glide_lipo>
-4.22514464110137

> <r_i_glide_hbond>
0

> <r_i_glide_metal>
0

> <r_i_glide_rewards>
-0.695287638434263

> <r_i_glide_evdw>
-47.9152679443359

> <r_i_glide_ecoul>
-3.16710186004639

> <r_i_glide_erotb>
0.539147955304769

> <r_i_glide_esite>
0

> <r_i_glide_emodel>
-67.6386066526661

> <r_i_glide_energy>
-51.0823698043823

> <r_i_glide_einternal>
4.36213636398315

> <i_i_glide_confnum>
5

> <i_i_glide_posenum>
9

> <r_i_glide_eff_state_penalty>
0

> <s_user_duplicate_titles>
CHEMBL2083_lig180

> <i_f3d_flags>
0

> <s_m_subgroup_title>
dock_pv

> <s_m_subgroupid>
dock_pv

> <b_m_subgroup_collapsed>
1

$$$$
CHEMBL2083_lig199
                    3D
 Schrodinger Suite 2021-1.
 41 45  0  0  1  0            999 V2000
    6.0779    9.4854   19.9261 C   0  0  0  0  0  0
    4.9311    9.3391   19.0215 N   0  0  0  0  0  0
    5.0581   10.2053   17.8169 C   0  0  1  0  0  0
    4.3031    8.0744   18.9629 C   0  0  0  0  0  0
    4.1815    7.3080   20.1468 C   0  0  0  0  0  0
    3.4577    6.1109   20.0958 C   0  0  0  0  0  0
    2.8752    5.6616   18.9181 C   0  0  0  0  0  0
    3.0159    6.4056   17.7513 C   0  0  0  0  0  0
    3.7236    7.6120   17.7516 C   0  0  0  0  0  0
    4.7538    7.8206   21.4719 C   0  0  2  0  0  0
    5.9541    8.7572   21.2774 C   0  0  1  0  0  0
    7.2042    7.9445   21.6083 C   0  0  0  0  0  0
    6.6681    6.8076   22.4294 C   0  0  0  0  0  0
    5.3271    6.7519   22.3865 C   0  0  0  0  0  0
    3.9335    9.8881   16.8109 C   0  0  2  0  0  0
    3.9763    8.4102   16.4753 C   0  0  2  0  0  0
    3.0407    8.3710   15.2849 C   0  0  0  0  0  0
    3.0986    9.5604   14.6498 C   0  0  0  0  0  0
    3.8993   10.5738   15.4461 C   0  0  0  0  0  0
    4.9411   11.6994   18.2146 C   0  0  0  0  0  0
    5.6078   12.5054   17.3402 O   0  0  0  0  0  0
    4.3195   12.1046   19.1946 O   0  0  0  0  0  0
    1.9834    4.1832   18.9164 Cl  0  0  0  0  0  0
    6.8650    8.9965   19.3501 H   0  0  0  0  0  0
    6.4602   10.5017   20.0228 H   0  0  0  0  0  0
    6.0413   10.0829   17.3610 H   0  0  0  0  0  0
    3.3254    5.5236   20.9930 H   0  0  0  0  0  0
    2.5768    6.0368   16.8360 H   0  0  0  0  0  0
    3.9502    8.3609   21.9768 H   0  0  0  0  0  0
    5.9181    9.5322   22.0455 H   0  0  0  0  0  0
    7.7076    7.5544   20.7231 H   0  0  0  0  0  0
    7.9333    8.5321   22.1659 H   0  0  0  0  0  0
    7.3320    6.1323   22.9424 H   0  0  0  0  0  0
    4.7076    6.0202   22.8843 H   0  0  0  0  0  0
    2.9772   10.1100   17.3026 H   0  0  0  0  0  0
    4.9725    8.1110   16.1397 H   0  0  0  0  0  0
    2.5299    7.4833   14.9426 H   0  0  0  0  0  0
    2.6143    9.8249   13.7240 H   0  0  0  0  0  0
    4.8943   10.7492   15.0355 H   0  0  0  0  0  0
    3.3934   11.5386   15.5069 H   0  0  0  0  0  0
    5.5591   13.4349   17.6582 H   0  0  0  0  0  0
  1 11  1  0  0  0
  1  2  1  0  0  0
  1 24  1  0  0  0
  1 25  1  0  0  0
  2  4  1  0  0  0
  2  3  1  0  0  0
  3 15  1  0  0  0
  3 20  1  0  0  0
  3 26  1  0  0  0
  4  5  2  0  0  0
  4  9  1  0  0  0
  5 10  1  0  0  0
  5  6  1  0  0  0
  6  7  2  0  0  0
  6 27  1  0  0  0
  7  8  1  0  0  0
  7 23  1  0  0  0
  8  9  2  0  0  0
  8 28  1  0  0  0
  9 16  1  0  0  0
 10 11  1  0  0  0
 10 14  1  0  0  0
 10 29  1  0  0  0
 11 12  1  0  0  0
 11 30  1  0  0  0
 12 13  1  0  0  0
 12 31  1  0  0  0
 12 32  1  0  0  0
 13 14  2  0  0  0
 13 33  1  0  0  0
 14 34  1  0  0  0
 15 16  1  0  0  0
 15 19  1  0  0  0
 15 35  1  0  0  0
 16 17  1  0  0  0
 16 36  1  0  0  0
 17 18  2  0  0  0
 17 37  1  0  0  0
 18 19  1  0  0  0
 18 38  1  0  0  0
 19 39  1  0  0  0
 19 40  1  0  0  0
 20 21  1  0  0  0
 20 22  2  0  0  0
 21 41  1  0  0  0
M  END
> <s_m_entry_id>
2567

> <s_m_entry_name>
dock_pv.95

> <s_m_Source_Path>
/home/csk/Desktop/cluster/DUD-E-result/fabp4

> <s_m_Source_File>
dock_pv.maegz

> <i_m_Source_File_Index>
95

> <chembl_id>
CHEMBL3828043

> <chembl_pref_name>
None

> <i_lp_mmshare_version>
53161

> <r_lp_tautomer_probability>
1

> <s_lp_Force_Field>
OPLS_2005

> <r_lp_Energy>
70.745558

> <b_lp_Chiralities_Consistent>
1

> <s_lp_Variant>
CHEMBL2083_lig199-6

> <s_i_glide_gridfile>
glide-grid_2nnq

> <i_i_glide_lignum>
347

> <i_i_glide_rotatable_bonds>
2

> <r_i_docking_score>
-7.24039331111065

> <r_i_glide_ligand_efficiency>
-0.314799709178724

> <r_i_glide_ligand_efficiency_sa>
-0.895248497264566

> <r_i_glide_ligand_efficiency_ln>
-1.75079275488332

> <r_i_glide_gscore>
-7.24039331111065

> <r_i_glide_lipo>
-2.80546899635799

> <r_i_glide_hbond>
0

> <r_i_glide_metal>
0

> <r_i_glide_rewards>
-1.46933150937339

> <r_i_glide_evdw>
-29.1319370269775

> <r_i_glide_ecoul>
-9.54877185821533

> <r_i_glide_erotb>
0

> <r_i_glide_esite>
-0.0766801752980933

> <r_i_glide_emodel>
-55.6422422241085

> <r_i_glide_energy>
-38.6807088851929

> <r_i_glide_einternal>
0.528512477874756

> <i_i_glide_confnum>
1

> <i_i_glide_posenum>
162

> <r_i_glide_eff_state_penalty>
0

> <s_user_duplicate_titles>
CHEMBL2083_lig199

> <i_f3d_flags>
0

> <s_m_subgroup_title>
dock_pv

> <s_m_subgroupid>
dock_pv

> <b_m_subgroup_collapsed>
1

$$$$
CHEMBL2083_lig183
                    3D
 Schrodinger Suite 2021-1.
 62 66  0  0  1  0            999 V2000
    5.1555    7.8849   20.5345 C   0  0  0  0  0  0
    6.2332    8.3184   21.3121 C   0  0  0  0  0  0
    6.4465    7.7889   22.5802 C   0  0  0  0  0  0
    5.5207    6.9094   23.1254 C   0  0  0  0  0  0
    4.4314    6.5007   22.3686 C   0  0  0  0  0  0
    4.2718    6.8939   21.0268 C   0  0  0  0  0  0
    3.2841    6.1337   20.1760 C   0  0  0  0  0  0
    1.5653    4.5147   18.6169 C   0  0  0  0  0  0
    2.1886    3.9932   19.7382 C   0  0  0  0  0  0
    3.0500    4.7914   20.4790 C   0  0  0  0  0  0
    1.7960    5.8325   18.2408 C   0  0  0  0  0  0
    2.6139    6.6478   19.0526 C   0  0  0  0  0  0
    0.7836    8.5934   16.9464 C   0  0  0  0  0  0
    1.6376    7.4293   16.4386 C   0  0  0  0  0  0
    1.2112    6.2185   17.0510 O   0  0  0  0  0  0
    1.5205    9.7306   17.0721 O   0  0  0  0  0  0
   -0.4109    8.5024   17.2203 O   0  0  0  0  0  0
    5.1158    8.4327   19.1600 C   0  0  0  0  0  0
    5.5362    7.5712   18.2338 O   0  0  0  0  0  0
    5.4844    8.1652   17.0243 C   0  0  0  0  0  0
    4.9064    9.4339   17.1625 C   0  0  0  0  0  0
    4.7719    9.6403   18.5600 C   0  0  0  0  0  0
    6.0539    7.3223   15.9397 C   0  0  0  0  0  0
    6.7061    6.1420   16.3265 C   0  0  0  0  0  0
    7.3314    5.3511   15.3880 C   0  0  0  0  0  0
    7.2719    5.7090   14.0582 C   0  0  0  0  0  0
    6.6376    6.8723   13.6468 C   0  0  0  0  0  0
    6.0298    7.6877   14.5906 C   0  0  0  0  0  0
    4.4958   10.3962   16.0882 C   0  0  0  0  0  0
    3.6730    9.9548   15.0451 C   0  0  0  0  0  0
    3.1716   10.8533   14.1116 C   0  0  0  0  0  0
    3.5106   12.1982   14.1974 C   0  0  0  0  0  0
    4.3432   12.6497   15.2183 C   0  0  0  0  0  0
    4.8427   11.7502   16.1542 C   0  0  0  0  0  0
    4.2979   10.8816   19.2764 C   0  0  0  0  0  0
    5.4754   11.7522   19.7394 C   0  0  0  0  0  0
    6.9413    9.0306   20.9132 H   0  0  0  0  0  0
    7.2966    8.1048   23.1669 H   0  0  0  0  0  0
    5.6413    6.5484   24.1346 H   0  0  0  0  0  0
    3.7487    5.8022   22.8293 H   0  0  0  0  0  0
    0.9188    3.8888   18.0192 H   0  0  0  0  0  0
    2.0270    2.9624   20.0152 H   0  0  0  0  0  0
    3.5234    4.3181   21.3227 H   0  0  0  0  0  0
    2.7425    7.6856   18.8022 H   0  0  0  0  0  0
    1.5240    7.3375   15.3599 H   0  0  0  0  0  0
    2.7032    7.5932   16.5939 H   0  0  0  0  0  0
    2.4343    9.6520   16.7899 H   0  0  0  0  0  0
    6.7889    5.8414   17.3613 H   0  0  0  0  0  0
    7.9139    4.5093   15.6969 H   0  0  0  0  0  0
    7.8488    5.1450   13.3477 H   0  0  0  0  0  0
    6.6486    7.1481   12.6027 H   0  0  0  0  0  0
    5.5838    8.6050   14.2524 H   0  0  0  0  0  0
    3.4022    8.9153   14.9515 H   0  0  0  0  0  0
    2.5221   10.5122   13.3185 H   0  0  0  0  0  0
    3.1210   12.9005   13.4740 H   0  0  0  0  0  0
    4.5895   13.6987   15.2983 H   0  0  0  0  0  0
    5.4763   12.1291   16.9391 H   0  0  0  0  0  0
    3.6246   11.4709   18.6527 H   0  0  0  0  0  0
    3.7131   10.5817   20.1413 H   0  0  0  0  0  0
    5.1222   12.7088   20.1155 H   0  0  0  0  0  0
    6.0468   11.2622   20.5250 H   0  0  0  0  0  0
    6.1799   11.9723   18.9402 H   0  0  0  0  0  0
  1 18  1  0  0  0
  1  6  1  0  0  0
  1  2  2  0  0  0
  2  3  1  0  0  0
  2 37  1  0  0  0
  3  4  2  0  0  0
  3 38  1  0  0  0
  4  5  1  0  0  0
  4 39  1  0  0  0
  5  6  2  0  0  0
  5 40  1  0  0  0
  6  7  1  0  0  0
  7 10  1  0  0  0
  7 12  2  0  0  0
  8  9  1  0  0  0
  8 11  2  0  0  0
  8 41  1  0  0  0
  9 10  2  0  0  0
  9 42  1  0  0  0
 10 43  1  0  0  0
 11 12  1  0  0  0
 11 15  1  0  0  0
 12 44  1  0  0  0
 13 14  1  0  0  0
 13 16  1  0  0  0
 13 17  2  0  0  0
 14 15  1  0  0  0
 14 45  1  0  0  0
 14 46  1  0  0  0
 16 47  1  0  0  0
 18 19  1  0  0  0
 18 22  2  0  0  0
 19 20  1  0  0  0
 20 21  2  0  0  0
 20 23  1  0  0  0
 21 22  1  0  0  0
 21 29  1  0  0  0
 22 35  1  0  0  0
 23 24  2  0  0  0
 23 28  1  0  0  0
 24 25  1  0  0  0
 24 48  1  0  0  0
 25 26  2  0  0  0
 25 49  1  0  0  0
 26 27  1  0  0  0
 26 50  1  0  0  0
 27 28  2  0  0  0
 27 51  1  0  0  0
 28 52  1  0  0  0
 29 30  2  0  0  0
 29 34  1  0  0  0
 30 31  1  0  0  0
 30 53  1  0  0  0
 31 32  2  0  0  0
 31 54  1  0  0  0
 32 33  1  0  0  0
 32 55  1  0  0  0
 33 34  2  0  0  0
 33 56  1  0  0  0
 34 57  1  0  0  0
 35 36  1  0  0  0
 35 58  1  0  0  0
 35 59  1  0  0  0
 36 60  1  0  0  0
 36 61  1  0  0  0
 36 62  1  0  0  0
M  END
> <s_m_entry_id>
2568

> <s_m_entry_name>
dock_pv.96

> <s_m_Source_Path>
/home/csk/Desktop/cluster/DUD-E-result/fabp4

> <s_m_Source_File>
dock_pv.maegz

> <i_m_Source_File_Index>
96

> <chembl_id>
CHEMBL247529

> <chembl_pref_name>
None

> <i_lp_mmshare_version>
53161

> <r_lp_tautomer_probability>
1

> <s_lp_Force_Field>
OPLS_2005

> <r_lp_Energy>
31.724492

> <b_lp_Chiralities_Consistent>
1

> <s_lp_Variant>
CHEMBL2083_lig183-1

> <s_i_glide_gridfile>
glide-grid_2nnq

> <i_i_glide_lignum>
200

> <i_i_glide_rotatable_bonds>
9

> <r_i_docking_score>
-7.23816748635207

> <r_i_glide_ligand_efficiency>
-0.201060207954224

> <r_i_glide_ligand_efficiency_sa>
-0.663886178519457

> <r_i_glide_ligand_efficiency_ln>
-1.57917259283544

> <r_i_glide_gscore>
-7.23816748635207

> <r_i_glide_lipo>
-4.39955558466125

> <r_i_glide_hbond>
0

> <r_i_glide_metal>
0

> <r_i_glide_rewards>
-0.946658740390881

> <r_i_glide_evdw>
-45.1178245544434

> <r_i_glide_ecoul>
-1.76717245578766

> <r_i_glide_erotb>
0.629013934790379

> <r_i_glide_esite>
0

> <r_i_glide_emodel>
-52.8847881219468

> <r_i_glide_energy>
-46.884997010231

> <r_i_glide_einternal>
11.4296627044678

> <i_i_glide_confnum>
122

> <i_i_glide_posenum>
247

> <r_i_glide_eff_state_penalty>
0

> <s_user_duplicate_titles>
CHEMBL2083_lig183,412764

> <i_f3d_flags>
0

> <s_m_subgroup_title>
dock_pv

> <s_m_subgroupid>
dock_pv

> <b_m_subgroup_collapsed>
1

$$$$
CHEMBL2083_lig195
                    3D
 Schrodinger Suite 2021-1.
 56 61  0  0  1  0            999 V2000
    3.0056    6.1218   20.0460 C   0  0  0  0  0  0
    3.9179    6.4298   18.9140 N   0  0  0  0  0  0
    3.2271    6.6944   17.6365 C   0  0  2  0  0  0
    5.2147    6.9524   19.1073 C   0  0  0  0  0  0
    5.6549    7.3094   20.4064 C   0  0  0  0  0  0
    6.9616    7.7715   20.5871 C   0  0  0  0  0  0
    7.8496    7.8211   19.5274 C   0  0  0  0  0  0
    7.4275    7.4344   18.2659 C   0  0  0  0  0  0
    6.1097    7.0201   18.0173 C   0  0  0  0  0  0
    4.6964    7.1907   21.5758 C   0  0  1  0  0  0
    3.7714    5.9946   21.3687 C   0  0  1  0  0  0
    3.1105    5.8892   22.7275 C   0  0  0  0  0  0
    4.3206    6.1090   23.6007 C   0  0  0  0  0  0
    5.2308    6.8649   22.9538 C   0  0  0  0  0  0
    4.1478    6.4983   16.3712 C   0  0  2  0  0  0
    5.6988    6.6081   16.5995 C   0  0  1  0  0  0
    6.2235    7.5670   15.5010 C   0  0  2  0  0  0
    4.9928    8.4005   15.1768 C   0  0  2  0  0  0
    3.8566    7.3814   15.1208 C   0  0  0  0  0  0
    5.1182    9.5884   13.8182 S   0  0  0  0  0  0
    3.9743   10.8405   14.3253 C   0  0  0  0  0  0
    4.2959   11.8346   15.2612 C   0  0  0  0  0  0
    3.3336   12.7913   15.6085 C   0  0  0  0  0  0
    2.0500   12.7256   15.0668 C   0  0  0  0  0  0
    1.7384   11.7407   14.1305 C   0  0  0  0  0  0
    2.7173   10.8268   13.7452 C   0  0  0  0  0  0
    5.6562   11.9713   15.7789 N   0  3  0  0  0  0
    6.0920   11.1175   16.5452 O   0  0  0  0  0  0
    6.3052   12.9088   15.3414 O   0  5  0  0  0  0
    6.7173    6.6001   14.0748 Cl  0  0  0  0  0  0
    2.5791    8.1090   17.7133 C   0  0  0  0  0  0
    1.2793    8.0997   17.3049 O   0  0  0  0  0  0
    3.1735    9.1239   18.0761 O   0  0  0  0  0  0
    2.2681    6.9097   20.1608 H   0  0  0  0  0  0
    2.3679    5.2713   19.7998 H   0  0  0  0  0  0
    2.3762    6.0153   17.5471 H   0  0  0  0  0  0
    7.3071    8.0693   21.5655 H   0  0  0  0  0  0
    8.8690    8.1464   19.6837 H   0  0  0  0  0  0
    8.1595    7.4486   17.4726 H   0  0  0  0  0  0
    4.1415    8.1315   21.6094 H   0  0  0  0  0  0
    4.3354    5.0732   21.2501 H   0  0  0  0  0  0
    2.7131    4.9091   22.9236 H   0  0  0  0  0  0
    2.3239    6.6218   22.9011 H   0  0  0  0  0  0
    4.3781    5.7320   24.6118 H   0  0  0  0  0  0
    6.1585    7.2470   23.3525 H   0  0  0  0  0  0
    3.9692    5.4675   16.0593 H   0  0  0  0  0  0
    6.1495    5.6207   16.4785 H   0  0  0  0  0  0
    7.0398    8.2162   15.8111 H   0  0  0  0  0  0
    4.8103    9.0365   16.0423 H   0  0  0  0  0  0
    3.9094    6.7853   14.2086 H   0  0  0  0  0  0
    2.8765    7.8569   15.1242 H   0  0  0  0  0  0
    3.5841   13.5827   16.3037 H   0  0  0  0  0  0
    1.3082   13.4596   15.3416 H   0  0  0  0  0  0
    0.7592   11.7153   13.6758 H   0  0  0  0  0  0
    2.5532   10.1092   12.9621 H   0  0  0  0  0  0
    0.9231    8.9911   17.3484 H   0  0  0  0  0  0
  1 11  1  0  0  0
  1  2  1  0  0  0
  1 34  1  0  0  0
  1 35  1  0  0  0
  2  4  1  0  0  0
  2  3  1  0  0  0
  3 15  1  0  0  0
  3 31  1  0  0  0
  3 36  1  0  0  0
  4  5  2  0  0  0
  4  9  1  0  0  0
  5 10  1  0  0  0
  5  6  1  0  0  0
  6  7  2  0  0  0
  6 37  1  0  0  0
  7  8  1  0  0  0
  7 38  1  0  0  0
  8  9  2  0  0  0
  8 39  1  0  0  0
  9 16  1  0  0  0
 10 11  1  0  0  0
 10 14  1  0  0  0
 10 40  1  0  0  0
 11 12  1  0  0  0
 11 41  1  0  0  0
 12 13  1  0  0  0
 12 42  1  0  0  0
 12 43  1  0  0  0
 13 14  2  0  0  0
 13 44  1  0  0  0
 14 45  1  0  0  0
 15 16  1  0  0  0
 15 19  1  0  0  0
 15 46  1  0  0  0
 16 17  1  0  0  0
 16 47  1  0  0  0
 17 18  1  0  0  0
 17 30  1  0  0  0
 17 48  1  0  0  0
 18 19  1  0  0  0
 18 20  1  0  0  0
 18 49  1  0  0  0
 19 50  1  0  0  0
 19 51  1  0  0  0
 20 21  1  0  0  0
 21 22  2  0  0  0
 21 26  1  0  0  0
 22 23  1  0  0  0
 22 27  1  0  0  0
 23 24  2  0  0  0
 23 52  1  0  0  0
 24 25  1  0  0  0
 24 53  1  0  0  0
 25 26  2  0  0  0
 25 54  1  0  0  0
 26 55  1  0  0  0
 27 28  2  0  0  0
 27 29  1  0  0  0
 31 32  1  0  0  0
 31 33  2  0  0  0
 32 56  1  0  0  0
M  CHG  2  27   1  29  -1
M  END
> <s_m_entry_id>
2569

> <s_m_entry_name>
dock_pv.97

> <s_m_Source_Path>
/home/csk/Desktop/cluster/DUD-E-result/fabp4

> <s_m_Source_File>
dock_pv.maegz

> <i_m_Source_File_Index>
97

> <chembl_id>
CHEMBL3827833

> <chembl_pref_name>
None

> <i_lp_mmshare_version>
53161

> <r_lp_tautomer_probability>
1

> <s_lp_Force_Field>
OPLS_2005

> <r_lp_Energy>
89.193795

> <b_lp_Chiralities_Consistent>
1

> <s_lp_Variant>
CHEMBL2083_lig195-23

> <s_i_glide_gridfile>
glide-grid_2nnq

> <i_i_glide_lignum>
236

> <i_i_glide_rotatable_bonds>
5

> <r_i_docking_score>
-7.22853323683743

> <r_i_glide_ligand_efficiency>
-0.219046461722347

> <r_i_glide_ligand_efficiency_sa>
-0.702599045019662

> <r_i_glide_ligand_efficiency_ln>
-1.60758836453061

> <r_i_glide_gscore>
-7.22853323683743

> <r_i_glide_lipo>
-4.60657671647161

> <r_i_glide_hbond>
0

> <r_i_glide_metal>
0

> <r_i_glide_rewards>
-0.640701257918061

> <r_i_glide_evdw>
-44.1713371276855

> <r_i_glide_ecoul>
0.76082968711853

> <r_i_glide_erotb>
0.261038660338412

> <r_i_glide_esite>
-0.147851519469674

> <r_i_glide_emodel>
-66.1915465801796

> <r_i_glide_energy>
-43.410507440567

> <r_i_glide_einternal>
9.53781890869141

> <i_i_glide_confnum>
9

> <i_i_glide_posenum>
226

> <r_i_glide_eff_state_penalty>
0

> <s_user_duplicate_titles>
CHEMBL2083_lig195

> <i_f3d_flags>
0

> <s_m_subgroup_title>
dock_pv

> <s_m_subgroupid>
dock_pv

> <b_m_subgroup_collapsed>
1

$$$$
CHEMBL2083_lig37
                    3D
 Schrodinger Suite 2021-1.
 45 48  0  0  1  0            999 V2000
    6.9182    6.5055   14.5167 C   0  0  0  0  0  0
    5.6488    6.9088   14.1473 C   0  0  0  0  0  0
    4.7837    7.5643   15.0254 C   0  0  0  0  0  0
    7.4192    6.7946   15.7783 C   0  0  0  0  0  0
    6.6024    7.4594   16.7049 C   0  0  0  0  0  0
    5.2658    7.8232   16.3383 C   0  0  0  0  0  0
    4.7010    8.3874   17.4912 N   0  0  0  0  0  0
    3.3060    8.8331   17.6524 C   0  0  0  0  0  0
    2.2710    7.7096   17.6900 C   0  0  0  0  0  0
    1.0865    7.8303   16.9541 C   0  0  0  0  0  0
    0.1378    6.8089   16.9684 C   0  0  0  0  0  0
    0.3519    5.6694   17.7418 C   0  0  0  0  0  0
    1.5206    5.5468   18.4958 C   0  0  0  0  0  0
    2.4779    6.5627   18.4682 C   0  0  0  0  0  0
    3.4372    7.9564   14.5009 C   0  0  0  0  0  0
    2.7202    6.9124   13.9951 O   0  0  0  0  0  0
    3.0384    9.1159   14.5189 O   0  0  0  0  0  0
    5.3069    8.8903   19.9292 C   0  0  0  0  0  0
    6.2747    8.4198   21.0317 C   0  0  0  0  0  0
    7.6832    9.0477   21.0139 C   0  0  0  0  0  0
    5.6332    8.3846   18.5244 C   0  0  0  0  0  0
    6.8412    7.9072   18.0409 C   0  0  0  0  0  0
    8.1830    7.8327   18.7535 C   0  0  0  0  0  0
    8.4531    9.0327   19.6777 C   0  0  0  0  0  0
   -0.9814    6.9173   16.2185 F   0  0  0  0  0  0
    7.5200    5.9720   13.7973 H   0  0  0  0  0  0
    5.3221    6.6744   13.1426 H   0  0  0  0  0  0
    8.4237    6.4987   16.0465 H   0  0  0  0  0  0
    3.0903    9.5476   16.8627 H   0  0  0  0  0  0
    3.2021    9.4303   18.5552 H   0  0  0  0  0  0
    0.9075    8.7063   16.3483 H   0  0  0  0  0  0
   -0.3893    4.8835   17.7515 H   0  0  0  0  0  0
    1.6845    4.6654   19.0980 H   0  0  0  0  0  0
    3.3802    6.4552   19.0522 H   0  0  0  0  0  0
    1.8152    7.1723   13.7422 H   0  0  0  0  0  0
    5.2473    9.9791   19.9367 H   0  0  0  0  0  0
    4.3203    8.5362   20.2287 H   0  0  0  0  0  0
    6.3596    7.3325   20.9898 H   0  0  0  0  0  0
    5.8246    8.6291   22.0043 H   0  0  0  0  0  0
    8.2840    8.5435   21.7721 H   0  0  0  0  0  0
    7.6075   10.0837   21.3418 H   0  0  0  0  0  0
    8.9892    7.7919   18.0202 H   0  0  0  0  0  0
    8.2687    6.9087   19.3248 H   0  0  0  0  0  0
    8.2437    9.9518   19.1274 H   0  0  0  0  0  0
    9.5209    9.0749   19.8993 H   0  0  0  0  0  0
  1  2  2  0  0  0
  1  4  1  0  0  0
  1 26  1  0  0  0
  2  3  1  0  0  0
  2 27  1  0  0  0
  3  6  2  0  0  0
  3 15  1  0  0  0
  4  5  2  0  0  0
  4 28  1  0  0  0
  5 22  1  0  0  0
  5  6  1  0  0  0
  6  7  1  0  0  0
  7 21  1  0  0  0
  7  8  1  0  0  0
  8  9  1  0  0  0
  8 29  1  0  0  0
  8 30  1  0  0  0
  9 14  1  0  0  0
  9 10  2  0  0  0
 10 11  1  0  0  0
 10 31  1  0  0  0
 11 12  2  0  0  0
 11 25  1  0  0  0
 12 13  1  0  0  0
 12 32  1  0  0  0
 13 14  2  0  0  0
 13 33  1  0  0  0
 14 34  1  0  0  0
 15 16  1  0  0  0
 15 17  2  0  0  0
 16 35  1  0  0  0
 18 19  1  0  0  0
 18 21  1  0  0  0
 18 36  1  0  0  0
 18 37  1  0  0  0
 19 20  1  0  0  0
 19 38  1  0  0  0
 19 39  1  0  0  0
 20 24  1  0  0  0
 20 40  1  0  0  0
 20 41  1  0  0  0
 21 22  2  0  0  0
 22 23  1  0  0  0
 23 24  1  0  0  0
 23 42  1  0  0  0
 23 43  1  0  0  0
 24 44  1  0  0  0
 24 45  1  0  0  0
M  END
> <s_m_entry_id>
2570

> <s_m_entry_name>
dock_pv.98

> <s_m_Source_Path>
/home/csk/Desktop/cluster/DUD-E-result/fabp4

> <s_m_Source_File>
dock_pv.maegz

> <i_m_Source_File_Index>
98

> <chembl_id>
CHEMBL460749

> <chembl_pref_name>
None

> <i_lp_mmshare_version>
53161

> <r_lp_tautomer_probability>
1

> <s_lp_Force_Field>
OPLS_2005

> <r_lp_Energy>
27.362526

> <b_lp_Chiralities_Consistent>
1

> <s_lp_Variant>
CHEMBL2083_lig37-1

> <s_i_glide_gridfile>
glide-grid_2nnq

> <i_i_glide_lignum>
47

> <i_i_glide_rotatable_bonds>
4

> <r_i_docking_score>
-7.22614781951681

> <r_i_glide_ligand_efficiency>
-0.289045912780673

> <r_i_glide_ligand_efficiency_sa>
-0.845175375221777

> <r_i_glide_ligand_efficiency_ln>
-1.71281358340111

> <r_i_glide_gscore>
-7.22614781951681

> <r_i_glide_lipo>
-3.41328561746044

> <r_i_glide_hbond>
0

> <r_i_glide_metal>
0

> <r_i_glide_rewards>
-1.39745163524775

> <r_i_glide_evdw>
-33.4680442810059

> <r_i_glide_ecoul>
-7.9741096496582

> <r_i_glide_erotb>
0.49807208830082

> <r_i_glide_esite>
-0.0439639936104224

> <r_i_glide_emodel>
-59.0727064025018

> <r_i_glide_energy>
-41.4421539306641

> <r_i_glide_einternal>
0.73205441236496

> <i_i_glide_confnum>
12

> <i_i_glide_posenum>
106

> <r_i_glide_eff_state_penalty>
0

> <s_user_duplicate_titles>
CHEMBL2083_lig37,457191

> <i_f3d_flags>
0

> <s_m_subgroup_title>
dock_pv

> <s_m_subgroupid>
dock_pv

> <b_m_subgroup_collapsed>
1

$$$$
CHEMBL2083_lig15
                    3D
 Schrodinger Suite 2021-1.
 38 41  0  0  1  0            999 V2000
    4.5897    9.6594   18.3477 S   0  0  0  0  0  0
    4.0809    8.1228   18.9816 N   0  0  0  0  0  0
    4.5232    7.5981   20.1962 C   0  0  0  0  0  0
    2.9696    7.3859   18.5595 C   0  0  0  0  0  0
    4.6189    9.6159   16.5319 C   0  0  0  0  0  0
    4.7351   10.7756   15.7150 C   0  0  0  0  0  0
    2.8391    6.2705   19.4279 C   0  0  0  0  0  0
    3.7344    6.4531   20.4845 C   0  0  0  0  0  0
    5.1440   12.1524   16.2058 C   0  0  0  0  0  0
    5.9815    9.8578   18.7664 O   0  0  0  0  0  0
    3.5201   10.5628   18.7879 O   0  0  0  0  0  0
    5.7838   12.9090   15.4787 O   0  0  0  0  0  0
    4.7816   12.5089   17.4638 O   0  0  0  0  0  0
    5.5140    8.0311   21.0951 C   0  0  0  0  0  0
    2.0544    7.5857   17.5115 C   0  0  0  0  0  0
    4.5984   10.6274   14.3254 C   0  0  0  0  0  0
    4.5652    8.3587   15.9097 C   0  0  0  0  0  0
    1.8705    5.2884   19.1724 C   0  0  0  0  0  0
    3.9203    5.7594   21.6896 C   0  0  0  0  0  0
    4.4269    9.3797   13.7420 C   0  0  0  0  0  0
    5.6799    7.3106   22.2768 C   0  0  0  0  0  0
    1.0892    6.6013   17.2949 C   0  0  0  0  0  0
    4.8893    6.2114   22.5773 C   0  0  0  0  0  0
    1.0077    5.4664   18.0947 C   0  0  0  0  0  0
    4.4474    8.2378   14.5294 C   0  0  0  0  0  0
    5.1189   13.4016   17.6940 H   0  0  0  0  0  0
    6.1230    8.9023   20.9184 H   0  0  0  0  0  0
    2.0903    8.4573   16.8755 H   0  0  0  0  0  0
    4.6513   11.4881   13.6718 H   0  0  0  0  0  0
    4.5829    7.4508   16.4919 H   0  0  0  0  0  0
    1.7628    4.4308   19.8209 H   0  0  0  0  0  0
    3.3095    4.9090   21.9416 H   0  0  0  0  0  0
    4.3204    9.3072   12.6699 H   0  0  0  0  0  0
    6.4189    7.6364   22.9944 H   0  0  0  0  0  0
    0.3876    6.7217   16.4825 H   0  0  0  0  0  0
    5.0292    5.7091   23.5218 H   0  0  0  0  0  0
    0.2432    4.7292   17.8937 H   0  0  0  0  0  0
    4.3619    7.2623   14.0724 H   0  0  0  0  0  0
  1  2  1  0  0  0
  1  5  1  0  0  0
  1 10  2  0  0  0
  1 11  2  0  0  0
  2  3  1  0  0  0
  2  4  1  0  0  0
  3  8  1  0  0  0
  3 14  2  0  0  0
  4  7  2  0  0  0
  4 15  1  0  0  0
  5  6  1  0  0  0
  5 17  2  0  0  0
  6  9  1  0  0  0
  6 16  2  0  0  0
  7 18  1  0  0  0
  7  8  1  0  0  0
  8 19  2  0  0  0
  9 12  2  0  0  0
  9 13  1  0  0  0
 13 26  1  0  0  0
 14 21  1  0  0  0
 14 27  1  0  0  0
 15 22  2  0  0  0
 15 28  1  0  0  0
 16 20  1  0  0  0
 16 29  1  0  0  0
 17 25  1  0  0  0
 17 30  1  0  0  0
 18 24  2  0  0  0
 18 31  1  0  0  0
 19 23  1  0  0  0
 19 32  1  0  0  0
 20 25  2  0  0  0
 20 33  1  0  0  0
 21 23  2  0  0  0
 21 34  1  0  0  0
 22 24  1  0  0  0
 22 35  1  0  0  0
 23 36  1  0  0  0
 24 37  1  0  0  0
 25 38  1  0  0  0
M  END
> <s_m_entry_id>
2571

> <s_m_entry_name>
dock_pv.99

> <s_m_Source_Path>
/home/csk/Desktop/cluster/DUD-E-result/fabp4

> <s_m_Source_File>
dock_pv.maegz

> <i_m_Source_File_Index>
99

> <chembl_id>
CHEMBL364141

> <chembl_pref_name>
None

> <i_lp_mmshare_version>
53161

> <r_lp_tautomer_probability>
1

> <s_lp_Force_Field>
OPLS_2005

> <r_lp_Energy>
21.85987

> <b_lp_Chiralities_Consistent>
1

> <s_lp_Variant>
CHEMBL2083_lig15-1

> <s_i_glide_gridfile>
glide-grid_2nnq

> <i_i_glide_lignum>
25

> <i_i_glide_rotatable_bonds>
4

> <r_i_docking_score>
-7.22295914011322

> <r_i_glide_ligand_efficiency>
-0.288918365604529

> <r_i_glide_ligand_efficiency_sa>
-0.844802425016675

> <r_i_glide_ligand_efficiency_ln>
-1.71205777082545

> <r_i_glide_gscore>
-7.22295914011322

> <r_i_glide_lipo>
-3.14901269215239

> <r_i_glide_hbond>
0

> <r_i_glide_metal>
0

> <r_i_glide_rewards>
-1.42232009169725

> <r_i_glide_evdw>
-33.3464660644531

> <r_i_glide_ecoul>
-9.08451557159424

> <r_i_glide_erotb>
0.463420219327586

> <r_i_glide_esite>
-0.085045936629382

> <r_i_glide_emodel>
-60.6747960357942

> <r_i_glide_energy>
-42.4309816360474

> <r_i_glide_einternal>
5.1214861869812

> <i_i_glide_confnum>
28

> <i_i_glide_posenum>
367

> <r_i_glide_eff_state_penalty>
0

> <s_user_duplicate_titles>
CHEMBL2083_lig15

> <i_f3d_flags>
0

> <s_m_subgroup_title>
dock_pv

> <s_m_subgroupid>
dock_pv

> <b_m_subgroup_collapsed>
1

$$$$
CHEMBL2083_lig198
                    3D
 Schrodinger Suite 2021-1.
 44 48  0  0  1  0            999 V2000
    6.9853    8.6667   17.9283 C   0  0  0  0  0  0
    5.8197    8.8256   18.8159 N   0  0  0  0  0  0
    5.9157    9.6772   20.0246 C   0  0  1  0  0  0
    4.9380    7.7335   18.8651 C   0  0  0  0  0  0
    4.5890    7.1065   17.6478 C   0  0  0  0  0  0
    3.6639    6.0561   17.6806 C   0  0  0  0  0  0
    3.1082    5.6141   18.8775 C   0  0  0  0  0  0
    3.4903    6.2183   20.0713 C   0  0  0  0  0  0
    4.4130    7.2700   20.0996 C   0  0  0  0  0  0
    5.1827    7.6193   16.3279 C   0  0  1  0  0  0
    6.5996    8.1971   16.5048 C   0  0  2  0  0  0
    7.5693    7.1649   15.9172 C   0  0  0  0  0  0
    6.6899    6.3236   15.0237 C   0  0  0  0  0  0
    5.3886    6.5763   15.2426 C   0  0  0  0  0  0
    6.0127    8.8501   21.3218 C   0  0  1  0  0  0
    4.8550    7.8568   21.4522 C   0  0  2  0  0  0
    5.4595    6.8191   22.3815 C   0  0  0  0  0  0
    6.8012    6.9072   22.4117 C   0  0  0  0  0  0
    7.2989    8.0521   21.5682 C   0  0  0  0  0  0
    6.9759   10.8098   19.9679 C   0  0  0  0  0  0
    6.7201   11.7091   18.9809 O   0  0  0  0  0  0
    7.9194   10.9089   20.7507 O   0  0  0  0  0  0
    2.1151    4.4654   18.8805 C   0  0  0  0  0  0
    7.6794    9.5051   17.8913 H   0  0  0  0  0  0
    7.5449    7.8539   18.3919 H   0  0  0  0  0  0
    4.9879   10.2494   20.0666 H   0  0  0  0  0  0
    3.3608    5.5826   16.7586 H   0  0  0  0  0  0
    3.0731    5.8581   21.0009 H   0  0  0  0  0  0
    4.5136    8.4079   15.9786 H   0  0  0  0  0  0
    6.7010    9.0697   15.8598 H   0  0  0  0  0  0
    8.3541    7.6667   15.3507 H   0  0  0  0  0  0
    8.0515    6.5456   16.6749 H   0  0  0  0  0  0
    7.0927    5.6164   14.3123 H   0  0  0  0  0  0
    4.5588    6.1091   14.7325 H   0  0  0  0  0  0
    5.9198    9.5593   22.1420 H   0  0  0  0  0  0
    3.9943    8.3456   21.9116 H   0  0  0  0  0  0
    4.8586    6.0790   22.8904 H   0  0  0  0  0  0
    7.4807    6.2593   22.9423 H   0  0  0  0  0  0
    8.0416    8.6412   22.1059 H   0  0  0  0  0  0
    7.7637    7.7011   20.6472 H   0  0  0  0  0  0
    7.3356   12.4539   19.0441 H   0  0  0  0  0  0
    2.4262    3.6912   18.1787 H   0  0  0  0  0  0
    2.0456    3.9929   19.8613 H   0  0  0  0  0  0
    1.1265    4.8144   18.5816 H   0  0  0  0  0  0
  1 11  1  0  0  0
  1  2  1  0  0  0
  1 24  1  0  0  0
  1 25  1  0  0  0
  2  4  1  0  0  0
  2  3  1  0  0  0
  3 15  1  0  0  0
  3 20  1  0  0  0
  3 26  1  0  0  0
  4  5  2  0  0  0
  4  9  1  0  0  0
  5 10  1  0  0  0
  5  6  1  0  0  0
  6  7  2  0  0  0
  6 27  1  0  0  0
  7  8  1  0  0  0
  7 23  1  0  0  0
  8  9  2  0  0  0
  8 28  1  0  0  0
  9 16  1  0  0  0
 10 11  1  0  0  0
 10 14  1  0  0  0
 10 29  1  0  0  0
 11 12  1  0  0  0
 11 30  1  0  0  0
 12 13  1  0  0  0
 12 31  1  0  0  0
 12 32  1  0  0  0
 13 14  2  0  0  0
 13 33  1  0  0  0
 14 34  1  0  0  0
 15 16  1  0  0  0
 15 19  1  0  0  0
 15 35  1  0  0  0
 16 17  1  0  0  0
 16 36  1  0  0  0
 17 18  2  0  0  0
 17 37  1  0  0  0
 18 19  1  0  0  0
 18 38  1  0  0  0
 19 39  1  0  0  0
 19 40  1  0  0  0
 20 21  1  0  0  0
 20 22  2  0  0  0
 21 41  1  0  0  0
 23 42  1  0  0  0
 23 43  1  0  0  0
 23 44  1  0  0  0
M  END
> <s_m_entry_id>
2572

> <s_m_entry_name>
dock_pv.100

> <s_m_Source_Path>
/home/csk/Desktop/cluster/DUD-E-result/fabp4

> <s_m_Source_File>
dock_pv.maegz

> <i_m_Source_File_Index>
100

> <chembl_id>
CHEMBL3827483

> <chembl_pref_name>
None

> <i_lp_mmshare_version>
53161

> <r_lp_tautomer_probability>
1

> <s_lp_Force_Field>
OPLS_2005

> <r_lp_Energy>
69.074995

> <b_lp_Chiralities_Consistent>
1

> <s_lp_Variant>
CHEMBL2083_lig198-12

> <s_i_glide_gridfile>
glide-grid_2nnq

> <i_i_glide_lignum>
321

> <i_i_glide_rotatable_bonds>
2

> <r_i_docking_score>
-7.20058821460714

> <r_i_glide_ligand_efficiency>
-0.313069052809006

> <r_i_glide_ligand_efficiency_sa>
-0.8903267407664

> <r_i_glide_ligand_efficiency_ln>
-1.74116752161612

> <r_i_glide_gscore>
-7.20058821460714

> <r_i_glide_lipo>
-2.85899650616802

> <r_i_glide_hbond>
-0.377669794632559

> <r_i_glide_metal>
0

> <r_i_glide_rewards>
-1.51617426043279

> <r_i_glide_evdw>
-28.6596298217773

> <r_i_glide_ecoul>
-7.83606433868408

> <r_i_glide_erotb>
0.195647951793434

> <r_i_glide_esite>
-0.0350044632757135

> <r_i_glide_emodel>
-53.3756462903871

> <r_i_glide_energy>
-36.4956941604614

> <r_i_glide_einternal>
0.949737071990967

> <i_i_glide_confnum>
4

> <i_i_glide_posenum>
393

> <r_i_glide_eff_state_penalty>
0

> <s_user_duplicate_titles>
CHEMBL2083_lig198

> <i_f3d_flags>
0

> <s_m_subgroup_title>
dock_pv

> <s_m_subgroupid>
dock_pv

> <b_m_subgroup_collapsed>
1

$$$$
CHEMBL2083_lig115
                    3D
 Schrodinger Suite 2021-1.
 52 56  0  0  1  0            999 V2000
    3.1646    9.0690   14.1420 C   0  0  0  0  0  0
    3.2182    9.4950   15.5955 C   0  0  0  0  0  0
    2.7361   10.7054   16.0835 C   0  0  0  0  0  0
    3.1192   10.9172   17.7610 S   0  0  0  0  0  0
    3.8777    9.3545   17.8330 C   0  0  0  0  0  0
    4.4968    8.8093   18.9495 N   0  0  0  0  0  0
    4.7201    9.3832   20.1418 C   0  0  0  0  0  0
    4.3395   10.4997   20.4812 O   0  0  0  0  0  0
    5.4557    8.5279   21.0482 C   0  0  0  0  0  0
    6.8160    8.5745   21.2018 C   0  0  0  0  0  0
    7.5199    7.7301   22.2643 C   0  0  0  0  0  0
    6.5830    7.3060   23.3855 C   0  0  0  0  0  0
    5.3208    6.6528   22.8070 C   0  0  0  0  0  0
    4.5395    7.6278   21.8989 C   0  0  0  0  0  0
    7.7282    9.4150   20.4335 C   0  0  0  0  0  0
    8.5822   10.1407   20.9401 O   0  0  0  0  0  0
    7.5928    9.2670   19.0869 O   0  0  0  0  0  0
    3.7817    8.7148   16.6108 C   0  0  0  0  0  0
    4.2355    7.3913   16.3903 C   0  0  0  0  0  0
    5.4831    7.0505   16.3226 N   0  0  0  0  0  0
    5.5530    5.7451   16.1874 C   0  0  0  0  0  0
    4.4710    4.9900   16.1422 N   0  0  0  0  0  0
    3.1499    6.0673   16.2645 S   0  0  0  0  0  0
    6.9023    5.0775   16.1720 C   0  0  0  0  0  0
    8.1907    5.8236   15.9644 C   0  0  0  0  0  0
    7.8331    5.3091   17.3385 C   0  0  0  0  0  0
    2.0469   11.7787   15.3003 C   0  0  0  0  0  0
    2.3206   13.2418   15.5157 C   0  0  0  0  0  0
    2.9200   12.5092   14.3322 C   0  0  0  0  0  0
    4.1646    8.8580   13.7644 H   0  0  0  0  0  0
    2.6199    8.1305   14.0257 H   0  0  0  0  0  0
    2.7202    9.8114   13.4784 H   0  0  0  0  0  0
    4.8809    7.8852   18.8194 H   0  0  0  0  0  0
    8.3784    8.2406   22.7043 H   0  0  0  0  0  0
    7.9185    6.8266   21.8019 H   0  0  0  0  0  0
    6.3201    8.1336   24.0317 H   0  0  0  0  0  0
    7.1389    6.6339   24.0262 H   0  0  0  0  0  0
    5.6000    5.7662   22.2357 H   0  0  0  0  0  0
    4.6797    6.2985   23.6151 H   0  0  0  0  0  0
    3.8277    7.0679   21.2882 H   0  0  0  0  0  0
    3.9284    8.2651   22.5416 H   0  0  0  0  0  0
    8.2165    9.8403   18.6369 H   0  0  0  0  0  0
    6.9003    4.1091   15.6803 H   0  0  0  0  0  0
    8.9805    5.3097   15.4140 H   0  0  0  0  0  0
    8.1724    6.8979   15.7784 H   0  0  0  0  0  0
    7.5466    6.0248   18.1122 H   0  0  0  0  0  0
    8.3922    4.4639   17.7414 H   0  0  0  0  0  0
    1.0461   11.5135   14.9615 H   0  0  0  0  0  0
    1.5170   13.9552   15.3425 H   0  0  0  0  0  0
    2.9743   13.5462   16.3354 H   0  0  0  0  0  0
    3.9932   12.3159   14.3158 H   0  0  0  0  0  0
    2.5081   12.6263   13.3420 H   0  0  0  0  0  0
  1  2  1  0  0  0
  1 30  1  0  0  0
  1 31  1  0  0  0
  1 32  1  0  0  0
  2  3  2  0  0  0
  2 18  1  0  0  0
  3  4  1  0  0  0
  3 27  1  0  0  0
  4  5  1  0  0  0
  5  6  1  0  0  0
  5 18  2  0  0  0
  6  7  1  0  0  0
  6 33  1  0  0  0
  7  8  2  0  0  0
  7  9  1  0  0  0
  9 10  2  0  0  0
  9 14  1  0  0  0
 10 11  1  0  0  0
 10 15  1  0  0  0
 11 12  1  0  0  0
 11 34  1  0  0  0
 11 35  1  0  0  0
 12 13  1  0  0  0
 12 36  1  0  0  0
 12 37  1  0  0  0
 13 14  1  0  0  0
 13 38  1  0  0  0
 13 39  1  0  0  0
 14 40  1  0  0  0
 14 41  1  0  0  0
 15 16  2  0  0  0
 15 17  1  0  0  0
 17 42  1  0  0  0
 18 19  1  0  0  0
 19 20  2  0  0  0
 19 23  1  0  0  0
 20 21  1  0  0  0
 21 22  2  0  0  0
 21 24  1  0  0  0
 22 23  1  0  0  0
 24 25  1  0  0  0
 24 26  1  0  0  0
 24 43  1  0  0  0
 25 26  1  0  0  0
 25 44  1  0  0  0
 25 45  1  0  0  0
 26 46  1  0  0  0
 26 47  1  0  0  0
 27 28  1  0  0  0
 27 29  1  0  0  0
 27 48  1  0  0  0
 28 29  1  0  0  0
 28 49  1  0  0  0
 28 50  1  0  0  0
 29 51  1  0  0  0
 29 52  1  0  0  0
M  END
> <s_m_entry_id>
2573

> <s_m_entry_name>
dock_pv.101

> <s_m_Source_Path>
/home/csk/Desktop/cluster/DUD-E-result/fabp4

> <s_m_Source_File>
dock_pv.maegz

> <i_m_Source_File_Index>
101

> <chembl_id>
CHEMBL3920664

> <chembl_pref_name>
None

> <i_lp_mmshare_version>
53161

> <r_lp_tautomer_probability>
1

> <s_lp_Force_Field>
OPLS_2005

> <r_lp_Energy>
30.65827

> <b_lp_Chiralities_Consistent>
1

> <s_lp_Variant>
CHEMBL2083_lig115-1

> <s_i_glide_gridfile>
glide-grid_2nnq

> <i_i_glide_lignum>
125

> <i_i_glide_rotatable_bonds>
8

> <r_i_docking_score>
-7.19555422798357

> <r_i_glide_ligand_efficiency>
-0.24812255958564

> <r_i_glide_ligand_efficiency_sa>
-0.762311113791559

> <r_i_glide_ligand_efficiency_ln>
-1.6475994546964

> <r_i_glide_gscore>
-7.19555422798357

> <r_i_glide_lipo>
-3.30059492708742

> <r_i_glide_hbond>
-0.76724563553871

> <r_i_glide_metal>
0

> <r_i_glide_rewards>
-1.07197863318145

> <r_i_glide_evdw>
-36.3444480895996

> <r_i_glide_ecoul>
-6.61626625061035

> <r_i_glide_erotb>
0.753927309895543

> <r_i_glide_esite>
0

> <r_i_glide_emodel>
-60.1067950364766

> <r_i_glide_energy>
-42.96071434021

> <r_i_glide_einternal>
3.9129843711853

> <i_i_glide_confnum>
85

> <i_i_glide_posenum>
150

> <r_i_glide_eff_state_penalty>
0

> <s_user_duplicate_titles>
CHEMBL2083_lig115

> <i_f3d_flags>
0

> <s_m_subgroup_title>
dock_pv

> <s_m_subgroupid>
dock_pv

> <b_m_subgroup_collapsed>
1

$$$$
CHEMBL2083_lig130
                    3D
 Schrodinger Suite 2021-1.
 50 53  0  0  1  0            999 V2000
    0.3476    4.0781   18.1429 C   0  0  0  0  0  0
    1.3090    5.2505   18.1340 C   0  0  0  0  0  0
    1.1562    6.4795   16.9175 S   0  0  0  0  0  0
    2.6360    7.2131   17.4155 C   0  0  0  0  0  0
    3.2268    8.2132   16.6735 N   0  0  0  0  0  0
    2.6882    9.4196   16.4353 C   0  0  0  0  0  0
    1.5207    9.7086   16.7017 O   0  0  0  0  0  0
    3.6760   10.4674   15.8386 C   0  0  1  0  0  0
    3.0975   10.9444   14.4749 C   0  0  0  0  0  0
    1.9351   11.9481   14.5517 C   0  0  0  0  0  0
    2.3156   13.1443   15.4307 C   0  0  0  0  0  0
    2.7837   12.7395   16.8431 C   0  0  0  0  0  0
    3.9309   11.7038   16.7955 C   0  0  1  0  0  0
    4.3810   11.3565   18.2458 C   0  0  0  0  0  0
    3.8426   10.5063   18.9492 O   0  0  0  0  0  0
    5.4323   12.1090   18.6752 O   0  0  0  0  0  0
    3.1624    6.6250   18.5591 C   0  0  0  0  0  0
    2.3922    5.5197   18.9846 C   0  0  0  0  0  0
    2.7738    4.6326   20.1420 C   0  0  0  0  0  0
    4.3843    7.1239   19.2097 C   0  0  0  0  0  0
    4.4979    7.0714   20.5612 O   0  0  0  0  0  0
    5.6960    7.7263   20.8475 N   0  0  0  0  0  0
    6.1188    8.1020   19.6580 C   0  0  0  0  0  0
    5.3871    7.7308   18.6330 N   0  0  0  0  0  0
    7.3753    8.9192   19.4287 C   0  0  0  0  0  0
    8.3350    9.2605   20.5422 C   0  0  0  0  0  0
    8.7188    8.2433   19.4810 C   0  0  0  0  0  0
    0.8457    3.1618   17.8285 H   0  0  0  0  0  0
   -0.0714    3.8724   19.1266 H   0  0  0  0  0  0
   -0.4801    4.2228   17.4536 H   0  0  0  0  0  0
    4.2256    8.1323   16.5615 H   0  0  0  0  0  0
    4.6114    9.9338   15.6564 H   0  0  0  0  0  0
    2.8631   10.0913   13.8345 H   0  0  0  0  0  0
    3.9224   11.3688   13.8999 H   0  0  0  0  0  0
    1.6723   12.2879   13.5502 H   0  0  0  0  0  0
    1.0368   11.4712   14.9421 H   0  0  0  0  0  0
    3.1092   13.7081   14.9421 H   0  0  0  0  0  0
    1.4711   13.8278   15.5034 H   0  0  0  0  0  0
    3.0991   13.6594   17.3424 H   0  0  0  0  0  0
    1.9200   12.3046   17.3414 H   0  0  0  0  0  0
    4.7987   12.2175   16.3753 H   0  0  0  0  0  0
    5.5367   12.9677   18.2313 H   0  0  0  0  0  0
    2.4616    5.0724   21.0880 H   0  0  0  0  0  0
    2.3615    3.6253   20.0726 H   0  0  0  0  0  0
    3.8545    4.5099   20.2039 H   0  0  0  0  0  0
    7.2621    9.6717   18.6457 H   0  0  0  0  0  0
    8.8184   10.2375   20.5298 H   0  0  0  0  0  0
    8.1265    8.9093   21.5529 H   0  0  0  0  0  0
    8.7591    7.1854   19.7426 H   0  0  0  0  0  0
    9.4689    8.5074   18.7372 H   0  0  0  0  0  0
  1  2  1  0  0  0
  1 28  1  0  0  0
  1 29  1  0  0  0
  1 30  1  0  0  0
  2  3  1  0  0  0
  2 18  2  0  0  0
  3  4  1  0  0  0
  4  5  1  0  0  0
  4 17  2  0  0  0
  5  6  1  0  0  0
  5 31  1  0  0  0
  6  7  2  0  0  0
  6  8  1  0  0  0
  8  9  1  0  0  0
  8 13  1  0  0  0
  8 32  1  0  0  0
  9 10  1  0  0  0
  9 33  1  0  0  0
  9 34  1  0  0  0
 10 11  1  0  0  0
 10 35  1  0  0  0
 10 36  1  0  0  0
 11 12  1  0  0  0
 11 37  1  0  0  0
 11 38  1  0  0  0
 12 13  1  0  0  0
 12 39  1  0  0  0
 12 40  1  0  0  0
 13 14  1  0  0  0
 13 41  1  0  0  0
 14 15  2  0  0  0
 14 16  1  0  0  0
 16 42  1  0  0  0
 17 18  1  0  0  0
 17 20  1  0  0  0
 18 19  1  0  0  0
 19 43  1  0  0  0
 19 44  1  0  0  0
 19 45  1  0  0  0
 20 21  1  0  0  0
 20 24  2  0  0  0
 21 22  1  0  0  0
 22 23  2  0  0  0
 23 24  1  0  0  0
 23 25  1  0  0  0
 25 26  1  0  0  0
 25 27  1  0  0  0
 25 46  1  0  0  0
 26 27  1  0  0  0
 26 47  1  0  0  0
 26 48  1  0  0  0
 27 49  1  0  0  0
 27 50  1  0  0  0
M  END
> <s_m_entry_id>
2574

> <s_m_entry_name>
dock_pv.102

> <s_m_Source_Path>
/home/csk/Desktop/cluster/DUD-E-result/fabp4

> <s_m_Source_File>
dock_pv.maegz

> <i_m_Source_File_Index>
102

> <chembl_id>
CHEMBL3986323

> <chembl_pref_name>
None

> <i_lp_mmshare_version>
53161

> <r_lp_tautomer_probability>
1

> <s_lp_Force_Field>
OPLS_2005

> <r_lp_Energy>
26.125045

> <b_lp_Chiralities_Consistent>
1

> <s_lp_Variant>
CHEMBL2083_lig130-2

> <s_i_glide_gridfile>
glide-grid_2nnq

> <i_i_glide_lignum>
141

> <i_i_glide_rotatable_bonds>
7

> <r_i_docking_score>
-7.19540759340676

> <r_i_glide_ligand_efficiency>
-0.266496577533584

> <r_i_glide_ligand_efficiency_sa>
-0.799489731722422

> <r_i_glide_ligand_efficiency_ln>
-1.67497226217982

> <r_i_glide_gscore>
-7.19540759340676

> <r_i_glide_lipo>
-3.2591996879686

> <r_i_glide_hbond>
-0.0896976013817721

> <r_i_glide_metal>
0

> <r_i_glide_rewards>
-1.18628725677754

> <r_i_glide_evdw>
-45.5751419067383

> <r_i_glide_ecoul>
-7.40709543228149

> <r_i_glide_erotb>
0.771112967199004

> <r_i_glide_esite>
-0.0415146042987061

> <r_i_glide_emodel>
-69.8910399498308

> <r_i_glide_energy>
-52.9822373390198

> <r_i_glide_einternal>
8.78482627868652

> <i_i_glide_confnum>
157

> <i_i_glide_posenum>
243

> <r_i_glide_eff_state_penalty>
0

> <s_user_duplicate_titles>
CHEMBL2083_lig130

> <i_f3d_flags>
0

> <s_m_subgroup_title>
dock_pv

> <s_m_subgroupid>
dock_pv

> <b_m_subgroup_collapsed>
1

$$$$
CHEMBL2083_lig195
                    3D
 Schrodinger Suite 2021-1.
 56 61  0  0  1  0            999 V2000
    6.4367    7.3876   19.2757 C   0  0  0  0  0  0
    5.4019    7.0211   18.2969 N   0  0  0  0  0  0
    5.8810    6.3805   17.0372 C   0  0  1  0  0  0
    4.2464    6.3913   18.8025 C   0  0  0  0  0  0
    3.9366    6.4240   20.1856 C   0  0  0  0  0  0
    2.8794    5.6372   20.6506 C   0  0  0  0  0  0
    2.1250    4.8528   19.7899 C   0  0  0  0  0  0
    2.3486    4.9337   18.4260 C   0  0  0  0  0  0
    3.3504    5.7578   17.9049 C   0  0  0  0  0  0
    4.7300    7.2796   21.1768 C   0  0  2  0  0  0
    5.8794    8.0679   20.5353 C   0  0  1  0  0  0
    6.9364    8.1778   21.6298 C   0  0  0  0  0  0
    6.6244    7.0229   22.5562 C   0  0  0  0  0  0
    5.4093    6.5178   22.2979 C   0  0  0  0  0  0
    4.7933    6.5808   15.9460 C   0  0  1  0  0  0
    3.4361    5.9755   16.3836 C   0  0  2  0  0  0
    2.3318    6.8791   15.7456 C   0  0  2  0  0  0
    3.0277    8.1723   15.2425 C   0  0  2  0  0  0
    4.5035    8.0605   15.6170 C   0  0  0  0  0  0
    2.3180    9.7972   15.7051 S   0  0  0  0  0  0
    3.6079   10.9939   15.5718 C   0  0  0  0  0  0
    4.1892   11.5579   16.7233 C   0  0  0  0  0  0
    5.3274   12.3578   16.5577 C   0  0  0  0  0  0
    5.8340   12.6443   15.2940 C   0  0  0  0  0  0
    5.1983   12.1557   14.1618 C   0  0  0  0  0  0
    4.0981   11.3099   14.3010 C   0  0  0  0  0  0
    3.6237   11.3565   18.0819 N   0  3  0  0  0  0
    4.4002   11.2756   19.0309 O   0  0  0  0  0  0
    2.4008   11.3136   18.2154 O   0  5  0  0  0  0
    0.9811    7.2389   16.8916 Cl  0  0  0  0  0  0
    7.2434    6.8974   16.4862 C   0  0  0  0  0  0
    8.0829    5.8623   16.2017 O   0  0  0  0  0  0
    7.5252    8.0797   16.2938 O   0  0  0  0  0  0
    7.0237    6.5070   19.5299 H   0  0  0  0  0  0
    7.2010    8.0137   18.8166 H   0  0  0  0  0  0
    6.0430    5.3164   17.2267 H   0  0  0  0  0  0
    2.6516    5.6194   21.7056 H   0  0  0  0  0  0
    1.3288    4.2311   20.1731 H   0  0  0  0  0  0
    1.6877    4.4049   17.7537 H   0  0  0  0  0  0
    4.0386    7.9847   21.6354 H   0  0  0  0  0  0
    5.4784    9.0391   20.2410 H   0  0  0  0  0  0
    6.8416    9.1295   22.1435 H   0  0  0  0  0  0
    7.9478    8.1294   21.2243 H   0  0  0  0  0  0
    7.3019    6.7068   23.3361 H   0  0  0  0  0  0
    4.9211    5.7222   22.8439 H   0  0  0  0  0  0
    5.1073    6.0824   15.0228 H   0  0  0  0  0  0
    3.3810    4.9757   15.9530 H   0  0  0  0  0  0
    1.9220    6.3633   14.8763 H   0  0  0  0  0  0
    2.9619    8.2054   14.1522 H   0  0  0  0  0  0
    4.7395    8.7014   16.4663 H   0  0  0  0  0  0
    5.1352    8.3919   14.7902 H   0  0  0  0  0  0
    5.8125   12.7963   17.4171 H   0  0  0  0  0  0
    6.6942   13.2901   15.1914 H   0  0  0  0  0  0
    5.5784   12.4227   13.1890 H   0  0  0  0  0  0
    3.6352   10.8898   13.4205 H   0  0  0  0  0  0
    8.9345    6.2032   15.9213 H   0  0  0  0  0  0
  1 11  1  0  0  0
  1  2  1  0  0  0
  1 34  1  0  0  0
  1 35  1  0  0  0
  2  4  1  0  0  0
  2  3  1  0  0  0
  3 15  1  0  0  0
  3 31  1  0  0  0
  3 36  1  0  0  0
  4  5  2  0  0  0
  4  9  1  0  0  0
  5 10  1  0  0  0
  5  6  1  0  0  0
  6  7  2  0  0  0
  6 37  1  0  0  0
  7  8  1  0  0  0
  7 38  1  0  0  0
  8  9  2  0  0  0
  8 39  1  0  0  0
  9 16  1  0  0  0
 10 11  1  0  0  0
 10 14  1  0  0  0
 10 40  1  0  0  0
 11 12  1  0  0  0
 11 41  1  0  0  0
 12 13  1  0  0  0
 12 42  1  0  0  0
 12 43  1  0  0  0
 13 14  2  0  0  0
 13 44  1  0  0  0
 14 45  1  0  0  0
 15 16  1  0  0  0
 15 19  1  0  0  0
 15 46  1  0  0  0
 16 17  1  0  0  0
 16 47  1  0  0  0
 17 18  1  0  0  0
 17 30  1  0  0  0
 17 48  1  0  0  0
 18 19  1  0  0  0
 18 20  1  0  0  0
 18 49  1  0  0  0
 19 50  1  0  0  0
 19 51  1  0  0  0
 20 21  1  0  0  0
 21 22  2  0  0  0
 21 26  1  0  0  0
 22 23  1  0  0  0
 22 27  1  0  0  0
 23 24  2  0  0  0
 23 52  1  0  0  0
 24 25  1  0  0  0
 24 53  1  0  0  0
 25 26  2  0  0  0
 25 54  1  0  0  0
 26 55  1  0  0  0
 27 28  2  0  0  0
 27 29  1  0  0  0
 31 32  1  0  0  0
 31 33  2  0  0  0
 32 56  1  0  0  0
M  CHG  2  27   1  29  -1
M  END
> <s_m_entry_id>
2575

> <s_m_entry_name>
dock_pv.103

> <s_m_Source_Path>
/home/csk/Desktop/cluster/DUD-E-result/fabp4

> <s_m_Source_File>
dock_pv.maegz

> <i_m_Source_File_Index>
103

> <chembl_id>
CHEMBL3827833

> <chembl_pref_name>
None

> <i_lp_mmshare_version>
53161

> <r_lp_tautomer_probability>
1

> <s_lp_Force_Field>
OPLS_2005

> <r_lp_Energy>
87.210936

> <b_lp_Chiralities_Consistent>
1

> <s_lp_Variant>
CHEMBL2083_lig195-14

> <s_i_glide_gridfile>
glide-grid_2nnq

> <i_i_glide_lignum>
227

> <i_i_glide_rotatable_bonds>
5

> <r_i_docking_score>
-7.19494844245345

> <r_i_glide_ligand_efficiency>
-0.218028740680408

> <r_i_glide_ligand_efficiency_sa>
-0.699334669843089

> <r_i_glide_ligand_efficiency_ln>
-1.60011928015237

> <r_i_glide_gscore>
-7.19494844245345

> <r_i_glide_lipo>
-3.71785085446394

> <r_i_glide_hbond>
0

> <r_i_glide_metal>
0

> <r_i_glide_rewards>
-0.654984503820081

> <r_i_glide_evdw>
-46.4867782592773

> <r_i_glide_ecoul>
-4.66251277923584

> <r_i_glide_erotb>
0.261038660338412

> <r_i_glide_esite>
-0.0594359146585984

> <r_i_glide_emodel>
-63.2483833287812

> <r_i_glide_energy>
-51.1492910385132

> <r_i_glide_einternal>
5.43033885955811

> <i_i_glide_confnum>
8

> <i_i_glide_posenum>
180

> <r_i_glide_eff_state_penalty>
0

> <s_user_duplicate_titles>
CHEMBL2083_lig195

> <i_f3d_flags>
0

> <s_m_subgroup_title>
dock_pv

> <s_m_subgroupid>
dock_pv

> <b_m_subgroup_collapsed>
1

$$$$
CHEMBL2083_lig46
                    3D
 Schrodinger Suite 2021-1.
 45 48  0  0  1  0            999 V2000
    6.4649    7.3048   23.0746 C   0  0  0  0  0  0
    7.2838    8.1088   22.3058 C   0  0  0  0  0  0
    7.0005    8.4500   20.9790 C   0  0  0  0  0  0
    5.3167    6.7443   22.5375 C   0  0  0  0  0  0
    4.9799    7.0241   21.2063 C   0  0  0  0  0  0
    5.8135    7.8987   20.4183 C   0  0  0  0  0  0
    5.1723    8.0039   19.1701 N   0  0  0  0  0  0
    3.9207    6.5487   20.3792 C   0  0  0  0  0  0
    4.0417    7.2027   19.1669 C   0  0  0  0  0  0
    3.1169    6.9773   17.9654 C   0  0  0  0  0  0
    2.3272    5.6660   18.1691 C   0  0  0  0  0  0
    1.7533    5.5619   19.5884 C   0  0  0  0  0  0
    2.8443    5.5131   20.6786 C   0  0  0  0  0  0
    5.5506    8.8189   18.0042 C   0  0  0  0  0  0
    5.9936    8.0319   16.7523 C   0  0  0  0  0  0
    5.5403    8.3898   15.4553 C   0  0  0  0  0  0
    5.9060    7.5934   14.3592 C   0  0  0  0  0  0
    6.7199    6.4782   14.5221 C   0  0  0  0  0  0
    7.1952    6.1472   15.7846 C   0  0  0  0  0  0
    6.8339    6.9101   16.8911 C   0  0  0  0  0  0
    7.9657    9.3782   20.2967 C   0  0  0  0  0  0
    8.4924    8.9098   19.1359 O   0  0  0  0  0  0
    8.3206   10.4363   20.8160 O   0  0  0  0  0  0
    4.6606    9.6260   15.2029 C   0  0  0  0  0  0
    7.2995    6.5309   18.1055 F   0  0  0  0  0  0
    5.2100   10.7045   15.7628 F   0  0  0  0  0  0
    4.5116    9.8897   13.9028 F   0  0  0  0  0  0
    3.4470    9.4316   15.7168 F   0  0  0  0  0  0
    6.7313    7.1040   24.1017 H   0  0  0  0  0  0
    8.1745    8.5005   22.7785 H   0  0  0  0  0  0
    4.6980    6.0921   23.1336 H   0  0  0  0  0  0
    2.4151    7.8108   17.8833 H   0  0  0  0  0  0
    3.6470    6.9242   17.0184 H   0  0  0  0  0  0
    1.5245    5.6050   17.4318 H   0  0  0  0  0  0
    2.9804    4.8128   17.9779 H   0  0  0  0  0  0
    1.1134    6.4280   19.7627 H   0  0  0  0  0  0
    1.1211    4.6763   19.6693 H   0  0  0  0  0  0
    3.2929    4.5200   20.7119 H   0  0  0  0  0  0
    2.3964    5.6838   21.6582 H   0  0  0  0  0  0
    4.6693    9.4236   17.7953 H   0  0  0  0  0  0
    6.3011    9.5574   18.2642 H   0  0  0  0  0  0
    5.5527    7.8234   13.3647 H   0  0  0  0  0  0
    6.9796    5.8695   13.6670 H   0  0  0  0  0  0
    7.8372    5.2873   15.9152 H   0  0  0  0  0  0
    9.1369    9.5385   18.8012 H   0  0  0  0  0  0
  1  2  2  0  0  0
  1  4  1  0  0  0
  1 29  1  0  0  0
  2  3  1  0  0  0
  2 30  1  0  0  0
  3  6  2  0  0  0
  3 21  1  0  0  0
  4  5  2  0  0  0
  4 31  1  0  0  0
  5  8  1  0  0  0
  5  6  1  0  0  0
  6  7  1  0  0  0
  7 14  1  0  0  0
  7  9  1  0  0  0
  8  9  2  0  0  0
  8 13  1  0  0  0
  9 10  1  0  0  0
 10 11  1  0  0  0
 10 32  1  0  0  0
 10 33  1  0  0  0
 11 12  1  0  0  0
 11 34  1  0  0  0
 11 35  1  0  0  0
 12 13  1  0  0  0
 12 36  1  0  0  0
 12 37  1  0  0  0
 13 38  1  0  0  0
 13 39  1  0  0  0
 14 15  1  0  0  0
 14 40  1  0  0  0
 14 41  1  0  0  0
 15 16  2  0  0  0
 15 20  1  0  0  0
 16 17  1  0  0  0
 16 24  1  0  0  0
 17 18  2  0  0  0
 17 42  1  0  0  0
 18 19  1  0  0  0
 18 43  1  0  0  0
 19 20  2  0  0  0
 19 44  1  0  0  0
 20 25  1  0  0  0
 21 22  1  0  0  0
 21 23  2  0  0  0
 22 45  1  0  0  0
 24 26  1  0  0  0
 24 27  1  0  0  0
 24 28  1  0  0  0
M  END
> <s_m_entry_id>
2576

> <s_m_entry_name>
dock_pv.104

> <s_m_Source_Path>
/home/csk/Desktop/cluster/DUD-E-result/fabp4

> <s_m_Source_File>
dock_pv.maegz

> <i_m_Source_File_Index>
104

> <chembl_id>
CHEMBL508994

> <chembl_pref_name>
None

> <i_lp_mmshare_version>
53161

> <r_lp_tautomer_probability>
1

> <s_lp_Force_Field>
OPLS_2005

> <r_lp_Energy>
27.681158

> <b_lp_Chiralities_Consistent>
1

> <s_lp_Variant>
CHEMBL2083_lig46-1

> <s_i_glide_gridfile>
glide-grid_2nnq

> <i_i_glide_lignum>
56

> <i_i_glide_rotatable_bonds>
5

> <r_i_docking_score>
-7.1828736981238

> <r_i_glide_ligand_efficiency>
-0.256531203504421

> <r_i_glide_ligand_efficiency_sa>
-0.778979822638277

> <r_i_glide_ligand_efficiency_ln>
-1.65801814786285

> <r_i_glide_gscore>
-7.1828736981238

> <r_i_glide_lipo>
-2.92407832462034

> <r_i_glide_hbond>
-0.455511229254128

> <r_i_glide_metal>
0

> <r_i_glide_rewards>
-1.87854261997124

> <r_i_glide_evdw>
-35.2452087402344

> <r_i_glide_ecoul>
-3.47113442420959

> <r_i_glide_erotb>
0.382220092150727

> <r_i_glide_esite>
-0.0240310157856649

> <r_i_glide_emodel>
-55.2007163772451

> <r_i_glide_energy>
-38.716343164444

> <r_i_glide_einternal>
3.85699081420898

> <i_i_glide_confnum>
31

> <i_i_glide_posenum>
276

> <r_i_glide_eff_state_penalty>
0

> <s_user_duplicate_titles>
CHEMBL2083_lig46

> <i_f3d_flags>
0

> <s_m_subgroup_title>
dock_pv

> <s_m_subgroupid>
dock_pv

> <b_m_subgroup_collapsed>
1

$$$$
CHEMBL2083_lig198
                    3D
 Schrodinger Suite 2021-1.
 44 48  0  0  1  0            999 V2000
    6.3391    9.0498   19.9343 C   0  0  0  0  0  0
    5.0659    9.0210   19.2250 N   0  0  0  0  0  0
    5.0788    9.8762   18.0167 C   0  0  1  0  0  0
    4.3676    7.8028   19.2785 C   0  0  0  0  0  0
    4.3188    7.1151   20.5090 C   0  0  0  0  0  0
    3.5216    5.9621   20.5819 C   0  0  0  0  0  0
    2.8343    5.4736   19.4705 C   0  0  0  0  0  0
    2.9164    6.1559   18.2577 C   0  0  0  0  0  0
    3.6712    7.3257   18.1421 C   0  0  0  0  0  0
    5.0659    7.6574   21.7424 C   0  0  2  0  0  0
    6.1599    8.7145   21.4217 C   0  0  1  0  0  0
    7.4793    8.2158   22.0086 C   0  0  0  0  0  0
    7.1200    6.9091   22.6643 C   0  0  0  0  0  0
    5.8187    6.6092   22.5370 C   0  0  0  0  0  0
    3.8570    9.5642   17.1284 C   0  0  2  0  0  0
    3.8548    8.0760   16.8260 C   0  0  2  0  0  0
    2.8518    8.0143   15.6961 C   0  0  0  0  0  0
    2.8547    9.1974   15.0466 C   0  0  0  0  0  0
    3.7077   10.2287   15.7646 C   0  0  0  0  0  0
    5.0047   11.3456   18.4896 C   0  0  0  0  0  0
    5.9478   12.1090   17.8729 O   0  0  0  0  0  0
    4.2068   11.7500   19.3355 O   0  0  0  0  0  0
    2.0364    4.1845   19.5745 C   0  0  0  0  0  0
    6.9570    8.2744   19.4757 H   0  0  0  0  0  0
    6.8975    9.9797   19.8139 H   0  0  0  0  0  0
    6.0108    9.7495   17.4625 H   0  0  0  0  0  0
    3.4487    5.4270   21.5180 H   0  0  0  0  0  0
    2.3979    5.7698   17.3927 H   0  0  0  0  0  0
    4.3027    8.1085   22.3800 H   0  0  0  0  0  0
    5.8691    9.6375   21.9250 H   0  0  0  0  0  0
    8.2500    8.1090   21.2453 H   0  0  0  0  0  0
    7.8855    8.9060   22.7390 H   0  0  0  0  0  0
    7.8705    6.3236   23.1753 H   0  0  0  0  0  0
    5.3294    5.7355   22.9419 H   0  0  0  0  0  0
    2.9528    9.8087   17.6989 H   0  0  0  0  0  0
    4.8230    7.7512   16.4375 H   0  0  0  0  0  0
    2.3446    7.1109   15.3886 H   0  0  0  0  0  0
    2.3201    9.4368   14.1420 H   0  0  0  0  0  0
    4.6651   10.4046   15.2724 H   0  0  0  0  0  0
    3.2005   11.1907   15.8536 H   0  0  0  0  0  0
    5.9014   13.0444   18.1417 H   0  0  0  0  0  0
    2.6203    3.4215   20.0901 H   0  0  0  0  0  0
    1.1205    4.3369   20.1431 H   0  0  0  0  0  0
    1.7808    3.7824   18.5943 H   0  0  0  0  0  0
  1 11  1  0  0  0
  1  2  1  0  0  0
  1 24  1  0  0  0
  1 25  1  0  0  0
  2  4  1  0  0  0
  2  3  1  0  0  0
  3 15  1  0  0  0
  3 20  1  0  0  0
  3 26  1  0  0  0
  4  5  2  0  0  0
  4  9  1  0  0  0
  5 10  1  0  0  0
  5  6  1  0  0  0
  6  7  2  0  0  0
  6 27  1  0  0  0
  7  8  1  0  0  0
  7 23  1  0  0  0
  8  9  2  0  0  0
  8 28  1  0  0  0
  9 16  1  0  0  0
 10 11  1  0  0  0
 10 14  1  0  0  0
 10 29  1  0  0  0
 11 12  1  0  0  0
 11 30  1  0  0  0
 12 13  1  0  0  0
 12 31  1  0  0  0
 12 32  1  0  0  0
 13 14  2  0  0  0
 13 33  1  0  0  0
 14 34  1  0  0  0
 15 16  1  0  0  0
 15 19  1  0  0  0
 15 35  1  0  0  0
 16 17  1  0  0  0
 16 36  1  0  0  0
 17 18  2  0  0  0
 17 37  1  0  0  0
 18 19  1  0  0  0
 18 38  1  0  0  0
 19 39  1  0  0  0
 19 40  1  0  0  0
 20 21  1  0  0  0
 20 22  2  0  0  0
 21 41  1  0  0  0
 23 42  1  0  0  0
 23 43  1  0  0  0
 23 44  1  0  0  0
M  END
> <s_m_entry_id>
2577

> <s_m_entry_name>
dock_pv.105

> <s_m_Source_Path>
/home/csk/Desktop/cluster/DUD-E-result/fabp4

> <s_m_Source_File>
dock_pv.maegz

> <i_m_Source_File_Index>
105

> <chembl_id>
CHEMBL3827483

> <chembl_pref_name>
None

> <i_lp_mmshare_version>
53161

> <r_lp_tautomer_probability>
1

> <s_lp_Force_Field>
OPLS_2005

> <r_lp_Energy>
71.262652

> <b_lp_Chiralities_Consistent>
1

> <s_lp_Variant>
CHEMBL2083_lig198-6

> <s_i_glide_gridfile>
glide-grid_2nnq

> <i_i_glide_lignum>
315

> <i_i_glide_rotatable_bonds>
2

> <r_i_docking_score>
-7.17218470343903

> <r_i_glide_ligand_efficiency>
-0.311834117540827

> <r_i_glide_ligand_efficiency_sa>
-0.886814749138643

> <r_i_glide_ligand_efficiency_ln>
-1.73429929506687

> <r_i_glide_gscore>
-7.17218470343903

> <r_i_glide_lipo>
-2.93946027532578

> <r_i_glide_hbond>
-0.203979935717916

> <r_i_glide_metal>
0

> <r_i_glide_rewards>
-1.64996811769039

> <r_i_glide_evdw>
-27.3233661651611

> <r_i_glide_ecoul>
-7.69779253005981

> <r_i_glide_erotb>
0.195647951793434

> <r_i_glide_esite>
-0.053587138731354

> <r_i_glide_emodel>
-51.7306104040849

> <r_i_glide_energy>
-35.0211586952209

> <r_i_glide_einternal>
0.592525362968445

> <i_i_glide_confnum>
1

> <i_i_glide_posenum>
196

> <r_i_glide_eff_state_penalty>
0

> <s_user_duplicate_titles>
CHEMBL2083_lig198

> <i_f3d_flags>
0

> <s_m_subgroup_title>
dock_pv

> <s_m_subgroupid>
dock_pv

> <b_m_subgroup_collapsed>
1

$$$$
CHEMBL2083_lig170
                    3D
 Schrodinger Suite 2021-1.
 63 67  0  0  1  0            999 V2000
    5.3067    7.7192   21.0594 C   0  0  0  0  0  0
    4.7446    7.1852   22.2279 C   0  0  0  0  0  0
    5.5200    6.9090   23.3468 C   0  0  0  0  0  0
    6.8485    7.3090   23.3840 C   0  0  0  0  0  0
    7.4100    7.9157   22.2717 C   0  0  0  0  0  0
    6.6783    8.0820   21.0934 C   0  0  0  0  0  0
    7.3647    8.6733   19.9203 C   0  0  0  0  0  0
    8.3200    9.8849   17.5966 C   0  0  0  0  0  0
    8.3164   10.5891   18.7954 C   0  0  0  0  0  0
    7.8363    9.9886   19.9551 C   0  0  0  0  0  0
    7.8885    8.5631   17.5490 C   0  0  0  0  0  0
    7.4341    7.9564   18.7223 C   0  0  0  0  0  0
    6.7370    5.6660   16.3148 C   0  0  0  0  0  0
    6.7108    7.1499   15.9088 C   0  0  0  0  0  0
    7.9181    7.8898   16.3191 N   0  0  0  0  0  0
    7.9200    5.3090   16.8866 O   0  0  0  0  0  0
    5.7851    4.9090   16.1420 O   0  0  0  0  0  0
    4.4438    7.9856   19.8378 C   0  0  0  0  0  0
    4.6366    9.0533   19.0964 N   0  0  0  0  0  0
    3.8341    8.9872   18.0569 C   0  0  0  0  0  0
    2.9412    7.9272   18.2246 C   0  0  0  0  0  0
    3.3898    7.2303   19.3420 N   0  0  0  0  0  0
    3.9449    9.9936   16.9450 C   0  0  0  0  0  0
    4.4443   11.2819   17.1833 C   0  0  0  0  0  0
    4.5537   12.2007   16.1421 C   0  0  0  0  0  0
    4.1715   11.8338   14.8541 C   0  0  0  0  0  0
    3.6864   10.5536   14.5985 C   0  0  0  0  0  0
    3.5780    9.6363   15.6411 C   0  0  0  0  0  0
    1.6661    7.6363   17.5086 C   0  0  0  0  0  0
    0.8509    8.7137   17.1449 C   0  0  0  0  0  0
   -0.4183    8.4860   16.6302 C   0  0  0  0  0  0
   -0.8800    7.1796   16.5420 C   0  0  0  0  0  0
   -0.0954    6.1090   16.9420 C   0  0  0  0  0  0
    1.2092    6.3329   17.3219 C   0  0  0  0  0  0
    2.7853    6.0040   19.9024 C   0  0  0  0  0  0
    3.4282    4.7330   19.3328 C   0  0  0  0  0  0
    3.6889    7.0342   22.3431 H   0  0  0  0  0  0
    5.0619    6.4763   24.2228 H   0  0  0  0  0  0
    7.4343    7.1710   24.2812 H   0  0  0  0  0  0
    8.4280    8.2612   22.3329 H   0  0  0  0  0  0
    8.6952   10.3741   16.7134 H   0  0  0  0  0  0
    8.6608   11.6119   18.8107 H   0  0  0  0  0  0
    7.7741   10.5673   20.8634 H   0  0  0  0  0  0
    7.0627    6.9443   18.7120 H   0  0  0  0  0  0
    6.6052    7.1989   14.8246 H   0  0  0  0  0  0
    5.8119    7.6075   16.3270 H   0  0  0  0  0  0
    8.4542    8.3323   15.5877 H   0  0  0  0  0  0
    8.4670    6.1037   16.9268 H   0  0  0  0  0  0
    4.7465   11.5812   18.1767 H   0  0  0  0  0  0
    4.9304   13.1955   16.3381 H   0  0  0  0  0  0
    4.2522   12.5482   14.0473 H   0  0  0  0  0  0
    3.3946   10.2734   13.5968 H   0  0  0  0  0  0
    3.2084    8.6436   15.4290 H   0  0  0  0  0  0
    1.1862    9.7303   17.2871 H   0  0  0  0  0  0
   -1.0470    9.3089   16.3246 H   0  0  0  0  0  0
   -1.8647    6.9918   16.1420 H   0  0  0  0  0  0
   -0.4800    5.1018   16.9420 H   0  0  0  0  0  0
    1.8125    5.4750   17.5463 H   0  0  0  0  0  0
    2.8277    5.9683   20.9768 H   0  0  0  0  0  0
    1.7122    6.0273   19.7306 H   0  0  0  0  0  0
    2.7636    3.8746   19.4358 H   0  0  0  0  0  0
    3.7186    4.8220   18.2852 H   0  0  0  0  0  0
    4.3200    4.5090   19.8943 H   0  0  0  0  0  0
  1 18  1  0  0  0
  1  6  1  0  0  0
  1  2  2  0  0  0
  2  3  1  0  0  0
  2 37  1  0  0  0
  3  4  2  0  0  0
  3 38  1  0  0  0
  4  5  1  0  0  0
  4 39  1  0  0  0
  5  6  2  0  0  0
  5 40  1  0  0  0
  6  7  1  0  0  0
  7 10  1  0  0  0
  7 12  2  0  0  0
  8  9  1  0  0  0
  8 11  2  0  0  0
  8 41  1  0  0  0
  9 10  2  0  0  0
  9 42  1  0  0  0
 10 43  1  0  0  0
 11 12  1  0  0  0
 11 15  1  0  0  0
 12 44  1  0  0  0
 13 14  1  0  0  0
 13 16  1  0  0  0
 13 17  2  0  0  0
 14 15  1  0  0  0
 14 45  1  0  0  0
 14 46  1  0  0  0
 15 47  1  0  0  0
 16 48  1  0  0  0
 18 19  2  0  0  0
 18 22  1  0  0  0
 19 20  1  0  0  0
 20 21  2  0  0  0
 20 23  1  0  0  0
 21 22  1  0  0  0
 21 29  1  0  0  0
 22 35  1  0  0  0
 23 24  2  0  0  0
 23 28  1  0  0  0
 24 25  1  0  0  0
 24 49  1  0  0  0
 25 26  2  0  0  0
 25 50  1  0  0  0
 26 27  1  0  0  0
 26 51  1  0  0  0
 27 28  2  0  0  0
 27 52  1  0  0  0
 28 53  1  0  0  0
 29 30  2  0  0  0
 29 34  1  0  0  0
 30 31  1  0  0  0
 30 54  1  0  0  0
 31 32  2  0  0  0
 31 55  1  0  0  0
 32 33  1  0  0  0
 32 56  1  0  0  0
 33 34  2  0  0  0
 33 57  1  0  0  0
 34 58  1  0  0  0
 35 36  1  0  0  0
 35 59  1  0  0  0
 35 60  1  0  0  0
 36 61  1  0  0  0
 36 62  1  0  0  0
 36 63  1  0  0  0
M  END
> <s_m_entry_id>
2578

> <s_m_entry_name>
dock_pv.106

> <s_m_Source_Path>
/home/csk/Desktop/cluster/DUD-E-result/fabp4

> <s_m_Source_File>
dock_pv.maegz

> <i_m_Source_File_Index>
106

> <chembl_id>
CHEMBL245653

> <chembl_pref_name>
None

> <i_lp_mmshare_version>
53161

> <r_lp_tautomer_probability>
1

> <s_lp_Force_Field>
OPLS_2005

> <r_lp_Energy>
35.049177

> <b_lp_Chiralities_Consistent>
1

> <s_lp_Variant>
CHEMBL2083_lig170-1

> <s_i_glide_gridfile>
glide-grid_2nnq

> <i_i_glide_lignum>
186

> <i_i_glide_rotatable_bonds>
9

> <r_i_docking_score>
-7.16610438458068

> <r_i_glide_ligand_efficiency>
-0.199058455127241

> <r_i_glide_ligand_efficiency_sa>
-0.657276536322384

> <r_i_glide_ligand_efficiency_ln>
-1.56345037094894

> <r_i_glide_gscore>
-7.16610438458068

> <r_i_glide_lipo>
-4.61166590261628

> <r_i_glide_hbond>
-0.00569063280252213

> <r_i_glide_metal>
0

> <r_i_glide_rewards>
-0.591016658154435

> <r_i_glide_evdw>
-48.6796188354492

> <r_i_glide_ecoul>
-1.00167870521545

> <r_i_glide_erotb>
0.631396134230199

> <r_i_glide_esite>
-0.00489457768286197

> <r_i_glide_emodel>
-60.8295318387439

> <r_i_glide_energy>
-49.6812975406647

> <r_i_glide_einternal>
9.77541732788086

> <i_i_glide_confnum>
63

> <i_i_glide_posenum>
274

> <r_i_glide_eff_state_penalty>
0

> <s_user_duplicate_titles>
CHEMBL2083_lig170,412710

> <i_f3d_flags>
0

> <s_m_subgroup_title>
dock_pv

> <s_m_subgroupid>
dock_pv

> <b_m_subgroup_collapsed>
1

$$$$
CHEMBL2083_lig202
                    3D
 Schrodinger Suite 2021-1.
 56 60  0  0  1  0            999 V2000
    4.3618    7.5196   16.8928 C   0  0  1  0  0  0
    3.4194    6.9356   17.8355 N   0  0  0  0  0  0
    4.6732    7.6892   19.8119 C   0  0  0  0  0  0
    3.6515    6.8967   19.2292 C   0  0  0  0  0  0
    2.9242    5.9770   20.0089 C   0  0  0  0  0  0
    3.1200    5.9698   21.3955 C   0  0  0  0  0  0
    4.0354    6.8327   21.9905 C   0  0  0  0  0  0
    4.8118    7.6767   21.2032 C   0  0  0  0  0  0
    5.0369    8.7364   17.5514 C   0  0  1  0  0  0
    5.6573    8.4288   18.9075 C   0  0  1  0  0  0
    6.3303    9.7654   19.2760 C   0  0  2  0  0  0
    6.8367   10.3057   17.9012 C   0  0  1  0  0  0
    6.2339    9.3718   16.8433 C   0  0  0  0  0  0
    6.3726   12.0364   17.5990 S   0  0  0  0  0  0
    5.0149   12.1851   16.4472 C   0  0  0  0  0  0
    7.7284    9.4651   20.3548 Cl  0  0  0  0  0  0
    1.9553    5.0004   19.3810 C   0  0  0  0  0  0
    1.1199    5.3295   18.5421 O   0  0  0  0  0  0
    2.1587    3.7090   19.7420 O   0  0  0  0  0  0
    5.3809    6.5563   16.2874 C   0  0  0  0  0  0
    6.0345    5.6274   17.1041 C   0  0  0  0  0  0
    7.1184    4.9090   16.6215 C   0  0  0  0  0  0
    7.5200    5.0625   15.2958 C   0  0  0  0  0  0
    6.8487    5.9461   14.4605 C   0  0  0  0  0  0
    5.7857    6.7034   14.9489 C   0  0  0  0  0  0
    3.6862   12.3889   16.8595 C   0  0  0  0  0  0
    2.6744   12.5322   15.8987 C   0  0  0  0  0  0
    2.9754   12.5090   14.5423 C   0  0  0  0  0  0
    4.3003   12.3897   14.1420 C   0  0  0  0  0  0
    5.3073   12.2291   15.0845 C   0  0  0  0  0  0
    3.3378   12.5762   18.2681 N   0  3  0  0  0  0
    2.7200   13.5963   18.5420 O   0  0  0  0  0  0
    3.6452   11.7089   19.0776 O   0  5  0  0  0  0
    5.1747    7.7062   14.0715 N   0  3  0  0  0  0
    4.0035    7.5552   13.7420 O   0  0  0  0  0  0
    5.8874    8.6477   13.7420 O   0  5  0  0  0  0
    3.7307    7.8913   16.0890 H   0  0  0  0  0  0
    2.6647    6.3978   17.4301 H   0  0  0  0  0  0
    2.5515    5.3090   22.0322 H   0  0  0  0  0  0
    4.1710    6.8231   23.0622 H   0  0  0  0  0  0
    5.5598    8.2897   21.6837 H   0  0  0  0  0  0
    4.2579    9.4933   17.6772 H   0  0  0  0  0  0
    6.4583    7.6990   18.7700 H   0  0  0  0  0  0
    5.6207   10.4412   19.7494 H   0  0  0  0  0  0
    7.9258   10.2478   17.8628 H   0  0  0  0  0  0
    6.9830    8.6339   16.5527 H   0  0  0  0  0  0
    5.9197    9.8625   15.9307 H   0  0  0  0  0  0
    1.5199    3.1316   19.3208 H   0  0  0  0  0  0
    5.7516    5.5059   18.1393 H   0  0  0  0  0  0
    7.6378    4.2396   17.2932 H   0  0  0  0  0  0
    8.3605    4.5090   14.9083 H   0  0  0  0  0  0
    7.1664    6.0592   13.4338 H   0  0  0  0  0  0
    1.6508   12.6929   16.2026 H   0  0  0  0  0  0
    2.1955   12.6439   13.8060 H   0  0  0  0  0  0
    4.5586   12.4647   13.1005 H   0  0  0  0  0  0
    6.3216   12.1603   14.7420 H   0  0  0  0  0  0
  1  9  1  0  0  0
  1  2  1  0  0  0
  1 20  1  0  0  0
  1 37  1  0  0  0
  2  4  1  0  0  0
  2 38  1  0  0  0
  3 10  1  0  0  0
  3  4  2  0  0  0
  3  8  1  0  0  0
  4  5  1  0  0  0
  5  6  2  0  0  0
  5 17  1  0  0  0
  6  7  1  0  0  0
  6 39  1  0  0  0
  7  8  2  0  0  0
  7 40  1  0  0  0
  8 41  1  0  0  0
  9 10  1  0  0  0
  9 13  1  0  0  0
  9 42  1  0  0  0
 10 11  1  0  0  0
 10 43  1  0  0  0
 11 12  1  0  0  0
 11 16  1  0  0  0
 11 44  1  0  0  0
 12 13  1  0  0  0
 12 14  1  0  0  0
 12 45  1  0  0  0
 13 46  1  0  0  0
 13 47  1  0  0  0
 14 15  1  0  0  0
 15 26  2  0  0  0
 15 30  1  0  0  0
 17 18  2  0  0  0
 17 19  1  0  0  0
 19 48  1  0  0  0
 20 21  2  0  0  0
 20 25  1  0  0  0
 21 22  1  0  0  0
 21 49  1  0  0  0
 22 23  2  0  0  0
 22 50  1  0  0  0
 23 24  1  0  0  0
 23 51  1  0  0  0
 24 25  2  0  0  0
 24 52  1  0  0  0
 25 34  1  0  0  0
 26 27  1  0  0  0
 26 31  1  0  0  0
 27 28  2  0  0  0
 27 53  1  0  0  0
 28 29  1  0  0  0
 28 54  1  0  0  0
 29 30  2  0  0  0
 29 55  1  0  0  0
 30 56  1  0  0  0
 31 32  2  0  0  0
 31 33  1  0  0  0
 34 35  2  0  0  0
 34 36  1  0  0  0
M  CHG  4  31   1  33  -1  34   1  36  -1
M  END
> <s_m_entry_id>
2579

> <s_m_entry_name>
dock_pv.107

> <s_m_Source_Path>
/home/csk/Desktop/cluster/DUD-E-result/fabp4

> <s_m_Source_File>
dock_pv.maegz

> <i_m_Source_File_Index>
107

> <chembl_id>
CHEMBL3827527

> <chembl_pref_name>
None

> <i_lp_mmshare_version>
53161

> <r_lp_tautomer_probability>
1

> <s_lp_Force_Field>
OPLS_2005

> <r_lp_Energy>
64.1599

> <b_lp_Chiralities_Consistent>
1

> <s_lp_Variant>
CHEMBL2083_lig202-23

> <s_i_glide_gridfile>
glide-grid_2nnq

> <i_i_glide_lignum>
398

> <i_i_glide_rotatable_bonds>
7

> <r_i_docking_score>
-7.16271077127688

> <r_i_glide_ligand_efficiency>
-0.198964188091024

> <r_i_glide_ligand_efficiency_sa>
-0.6569652734272

> <r_i_glide_ligand_efficiency_ln>
-1.56270997621088

> <r_i_glide_gscore>
-7.16271077127688

> <r_i_glide_lipo>
-3.43137136919829

> <r_i_glide_hbond>
0

> <r_i_glide_metal>
0

> <r_i_glide_rewards>
-0.704155448278548

> <r_i_glide_evdw>
-51.6311492919922

> <r_i_glide_ecoul>
-3.20514702796936

> <r_i_glide_erotb>
0.297662755552557

> <r_i_glide_esite>
-0.26251719055758

> <r_i_glide_emodel>
-63.0876328056104

> <r_i_glide_energy>
-54.8362963199615

> <r_i_glide_einternal>
15.4207286834717

> <i_i_glide_confnum>
59

> <i_i_glide_posenum>
186

> <r_i_glide_eff_state_penalty>
0

> <s_user_duplicate_titles>
CHEMBL2083_lig202

> <i_f3d_flags>
0

> <s_m_subgroup_title>
dock_pv

> <s_m_subgroupid>
dock_pv

> <b_m_subgroup_collapsed>
1

$$$$
CHEMBL2083_lig100
                    3D
 Schrodinger Suite 2021-1.
 49 53  0  0  1  0            999 V2000
    5.5074   12.5085   14.8896 C   0  0  0  0  0  0
    5.0583   11.4357   15.8489 C   0  0  0  0  0  0
    6.0949   11.0320   17.1782 S   0  0  0  0  0  0
    5.0188    9.7934   17.6828 C   0  0  0  0  0  0
    5.4014    9.0318   18.7643 N   0  0  0  0  0  0
    5.0556    9.3483   20.0264 C   0  0  0  0  0  0
    4.3200   10.2865   20.3277 O   0  0  0  0  0  0
    5.5984    8.4515   21.0258 C   0  0  0  0  0  0
    6.9200    8.2317   21.2641 C   0  0  0  0  0  0
    7.1199    7.1823   22.3425 C   0  0  0  0  0  0
    5.7112    6.9099   22.8610 C   0  0  0  0  0  0
    4.7232    7.5960   21.9226 C   0  0  0  0  0  0
    8.0123    8.9106   20.5957 C   0  0  0  0  0  0
    8.4677    9.9984   20.9419 O   0  0  0  0  0  0
    8.4910    8.1904   19.5461 O   0  0  0  0  0  0
    3.8676    9.7079   16.8971 C   0  0  0  0  0  0
    2.7984    8.7247   17.1439 C   0  0  0  0  0  0
    1.5124    9.0336   16.8393 O   0  0  0  0  0  0
    0.7627    7.9336   17.2539 N   0  0  0  0  0  0
    1.6732    7.1269   17.7546 C   0  0  0  0  0  0
    2.9204    7.5511   17.7048 N   0  0  0  0  0  0
    1.2950    5.7943   18.3838 C   0  0  0  0  0  0
    2.1856    4.5791   18.2543 C   0  0  0  0  0  0
    2.0581    5.2790   19.5852 C   0  0  0  0  0  0
    3.8727   10.6739   15.8569 C   0  0  0  0  0  0
    2.7399   10.8351   14.8470 C   0  0  0  0  0  0
    1.5211   11.6452   15.2301 C   0  0  0  0  0  0
    2.4298   12.1394   14.1428 C   0  0  0  0  0  0
    5.0376   13.4515   15.1582 H   0  0  0  0  0  0
    6.5826   12.6818   14.9074 H   0  0  0  0  0  0
    5.2395   12.2849   13.8569 H   0  0  0  0  0  0
    5.9640    8.2108   18.5991 H   0  0  0  0  0  0
    7.7793    7.5193   23.1445 H   0  0  0  0  0  0
    7.5549    6.2808   21.9090 H   0  0  0  0  0  0
    5.5120    5.8397   22.9381 H   0  0  0  0  0  0
    5.6032    7.3090   23.8711 H   0  0  0  0  0  0
    4.1782    6.8676   21.3296 H   0  0  0  0  0  0
    3.9868    8.1793   22.4784 H   0  0  0  0  0  0
    9.2434    8.6422   19.1583 H   0  0  0  0  0  0
    0.2228    5.5929   18.3670 H   0  0  0  0  0  0
    1.7208    3.5991   18.1420 H   0  0  0  0  0  0
    3.1187    4.6668   17.6973 H   0  0  0  0  0  0
    2.9049    5.8534   19.9498 H   0  0  0  0  0  0
    1.5206    4.7837   20.3926 H   0  0  0  0  0  0
    2.5550    9.9333   14.2615 H   0  0  0  0  0  0
    0.5268   11.3090   14.9412 H   0  0  0  0  0  0
    1.5240   12.1579   16.1921 H   0  0  0  0  0  0
    2.9793   13.0539   14.3479 H   0  0  0  0  0  0
    2.0716   12.1048   13.1150 H   0  0  0  0  0  0
  1  2  1  0  0  0
  1 29  1  0  0  0
  1 30  1  0  0  0
  1 31  1  0  0  0
  2  3  1  0  0  0
  2 25  2  0  0  0
  3  4  1  0  0  0
  4  5  1  0  0  0
  4 16  2  0  0  0
  5  6  1  0  0  0
  5 32  1  0  0  0
  6  7  2  0  0  0
  6  8  1  0  0  0
  8  9  2  0  0  0
  8 12  1  0  0  0
  9 10  1  0  0  0
  9 13  1  0  0  0
 10 11  1  0  0  0
 10 33  1  0  0  0
 10 34  1  0  0  0
 11 12  1  0  0  0
 11 35  1  0  0  0
 11 36  1  0  0  0
 12 37  1  0  0  0
 12 38  1  0  0  0
 13 14  2  0  0  0
 13 15  1  0  0  0
 15 39  1  0  0  0
 16 17  1  0  0  0
 16 25  1  0  0  0
 17 18  1  0  0  0
 17 21  2  0  0  0
 18 19  1  0  0  0
 19 20  2  0  0  0
 20 21  1  0  0  0
 20 22  1  0  0  0
 22 23  1  0  0  0
 22 24  1  0  0  0
 22 40  1  0  0  0
 23 24  1  0  0  0
 23 41  1  0  0  0
 23 42  1  0  0  0
 24 43  1  0  0  0
 24 44  1  0  0  0
 25 26  1  0  0  0
 26 27  1  0  0  0
 26 28  1  0  0  0
 26 45  1  0  0  0
 27 28  1  0  0  0
 27 46  1  0  0  0
 27 47  1  0  0  0
 28 48  1  0  0  0
 28 49  1  0  0  0
M  END
> <s_m_entry_id>
2580

> <s_m_entry_name>
dock_pv.108

> <s_m_Source_Path>
/home/csk/Desktop/cluster/DUD-E-result/fabp4

> <s_m_Source_File>
dock_pv.maegz

> <i_m_Source_File_Index>
108

> <chembl_id>
CHEMBL3896498

> <chembl_pref_name>
None

> <i_lp_mmshare_version>
53161

> <r_lp_tautomer_probability>
1

> <s_lp_Force_Field>
OPLS_2005

> <r_lp_Energy>
39.674409

> <b_lp_Chiralities_Consistent>
1

> <s_lp_Variant>
CHEMBL2083_lig100-1

> <s_i_glide_gridfile>
glide-grid_2nnq

> <i_i_glide_lignum>
110

> <i_i_glide_rotatable_bonds>
8

> <r_i_docking_score>
-7.16027092055936

> <r_i_glide_ligand_efficiency>
-0.255723961448549

> <r_i_glide_ligand_efficiency_sa>
-0.776528560316503

> <r_i_glide_ligand_efficiency_ln>
-1.6528007631546

> <r_i_glide_gscore>
-7.16027092055936

> <r_i_glide_lipo>
-2.79455003250894

> <r_i_glide_hbond>
-0.547596201363787

> <r_i_glide_metal>
0

> <r_i_glide_rewards>
-1.42284095262868

> <r_i_glide_evdw>
-45.6409912109375

> <r_i_glide_ecoul>
-6.48536348342896

> <r_i_glide_erotb>
0.859570349003268

> <r_i_glide_esite>
0

> <r_i_glide_emodel>
-69.3171552980011

> <r_i_glide_energy>
-52.1263546943665

> <r_i_glide_einternal>
12.3771877288818

> <i_i_glide_confnum>
46

> <i_i_glide_posenum>
310

> <r_i_glide_eff_state_penalty>
0

> <s_user_duplicate_titles>
CHEMBL2083_lig100

> <i_f3d_flags>
0

> <s_m_subgroup_title>
dock_pv

> <s_m_subgroupid>
dock_pv

> <b_m_subgroup_collapsed>
1

$$$$
CHEMBL2083_lig197
                    3D
 Schrodinger Suite 2021-1.
 41 45  0  0  1  0            999 V2000
    5.8941    8.3170   19.4519 C   0  0  0  0  0  0
    5.0534    9.0363   18.4605 N   0  0  0  0  0  0
    5.6938   10.1639   17.7108 C   0  0  1  0  0  0
    3.8366    8.4362   18.0200 C   0  0  0  0  0  0
    3.2483    7.3717   18.7616 C   0  0  0  0  0  0
    1.9741    6.9182   18.4117 C   0  0  0  0  0  0
    1.2813    7.4904   17.3529 C   0  0  0  0  0  0
    1.8791    8.4815   16.5857 C   0  0  0  0  0  0
    3.1592    8.9529   16.8862 C   0  0  0  0  0  0
    4.0469    6.7066   19.8776 C   0  0  1  0  0  0
    4.9502    7.7337   20.5160 C   0  0  1  0  0  0
    5.4236    7.1298   21.8297 C   0  0  0  0  0  0
    4.2051    6.2835   22.1803 C   0  0  0  0  0  0
    3.3957    6.1088   21.1109 C   0  0  0  0  0  0
    4.6145   10.9321   16.9004 C   0  0  2  0  0  0
    3.8850    9.9582   16.0018 C   0  0  2  0  0  0
    3.1412   10.8991   15.0755 C   0  0  0  0  0  0
    3.8005   12.0729   15.0058 C   0  0  0  0  0  0
    4.9707   12.0994   15.9799 C   0  0  0  0  0  0
    6.3562   11.1908   18.6678 C   0  0  0  0  0  0
    7.5012   11.7089   18.1414 O   0  0  0  0  0  0
    5.8881   11.5224   19.7548 O   0  0  0  0  0  0
   -0.4798    6.9086   16.9422 Br  0  0  0  0  0  0
    6.3959    7.4715   18.9782 H   0  0  0  0  0  0
    6.6895    8.9284   19.8740 H   0  0  0  0  0  0
    6.4866    9.7788   17.0684 H   0  0  0  0  0  0
    1.5103    6.1170   18.9681 H   0  0  0  0  0  0
    1.3400    8.8774   15.7416 H   0  0  0  0  0  0
    4.6256    5.9282   19.3760 H   0  0  0  0  0  0
    4.3220    8.5803   20.8174 H   0  0  0  0  0  0
    5.6127    7.9074   22.5729 H   0  0  0  0  0  0
    6.3319    6.5337   21.7342 H   0  0  0  0  0  0
    4.0395    5.8989   23.1763 H   0  0  0  0  0  0
    2.4867    5.5296   21.0814 H   0  0  0  0  0  0
    3.8975   11.3358   17.6251 H   0  0  0  0  0  0
    4.5896    9.3752   15.4043 H   0  0  0  0  0  0
    2.2967   10.5975   14.4745 H   0  0  0  0  0  0
    3.5554   12.9096   14.3686 H   0  0  0  0  0  0
    5.0157   13.0361   16.5394 H   0  0  0  0  0  0
    5.9315   11.9702   15.4812 H   0  0  0  0  0  0
    7.8426   12.4071   18.7236 H   0  0  0  0  0  0
  1 11  1  0  0  0
  1  2  1  0  0  0
  1 24  1  0  0  0
  1 25  1  0  0  0
  2  4  1  0  0  0
  2  3  1  0  0  0
  3 15  1  0  0  0
  3 20  1  0  0  0
  3 26  1  0  0  0
  4  5  2  0  0  0
  4  9  1  0  0  0
  5 10  1  0  0  0
  5  6  1  0  0  0
  6  7  2  0  0  0
  6 27  1  0  0  0
  7  8  1  0  0  0
  7 23  1  0  0  0
  8  9  2  0  0  0
  8 28  1  0  0  0
  9 16  1  0  0  0
 10 11  1  0  0  0
 10 14  1  0  0  0
 10 29  1  0  0  0
 11 12  1  0  0  0
 11 30  1  0  0  0
 12 13  1  0  0  0
 12 31  1  0  0  0
 12 32  1  0  0  0
 13 14  2  0  0  0
 13 33  1  0  0  0
 14 34  1  0  0  0
 15 16  1  0  0  0
 15 19  1  0  0  0
 15 35  1  0  0  0
 16 17  1  0  0  0
 16 36  1  0  0  0
 17 18  2  0  0  0
 17 37  1  0  0  0
 18 19  1  0  0  0
 18 38  1  0  0  0
 19 39  1  0  0  0
 19 40  1  0  0  0
 20 21  1  0  0  0
 20 22  2  0  0  0
 21 41  1  0  0  0
M  END
> <s_m_entry_id>
2581

> <s_m_entry_name>
dock_pv.109

> <s_m_Source_Path>
/home/csk/Desktop/cluster/DUD-E-result/fabp4

> <s_m_Source_File>
dock_pv.maegz

> <i_m_Source_File_Index>
109

> <chembl_id>
CHEMBL3828508

> <chembl_pref_name>
None

> <i_lp_mmshare_version>
53161

> <r_lp_tautomer_probability>
1

> <s_lp_Force_Field>
OPLS_2005

> <r_lp_Energy>
81.974211

> <b_lp_Chiralities_Consistent>
1

> <s_lp_Variant>
CHEMBL2083_lig197-8

> <s_i_glide_gridfile>
glide-grid_2nnq

> <i_i_glide_lignum>
285

> <i_i_glide_rotatable_bonds>
2

> <r_i_docking_score>
-7.14052856446203

> <r_i_glide_ligand_efficiency>
-0.310457763672262

> <r_i_glide_ligand_efficiency_sa>
-0.882900581823331

> <r_i_glide_ligand_efficiency_ln>
-1.72664455362023

> <r_i_glide_gscore>
-7.14052856446203

> <r_i_glide_lipo>
-3.06334096611815

> <r_i_glide_hbond>
0

> <r_i_glide_metal>
0

> <r_i_glide_rewards>
-1.04842546154907

> <r_i_glide_evdw>
-37.3852081298828

> <r_i_glide_ecoul>
-7.37990379333496

> <r_i_glide_erotb>
0

> <r_i_glide_esite>
-0.0525161613004323

> <r_i_glide_emodel>
-63.3362499829358

> <r_i_glide_energy>
-44.7651119232178

> <r_i_glide_einternal>
0.992738902568817

> <i_i_glide_confnum>
1

> <i_i_glide_posenum>
221

> <r_i_glide_eff_state_penalty>
0

> <s_user_duplicate_titles>
CHEMBL2083_lig197

> <i_f3d_flags>
0

> <s_m_subgroup_title>
dock_pv

> <s_m_subgroupid>
dock_pv

> <b_m_subgroup_collapsed>
1

$$$$
CHEMBL2083_lig199
                    3D
 Schrodinger Suite 2021-1.
 41 45  0  0  1  0            999 V2000
    5.2241   11.4900   16.2973 C   0  0  0  0  0  0
    5.6061   10.2938   17.0579 N   0  0  0  0  0  0
    6.4649   10.6087   18.2236 C   0  0  2  0  0  0
    4.7398    9.1926   17.1327 C   0  0  0  0  0  0
    3.6058    9.1158   16.2884 C   0  0  0  0  0  0
    2.7261    8.0379   16.4507 C   0  0  0  0  0  0
    2.9672    7.0414   17.3889 C   0  0  0  0  0  0
    4.1315    7.0772   18.1433 C   0  0  0  0  0  0
    5.0465    8.1286   18.0204 C   0  0  0  0  0  0
    3.3191   10.1520   15.1992 C   0  0  2  0  0  0
    4.4067   11.2243   15.0142 C   0  0  1  0  0  0
    3.6491   12.4742   14.5450 C   0  0  0  0  0  0
    2.2272   12.2346   15.0017 C   0  0  0  0  0  0
    2.0563   10.9641   15.4015 C   0  0  0  0  0  0
    7.2562    9.3213   18.6301 C   0  0  2  0  0  0
    6.3641    8.0788   18.8047 C   0  0  1  0  0  0
    6.2561    7.9524   20.3122 C   0  0  0  0  0  0
    7.2414    8.6327   20.9232 C   0  0  0  0  0  0
    8.0916    9.3927   19.9220 C   0  0  0  0  0  0
    5.6167   11.1997   19.3971 C   0  0  0  0  0  0
    6.3199   12.1086   20.1301 O   0  0  0  0  0  0
    4.4649   10.8586   19.6694 O   0  0  0  0  0  0
    1.8368    5.7550   17.6021 Cl  0  0  0  0  0  0
    4.5901   12.0820   16.9610 H   0  0  0  0  0  0
    6.0641   12.1724   16.1532 H   0  0  0  0  0  0
    7.1709   11.3970   17.9572 H   0  0  0  0  0  0
    1.8421    7.9718   15.8332 H   0  0  0  0  0  0
    4.3341    6.2664   18.8296 H   0  0  0  0  0  0
    3.2108    9.5878   14.2701 H   0  0  0  0  0  0
    5.0956   10.8646   14.2497 H   0  0  0  0  0  0
    4.0582   13.3805   14.9915 H   0  0  0  0  0  0
    3.6948   12.5954   13.4619 H   0  0  0  0  0  0
    1.4769   13.0127   14.9866 H   0  0  0  0  0  0
    1.1317   10.5214   15.7418 H   0  0  0  0  0  0
    7.9415    9.1203   17.8040 H   0  0  0  0  0  0
    6.8921    7.1986   18.4302 H   0  0  0  0  0  0
    5.5317    7.3145   20.7987 H   0  0  0  0  0  0
    7.4315    8.6539   21.9841 H   0  0  0  0  0  0
    8.2875   10.4187   20.2322 H   0  0  0  0  0  0
    9.0632    8.9121   19.7972 H   0  0  0  0  0  0
    7.1415   12.4358   19.7397 H   0  0  0  0  0  0
  1 11  1  0  0  0
  1  2  1  0  0  0
  1 24  1  0  0  0
  1 25  1  0  0  0
  2  4  1  0  0  0
  2  3  1  0  0  0
  3 15  1  0  0  0
  3 20  1  0  0  0
  3 26  1  0  0  0
  4  5  2  0  0  0
  4  9  1  0  0  0
  5 10  1  0  0  0
  5  6  1  0  0  0
  6  7  2  0  0  0
  6 27  1  0  0  0
  7  8  1  0  0  0
  7 23  1  0  0  0
  8  9  2  0  0  0
  8 28  1  0  0  0
  9 16  1  0  0  0
 10 11  1  0  0  0
 10 14  1  0  0  0
 10 29  1  0  0  0
 11 12  1  0  0  0
 11 30  1  0  0  0
 12 13  1  0  0  0
 12 31  1  0  0  0
 12 32  1  0  0  0
 13 14  2  0  0  0
 13 33  1  0  0  0
 14 34  1  0  0  0
 15 16  1  0  0  0
 15 19  1  0  0  0
 15 35  1  0  0  0
 16 17  1  0  0  0
 16 36  1  0  0  0
 17 18  2  0  0  0
 17 37  1  0  0  0
 18 19  1  0  0  0
 18 38  1  0  0  0
 19 39  1  0  0  0
 19 40  1  0  0  0
 20 21  1  0  0  0
 20 22  2  0  0  0
 21 41  1  0  0  0
M  END
> <s_m_entry_id>
2582

> <s_m_entry_name>
dock_pv.110

> <s_m_Source_Path>
/home/csk/Desktop/cluster/DUD-E-result/fabp4

> <s_m_Source_File>
dock_pv.maegz

> <i_m_Source_File_Index>
110

> <chembl_id>
CHEMBL3828043

> <chembl_pref_name>
None

> <i_lp_mmshare_version>
53161

> <r_lp_tautomer_probability>
1

> <s_lp_Force_Field>
OPLS_2005

> <r_lp_Energy>
68.412143

> <b_lp_Chiralities_Consistent>
1

> <s_lp_Variant>
CHEMBL2083_lig199-21

> <s_i_glide_gridfile>
glide-grid_2nnq

> <i_i_glide_lignum>
362

> <i_i_glide_rotatable_bonds>
2

> <r_i_docking_score>
-7.13246154177735

> <r_i_glide_ligand_efficiency>
-0.310107023555537

> <r_i_glide_ligand_efficiency_sa>
-0.881903123587909

> <r_i_glide_ligand_efficiency_ln>
-1.72469387438736

> <r_i_glide_gscore>
-7.13246154177735

> <r_i_glide_lipo>
-2.5479136742067

> <r_i_glide_hbond>
-0.264373773298136

> <r_i_glide_metal>
0

> <r_i_glide_rewards>
-1.17406077272727

> <r_i_glide_evdw>
-34.1781005859375

> <r_i_glide_ecoul>
-9.16431522369385

> <r_i_glide_erotb>
0

> <r_i_glide_esite>
-0.0625610086942852

> <r_i_glide_emodel>
-61.987163045597

> <r_i_glide_energy>
-43.3424158096313

> <r_i_glide_einternal>
0.261821776628494

> <i_i_glide_confnum>
1

> <i_i_glide_posenum>
65

> <r_i_glide_eff_state_penalty>
0

> <s_user_duplicate_titles>
CHEMBL2083_lig199

> <i_f3d_flags>
0

> <s_m_subgroup_title>
dock_pv

> <s_m_subgroupid>
dock_pv

> <b_m_subgroup_collapsed>
1

$$$$
CHEMBL2083_lig202
                    3D
 Schrodinger Suite 2021-1.
 56 60  0  0  1  0            999 V2000
    3.5916    9.1853   17.0453 C   0  0  1  0  0  0
    2.3951    8.3852   17.2324 N   0  0  0  0  0  0
    3.6965    6.3645   17.7027 C   0  0  0  0  0  0
    2.4400    7.0198   17.5957 C   0  0  0  0  0  0
    1.2255    6.3483   17.8703 C   0  0  0  0  0  0
    1.2943    5.0315   18.3546 C   0  0  0  0  0  0
    2.5201    4.3976   18.5385 C   0  0  0  0  0  0
    3.7028    5.0503   18.1963 C   0  0  0  0  0  0
    4.6574    8.2696   16.4170 C   0  0  2  0  0  0
    4.9978    7.1179   17.3556 C   0  0  2  0  0  0
    6.1527    6.5199   16.5165 C   0  0  1  0  0  0
    7.0148    7.7586   16.1324 C   0  0  1  0  0  0
    5.9750    8.8655   15.9184 C   0  0  0  0  0  0
    8.3201    8.3454   17.2813 S   0  0  0  0  0  0
    7.6273    8.5422   18.9091 C   0  0  0  0  0  0
    7.1146    5.2961   17.3420 Cl  0  0  0  0  0  0
   -0.1320    6.9910   17.6274 C   0  0  0  0  0  0
   -0.3219    7.8896   16.8120 O   0  0  0  0  0  0
   -1.1450    6.5138   18.3928 O   0  0  0  0  0  0
    3.2648   10.5082   16.3271 C   0  0  0  0  0  0
    3.0937   11.6337   17.1381 C   0  0  0  0  0  0
    2.7139   12.8598   16.5981 C   0  0  0  0  0  0
    2.4434   12.9544   15.2387 C   0  0  0  0  0  0
    2.6401   11.8625   14.4046 C   0  0  0  0  0  0
    3.0743   10.6321   14.9300 C   0  0  0  0  0  0
    6.9528    9.7067   19.3441 C   0  0  0  0  0  0
    6.3339    9.6685   20.6029 C   0  0  0  0  0  0
    6.3933    8.5435   21.4096 C   0  0  0  0  0  0
    7.1165    7.4283   21.0014 C   0  0  0  0  0  0
    7.7377    7.4381   19.7587 C   0  0  0  0  0  0
    6.8765   10.9504   18.5471 N   0  3  0  0  0  0
    5.8649   11.6294   18.6578 O   0  0  0  0  0  0
    7.8356   11.2825   17.8512 O   0  5  0  0  0  0
    3.3178    9.5240   13.9887 N   0  3  0  0  0  0
    2.7199    8.4737   14.1425 O   0  0  0  0  0  0
    4.1265    9.7089   13.0865 O   0  5  0  0  0  0
    3.9467    9.4627   18.0416 H   0  0  0  0  0  0
    1.5126    8.8545   17.0941 H   0  0  0  0  0  0
    0.3937    4.4812   18.5801 H   0  0  0  0  0  0
    2.5486    3.3937   18.9307 H   0  0  0  0  0  0
    4.6421    4.5314   18.3324 H   0  0  0  0  0  0
    4.2412    7.7552   15.5642 H   0  0  0  0  0  0
    5.3636    7.4927   18.3093 H   0  0  0  0  0  0
    5.7412    6.0776   15.6036 H   0  0  0  0  0  0
    7.5453    7.5409   15.2032 H   0  0  0  0  0  0
    5.9373    9.1355   14.8622 H   0  0  0  0  0  0
    6.1962    9.7889   16.4368 H   0  0  0  0  0  0
   -1.9518    6.9765   18.1430 H   0  0  0  0  0  0
    3.2430   11.5598   18.2049 H   0  0  0  0  0  0
    2.5914   13.7149   17.2500 H   0  0  0  0  0  0
    2.1211   13.8939   14.8117 H   0  0  0  0  0  0
    2.4619   11.9662   13.3453 H   0  0  0  0  0  0
    5.7932   10.5308   20.9549 H   0  0  0  0  0  0
    5.8947    8.5247   22.3724 H   0  0  0  0  0  0
    7.1777    6.5572   21.6362 H   0  0  0  0  0  0
    8.2697    6.5588   19.4296 H   0  0  0  0  0  0
  1  9  1  0  0  0
  1  2  1  0  0  0
  1 20  1  0  0  0
  1 37  1  0  0  0
  2  4  1  0  0  0
  2 38  1  0  0  0
  3 10  1  0  0  0
  3  4  2  0  0  0
  3  8  1  0  0  0
  4  5  1  0  0  0
  5  6  2  0  0  0
  5 17  1  0  0  0
  6  7  1  0  0  0
  6 39  1  0  0  0
  7  8  2  0  0  0
  7 40  1  0  0  0
  8 41  1  0  0  0
  9 10  1  0  0  0
  9 13  1  0  0  0
  9 42  1  0  0  0
 10 11  1  0  0  0
 10 43  1  0  0  0
 11 12  1  0  0  0
 11 16  1  0  0  0
 11 44  1  0  0  0
 12 13  1  0  0  0
 12 14  1  0  0  0
 12 45  1  0  0  0
 13 46  1  0  0  0
 13 47  1  0  0  0
 14 15  1  0  0  0
 15 26  2  0  0  0
 15 30  1  0  0  0
 17 18  2  0  0  0
 17 19  1  0  0  0
 19 48  1  0  0  0
 20 21  2  0  0  0
 20 25  1  0  0  0
 21 22  1  0  0  0
 21 49  1  0  0  0
 22 23  2  0  0  0
 22 50  1  0  0  0
 23 24  1  0  0  0
 23 51  1  0  0  0
 24 25  2  0  0  0
 24 52  1  0  0  0
 25 34  1  0  0  0
 26 27  1  0  0  0
 26 31  1  0  0  0
 27 28  2  0  0  0
 27 53  1  0  0  0
 28 29  1  0  0  0
 28 54  1  0  0  0
 29 30  2  0  0  0
 29 55  1  0  0  0
 30 56  1  0  0  0
 31 32  2  0  0  0
 31 33  1  0  0  0
 34 35  2  0  0  0
 34 36  1  0  0  0
M  CHG  4  31   1  33  -1  34   1  36  -1
M  END
> <s_m_entry_id>
2583

> <s_m_entry_name>
dock_pv.111

> <s_m_Source_Path>
/home/csk/Desktop/cluster/DUD-E-result/fabp4

> <s_m_Source_File>
dock_pv.maegz

> <i_m_Source_File_Index>
111

> <chembl_id>
CHEMBL3827527

> <chembl_pref_name>
None

> <i_lp_mmshare_version>
53161

> <r_lp_tautomer_probability>
1

> <s_lp_Force_Field>
OPLS_2005

> <r_lp_Energy>
62.332656

> <b_lp_Chiralities_Consistent>
1

> <s_lp_Variant>
CHEMBL2083_lig202-25

> <s_i_glide_gridfile>
glide-grid_2nnq

> <i_i_glide_lignum>
400

> <i_i_glide_rotatable_bonds>
7

> <r_i_docking_score>
-7.1289985101684

> <r_i_glide_ligand_efficiency>
-0.198027736393567

> <r_i_glide_ligand_efficiency_sa>
-0.653873178053785

> <r_i_glide_ligand_efficiency_ln>
-1.55535487163705

> <r_i_glide_gscore>
-7.1289985101684

> <r_i_glide_lipo>
-3.89750786663024

> <r_i_glide_hbond>
-0.00609928945396375

> <r_i_glide_metal>
0

> <r_i_glide_rewards>
-0.924861434216326

> <r_i_glide_evdw>
-51.1529350280762

> <r_i_glide_ecoul>
1.09805190563202

> <r_i_glide_erotb>
0.297662755552557

> <r_i_glide_esite>
-0.205253709861422

> <r_i_glide_emodel>
-56.4741828751888

> <r_i_glide_energy>
-50.0548831224442

> <r_i_glide_einternal>
15.2493696212769

> <i_i_glide_confnum>
62

> <i_i_glide_posenum>
228

> <r_i_glide_eff_state_penalty>
0

> <s_user_duplicate_titles>
CHEMBL2083_lig202

> <i_f3d_flags>
0

> <s_m_subgroup_title>
dock_pv

> <s_m_subgroupid>
dock_pv

> <b_m_subgroup_collapsed>
1

$$$$
CHEMBL2083_lig209
                    3D
 Schrodinger Suite 2021-1.
 48 51  0  0  1  0            999 V2000
    5.0953    8.6582   18.7857 C   0  0  0  0  0  0
    4.6147    9.6879   17.9531 C   0  0  0  0  0  0
    3.3788    9.5002   17.2923 C   0  0  0  0  0  0
    4.3971    7.5199   19.0230 N   0  0  0  0  0  0
    3.1842    7.3287   18.4407 C   0  0  0  0  0  0
    2.6318    8.3022   17.5516 C   0  0  0  0  0  0
    1.3563    8.0418   16.9758 C   0  0  0  0  0  0
    0.6635    6.8721   17.2652 C   0  0  0  0  0  0
    1.2027    5.9280   18.1281 C   0  0  0  0  0  0
    2.4465    6.1348   18.7241 C   0  0  0  0  0  0
    6.3095    8.7515   19.4546 N   0  0  0  0  0  0
    2.8722   10.4962   16.3044 C   0  0  0  0  0  0
    2.8016   10.1644   14.9471 C   0  0  0  0  0  0
    2.3701   11.1075   14.0212 C   0  0  0  0  0  0
    2.0291   12.3846   14.4516 C   0  0  0  0  0  0
    2.1148   12.7288   15.7909 C   0  0  0  0  0  0
    2.5063   11.7781   16.7206 C   0  0  0  0  0  0
    5.4506   10.9283   17.6962 C   0  0  0  0  0  0
    5.0304   12.0352   18.3774 O   0  0  0  0  0  0
    6.4201   10.9188   16.9418 O   0  0  0  0  0  0
   -0.8782    6.5981   16.5412 Cl  0  0  0  0  0  0
    6.5069    9.7515   20.5121 C   0  0  0  0  0  0
    7.9129   10.3576   20.3710 C   0  0  0  0  0  0
    9.0050    9.2785   20.4393 C   0  0  0  0  0  0
    8.6721    8.0890   19.5216 C   0  0  0  0  0  0
    7.2114    7.6120   19.6794 C   0  0  0  0  0  0
    3.0117    5.0839   19.6741 C   0  0  0  0  0  0
    0.9052    8.7607   16.3089 H   0  0  0  0  0  0
    0.6444    5.0266   18.3372 H   0  0  0  0  0  0
    3.0858    9.1779   14.6098 H   0  0  0  0  0  0
    2.3127   10.8541   12.9733 H   0  0  0  0  0  0
    1.6989   13.1265   13.7456 H   0  0  0  0  0  0
    1.8768   13.7252   16.1165 H   0  0  0  0  0  0
    2.5521   12.0511   17.7648 H   0  0  0  0  0  0
    5.5289   12.8297   18.1430 H   0  0  0  0  0  0
    5.7636   10.5462   20.4520 H   0  0  0  0  0  0
    6.3743    9.2788   21.4872 H   0  0  0  0  0  0
    7.9817   10.9201   19.4372 H   0  0  0  0  0  0
    8.0606   11.0957   21.1537 H   0  0  0  0  0  0
    9.1143    8.9205   21.4649 H   0  0  0  0  0  0
    9.9596    9.7085   20.1445 H   0  0  0  0  0  0
    9.3486    7.2619   19.7411 H   0  0  0  0  0  0
    8.8629    8.3371   18.4763 H   0  0  0  0  0  0
    7.0285    7.1657   20.6575 H   0  0  0  0  0  0
    7.0174    6.8443   18.9303 H   0  0  0  0  0  0
    2.3155    4.2595   19.8384 H   0  0  0  0  0  0
    3.9355    4.6677   19.2695 H   0  0  0  0  0  0
    3.2343    5.5289   20.6458 H   0  0  0  0  0  0
  1  2  2  0  0  0
  1  4  1  0  0  0
  1 11  1  0  0  0
  2  3  1  0  0  0
  2 18  1  0  0  0
  3  6  2  0  0  0
  3 12  1  0  0  0
  4  5  2  0  0  0
  5  6  1  0  0  0
  5 10  1  0  0  0
  6  7  1  0  0  0
  7  8  2  0  0  0
  7 28  1  0  0  0
  8  9  1  0  0  0
  8 21  1  0  0  0
  9 10  2  0  0  0
  9 29  1  0  0  0
 10 27  1  0  0  0
 11 22  1  0  0  0
 11 26  1  0  0  0
 12 13  2  0  0  0
 12 17  1  0  0  0
 13 14  1  0  0  0
 13 30  1  0  0  0
 14 15  2  0  0  0
 14 31  1  0  0  0
 15 16  1  0  0  0
 15 32  1  0  0  0
 16 17  2  0  0  0
 16 33  1  0  0  0
 17 34  1  0  0  0
 18 19  1  0  0  0
 18 20  2  0  0  0
 19 35  1  0  0  0
 22 23  1  0  0  0
 22 36  1  0  0  0
 22 37  1  0  0  0
 23 24  1  0  0  0
 23 38  1  0  0  0
 23 39  1  0  0  0
 24 25  1  0  0  0
 24 40  1  0  0  0
 24 41  1  0  0  0
 25 26  1  0  0  0
 25 42  1  0  0  0
 25 43  1  0  0  0
 26 44  1  0  0  0
 26 45  1  0  0  0
 27 46  1  0  0  0
 27 47  1  0  0  0
 27 48  1  0  0  0
M  END
> <s_m_entry_id>
2584

> <s_m_entry_name>
dock_pv.112

> <s_m_Source_Path>
/home/csk/Desktop/cluster/DUD-E-result/fabp4

> <s_m_Source_File>
dock_pv.maegz

> <i_m_Source_File_Index>
112

> <chembl_id>
CHEMBL3950316

> <chembl_pref_name>
None

> <i_lp_mmshare_version>
53161

> <r_lp_tautomer_probability>
1

> <s_lp_Force_Field>
OPLS_2005

> <r_lp_Energy>
40.140542

> <b_lp_Chiralities_Consistent>
1

> <s_lp_Variant>
CHEMBL2083_lig209-1

> <s_i_glide_gridfile>
glide-grid_2nnq

> <i_i_glide_lignum>
414

> <i_i_glide_rotatable_bonds>
4

> <r_i_docking_score>
-7.12871318789463

> <r_i_glide_ligand_efficiency>
-0.264026414366468

> <r_i_glide_ligand_efficiency_sa>
-0.792079242229215

> <r_i_glide_ligand_efficiency_ln>
-1.65944690411981

> <r_i_glide_gscore>
-7.12871318789463

> <r_i_glide_lipo>
-3.89778979862264

> <r_i_glide_hbond>
0

> <r_i_glide_metal>
0

> <r_i_glide_rewards>
-0.993704331170932

> <r_i_glide_evdw>
-39.8335304260254

> <r_i_glide_ecoul>
-4.11552810668945

> <r_i_glide_erotb>
0.401318276136123

> <r_i_glide_esite>
-0.0295315969324885

> <r_i_glide_emodel>
-64.3482571459681

> <r_i_glide_energy>
-43.9490585327148

> <r_i_glide_einternal>
1.37416541576385

> <i_i_glide_confnum>
111

> <i_i_glide_posenum>
231

> <r_i_glide_eff_state_penalty>
0

> <s_user_duplicate_titles>
CHEMBL2083_lig209

> <i_f3d_flags>
0

> <s_m_subgroup_title>
dock_pv

> <s_m_subgroupid>
dock_pv

> <b_m_subgroup_collapsed>
1

$$$$
CHEMBL2083_lig167
                    3D
 Schrodinger Suite 2021-1.
 62 66  0  0  1  0            999 V2000
    2.9693   10.8922   16.5790 C   0  0  0  0  0  0
    2.4972   12.1879   16.7896 C   0  0  0  0  0  0
    1.9209   12.8940   15.7404 C   0  0  0  0  0  0
    1.8171   12.2999   14.4899 C   0  0  0  0  0  0
    2.2693   10.9981   14.2776 C   0  0  0  0  0  0
    2.7924   10.2555   15.3374 C   0  0  0  0  0  0
    3.1492    8.8211   15.1898 C   0  0  0  0  0  0
    4.0643    6.1826   15.3450 C   0  0  0  0  0  0
    4.6230    7.0688   14.4200 C   0  0  0  0  0  0
    4.1703    8.3867   14.3432 C   0  0  0  0  0  0
    3.0002    6.5915   16.1601 C   0  0  0  0  0  0
    2.5282    7.8916   16.0302 C   0  0  0  0  0  0
    2.0825    3.8978   18.5463 C   0  0  0  0  0  0
    3.0753    4.7365   17.7218 C   0  0  0  0  0  0
    2.3747    5.8205   17.1169 O   0  0  0  0  0  0
    2.7205    2.9108   19.2338 O   0  0  0  0  0  0
    0.8667    4.0731   18.5637 O   0  0  0  0  0  0
    3.8201   10.2605   17.6192 C   0  0  0  0  0  0
    3.3923    9.4401   18.5419 N   0  0  0  0  0  0
    4.4551    8.9918   19.1835 C   0  0  0  0  0  0
    5.5935    9.5342   18.6261 C   0  0  0  0  0  0
    5.1885   10.3270   17.5858 N   0  0  0  0  0  0
    4.4071    7.9819   20.2914 C   0  0  0  0  0  0
    3.5195    6.9074   20.2334 C   0  0  0  0  0  0
    3.4641    5.9760   21.2658 C   0  0  0  0  0  0
    4.3148    6.1090   22.3580 C   0  0  0  0  0  0
    5.2199    7.1636   22.4229 C   0  0  0  0  0  0
    5.2612    8.0999   21.3928 C   0  0  0  0  0  0
    6.9752    9.2235   18.9475 C   0  0  0  0  0  0
    7.7649   10.1342   19.6426 C   0  0  0  0  0  0
    9.0498    9.7547   19.9930 C   0  0  0  0  0  0
    9.5197    8.5089   19.5908 C   0  0  0  0  0  0
    8.7088    7.5940   18.9411 C   0  0  0  0  0  0
    7.4204    7.9509   18.6097 C   0  0  0  0  0  0
    6.0222   10.9293   16.5546 C   0  0  0  0  0  0
    5.8900   12.4508   16.5124 C   0  0  0  0  0  0
    6.3201   12.9078   15.3388 F   0  0  0  0  0  0
    2.6374   12.6726   17.7456 H   0  0  0  0  0  0
    1.5658   13.9045   15.8822 H   0  0  0  0  0  0
    1.3593   12.8566   13.6935 H   0  0  0  0  0  0
    2.1591   10.5537   13.3001 H   0  0  0  0  0  0
    4.4619    5.1822   15.3868 H   0  0  0  0  0  0
    5.4260    6.7374   13.7784 H   0  0  0  0  0  0
    4.6505    9.0802   13.6684 H   0  0  0  0  0  0
    1.7255    8.2113   16.6790 H   0  0  0  0  0  0
    3.8801    5.1021   18.3562 H   0  0  0  0  0  0
    3.5236    4.1097   16.9633 H   0  0  0  0  0  0
    2.1119    2.3346   19.7189 H   0  0  0  0  0  0
    2.8321    6.8306   19.4054 H   0  0  0  0  0  0
    2.7541    5.1639   21.2244 H   0  0  0  0  0  0
    4.2664    5.3909   23.1628 H   0  0  0  0  0  0
    5.8714    7.2690   23.2779 H   0  0  0  0  0  0
    5.9486    8.9282   21.4675 H   0  0  0  0  0  0
    7.3831   11.1092   19.9143 H   0  0  0  0  0  0
    9.6865   10.4283   20.5425 H   0  0  0  0  0  0
   10.5502    8.2337   19.7418 H   0  0  0  0  0  0
    9.0956    6.6238   18.6730 H   0  0  0  0  0  0
    6.7749    7.2520   18.0962 H   0  0  0  0  0  0
    7.0616   10.6481   16.7166 H   0  0  0  0  0  0
    5.7180   10.4946   15.6034 H   0  0  0  0  0  0
    4.8740   12.8181   16.5797 H   0  0  0  0  0  0
    6.4254   12.9084   17.3425 H   0  0  0  0  0  0
  1 18  1  0  0  0
  1  6  1  0  0  0
  1  2  2  0  0  0
  2  3  1  0  0  0
  2 38  1  0  0  0
  3  4  2  0  0  0
  3 39  1  0  0  0
  4  5  1  0  0  0
  4 40  1  0  0  0
  5  6  2  0  0  0
  5 41  1  0  0  0
  6  7  1  0  0  0
  7 10  1  0  0  0
  7 12  2  0  0  0
  8  9  1  0  0  0
  8 11  2  0  0  0
  8 42  1  0  0  0
  9 10  2  0  0  0
  9 43  1  0  0  0
 10 44  1  0  0  0
 11 12  1  0  0  0
 11 15  1  0  0  0
 12 45  1  0  0  0
 13 14  1  0  0  0
 13 16  1  0  0  0
 13 17  2  0  0  0
 14 15  1  0  0  0
 14 46  1  0  0  0
 14 47  1  0  0  0
 16 48  1  0  0  0
 18 19  2  0  0  0
 18 22  1  0  0  0
 19 20  1  0  0  0
 20 21  2  0  0  0
 20 23  1  0  0  0
 21 22  1  0  0  0
 21 29  1  0  0  0
 22 35  1  0  0  0
 23 24  2  0  0  0
 23 28  1  0  0  0
 24 25  1  0  0  0
 24 49  1  0  0  0
 25 26  2  0  0  0
 25 50  1  0  0  0
 26 27  1  0  0  0
 26 51  1  0  0  0
 27 28  2  0  0  0
 27 52  1  0  0  0
 28 53  1  0  0  0
 29 30  2  0  0  0
 29 34  1  0  0  0
 30 31  1  0  0  0
 30 54  1  0  0  0
 31 32  2  0  0  0
 31 55  1  0  0  0
 32 33  1  0  0  0
 32 56  1  0  0  0
 33 34  2  0  0  0
 33 57  1  0  0  0
 34 58  1  0  0  0
 35 36  1  0  0  0
 35 59  1  0  0  0
 35 60  1  0  0  0
 36 37  1  0  0  0
 36 61  1  0  0  0
 36 62  1  0  0  0
M  END
> <s_m_entry_id>
2585

> <s_m_entry_name>
dock_pv.113

> <s_m_Source_Path>
/home/csk/Desktop/cluster/DUD-E-result/fabp4

> <s_m_Source_File>
dock_pv.maegz

> <i_m_Source_File_Index>
113

> <chembl_id>
CHEMBL397385

> <chembl_pref_name>
None

> <i_lp_mmshare_version>
53161

> <r_lp_tautomer_probability>
1

> <s_lp_Force_Field>
OPLS_2005

> <r_lp_Energy>
36.04701

> <b_lp_Chiralities_Consistent>
1

> <s_lp_Variant>
CHEMBL2083_lig167-1

> <s_i_glide_gridfile>
glide-grid_2nnq

> <i_i_glide_lignum>
183

> <i_i_glide_rotatable_bonds>
10

> <r_i_docking_score>
-7.12718926092444

> <r_i_glide_ligand_efficiency>
-0.192626736781742

> <r_i_glide_ligand_efficiency_sa>
-0.641875020742787

> <r_i_glide_ligand_efficiency_ln>
-1.54572026567205

> <r_i_glide_gscore>
-7.12718926092444

> <r_i_glide_lipo>
-4.41274122756719

> <r_i_glide_hbond>
0

> <r_i_glide_metal>
0

> <r_i_glide_rewards>
-0.447059307079536

> <r_i_glide_evdw>
-37.4452514648438

> <r_i_glide_ecoul>
-6.81494283676147

> <r_i_glide_erotb>
0.671578160179713

> <r_i_glide_esite>
-0.0444628877010157

> <r_i_glide_emodel>
-42.986897886402

> <r_i_glide_energy>
-44.2601943016052

> <r_i_glide_einternal>
16.8443565368652

> <i_i_glide_confnum>
30

> <i_i_glide_posenum>
375

> <r_i_glide_eff_state_penalty>
0

> <s_user_duplicate_titles>
CHEMBL2083_lig167,412723

> <i_f3d_flags>
0

> <s_m_subgroup_title>
dock_pv

> <s_m_subgroupid>
dock_pv

> <b_m_subgroup_collapsed>
1

$$$$
CHEMBL2083_lig198
                    3D
 Schrodinger Suite 2021-1.
 44 48  0  0  1  0            999 V2000
    5.3411    8.7058   17.0297 C   0  0  0  0  0  0
    5.0776    8.2195   18.4020 N   0  0  0  0  0  0
    6.0182    8.7596   19.4095 C   0  0  2  0  0  0
    4.2178    7.1196   18.6719 C   0  0  0  0  0  0
    3.5880    6.4424   17.6024 C   0  0  0  0  0  0
    2.6789    5.4231   17.8907 C   0  0  0  0  0  0
    2.4147    5.0346   19.2006 C   0  0  0  0  0  0
    3.0606    5.6828   20.2503 C   0  0  0  0  0  0
    3.9670    6.7196   20.0094 C   0  0  0  0  0  0
    4.0119    6.7877   16.1807 C   0  0  2  0  0  0
    4.2206    8.2854   16.0712 C   0  0  2  0  0  0
    4.3256    8.5434   14.5720 C   0  0  0  0  0  0
    3.3699    7.4805   14.0501 C   0  0  0  0  0  0
    3.1198    6.5436   14.9875 C   0  0  0  0  0  0
    6.0745    7.8143   20.6354 C   0  0  2  0  0  0
    4.6892    7.4427   21.1410 C   0  0  2  0  0  0
    5.0543    6.7320   22.4310 C   0  0  0  0  0  0
    6.2402    7.1948   22.8788 C   0  0  0  0  0  0
    6.8569    8.1676   21.8849 C   0  0  0  0  0  0
    5.5813   10.1989   19.7941 C   0  0  0  0  0  0
    6.6492   11.0466   19.8338 O   0  0  0  0  0  0
    4.4232   10.5348   20.0426 O   0  0  0  0  0  0
    1.4302    3.9115   19.4716 C   0  0  0  0  0  0
    5.6047    9.7639   17.0076 H   0  0  0  0  0  0
    6.2491    8.2176   16.6720 H   0  0  0  0  0  0
    7.0157    8.8503   18.9765 H   0  0  0  0  0  0
    2.1811    4.9094   17.0872 H   0  0  0  0  0  0
    2.8537    5.3797   21.2667 H   0  0  0  0  0  0
    4.9492    6.2494   16.0183 H   0  0  0  0  0  0
    3.3085    8.7676   16.4412 H   0  0  0  0  0  0
    5.3406    8.4248   14.1891 H   0  0  0  0  0  0
    3.9910    9.5537   14.3294 H   0  0  0  0  0  0
    2.9304    7.5234   13.0638 H   0  0  0  0  0  0
    2.4781    5.6842   14.8859 H   0  0  0  0  0  0
    6.5582    6.9104   20.2487 H   0  0  0  0  0  0
    4.0915    8.3205   21.3927 H   0  0  0  0  0  0
    4.3926    6.0505   22.9473 H   0  0  0  0  0  0
    6.7242    6.9147   23.8037 H   0  0  0  0  0  0
    7.9203    8.0040   21.7330 H   0  0  0  0  0  0
    6.7170    9.2131   22.1421 H   0  0  0  0  0  0
    6.3760   11.9582   19.9657 H   0  0  0  0  0  0
    1.1192    3.8884   20.5161 H   0  0  0  0  0  0
    0.5277    4.0472   18.8708 H   0  0  0  0  0  0
    1.8657    2.9476   19.2067 H   0  0  0  0  0  0
  1 11  1  0  0  0
  1  2  1  0  0  0
  1 24  1  0  0  0
  1 25  1  0  0  0
  2  4  1  0  0  0
  2  3  1  0  0  0
  3 15  1  0  0  0
  3 20  1  0  0  0
  3 26  1  0  0  0
  4  5  2  0  0  0
  4  9  1  0  0  0
  5 10  1  0  0  0
  5  6  1  0  0  0
  6  7  2  0  0  0
  6 27  1  0  0  0
  7  8  1  0  0  0
  7 23  1  0  0  0
  8  9  2  0  0  0
  8 28  1  0  0  0
  9 16  1  0  0  0
 10 11  1  0  0  0
 10 14  1  0  0  0
 10 29  1  0  0  0
 11 12  1  0  0  0
 11 30  1  0  0  0
 12 13  1  0  0  0
 12 31  1  0  0  0
 12 32  1  0  0  0
 13 14  2  0  0  0
 13 33  1  0  0  0
 14 34  1  0  0  0
 15 16  1  0  0  0
 15 19  1  0  0  0
 15 35  1  0  0  0
 16 17  1  0  0  0
 16 36  1  0  0  0
 17 18  2  0  0  0
 17 37  1  0  0  0
 18 19  1  0  0  0
 18 38  1  0  0  0
 19 39  1  0  0  0
 19 40  1  0  0  0
 20 21  1  0  0  0
 20 22  2  0  0  0
 21 41  1  0  0  0
 23 42  1  0  0  0
 23 43  1  0  0  0
 23 44  1  0  0  0
M  END
> <s_m_entry_id>
2586

> <s_m_entry_name>
dock_pv.114

> <s_m_Source_Path>
/home/csk/Desktop/cluster/DUD-E-result/fabp4

> <s_m_Source_File>
dock_pv.maegz

> <i_m_Source_File_Index>
114

> <chembl_id>
CHEMBL3827483

> <chembl_pref_name>
None

> <i_lp_mmshare_version>
53161

> <r_lp_tautomer_probability>
1

> <s_lp_Force_Field>
OPLS_2005

> <r_lp_Energy>
79.417013

> <b_lp_Chiralities_Consistent>
1

> <s_lp_Variant>
CHEMBL2083_lig198-1

> <s_i_glide_gridfile>
glide-grid_2nnq

> <i_i_glide_lignum>
310

> <i_i_glide_rotatable_bonds>
2

> <r_i_docking_score>
-7.12411834269688

> <r_i_glide_ligand_efficiency>
-0.309744275769429

> <r_i_glide_ligand_efficiency_sa>
-0.880871517138062

> <r_i_glide_ligand_efficiency_ln>
-1.72267641319775

> <r_i_glide_gscore>
-7.12411834269688

> <r_i_glide_lipo>
-3.14312543682249

> <r_i_glide_hbond>
-0.32

> <r_i_glide_metal>
0

> <r_i_glide_rewards>
-1.77146864554395

> <r_i_glide_evdw>
-30.5929412841797

> <r_i_glide_ecoul>
-3.70350098609924

> <r_i_glide_erotb>
0.195647951793434

> <r_i_glide_esite>
0

> <r_i_glide_emodel>
-48.5591287252872

> <r_i_glide_energy>
-34.2964422702789

> <r_i_glide_einternal>
1.08093822002411

> <i_i_glide_confnum>
1

> <i_i_glide_posenum>
130

> <r_i_glide_eff_state_penalty>
0

> <s_user_duplicate_titles>
CHEMBL2083_lig198

> <i_f3d_flags>
0

> <s_m_subgroup_title>
dock_pv

> <s_m_subgroupid>
dock_pv

> <b_m_subgroup_collapsed>
1

$$$$
CHEMBL2083_lig189
                    3D
 Schrodinger Suite 2021-1.
 56 60  0  0  1  0            999 V2000
    4.6860   10.6714   15.8635 C   0  0  0  0  0  0
    4.7999   11.7219   14.9449 C   0  0  0  0  0  0
    3.6974   12.1457   14.2083 C   0  0  0  0  0  0
    2.4488   11.5757   14.4228 C   0  0  0  0  0  0
    2.3195   10.5452   15.3477 C   0  0  0  0  0  0
    3.4266   10.0629   16.0503 C   0  0  0  0  0  0
    5.9065   10.1894   16.5583 C   0  0  0  0  0  0
    6.5852   10.9998   17.4756 C   0  0  0  0  0  0
    7.7331   10.5318   18.1149 C   0  0  0  0  0  0
    8.2244    9.2596   17.8199 C   0  0  0  0  0  0
    7.5759    8.4473   16.8909 C   0  0  0  0  0  0
    6.4024    8.9094   16.2851 C   0  0  0  0  0  0
    8.1625    7.2469   16.5444 O   0  0  0  0  0  0
    7.4106    6.0222   16.6061 C   0  0  2  0  0  0
    6.7344    5.7085   15.2571 C   0  0  0  0  0  0
    5.9203    4.6184   15.3420 O   0  0  0  0  0  0
    6.8964    6.3606   14.2284 O   0  0  0  0  0  0
    3.1950    8.8928   16.9493 C   0  0  0  0  0  0
    3.7604    8.7998   18.1283 N   0  0  0  0  0  0
    3.4170    7.6037   18.6349 N   0  0  0  0  0  0
    2.5447    6.9301   17.7888 C   0  0  0  0  0  0
    2.4039    7.7703   16.6980 C   0  0  0  0  0  0
    3.9200    7.2512   19.9167 C   0  0  0  0  0  0
    5.1668    7.7198   20.3587 C   0  0  0  0  0  0
    5.5765    7.4680   21.6634 C   0  0  0  0  0  0
    4.7383    6.7524   22.5129 C   0  0  0  0  0  0
    3.5202    6.2541   22.0834 C   0  0  0  0  0  0
    3.1135    6.5090   20.7881 C   0  0  0  0  0  0
    1.8927    5.6499   18.0028 C   0  0  0  0  0  0
    2.7544    4.2371   18.5421 S   0  0  0  0  0  0
    1.3003    3.3091   18.5633 C   0  0  0  0  0  0
    0.2087    4.0469   18.1420 C   0  0  0  0  0  0
    0.5457    5.3618   17.8083 C   0  0  0  0  0  0
    5.1711    6.5090   24.1420 Cl  0  0  0  0  0  0
    6.4199    5.9666   17.7803 C   0  0  0  0  0  0
    5.7579   12.1890   14.7681 H   0  0  0  0  0  0
    3.8108   12.9090   13.4579 H   0  0  0  0  0  0
    1.5912   11.9228   13.8636 H   0  0  0  0  0  0
    1.3488   10.1086   15.5166 H   0  0  0  0  0  0
    6.2186   11.9928   17.7023 H   0  0  0  0  0  0
    8.2467   11.1641   18.8254 H   0  0  0  0  0  0
    9.1198    8.8997   18.3041 H   0  0  0  0  0  0
    5.8843    8.2989   15.5631 H   0  0  0  0  0  0
    8.1479    5.2370   16.7746 H   0  0  0  0  0  0
    5.4969    4.5083   14.4718 H   0  0  0  0  0  0
    1.8136    7.5840   15.8119 H   0  0  0  0  0  0
    5.8038    8.3055   19.7102 H   0  0  0  0  0  0
    6.5201    7.8503   22.0229 H   0  0  0  0  0  0
    2.8781    5.7099   22.7611 H   0  0  0  0  0  0
    2.1259    6.1812   20.5037 H   0  0  0  0  0  0
    1.3278    2.2797   18.8830 H   0  0  0  0  0  0
   -0.7958    3.6524   18.0790 H   0  0  0  0  0  0
   -0.1747    6.0878   17.4605 H   0  0  0  0  0  0
    6.0045    4.9682   17.9220 H   0  0  0  0  0  0
    6.9175    6.2436   18.7088 H   0  0  0  0  0  0
    5.5874    6.6451   17.6238 H   0  0  0  0  0  0
  1  7  1  0  0  0
  1  6  1  0  0  0
  1  2  2  0  0  0
  2  3  1  0  0  0
  2 36  1  0  0  0
  3  4  2  0  0  0
  3 37  1  0  0  0
  4  5  1  0  0  0
  4 38  1  0  0  0
  5  6  2  0  0  0
  5 39  1  0  0  0
  6 18  1  0  0  0
  7 12  1  0  0  0
  7  8  2  0  0  0
  8  9  1  0  0  0
  8 40  1  0  0  0
  9 10  2  0  0  0
  9 41  1  0  0  0
 10 11  1  0  0  0
 10 42  1  0  0  0
 11 12  2  0  0  0
 11 13  1  0  0  0
 12 43  1  0  0  0
 13 14  1  0  0  0
 14 15  1  0  0  0
 14 35  1  0  0  0
 14 44  1  0  0  0
 15 17  2  0  0  0
 15 16  1  0  0  0
 16 45  1  0  0  0
 18 19  2  0  0  0
 18 22  1  0  0  0
 19 20  1  0  0  0
 20 21  1  0  0  0
 20 23  1  0  0  0
 21 22  2  0  0  0
 21 29  1  0  0  0
 22 46  1  0  0  0
 23 24  2  0  0  0
 23 28  1  0  0  0
 24 25  1  0  0  0
 24 47  1  0  0  0
 25 26  2  0  0  0
 25 48  1  0  0  0
 26 27  1  0  0  0
 26 34  1  0  0  0
 27 28  2  0  0  0
 27 49  1  0  0  0
 28 50  1  0  0  0
 29 30  1  0  0  0
 29 33  2  0  0  0
 30 31  1  0  0  0
 31 32  2  0  0  0
 31 51  1  0  0  0
 32 33  1  0  0  0
 32 52  1  0  0  0
 33 53  1  0  0  0
 35 54  1  0  0  0
 35 55  1  0  0  0
 35 56  1  0  0  0
M  END
> <s_m_entry_id>
2587

> <s_m_entry_name>
dock_pv.115

> <s_m_Source_Path>
/home/csk/Desktop/cluster/DUD-E-result/fabp4

> <s_m_Source_File>
dock_pv.maegz

> <i_m_Source_File_Index>
115

> <chembl_id>
CHEMBL1782967

> <chembl_pref_name>
None

> <i_lp_mmshare_version>
53161

> <r_lp_tautomer_probability>
1

> <s_lp_Force_Field>
OPLS_2005

> <r_lp_Energy>
34.266701

> <b_lp_Chiralities_Consistent>
1

> <s_lp_Variant>
CHEMBL2083_lig189-1

> <s_i_glide_gridfile>
glide-grid_2nnq

> <i_i_glide_lignum>
206

> <i_i_glide_rotatable_bonds>
8

> <r_i_docking_score>
-7.12255006415755

> <r_i_glide_ligand_efficiency>
-0.203501430404502

> <r_i_glide_ligand_efficiency_sa>
-0.665666672282461

> <r_i_glide_ligand_efficiency_ln>
-1.56355781556432

> <r_i_glide_gscore>
-7.12255006415755

> <r_i_glide_lipo>
-4.29598592122001

> <r_i_glide_hbond>
0

> <r_i_glide_metal>
0

> <r_i_glide_rewards>
0.352414819482209

> <r_i_glide_evdw>
-47.0885314941406

> <r_i_glide_ecoul>
-9.29423809051514

> <r_i_glide_erotb>
0.56958332586455

> <r_i_glide_esite>
0

> <r_i_glide_emodel>
-73.0368263513624

> <r_i_glide_energy>
-56.3827695846558

> <r_i_glide_einternal>
11.3264408111572

> <i_i_glide_confnum>
104

> <i_i_glide_posenum>
41

> <r_i_glide_eff_state_penalty>
0

> <s_user_duplicate_titles>
CHEMBL2083_lig189

> <i_f3d_flags>
0

> <s_m_subgroup_title>
dock_pv

> <s_m_subgroupid>
dock_pv

> <b_m_subgroup_collapsed>
1

$$$$
CHEMBL2083_lig153 
                    3D
 Schrodinger Suite 2021-1.
 49 52  0  0  1  0            999 V2000
    7.4714    5.8679   16.0474 O   0  0  0  0  0  0
    6.9290    7.1986   16.3410 S   0  0  0  0  0  0
    7.8004    8.3750   16.4189 O   0  0  0  0  0  0
    4.7084    6.4101   17.7024 C   0  0  0  0  0  0
    3.8403    6.2309   18.7705 C   0  0  0  0  0  0
    4.1870    6.6895   20.0432 C   0  0  0  0  0  0
    5.9431    7.0365   17.8457 C   0  0  0  0  0  0
    6.3437    7.5033   19.1384 C   0  0  0  0  0  0
    5.4383    7.3380   20.2424 C   0  0  0  0  0  0
    5.8269    7.7877   21.5311 C   0  0  0  0  0  0
    7.0867    8.3193   21.7419 C   0  0  0  0  0  0
    7.9547    8.5090   20.6805 C   0  0  0  0  0  0
    7.6085    8.1005   19.4008 C   0  0  0  0  0  0
    5.7585    7.5382   15.0536 N   0  0  0  0  0  0
    4.9994    8.7165   14.9717 C   0  0  0  0  0  0
    5.0323    9.7269   15.9457 C   0  0  0  0  0  0
    4.2303   10.8700   15.8203 C   0  0  0  0  0  0
    3.3931   11.0062   14.7062 C   0  0  0  0  0  0
    3.3600   10.0032   13.7420 C   0  0  0  0  0  0
    4.1514    8.8652   13.8748 C   0  0  0  0  0  0
    2.6142   12.1022   14.5396 F   0  0  0  0  0  0
    4.3116   11.9630   16.8415 C   0  0  0  0  0  0
    5.5524   12.5090   16.9420 O   0  0  0  0  0  0
    3.3360   12.3424   17.4851 O   0  0  0  0  0  0
    3.3080    6.5090   21.0910 O   0  0  0  0  0  0
    2.5742    5.5123   18.5422 C   0  0  0  0  0  0
    2.4485    4.1797   18.9422 C   0  0  0  0  0  0
    1.2377    3.5298   18.7352 C   0  0  0  0  0  0
    0.1740    4.1216   18.1420 N   0  0  0  0  0  0
    0.3137    5.4117   17.7420 C   0  0  0  0  0  0
    1.4897    6.1393   17.9210 C   0  0  0  0  0  0
    3.6197    5.4465   21.9837 C   0  0  0  0  0  0
    4.4092    6.0385   16.7327 H   0  0  0  0  0  0
    5.1558    7.6844   22.3719 H   0  0  0  0  0  0
    7.3915    8.5597   22.7472 H   0  0  0  0  0  0
    8.9376    8.9227   20.8579 H   0  0  0  0  0  0
    8.3511    8.2112   18.6305 H   0  0  0  0  0  0
    5.4719    6.7510   14.4911 H   0  0  0  0  0  0
    5.6755    9.6361   16.8091 H   0  0  0  0  0  0
    2.7200   10.1090   12.8800 H   0  0  0  0  0  0
    4.1034    8.0990   13.1148 H   0  0  0  0  0  0
    5.5207   13.3482   17.4472 H   0  0  0  0  0  0
    3.2720    3.6574   19.4052 H   0  0  0  0  0  0
    1.1200    2.5090   19.0498 H   0  0  0  0  0  0
   -0.5471    5.8631   17.2717 H   0  0  0  0  0  0
    1.5544    7.1673   17.5942 H   0  0  0  0  0  0
    2.9190    5.4570   22.8187 H   0  0  0  0  0  0
    3.5201    4.4907   21.4810 H   0  0  0  0  0  0
    4.6272    5.5017   22.3960 H   0  0  0  0  0  0
  1  2  2  0  0  0
  2  3  2  0  0  0
  2  7  1  0  0  0
  2 14  1  0  0  0
  4  5  2  0  0  0
  4  7  1  0  0  0
  4 33  1  0  0  0
  5  6  1  0  0  0
  5 26  1  0  0  0
  6  9  2  0  0  0
  6 25  1  0  0  0
  7  8  2  0  0  0
  8  9  1  0  0  0
  8 13  1  0  0  0
  9 10  1  0  0  0
 10 11  2  0  0  0
 10 34  1  0  0  0
 11 12  1  0  0  0
 11 35  1  0  0  0
 12 13  2  0  0  0
 12 36  1  0  0  0
 13 37  1  0  0  0
 14 15  1  0  0  0
 14 38  1  0  0  0
 15 16  2  0  0  0
 15 20  1  0  0  0
 16 17  1  0  0  0
 16 39  1  0  0  0
 17 18  2  0  0  0
 17 22  1  0  0  0
 18 19  1  0  0  0
 18 21  1  0  0  0
 19 20  2  0  0  0
 19 40  1  0  0  0
 20 41  1  0  0  0
 22 23  1  0  0  0
 22 24  2  0  0  0
 23 42  1  0  0  0
 25 32  1  0  0  0
 26 27  2  0  0  0
 26 31  1  0  0  0
 27 28  1  0  0  0
 27 43  1  0  0  0
 28 29  2  0  0  0
 28 44  1  0  0  0
 29 30  1  0  0  0
 30 31  2  0  0  0
 30 45  1  0  0  0
 31 46  1  0  0  0
 32 47  1  0  0  0
 32 48  1  0  0  0
 32 49  1  0  0  0
M  END
> <s_m_entry_id>
2588

> <s_m_entry_name>
dock_pv.116

> <s_m_Source_Path>
/home/csk/Desktop/cluster/DUD-E-result/fabp4

> <s_m_Source_File>
dock_pv.maegz

> <i_m_Source_File_Index>
116

> <chembl_id>
CHEMBL4564554

> <chembl_pref_name>
None

> <i_lp_mmshare_version>
53161

> <r_lp_tautomer_probability>
1

> <s_lp_Force_Field>
OPLS_2005

> <r_lp_Energy>
29.966425

> <b_lp_Chiralities_Consistent>
1

> <s_lp_Variant>
CHEMBL2083_lig153 -1

> <s_i_glide_gridfile>
glide-grid_2nnq

> <i_i_glide_lignum>
167

> <i_i_glide_rotatable_bonds>
7

> <r_i_docking_score>
-7.12176548978377

> <r_i_glide_ligand_efficiency>
-0.222555171555743

> <r_i_glide_ligand_efficiency_sa>
-0.706568626080839

> <r_i_glide_ligand_efficiency_ln>
-1.59475742515783

> <r_i_glide_gscore>
-7.12176548978377

> <r_i_glide_lipo>
-3.51427435488828

> <r_i_glide_hbond>
0

> <r_i_glide_metal>
0

> <r_i_glide_rewards>
-0.489913196847775

> <r_i_glide_evdw>
-45.5988616943359

> <r_i_glide_ecoul>
-8.48051643371582

> <r_i_glide_erotb>
0.49007465922561

> <r_i_glide_esite>
-0.0556320474991543

> <r_i_glide_emodel>
-70.2999291377942

> <r_i_glide_energy>
-54.0793781280518

> <r_i_glide_einternal>
11.9198427200317

> <i_i_glide_confnum>
85

> <i_i_glide_posenum>
217

> <r_i_glide_eff_state_penalty>
0

> <s_user_duplicate_titles>
CHEMBL2083_lig153 

> <i_f3d_flags>
0

> <s_m_subgroup_title>
dock_pv

> <s_m_subgroupid>
dock_pv

> <b_m_subgroup_collapsed>
1

$$$$
CHEMBL2083_lig56
                    3D
 Schrodinger Suite 2021-1.
 39 41  0  0  1  0            999 V2000
    7.1148    9.8171   18.4364 C   0  0  0  0  0  0
    6.8191   10.8245   19.5347 C   0  0  0  0  0  0
    6.0279   12.0580   19.0425 C   0  0  0  0  0  0
    6.5390    8.6161   18.2343 C   0  0  0  0  0  0
    5.5006    7.9291   18.9808 C   0  0  0  0  0  0
    4.4763    7.3640   18.3643 N   0  0  0  0  0  0
    3.7323    6.7409   19.2992 N   0  0  0  0  0  0
    4.5164   11.8400   18.9073 C   0  0  0  0  0  0
    3.9200   12.9089   18.3084 O   0  0  0  0  0  0
    3.9198   10.8577   19.3419 O   0  0  0  0  0  0
    5.4063    7.6819   20.3619 C   0  0  0  0  0  0
    4.2914    6.9091   20.5387 C   0  0  0  0  0  0
    4.0702    6.4804   21.9638 C   0  0  0  0  0  0
    5.4424    6.8337   22.5713 C   0  0  0  0  0  0
    6.0725    7.9317   21.6915 C   0  0  0  0  0  0
    2.6066    5.9760   18.9256 C   0  0  0  0  0  0
    2.4436    4.6802   19.4297 C   0  0  0  0  0  0
    1.3537    3.9121   19.0261 C   0  0  0  0  0  0
    0.4182    4.4468   18.1420 C   0  0  0  0  0  0
    0.5683    5.7413   17.6488 C   0  0  0  0  0  0
    1.6675    6.5054   18.0313 C   0  0  0  0  0  0
    7.8811   10.1285   17.7417 H   0  0  0  0  0  0
    7.7780   11.1480   19.9402 H   0  0  0  0  0  0
    6.2995   10.3449   20.3621 H   0  0  0  0  0  0
    6.4346   12.4099   18.0934 H   0  0  0  0  0  0
    6.1668   12.8798   19.7425 H   0  0  0  0  0  0
    6.8740    8.0479   17.3787 H   0  0  0  0  0  0
    4.5625   13.6237   18.1419 H   0  0  0  0  0  0
    3.2574    7.0332   22.4374 H   0  0  0  0  0  0
    3.8616    5.4166   22.0797 H   0  0  0  0  0  0
    5.3679    7.1330   23.6180 H   0  0  0  0  0  0
    6.0819    5.9494   22.5415 H   0  0  0  0  0  0
    7.1596    7.8612   21.6601 H   0  0  0  0  0  0
    5.8115    8.9098   22.0924 H   0  0  0  0  0  0
    3.1639    4.2555   20.1132 H   0  0  0  0  0  0
    1.2276    2.9092   19.4065 H   0  0  0  0  0  0
   -0.4337    3.8556   17.8377 H   0  0  0  0  0  0
   -0.1617    6.1471   16.9639 H   0  0  0  0  0  0
    1.7833    7.5050   17.6364 H   0  0  0  0  0  0
  1  2  1  0  0  0
  1  4  2  0  0  0
  1 22  1  0  0  0
  2  3  1  0  0  0
  2 23  1  0  0  0
  2 24  1  0  0  0
  3  8  1  0  0  0
  3 25  1  0  0  0
  3 26  1  0  0  0
  4  5  1  0  0  0
  4 27  1  0  0  0
  5 11  1  0  0  0
  5  6  2  0  0  0
  6  7  1  0  0  0
  7 12  1  0  0  0
  7 16  1  0  0  0
  8  9  1  0  0  0
  8 10  2  0  0  0
  9 28  1  0  0  0
 11 12  2  0  0  0
 11 15  1  0  0  0
 12 13  1  0  0  0
 13 14  1  0  0  0
 13 29  1  0  0  0
 13 30  1  0  0  0
 14 15  1  0  0  0
 14 31  1  0  0  0
 14 32  1  0  0  0
 15 33  1  0  0  0
 15 34  1  0  0  0
 16 17  2  0  0  0
 16 21  1  0  0  0
 17 18  1  0  0  0
 17 35  1  0  0  0
 18 19  2  0  0  0
 18 36  1  0  0  0
 19 20  1  0  0  0
 19 37  1  0  0  0
 20 21  2  0  0  0
 20 38  1  0  0  0
 21 39  1  0  0  0
M  END
> <s_m_entry_id>
2589

> <s_m_entry_name>
dock_pv.117

> <s_m_Source_Path>
/home/csk/Desktop/cluster/DUD-E-result/fabp4

> <s_m_Source_File>
dock_pv.maegz

> <i_m_Source_File_Index>
117

> <chembl_id>
CHEMBL472747

> <chembl_pref_name>
None

> <i_lp_mmshare_version>
53161

> <r_lp_tautomer_probability>
1

> <s_lp_Force_Field>
OPLS_2005

> <r_lp_Energy>
37.370993

> <b_lp_Chiralities_Consistent>
1

> <s_lp_Variant>
CHEMBL2083_lig56-1

> <s_i_glide_gridfile>
glide-grid_2nnq

> <i_i_glide_lignum>
66

> <i_i_glide_rotatable_bonds>
6

> <r_i_docking_score>
-7.11987941046514

> <r_i_glide_ligand_efficiency>
-0.339041876688816

> <r_i_glide_ligand_efficiency_sa>
-0.935390829453129

> <r_i_glide_ligand_efficiency_ln>
-1.76037579716649

> <r_i_glide_gscore>
-7.11987941046514

> <r_i_glide_lipo>
-3.0040318276042

> <r_i_glide_hbond>
-0.304

> <r_i_glide_metal>
0

> <r_i_glide_rewards>
-1.78580003730108

> <r_i_glide_evdw>
-30.6672859191895

> <r_i_glide_ecoul>
-10.300347328186

> <r_i_glide_erotb>
1.13480675242494

> <r_i_glide_esite>
-0.0824379027974147

> <r_i_glide_emodel>
-57.1097931803581

> <r_i_glide_energy>
-40.9676332473755

> <r_i_glide_einternal>
4.21255397796631

> <i_i_glide_confnum>
210

> <i_i_glide_posenum>
133

> <r_i_glide_eff_state_penalty>
0

> <s_user_duplicate_titles>
CHEMBL2083_lig56

> <i_f3d_flags>
0

> <s_m_subgroup_title>
dock_pv

> <s_m_subgroupid>
dock_pv

> <b_m_subgroup_collapsed>
1

$$$$
CHEMBL2083_lig199
                    3D
 Schrodinger Suite 2021-1.
 41 45  0  0  1  0            999 V2000
    6.0745    9.5560   19.8649 C   0  0  0  0  0  0
    4.9443    9.3683   18.9506 N   0  0  0  0  0  0
    5.1506   10.1706   17.7122 C   0  0  1  0  0  0
    4.2226    8.1527   18.9589 C   0  0  0  0  0  0
    4.2322    7.3279   20.1100 C   0  0  0  0  0  0
    3.5213    6.1203   20.0716 C   0  0  0  0  0  0
    2.7907    5.7418   18.9526 C   0  0  0  0  0  0
    2.7180    6.5940   17.8584 C   0  0  0  0  0  0
    3.4042    7.8120   17.8492 C   0  0  0  0  0  0
    4.8777    7.8099   21.4136 C   0  0  2  0  0  0
    6.0107    8.8240   21.2168 C   0  0  1  0  0  0
    7.3147    8.0988   21.5669 C   0  0  0  0  0  0
    6.8517    6.9099   22.3706 C   0  0  0  0  0  0
    5.5222    6.7457   22.2828 C   0  0  0  0  0  0
    4.6068    9.4450   16.4584 C   0  0  1  0  0  0
    3.2521    8.8195   16.7132 C   0  0  1  0  0  0
    2.8860    8.3798   15.3092 C   0  0  0  0  0  0
    3.5221    9.1562   14.4067 C   0  0  0  0  0  0
    4.4826   10.1168   15.0902 C   0  0  0  0  0  0
    4.5549   11.5879   17.9151 C   0  0  0  0  0  0
    5.2495   12.5089   17.1871 O   0  0  0  0  0  0
    3.6124   11.8504   18.6641 O   0  0  0  0  0  0
    1.9344    4.2422   18.9441 Cl  0  0  0  0  0  0
    6.8636    9.0649   19.2940 H   0  0  0  0  0  0
    6.4502   10.5796   19.9168 H   0  0  0  0  0  0
    6.2158   10.3538   17.5519 H   0  0  0  0  0  0
    3.5100    5.4734   20.9367 H   0  0  0  0  0  0
    2.1004    6.3126   17.0183 H   0  0  0  0  0  0
    4.0754    8.2919   21.9746 H   0  0  0  0  0  0
    5.9190    9.6018   21.9763 H   0  0  0  0  0  0
    7.8646    7.7590   20.6888 H   0  0  0  0  0  0
    7.9871    8.7341   22.1424 H   0  0  0  0  0  0
    7.5436    6.2876   22.9191 H   0  0  0  0  0  0
    4.9487    5.9656   22.7621 H   0  0  0  0  0  0
    5.3264    8.6332   16.3038 H   0  0  0  0  0  0
    2.5270    9.5616   17.0550 H   0  0  0  0  0  0
    2.1333    7.6355   15.0943 H   0  0  0  0  0  0
    3.4019    9.1235   13.3344 H   0  0  0  0  0  0
    5.4494   10.1677   14.5877 H   0  0  0  0  0  0
    4.0863   11.1321   15.1362 H   0  0  0  0  0  0
    5.1222   13.4254   17.5042 H   0  0  0  0  0  0
  1 11  1  0  0  0
  1  2  1  0  0  0
  1 24  1  0  0  0
  1 25  1  0  0  0
  2  4  1  0  0  0
  2  3  1  0  0  0
  3 15  1  0  0  0
  3 20  1  0  0  0
  3 26  1  0  0  0
  4  5  2  0  0  0
  4  9  1  0  0  0
  5 10  1  0  0  0
  5  6  1  0  0  0
  6  7  2  0  0  0
  6 27  1  0  0  0
  7  8  1  0  0  0
  7 23  1  0  0  0
  8  9  2  0  0  0
  8 28  1  0  0  0
  9 16  1  0  0  0
 10 11  1  0  0  0
 10 14  1  0  0  0
 10 29  1  0  0  0
 11 12  1  0  0  0
 11 30  1  0  0  0
 12 13  1  0  0  0
 12 31  1  0  0  0
 12 32  1  0  0  0
 13 14  2  0  0  0
 13 33  1  0  0  0
 14 34  1  0  0  0
 15 16  1  0  0  0
 15 19  1  0  0  0
 15 35  1  0  0  0
 16 17  1  0  0  0
 16 36  1  0  0  0
 17 18  2  0  0  0
 17 37  1  0  0  0
 18 19  1  0  0  0
 18 38  1  0  0  0
 19 39  1  0  0  0
 19 40  1  0  0  0
 20 21  1  0  0  0
 20 22  2  0  0  0
 21 41  1  0  0  0
M  END
> <s_m_entry_id>
2590

> <s_m_entry_name>
dock_pv.118

> <s_m_Source_Path>
/home/csk/Desktop/cluster/DUD-E-result/fabp4

> <s_m_Source_File>
dock_pv.maegz

> <i_m_Source_File_Index>
118

> <chembl_id>
CHEMBL3828043

> <chembl_pref_name>
None

> <i_lp_mmshare_version>
53161

> <r_lp_tautomer_probability>
1

> <s_lp_Force_Field>
OPLS_2005

> <r_lp_Energy>
73.759254

> <b_lp_Chiralities_Consistent>
1

> <s_lp_Variant>
CHEMBL2083_lig199-30

> <s_i_glide_gridfile>
glide-grid_2nnq

> <i_i_glide_lignum>
371

> <i_i_glide_rotatable_bonds>
2

> <r_i_docking_score>
-7.11171704268357

> <r_i_glide_ligand_efficiency>
-0.309205088812329

> <r_i_glide_ligand_efficiency_sa>
-0.879338141156401

> <r_i_glide_ligand_efficiency_ln>
-1.71967766640576

> <r_i_glide_gscore>
-7.11171704268357

> <r_i_glide_lipo>
-2.87767675415457

> <r_i_glide_hbond>
0

> <r_i_glide_metal>
0

> <r_i_glide_rewards>
-1.4454311434609

> <r_i_glide_evdw>
-31.9777450561523

> <r_i_glide_ecoul>
-7.54695701599121

> <r_i_glide_erotb>
0

> <r_i_glide_esite>
-0.0576783398618051

> <r_i_glide_emodel>
-57.5964362428199

> <r_i_glide_energy>
-39.5247020721436

> <r_i_glide_einternal>
0.703160643577576

> <i_i_glide_confnum>
1

> <i_i_glide_posenum>
55

> <r_i_glide_eff_state_penalty>
0

> <s_user_duplicate_titles>
CHEMBL2083_lig199

> <i_f3d_flags>
0

> <s_m_subgroup_title>
dock_pv

> <s_m_subgroupid>
dock_pv

> <b_m_subgroup_collapsed>
1

$$$$
CHEMBL2083_lig171
                    3D
 Schrodinger Suite 2021-1.
 62 66  0  0  1  0            999 V2000
    5.3540    7.6633   21.0225 C   0  0  0  0  0  0
    4.7578    7.1380   22.1773 C   0  0  0  0  0  0
    5.5040    6.9089   23.3291 C   0  0  0  0  0  0
    6.8337    7.3091   23.3814 C   0  0  0  0  0  0
    7.4245    7.8846   22.2641 C   0  0  0  0  0  0
    6.7216    8.0216   21.0639 C   0  0  0  0  0  0
    7.4063    8.5893   19.8733 C   0  0  0  0  0  0
    8.3193    9.7948   17.5243 C   0  0  0  0  0  0
    8.3200   10.5084   18.7190 C   0  0  0  0  0  0
    7.8700    9.9074   19.8904 C   0  0  0  0  0  0
    7.8557    8.4826   17.4797 C   0  0  0  0  0  0
    7.4477    7.8695   18.6707 C   0  0  0  0  0  0
    6.0938    7.4330   14.5621 C   0  0  0  0  0  0
    6.6026    7.0955   15.9723 C   0  0  0  0  0  0
    7.7839    7.8604   16.2513 O   0  0  0  0  0  0
    4.8562    6.9092   14.3317 O   0  0  0  0  0  0
    6.7201    8.1089   13.7480 O   0  0  0  0  0  0
    4.5058    7.9324   19.8045 C   0  0  0  0  0  0
    4.6270    9.0496   19.1285 N   0  0  0  0  0  0
    3.8151    8.9833   18.0969 C   0  0  0  0  0  0
    2.9697    7.8723   18.2314 C   0  0  0  0  0  0
    3.5349    7.1145   19.2565 N   0  0  0  0  0  0
    3.8785   10.0401   17.0261 C   0  0  0  0  0  0
    3.5405    9.7160   15.7059 C   0  0  0  0  0  0
    3.6171   10.6725   14.6969 C   0  0  0  0  0  0
    4.0389   11.9634   15.0029 C   0  0  0  0  0  0
    4.3888   12.3007   16.3077 C   0  0  0  0  0  0
    4.3131   11.3414   17.3150 C   0  0  0  0  0  0
    1.6687    7.5903   17.5398 C   0  0  0  0  0  0
    1.1374    6.3063   17.4101 C   0  0  0  0  0  0
   -0.1433    6.1194   16.9495 C   0  0  0  0  0  0
   -0.8804    7.2064   16.5234 C   0  0  0  0  0  0
   -0.3624    8.4898   16.5597 C   0  0  0  0  0  0
    0.9006    8.6818   17.1052 C   0  0  0  0  0  0
    3.1576    5.7590   19.6935 C   0  0  0  0  0  0
    3.6961    4.6783   18.7311 C   0  0  0  0  0  0
    3.6996    6.9311   22.2128 H   0  0  0  0  0  0
    5.0299    6.4867   24.2020 H   0  0  0  0  0  0
    7.3985    7.1958   24.2956 H   0  0  0  0  0  0
    8.4396    8.2336   22.3435 H   0  0  0  0  0  0
    8.6668   10.2737   16.6249 H   0  0  0  0  0  0
    8.6577   11.5348   18.7269 H   0  0  0  0  0  0
    7.8206   10.4899   20.7968 H   0  0  0  0  0  0
    7.0747    6.8567   18.6499 H   0  0  0  0  0  0
    5.7928    7.2944   16.6777 H   0  0  0  0  0  0
    6.8522    6.0357   16.0191 H   0  0  0  0  0  0
    4.4999    6.4201   15.0741 H   0  0  0  0  0  0
    3.2162    8.7175   15.4537 H   0  0  0  0  0  0
    3.3523   10.4130   13.6822 H   0  0  0  0  0  0
    4.0979   12.7085   14.2230 H   0  0  0  0  0  0
    4.7209   13.3033   16.5398 H   0  0  0  0  0  0
    4.5964   11.6182   18.3206 H   0  0  0  0  0  0
    1.6409    5.4117   17.6974 H   0  0  0  0  0  0
   -0.5476    5.1220   16.9421 H   0  0  0  0  0  0
   -1.8697    7.0466   16.1254 H   0  0  0  0  0  0
   -0.9549    9.3191   16.2083 H   0  0  0  0  0  0
    1.2601    9.6936   17.2128 H   0  0  0  0  0  0
    3.5444    5.5316   20.6788 H   0  0  0  0  0  0
    2.0744    5.7236   19.8048 H   0  0  0  0  0  0
    3.1344    3.7504   18.8395 H   0  0  0  0  0  0
    3.6724    4.9753   17.6831 H   0  0  0  0  0  0
    4.7258    4.4426   18.9420 H   0  0  0  0  0  0
  1 18  1  0  0  0
  1  6  1  0  0  0
  1  2  2  0  0  0
  2  3  1  0  0  0
  2 37  1  0  0  0
  3  4  2  0  0  0
  3 38  1  0  0  0
  4  5  1  0  0  0
  4 39  1  0  0  0
  5  6  2  0  0  0
  5 40  1  0  0  0
  6  7  1  0  0  0
  7 10  1  0  0  0
  7 12  2  0  0  0
  8  9  1  0  0  0
  8 11  2  0  0  0
  8 41  1  0  0  0
  9 10  2  0  0  0
  9 42  1  0  0  0
 10 43  1  0  0  0
 11 12  1  0  0  0
 11 15  1  0  0  0
 12 44  1  0  0  0
 13 14  1  0  0  0
 13 16  1  0  0  0
 13 17  2  0  0  0
 14 15  1  0  0  0
 14 45  1  0  0  0
 14 46  1  0  0  0
 16 47  1  0  0  0
 18 19  2  0  0  0
 18 22  1  0  0  0
 19 20  1  0  0  0
 20 21  2  0  0  0
 20 23  1  0  0  0
 21 22  1  0  0  0
 21 29  1  0  0  0
 22 35  1  0  0  0
 23 24  2  0  0  0
 23 28  1  0  0  0
 24 25  1  0  0  0
 24 48  1  0  0  0
 25 26  2  0  0  0
 25 49  1  0  0  0
 26 27  1  0  0  0
 26 50  1  0  0  0
 27 28  2  0  0  0
 27 51  1  0  0  0
 28 52  1  0  0  0
 29 30  2  0  0  0
 29 34  1  0  0  0
 30 31  1  0  0  0
 30 53  1  0  0  0
 31 32  2  0  0  0
 31 54  1  0  0  0
 32 33  1  0  0  0
 32 55  1  0  0  0
 33 34  2  0  0  0
 33 56  1  0  0  0
 34 57  1  0  0  0
 35 36  1  0  0  0
 35 58  1  0  0  0
 35 59  1  0  0  0
 36 60  1  0  0  0
 36 61  1  0  0  0
 36 62  1  0  0  0
M  END
> <s_m_entry_id>
2591

> <s_m_entry_name>
dock_pv.119

> <s_m_Source_Path>
/home/csk/Desktop/cluster/DUD-E-result/fabp4

> <s_m_Source_File>
dock_pv.maegz

> <i_m_Source_File_Index>
119

> <chembl_id>
CHEMBL245284

> <chembl_pref_name>
None

> <i_lp_mmshare_version>
53161

> <r_lp_tautomer_probability>
1

> <s_lp_Force_Field>
OPLS_2005

> <r_lp_Energy>
39.529651

> <b_lp_Chiralities_Consistent>
1

> <s_lp_Variant>
CHEMBL2083_lig171-1

> <s_i_glide_gridfile>
glide-grid_2nnq

> <i_i_glide_lignum>
187

> <i_i_glide_rotatable_bonds>
9

> <r_i_docking_score>
-7.10078183645791

> <r_i_glide_ligand_efficiency>
-0.197243939901609

> <r_i_glide_ligand_efficiency_sa>
-0.651285139062491

> <r_i_glide_ligand_efficiency_ln>
-1.54919875575985

> <r_i_glide_gscore>
-7.10078183645791

> <r_i_glide_lipo>
-4.5542283535027

> <r_i_glide_hbond>
-0.16

> <r_i_glide_metal>
0

> <r_i_glide_rewards>
-0.318170364591443

> <r_i_glide_evdw>
-47.7306976318359

> <r_i_glide_ecoul>
-2.07236123085022

> <r_i_glide_erotb>
0.629005947855564

> <r_i_glide_esite>
0

> <r_i_glide_emodel>
-60.7813243469104

> <r_i_glide_energy>
-49.8030588626862

> <r_i_glide_einternal>
5.19419765472412

> <i_i_glide_confnum>
165

> <i_i_glide_posenum>
170

> <r_i_glide_eff_state_penalty>
0

> <s_user_duplicate_titles>
CHEMBL2083_lig171,412706

> <i_f3d_flags>
0

> <s_m_subgroup_title>
dock_pv

> <s_m_subgroupid>
dock_pv

> <b_m_subgroup_collapsed>
1

$$$$
CHEMBL2083_lig9
                    3D
 Schrodinger Suite 2021-1.
 29 30  0  0  1  0            999 V2000
    6.5549   11.3761   19.7768 N   0  0  0  0  0  0
    5.2578   11.3142   19.3423 C   0  0  0  0  0  0
    4.5367    7.7230   19.5417 C   0  0  0  0  0  0
    5.3025    9.0390   19.7540 C   0  0  0  0  0  0
    4.6289   10.1863   19.4135 N   0  0  0  0  0  0
    6.5837    9.0933   20.1957 C   0  0  0  0  0  0
    7.2574   10.3606   20.3275 C   0  0  0  0  0  0
    4.6416   12.5085   18.8764 N   0  0  0  0  0  0
    3.4519    7.8795   18.7740 F   0  0  0  0  0  0
    4.1619    7.2247   20.7214 F   0  0  0  0  0  0
    5.3306    6.8356   18.9406 F   0  0  0  0  0  0
    8.3154   10.5091   20.9402 O   0  0  0  0  0  0
    3.3005   12.5355   18.2910 C   0  0  0  0  0  0
    3.3839   10.5599   14.4733 C   0  0  0  0  0  0
    3.2809   11.8640   16.9234 C   0  0  0  0  0  0
    3.5202    9.7090   12.9798 Cl  0  0  0  0  0  0
    3.9022   11.8500   14.5906 C   0  0  0  0  0  0
    2.7788    9.9352   15.5606 C   0  0  0  0  0  0
    3.8515   12.5046   15.8199 C   0  0  0  0  0  0
    2.7224   10.5908   16.7864 C   0  0  0  0  0  0
    7.1301    8.1990   20.4460 H   0  0  0  0  0  0
    5.1834   13.3658   18.7378 H   0  0  0  0  0  0
    7.0362   12.2648   19.7574 H   0  0  0  0  0  0
    2.6057   12.0370   18.9700 H   0  0  0  0  0  0
    2.9909   13.5766   18.1816 H   0  0  0  0  0  0
    4.3599   12.3352   13.7405 H   0  0  0  0  0  0
    2.3758    8.9374   15.4609 H   0  0  0  0  0  0
    4.2786   13.4926   15.9247 H   0  0  0  0  0  0
    2.2820   10.0925   17.6375 H   0  0  0  0  0  0
  1  2  1  0  0  0
  1 23  1  0  0  0
  1  7  1  0  0  0
  2  5  2  0  0  0
  2  8  1  0  0  0
  3  9  1  0  0  0
  3 10  1  0  0  0
  3 11  1  0  0  0
  3  4  1  0  0  0
  4  6  2  0  0  0
  4  5  1  0  0  0
  6  7  1  0  0  0
  6 21  1  0  0  0
  7 12  2  0  0  0
  8 13  1  0  0  0
  8 22  1  0  0  0
 13 15  1  0  0  0
 13 24  1  0  0  0
 13 25  1  0  0  0
 14 18  2  0  0  0
 14 16  1  0  0  0
 14 17  1  0  0  0
 15 19  1  0  0  0
 15 20  2  0  0  0
 17 19  2  0  0  0
 17 26  1  0  0  0
 18 20  1  0  0  0
 18 27  1  0  0  0
 19 28  1  0  0  0
 20 29  1  0  0  0
M  END
> <s_m_entry_id>
2592

> <s_m_entry_name>
dock_pv.120

> <s_m_Source_Path>
/home/csk/Desktop/cluster/DUD-E-result/fabp4

> <s_m_Source_File>
dock_pv.maegz

> <i_m_Source_File_Index>
120

> <chembl_id>
CHEMBL184852

> <chembl_pref_name>
None

> <i_lp_mmshare_version>
53161

> <r_lp_tautomer_probability>
0.878315377147829

> <s_lp_Force_Field>
OPLS_2005

> <r_lp_Energy>
10.143058

> <b_lp_Chiralities_Consistent>
1

> <s_lp_Variant>
CHEMBL2083_lig9-1

> <s_i_glide_gridfile>
glide-grid_2nnq

> <i_i_glide_lignum>
15

> <i_i_glide_rotatable_bonds>
4

> <r_i_docking_score>
-7.09904877672104

> <r_i_glide_ligand_efficiency>
-0.354952438836052

> <r_i_glide_ligand_efficiency_sa>
-0.963489152067787

> <r_i_glide_ligand_efficiency_ln>
-1.77665776651417

> <r_i_glide_gscore>
-7.09904877672104

> <r_i_glide_lipo>
-1.3788031879623

> <r_i_glide_hbond>
-0.864

> <r_i_glide_metal>
0

> <r_i_glide_rewards>
-1.83623255483122

> <r_i_glide_evdw>
-25.8222351074219

> <r_i_glide_ecoul>
-14.0209264755249

> <r_i_glide_erotb>
0.599605791439083

> <r_i_glide_esite>
-0.225368098666777

> <r_i_glide_emodel>
-57.0160694696822

> <r_i_glide_energy>
-39.8431615829468

> <r_i_glide_einternal>
2.68548226356506

> <i_i_glide_confnum>
9

> <i_i_glide_posenum>
82

> <r_i_glide_eff_state_penalty>
0

> <s_user_duplicate_titles>
CHEMBL2083_lig9

> <i_f3d_flags>
0

> <s_m_subgroup_title>
dock_pv

> <s_m_subgroupid>
dock_pv

> <b_m_subgroup_collapsed>
1

$$$$
CHEMBL2083_lig114
                    3D
 Schrodinger Suite 2021-1.
 44 46  0  0  1  0            999 V2000
    0.5298    3.7069   18.5408 C   0  0  0  0  0  0
    1.2308    5.0345   18.4303 C   0  0  0  0  0  0
    0.7183    5.9551   17.6433 N   0  0  0  0  0  0
    1.7264    7.3163   17.8315 S   0  0  0  0  0  0
    2.7361    6.4746   18.9752 C   0  0  0  0  0  0
    2.3142    5.2496   19.1505 N   0  0  0  0  0  0
    3.9133    7.0611   19.6934 C   0  0  0  0  0  0
    4.3203    6.6746   21.0036 C   0  0  0  0  0  0
    3.5590    5.7105   21.9032 C   0  0  0  0  0  0
    5.4792    7.3441   21.4345 C   0  0  0  0  0  0
    6.2622    7.1870   22.7211 C   0  0  0  0  0  0
    6.0285    8.4835   20.2539 S   0  0  0  0  0  0
    4.7330    8.0726   19.1753 C   0  0  0  0  0  0
    4.4700    8.8221   18.0399 N   0  0  0  0  0  0
    5.2990    9.5629   17.2799 C   0  0  0  0  0  0
    6.5295    9.5187   17.2984 O   0  0  0  0  0  0
    4.5576   10.4265   16.3726 C   0  0  0  0  0  0
    3.7980   11.5130   16.7566 C   0  0  0  0  0  0
    2.9388   12.3019   15.7402 C   0  0  0  0  0  0
    3.1668   11.8892   14.2721 C   0  0  0  0  0  0
    3.3867   10.3803   14.1264 C   0  0  0  0  0  0
    4.6355    9.9578   14.9123 C   0  0  0  0  0  0
    3.6194   11.9599   18.1430 C   0  0  0  0  0  0
    3.5196   11.2171   19.1154 O   0  0  0  0  0  0
    3.5195   13.3091   18.2801 O   0  0  0  0  0  0
    0.3211    3.4660   19.5848 H   0  0  0  0  0  0
   -0.4196    3.6567   18.0037 H   0  0  0  0  0  0
    1.1727    2.8889   18.2153 H   0  0  0  0  0  0
    3.9198    4.6878   21.8048 H   0  0  0  0  0  0
    3.6348    5.9814   22.9556 H   0  0  0  0  0  0
    2.4888    5.7106   21.7089 H   0  0  0  0  0  0
    5.7360    6.5988   23.4710 H   0  0  0  0  0  0
    7.2162    6.6889   22.5436 H   0  0  0  0  0  0
    6.4835    8.1472   23.1848 H   0  0  0  0  0  0
    3.4897    8.9257   17.8292 H   0  0  0  0  0  0
    3.0770   13.3806   15.8166 H   0  0  0  0  0  0
    1.8876   12.1238   15.9769 H   0  0  0  0  0  0
    4.0321   12.4230   13.8730 H   0  0  0  0  0  0
    2.3175   12.2060   13.6636 H   0  0  0  0  0  0
    2.5119    9.8384   14.4912 H   0  0  0  0  0  0
    3.4983   10.1095   13.0752 H   0  0  0  0  0  0
    4.7635    8.8751   14.8307 H   0  0  0  0  0  0
    5.5196   10.3857   14.4400 H   0  0  0  0  0  0
    4.1449   13.8169   17.7436 H   0  0  0  0  0  0
  1  2  1  0  0  0
  1 26  1  0  0  0
  1 27  1  0  0  0
  1 28  1  0  0  0
  2  3  2  0  0  0
  2  6  1  0  0  0
  3  4  1  0  0  0
  4  5  1  0  0  0
  5  6  2  0  0  0
  5  7  1  0  0  0
  7  8  1  0  0  0
  7 13  2  0  0  0
  8  9  1  0  0  0
  8 10  2  0  0  0
  9 29  1  0  0  0
  9 30  1  0  0  0
  9 31  1  0  0  0
 10 11  1  0  0  0
 10 12  1  0  0  0
 11 32  1  0  0  0
 11 33  1  0  0  0
 11 34  1  0  0  0
 12 13  1  0  0  0
 13 14  1  0  0  0
 14 15  1  0  0  0
 14 35  1  0  0  0
 15 16  2  0  0  0
 15 17  1  0  0  0
 17 18  2  0  0  0
 17 22  1  0  0  0
 18 19  1  0  0  0
 18 23  1  0  0  0
 19 20  1  0  0  0
 19 36  1  0  0  0
 19 37  1  0  0  0
 20 21  1  0  0  0
 20 38  1  0  0  0
 20 39  1  0  0  0
 21 22  1  0  0  0
 21 40  1  0  0  0
 21 41  1  0  0  0
 22 42  1  0  0  0
 22 43  1  0  0  0
 23 24  2  0  0  0
 23 25  1  0  0  0
 25 44  1  0  0  0
M  END
> <s_m_entry_id>
2593

> <s_m_entry_name>
dock_pv.121

> <s_m_Source_Path>
/home/csk/Desktop/cluster/DUD-E-result/fabp4

> <s_m_Source_File>
dock_pv.maegz

> <i_m_Source_File_Index>
121

> <chembl_id>
CHEMBL3986878

> <chembl_pref_name>
None

> <i_lp_mmshare_version>
53161

> <r_lp_tautomer_probability>
1

> <s_lp_Force_Field>
OPLS_2005

> <r_lp_Energy>
30.931049

> <b_lp_Chiralities_Consistent>
1

> <s_lp_Variant>
CHEMBL2083_lig114-1

> <s_i_glide_gridfile>
glide-grid_2nnq

> <i_i_glide_lignum>
124

> <i_i_glide_rotatable_bonds>
6

> <r_i_docking_score>
-7.09445290061519

> <r_i_glide_ligand_efficiency>
-0.283778116024608

> <r_i_glide_ligand_efficiency_sa>
-0.829772244082271

> <r_i_glide_ligand_efficiency_ln>
-1.68159794104318

> <r_i_glide_gscore>
-7.09445290061519

> <r_i_glide_lipo>
-2.94137868173445

> <r_i_glide_hbond>
-0.309244710308604

> <r_i_glide_metal>
0

> <r_i_glide_rewards>
-1.24527224623631

> <r_i_glide_evdw>
-43.4943466186523

> <r_i_glide_ecoul>
-7.02535533905029

> <r_i_glide_erotb>
0.679642695029266

> <r_i_glide_esite>
-0.0496793255749387

> <r_i_glide_emodel>
-69.1284372735531

> <r_i_glide_energy>
-50.5197019577026

> <r_i_glide_einternal>
5.74904298782349

> <i_i_glide_confnum>
30

> <i_i_glide_posenum>
319

> <r_i_glide_eff_state_penalty>
0

> <s_user_duplicate_titles>
CHEMBL2083_lig114

> <i_f3d_flags>
0

> <s_m_subgroup_title>
dock_pv

> <s_m_subgroupid>
dock_pv

> <b_m_subgroup_collapsed>
1

$$$$
CHEMBL2083_lig196
                    3D
 Schrodinger Suite 2021-1.
 47 51  0  0  1  0            999 V2000
    2.7363    6.7336   17.1855 C   0  0  0  0  0  0
    3.3693    7.9564   16.6948 N   0  0  0  0  0  0
    2.9752    8.3551   15.3193 C   0  0  1  0  0  0
    3.7011    8.9024   17.6883 C   0  0  0  0  0  0
    4.2787    8.4224   18.8897 C   0  0  0  0  0  0
    4.8151    9.3700   19.7823 C   0  0  0  0  0  0
    4.6916   10.7298   19.5231 C   0  0  0  0  0  0
    4.0181   11.2008   18.4032 C   0  0  0  0  0  0
    3.5381   10.2959   17.4389 C   0  0  0  0  0  0
    4.3270    6.9078   19.1939 C   0  0  2  0  0  0
    3.7304    5.9914   18.0978 C   0  0  1  0  0  0
    3.0695    4.8205   18.8364 C   0  0  0  0  0  0
    2.8283    5.3791   20.2170 C   0  0  0  0  0  0
    3.5204    6.5089   20.4172 C   0  0  0  0  0  0
    3.4521    9.8024   15.0529 C   0  0  2  0  0  0
    2.8278   10.6786   16.1261 C   0  0  2  0  0  0
    2.8794   12.0487   15.4721 C   0  0  0  0  0  0
    3.0371   11.9362   14.1423 C   0  0  0  0  0  0
    3.1998   10.4889   13.7199 C   0  0  0  0  0  0
    3.8506   12.7049   18.2802 C   0  0  0  0  0  0
    5.5665    8.9660   21.0452 C   0  0  0  0  0  0
    3.6380    7.3892   14.3061 C   0  0  0  0  0  0
    2.7200    6.6541   13.6107 O   0  0  0  0  0  0
    4.8558    7.3036   14.1508 O   0  0  0  0  0  0
    1.8597    6.9810   17.7875 H   0  0  0  0  0  0
    2.4053    6.0779   16.3801 H   0  0  0  0  0  0
    1.8970    8.2739   15.1984 H   0  0  0  0  0  0
    5.1211   11.4421   20.2087 H   0  0  0  0  0  0
    5.3737    6.6446   19.3397 H   0  0  0  0  0  0
    4.5629    5.6587   17.4754 H   0  0  0  0  0  0
    2.1380    4.5085   18.3621 H   0  0  0  0  0  0
    3.7222    3.9483   18.8786 H   0  0  0  0  0  0
    2.1820    4.9088   20.9412 H   0  0  0  0  0  0
    3.5428    7.0698   21.3379 H   0  0  0  0  0  0
    4.5410    9.8251   15.1735 H   0  0  0  0  0  0
    1.7737   10.4380   16.2786 H   0  0  0  0  0  0
    2.6747   12.9748   15.9849 H   0  0  0  0  0  0
    3.0360   12.7482   13.4303 H   0  0  0  0  0  0
    2.3201   10.1194   13.2071 H   0  0  0  0  0  0
    4.0512   10.3462   13.0533 H   0  0  0  0  0  0
    4.3191   13.2560   19.0970 H   0  0  0  0  0  0
    4.3205   13.0621   17.3671 H   0  0  0  0  0  0
    2.7942   12.9739   18.2580 H   0  0  0  0  0  0
    6.1299    8.0434   20.9131 H   0  0  0  0  0  0
    6.3009    9.7221   21.3231 H   0  0  0  0  0  0
    4.8759    8.8405   21.8787 H   0  0  0  0  0  0
    1.7916    6.9098   13.7417 H   0  0  0  0  0  0
  1 11  1  0  0  0
  1  2  1  0  0  0
  1 25  1  0  0  0
  1 26  1  0  0  0
  2  4  1  0  0  0
  2  3  1  0  0  0
  3 15  1  0  0  0
  3 22  1  0  0  0
  3 27  1  0  0  0
  4  5  2  0  0  0
  4  9  1  0  0  0
  5 10  1  0  0  0
  5  6  1  0  0  0
  6  7  2  0  0  0
  6 21  1  0  0  0
  7  8  1  0  0  0
  7 28  1  0  0  0
  8  9  2  0  0  0
  8 20  1  0  0  0
  9 16  1  0  0  0
 10 11  1  0  0  0
 10 14  1  0  0  0
 10 29  1  0  0  0
 11 12  1  0  0  0
 11 30  1  0  0  0
 12 13  1  0  0  0
 12 31  1  0  0  0
 12 32  1  0  0  0
 13 14  2  0  0  0
 13 33  1  0  0  0
 14 34  1  0  0  0
 15 16  1  0  0  0
 15 19  1  0  0  0
 15 35  1  0  0  0
 16 17  1  0  0  0
 16 36  1  0  0  0
 17 18  2  0  0  0
 17 37  1  0  0  0
 18 19  1  0  0  0
 18 38  1  0  0  0
 19 39  1  0  0  0
 19 40  1  0  0  0
 20 41  1  0  0  0
 20 42  1  0  0  0
 20 43  1  0  0  0
 21 44  1  0  0  0
 21 45  1  0  0  0
 21 46  1  0  0  0
 22 23  1  0  0  0
 22 24  2  0  0  0
 23 47  1  0  0  0
M  END
> <s_m_entry_id>
2594

> <s_m_entry_name>
dock_pv.122

> <s_m_Source_Path>
/home/csk/Desktop/cluster/DUD-E-result/fabp4

> <s_m_Source_File>
dock_pv.maegz

> <i_m_Source_File_Index>
122

> <chembl_id>
CHEMBL3827900

> <chembl_pref_name>
None

> <i_lp_mmshare_version>
53161

> <r_lp_tautomer_probability>
1

> <s_lp_Force_Field>
OPLS_2005

> <r_lp_Energy>
77.115576

> <b_lp_Chiralities_Consistent>
1

> <s_lp_Variant>
CHEMBL2083_lig196-6

> <s_i_glide_gridfile>
glide-grid_2nnq

> <i_i_glide_lignum>
251

> <i_i_glide_rotatable_bonds>
2

> <r_i_docking_score>
-7.08830171694274

> <r_i_glide_ligand_efficiency>
-0.295345904872614

> <r_i_glide_ligand_efficiency_sa>
-0.851925007886674

> <r_i_glide_ligand_efficiency_ln>
-1.6965558618359

> <r_i_glide_gscore>
-7.08830171694274

> <r_i_glide_lipo>
-2.9097051844465

> <r_i_glide_hbond>
0

> <r_i_glide_metal>
0

> <r_i_glide_rewards>
-1.69753589337278

> <r_i_glide_evdw>
-30.9393157958984

> <r_i_glide_ecoul>
-7.43317842483521

> <r_i_glide_erotb>
0.180881914396739

> <r_i_glide_esite>
0

> <r_i_glide_emodel>
-54.7163614336734

> <r_i_glide_energy>
-38.3724942207336

> <r_i_glide_einternal>
0.417666286230087

> <i_i_glide_confnum>
1

> <i_i_glide_posenum>
233

> <r_i_glide_eff_state_penalty>
0

> <s_user_duplicate_titles>
CHEMBL2083_lig196

> <i_f3d_flags>
0

> <s_m_subgroup_title>
dock_pv

> <s_m_subgroupid>
dock_pv

> <b_m_subgroup_collapsed>
1

$$$$
CHEMBL2083_lig101
                    3D
 Schrodinger Suite 2021-1.
 56 61  0  0  1  0            999 V2000
    7.5199    7.7572   22.6555 C   0  0  0  0  0  0
    6.5124    7.8430   21.5247 C   0  0  0  0  0  0
    6.6980    9.0233   20.2676 S   0  0  0  0  0  0
    5.3198    8.3980   19.4135 C   0  0  0  0  0  0
    4.8492    8.9676   18.2505 N   0  0  0  0  0  0
    5.5768    9.4121   17.2105 C   0  0  0  0  0  0
    6.8058    9.4854   17.1616 O   0  0  0  0  0  0
    4.7317    9.8002   16.1044 C   0  0  0  0  0  0
    4.7265   11.0091   15.4634 C   0  0  0  0  0  0
    3.7058   11.1192   14.3158 C   0  0  2  0  0  0
    2.3198   10.9055   14.9822 C   0  0  0  0  0  0
    2.3066    9.5367   15.7426 C   0  0  0  0  0  0
    3.6713    8.8007   15.5933 C   0  0  1  0  0  0
    3.9676    8.5679   14.0906 C   0  0  0  0  0  0
    3.9941    9.9339   13.3422 C   0  0  0  0  0  0
    5.4404   12.2041   15.8528 C   0  0  0  0  0  0
    6.0694   12.9089   15.0705 O   0  0  0  0  0  0
    5.2293   12.5090   17.1645 O   0  0  0  0  0  0
    4.7291    7.3299   20.0772 C   0  0  0  0  0  0
    3.5792    6.5416   19.5867 C   0  0  0  0  0  0
    3.5197    5.2193   19.8871 O   0  0  0  0  0  0
    2.3184    4.7714   19.3473 N   0  0  0  0  0  0
    1.8266    5.8555   18.7902 C   0  0  0  0  0  0
    2.5727    6.9433   18.8575 N   0  0  0  0  0  0
    0.4522    5.8370   18.1414 C   0  0  0  0  0  0
   -0.4105    7.0815   18.1395 C   0  0  0  0  0  0
    0.1798    6.5562   16.8484 C   0  0  0  0  0  0
    5.3479    7.0873   21.3201 C   0  0  0  0  0  0
    4.8162    6.0900   22.3156 C   0  0  0  0  0  0
    4.7361    6.4573   23.7422 C   0  0  0  0  0  0
    3.4589    6.3014   22.9402 C   0  0  0  0  0  0
    7.8604    6.7342   22.8175 H   0  0  0  0  0  0
    8.4004    8.3714   22.4716 H   0  0  0  0  0  0
    7.1163    8.1092   23.6023 H   0  0  0  0  0  0
    3.8511    8.9210   18.1130 H   0  0  0  0  0  0
    3.7458   12.0771   13.7912 H   0  0  0  0  0  0
    1.5347   10.9343   14.2256 H   0  0  0  0  0  0
    2.1002   11.7240   15.6705 H   0  0  0  0  0  0
    2.0642    9.6880   16.7960 H   0  0  0  0  0  0
    1.5201    8.9053   15.3423 H   0  0  0  0  0  0
    3.6635    7.8489   16.1289 H   0  0  0  0  0  0
    3.2079    7.9147   13.6571 H   0  0  0  0  0  0
    4.9183    8.0468   13.9652 H   0  0  0  0  0  0
    3.2537    9.9214   12.5421 H   0  0  0  0  0  0
    4.9618   10.0776   12.8608 H   0  0  0  0  0  0
    5.5200   13.4089   17.4210 H   0  0  0  0  0  0
   -0.0676    4.8826   18.2451 H   0  0  0  0  0  0
   -1.4754    6.9600   18.3367 H   0  0  0  0  0  0
   -0.0200    8.0157   18.5427 H   0  0  0  0  0  0
    1.0218    7.0553   16.3746 H   0  0  0  0  0  0
   -0.4962    6.1091   16.1217 H   0  0  0  0  0  0
    5.1213    5.0598   22.1420 H   0  0  0  0  0  0
    4.9482    5.7103   24.5034 H   0  0  0  0  0  0
    5.1199    7.4297   24.0344 H   0  0  0  0  0  0
    2.8865    7.1914   22.6761 H   0  0  0  0  0  0
    2.8241    5.4305   23.1061 H   0  0  0  0  0  0
  1  2  1  0  0  0
  1 32  1  0  0  0
  1 33  1  0  0  0
  1 34  1  0  0  0
  2  3  1  0  0  0
  2 28  2  0  0  0
  3  4  1  0  0  0
  4  5  1  0  0  0
  4 19  2  0  0  0
  5  6  1  0  0  0
  5 35  1  0  0  0
  6  7  2  0  0  0
  6  8  1  0  0  0
  8  9  2  0  0  0
  8 13  1  0  0  0
  9 10  1  0  0  0
  9 16  1  0  0  0
 10 11  1  0  0  0
 10 15  1  0  0  0
 10 36  1  0  0  0
 11 12  1  0  0  0
 11 37  1  0  0  0
 11 38  1  0  0  0
 12 13  1  0  0  0
 12 39  1  0  0  0
 12 40  1  0  0  0
 13 14  1  0  0  0
 13 41  1  0  0  0
 14 15  1  0  0  0
 14 42  1  0  0  0
 14 43  1  0  0  0
 15 44  1  0  0  0
 15 45  1  0  0  0
 16 17  2  0  0  0
 16 18  1  0  0  0
 18 46  1  0  0  0
 19 20  1  0  0  0
 19 28  1  0  0  0
 20 21  1  0  0  0
 20 24  2  0  0  0
 21 22  1  0  0  0
 22 23  2  0  0  0
 23 24  1  0  0  0
 23 25  1  0  0  0
 25 26  1  0  0  0
 25 27  1  0  0  0
 25 47  1  0  0  0
 26 27  1  0  0  0
 26 48  1  0  0  0
 26 49  1  0  0  0
 27 50  1  0  0  0
 27 51  1  0  0  0
 28 29  1  0  0  0
 29 30  1  0  0  0
 29 31  1  0  0  0
 29 52  1  0  0  0
 30 31  1  0  0  0
 30 53  1  0  0  0
 30 54  1  0  0  0
 31 55  1  0  0  0
 31 56  1  0  0  0
M  END
> <s_m_entry_id>
2595

> <s_m_entry_name>
dock_pv.123

> <s_m_Source_Path>
/home/csk/Desktop/cluster/DUD-E-result/fabp4

> <s_m_Source_File>
dock_pv.maegz

> <i_m_Source_File_Index>
123

> <chembl_id>
CHEMBL3967672

> <chembl_pref_name>
None

> <i_lp_mmshare_version>
53161

> <r_lp_tautomer_probability>
1

> <s_lp_Force_Field>
OPLS_2005

> <r_lp_Energy>
54.716298

> <b_lp_Chiralities_Consistent>
1

> <s_lp_Variant>
CHEMBL2083_lig101-1

> <s_i_glide_gridfile>
glide-grid_2nnq

> <i_i_glide_lignum>
111

> <i_i_glide_rotatable_bonds>
8

> <r_i_docking_score>
-7.07779311444825

> <r_i_glide_ligand_efficiency>
-0.228315906917686

> <r_i_glide_ligand_efficiency_sa>
-0.717227171803429

> <r_i_glide_ligand_efficiency_ln>
-1.59625925561734

> <r_i_glide_gscore>
-7.07779311444825

> <r_i_glide_lipo>
-4.07428140392072

> <r_i_glide_hbond>
0

> <r_i_glide_metal>
0

> <r_i_glide_rewards>
-0.947791141551973

> <r_i_glide_evdw>
-38.9717636108398

> <r_i_glide_ecoul>
-5.1283073425293

> <r_i_glide_erotb>
0.723207716430483

> <r_i_glide_esite>
-0.061094003484654

> <r_i_glide_emodel>
-62.9692308601329

> <r_i_glide_energy>
-44.1000709533691

> <r_i_glide_einternal>
3.51078677177429

> <i_i_glide_confnum>
12

> <i_i_glide_posenum>
154

> <r_i_glide_eff_state_penalty>
0

> <s_user_duplicate_titles>
CHEMBL2083_lig101

> <i_f3d_flags>
0

> <s_m_subgroup_title>
dock_pv

> <s_m_subgroupid>
dock_pv

> <b_m_subgroup_collapsed>
1

$$$$
CHEMBL2083_lig107
                    3D
 Schrodinger Suite 2021-1.
 52 56  0  0  1  0            999 V2000
    0.1384    3.7795   18.3825 C   0  0  0  0  0  0
    1.1312    4.9141   18.2513 C   0  0  0  0  0  0
    0.6734    6.4425   17.5618 S   0  0  0  0  0  0
    2.2929    7.0617   17.7292 C   0  0  0  0  0  0
    2.7140    8.3289   17.3480 N   0  0  0  0  0  0
    2.0118    9.3499   16.8340 C   0  0  0  0  0  0
    0.8109    9.3089   16.5742 O   0  0  0  0  0  0
    2.8374   10.4919   16.4752 C   0  0  0  0  0  0
    3.7858   11.1714   17.2181 C   0  0  0  0  0  0
    4.5373   12.2534   16.4062 C   0  0  2  0  0  0
    5.1651   11.5405   15.1789 C   0  0  0  0  0  0
    4.0776   10.7895   14.3590 C   0  0  0  0  0  0
    2.6879   10.9883   15.0178 C   0  0  1  0  0  0
    2.3616   12.5081   15.0924 C   0  0  0  0  0  0
    3.4517   13.2451   15.9318 C   0  0  0  0  0  0
    4.1285   11.0077   18.6295 C   0  0  0  0  0  0
    3.9202    9.9988   19.2931 O   0  0  0  0  0  0
    4.7212   12.1088   19.1835 O   0  0  0  0  0  0
    3.1462    6.1037   18.2587 C   0  0  0  0  0  0
    2.4680    4.9312   18.6565 C   0  0  0  0  0  0
    3.1198    3.7575   19.3407 C   0  0  0  0  0  0
    4.5835    6.3536   18.3720 C   0  0  0  0  0  0
    5.1253    7.2022   19.2033 N   0  0  0  0  0  0
    6.4176    7.3090   18.9474 C   0  0  0  0  0  0
    6.9845    6.6186   17.9734 N   0  0  0  0  0  0
    5.7300    5.7089   17.2499 S   0  0  0  0  0  0
    7.2514    8.2506   19.8010 C   0  0  0  0  0  0
    8.6255    8.7233   19.3765 C   0  0  0  0  0  0
    7.4500    9.6828   19.3650 C   0  0  0  0  0  0
    0.3855    2.9514   17.7216 H   0  0  0  0  0  0
    0.1190    3.3764   19.3958 H   0  0  0  0  0  0
   -0.8797    4.0800   18.1455 H   0  0  0  0  0  0
    3.6867    8.5225   17.5363 H   0  0  0  0  0  0
    5.3286   12.7812   16.9405 H   0  0  0  0  0  0
    5.9213   10.8326   15.5190 H   0  0  0  0  0  0
    5.6818   12.2660   14.5485 H   0  0  0  0  0  0
    4.0601   11.1696   13.3425 H   0  0  0  0  0  0
    4.3150    9.7267   14.2830 H   0  0  0  0  0  0
    1.9202   10.4642   14.4476 H   0  0  0  0  0  0
    1.3734   12.6615   15.5297 H   0  0  0  0  0  0
    2.3133   12.9304   14.0881 H   0  0  0  0  0  0
    2.9872   13.7090   16.8030 H   0  0  0  0  0  0
    3.9189   14.0483   15.3627 H   0  0  0  0  0  0
    4.8549   12.8492   18.5805 H   0  0  0  0  0  0
    3.1868    3.9372   20.4132 H   0  0  0  0  0  0
    2.5922    2.8165   19.1868 H   0  0  0  0  0  0
    4.1247    3.5977   18.9473 H   0  0  0  0  0  0
    7.1206    8.0896   20.8721 H   0  0  0  0  0  0
    9.3983    8.8374   20.1383 H   0  0  0  0  0  0
    9.0377    8.3733   18.4288 H   0  0  0  0  0  0
    7.0337    9.9990   18.4071 H   0  0  0  0  0  0
    7.3848   10.4668   20.1203 H   0  0  0  0  0  0
  1  2  1  0  0  0
  1 30  1  0  0  0
  1 31  1  0  0  0
  1 32  1  0  0  0
  2  3  1  0  0  0
  2 20  2  0  0  0
  3  4  1  0  0  0
  4  5  1  0  0  0
  4 19  2  0  0  0
  5  6  1  0  0  0
  5 33  1  0  0  0
  6  7  2  0  0  0
  6  8  1  0  0  0
  8  9  2  0  0  0
  8 13  1  0  0  0
  9 10  1  0  0  0
  9 16  1  0  0  0
 10 11  1  0  0  0
 10 15  1  0  0  0
 10 34  1  0  0  0
 11 12  1  0  0  0
 11 35  1  0  0  0
 11 36  1  0  0  0
 12 13  1  0  0  0
 12 37  1  0  0  0
 12 38  1  0  0  0
 13 14  1  0  0  0
 13 39  1  0  0  0
 14 15  1  0  0  0
 14 40  1  0  0  0
 14 41  1  0  0  0
 15 42  1  0  0  0
 15 43  1  0  0  0
 16 17  2  0  0  0
 16 18  1  0  0  0
 18 44  1  0  0  0
 19 20  1  0  0  0
 19 22  1  0  0  0
 20 21  1  0  0  0
 21 45  1  0  0  0
 21 46  1  0  0  0
 21 47  1  0  0  0
 22 23  2  0  0  0
 22 26  1  0  0  0
 23 24  1  0  0  0
 24 25  2  0  0  0
 24 27  1  0  0  0
 25 26  1  0  0  0
 27 28  1  0  0  0
 27 29  1  0  0  0
 27 48  1  0  0  0
 28 29  1  0  0  0
 28 49  1  0  0  0
 28 50  1  0  0  0
 29 51  1  0  0  0
 29 52  1  0  0  0
M  END
> <s_m_entry_id>
2596

> <s_m_entry_name>
dock_pv.124

> <s_m_Source_Path>
/home/csk/Desktop/cluster/DUD-E-result/fabp4

> <s_m_Source_File>
dock_pv.maegz

> <i_m_Source_File_Index>
124

> <chembl_id>
CHEMBL3920801

> <chembl_pref_name>
None

> <i_lp_mmshare_version>
53161

> <r_lp_tautomer_probability>
1

> <s_lp_Force_Field>
OPLS_2005

> <r_lp_Energy>
52.999715

> <b_lp_Chiralities_Consistent>
1

> <s_lp_Variant>
CHEMBL2083_lig107-1

> <s_i_glide_gridfile>
glide-grid_2nnq

> <i_i_glide_lignum>
117

> <i_i_glide_rotatable_bonds>
7

> <r_i_docking_score>
-7.07643848315376

> <r_i_glide_ligand_efficiency>
-0.24401512010875

> <r_i_glide_ligand_efficiency_sa>
-0.749691758390388

> <r_i_glide_ligand_efficiency_ln>
-1.62032496964504

> <r_i_glide_gscore>
-7.07643848315376

> <r_i_glide_lipo>
-3.28047354599827

> <r_i_glide_hbond>
-0.0267591059208031

> <r_i_glide_metal>
0

> <r_i_glide_rewards>
-0.964505818200958

> <r_i_glide_evdw>
-46.875316619873

> <r_i_glide_ecoul>
-7.19415998458862

> <r_i_glide_erotb>
0.646223408481894

> <r_i_glide_esite>
-0.0280335928336738

> <r_i_glide_emodel>
-75.7432274213786

> <r_i_glide_energy>
-54.0694766044617

> <r_i_glide_einternal>
2.51410293579102

> <i_i_glide_confnum>
39

> <i_i_glide_posenum>
8

> <r_i_glide_eff_state_penalty>
0

> <s_user_duplicate_titles>
CHEMBL2083_lig107

> <i_f3d_flags>
0

> <s_m_subgroup_title>
dock_pv

> <s_m_subgroupid>
dock_pv

> <b_m_subgroup_collapsed>
1

$$$$
CHEMBL2083_lig199
                    3D
 Schrodinger Suite 2021-1.
 41 45  0  0  1  0            999 V2000
    4.9863    8.9767   19.5952 C   0  0  0  0  0  0
    5.0576    9.2375   18.1522 N   0  0  0  0  0  0
    3.9739   10.0998   17.6082 C   0  0  2  0  0  0
    5.6041    8.1802   17.3954 C   0  0  0  0  0  0
    6.6792    7.4384   17.9387 C   0  0  0  0  0  0
    7.2517    6.4285   17.1582 C   0  0  0  0  0  0
    6.7923    6.1595   15.8743 C   0  0  0  0  0  0
    5.7405    6.8943   15.3433 C   0  0  0  0  0  0
    5.1342    7.9108   16.0846 C   0  0  0  0  0  0
    7.2142    7.7117   19.3522 C   0  0  2  0  0  0
    6.4087    8.7659   20.1535 C   0  0  1  0  0  0
    7.2709   10.0376   20.1430 C   0  0  0  0  0  0
    8.6485    9.5434   19.7834 C   0  0  0  0  0  0
    8.6206    8.2761   19.3480 C   0  0  0  0  0  0
    4.0411   10.1155   16.0608 C   0  0  1  0  0  0
    3.9307    8.6872   15.5660 C   0  0  1  0  0  0
    3.7030    8.9102   14.0876 C   0  0  0  0  0  0
    3.1201   10.1123   13.9070 C   0  0  0  0  0  0
    3.0282   10.8853   15.2156 C   0  0  0  0  0  0
    4.1210   11.5456   18.1464 C   0  0  0  0  0  0
    5.3323   12.1089   17.8618 O   0  0  0  0  0  0
    3.2211   12.1087   18.7638 O   0  0  0  0  0  0
    7.5199    4.9090   14.9420 Cl  0  0  0  0  0  0
    4.4784    9.7683   20.1470 H   0  0  0  0  0  0
    4.4216    8.0595   19.7738 H   0  0  0  0  0  0
    2.9991    9.7506   17.9523 H   0  0  0  0  0  0
    8.0738    5.8494   17.5549 H   0  0  0  0  0  0
    5.3840    6.6575   14.3509 H   0  0  0  0  0  0
    7.1894    6.7624   19.8875 H   0  0  0  0  0  0
    6.3220    8.3725   21.1689 H   0  0  0  0  0  0
    6.9369   10.7778   19.4164 H   0  0  0  0  0  0
    7.2559   10.5170   21.1192 H   0  0  0  0  0  0
    9.5201   10.1708   19.8617 H   0  0  0  0  0  0
    9.4750    7.7053   19.0158 H   0  0  0  0  0  0
    5.0259   10.5087   15.7820 H   0  0  0  0  0  0
    3.0503    8.1893   15.9803 H   0  0  0  0  0  0
    3.8578    8.1498   13.3360 H   0  0  0  0  0  0
    2.7516   10.5071   12.9714 H   0  0  0  0  0  0
    3.3297   11.9277   15.0997 H   0  0  0  0  0  0
    2.0253   10.8776   15.6453 H   0  0  0  0  0  0
    5.3906   13.0397   18.1405 H   0  0  0  0  0  0
  1 11  1  0  0  0
  1  2  1  0  0  0
  1 24  1  0  0  0
  1 25  1  0  0  0
  2  4  1  0  0  0
  2  3  1  0  0  0
  3 15  1  0  0  0
  3 20  1  0  0  0
  3 26  1  0  0  0
  4  5  2  0  0  0
  4  9  1  0  0  0
  5 10  1  0  0  0
  5  6  1  0  0  0
  6  7  2  0  0  0
  6 27  1  0  0  0
  7  8  1  0  0  0
  7 23  1  0  0  0
  8  9  2  0  0  0
  8 28  1  0  0  0
  9 16  1  0  0  0
 10 11  1  0  0  0
 10 14  1  0  0  0
 10 29  1  0  0  0
 11 12  1  0  0  0
 11 30  1  0  0  0
 12 13  1  0  0  0
 12 31  1  0  0  0
 12 32  1  0  0  0
 13 14  2  0  0  0
 13 33  1  0  0  0
 14 34  1  0  0  0
 15 16  1  0  0  0
 15 19  1  0  0  0
 15 35  1  0  0  0
 16 17  1  0  0  0
 16 36  1  0  0  0
 17 18  2  0  0  0
 17 37  1  0  0  0
 18 19  1  0  0  0
 18 38  1  0  0  0
 19 39  1  0  0  0
 19 40  1  0  0  0
 20 21  1  0  0  0
 20 22  2  0  0  0
 21 41  1  0  0  0
M  END
> <s_m_entry_id>
2597

> <s_m_entry_name>
dock_pv.125

> <s_m_Source_Path>
/home/csk/Desktop/cluster/DUD-E-result/fabp4

> <s_m_Source_File>
dock_pv.maegz

> <i_m_Source_File_Index>
125

> <chembl_id>
CHEMBL3828043

> <chembl_pref_name>
None

> <i_lp_mmshare_version>
53161

> <r_lp_tautomer_probability>
1

> <s_lp_Force_Field>
OPLS_2005

> <r_lp_Energy>
72.121659

> <b_lp_Chiralities_Consistent>
1

> <s_lp_Variant>
CHEMBL2083_lig199-29

> <s_i_glide_gridfile>
glide-grid_2nnq

> <i_i_glide_lignum>
370

> <i_i_glide_rotatable_bonds>
2

> <r_i_docking_score>
-7.07589619184774

> <r_i_glide_ligand_efficiency>
-0.307647660515119

> <r_i_glide_ligand_efficiency_sa>
-0.874909022253108

> <r_i_glide_ligand_efficiency_ln>
-1.71101585986814

> <r_i_glide_gscore>
-7.07589619184774

> <r_i_glide_lipo>
-2.99899982812183

> <r_i_glide_hbond>
-0.0354183778575251

> <r_i_glide_metal>
0

> <r_i_glide_rewards>
-1.33219255688445

> <r_i_glide_evdw>
-35.0032081604004

> <r_i_glide_ecoul>
-6.11675500869751

> <r_i_glide_erotb>
0

> <r_i_glide_esite>
-0.0416117696592983

> <r_i_glide_emodel>
-58.8455260215424

> <r_i_glide_energy>
-41.1199631690979

> <r_i_glide_einternal>
1.38844013214111

> <i_i_glide_confnum>
1

> <i_i_glide_posenum>
350

> <r_i_glide_eff_state_penalty>
0

> <s_user_duplicate_titles>
CHEMBL2083_lig199

> <i_f3d_flags>
0

> <s_m_subgroup_title>
dock_pv

> <s_m_subgroupid>
dock_pv

> <b_m_subgroup_collapsed>
1

$$$$
CHEMBL2083_lig147 
                    3D
 Schrodinger Suite 2021-1.
 56 59  0  0  1  0            999 V2000
    3.5202    4.1071   18.9239 O   0  0  0  0  0  0
    2.7030    5.2352   18.4791 S   0  0  0  0  0  0
    1.2737    5.0400   18.2160 O   0  0  0  0  0  0
    2.5202    6.7416   16.2254 C   0  0  0  0  0  0
    2.9529    7.5331   15.1794 C   0  0  0  0  0  0
    4.3044    7.6836   14.8889 C   0  0  0  0  0  0
    3.4200    6.0283   17.0152 C   0  0  0  0  0  0
    4.8159    6.0483   16.6685 C   0  0  0  0  0  0
    5.2510    6.8941   15.5924 C   0  0  0  0  0  0
    6.6328    6.9598   15.2663 C   0  0  0  0  0  0
    7.5640    6.2166   15.9760 C   0  0  0  0  0  0
    7.1569    5.3836   17.0000 C   0  0  0  0  0  0
    5.8139    5.2990   17.3438 C   0  0  0  0  0  0
    2.7823    6.4671   19.7395 N   0  0  0  0  0  0
    3.9160    6.6903   20.5308 C   0  0  0  0  0  0
    5.0012    7.4281   20.0462 C   0  0  0  0  0  0
    6.0988    7.7095   20.8795 C   0  0  0  0  0  0
    6.0958    7.2348   22.2010 C   0  0  0  0  0  0
    5.0074    6.5091   22.6798 C   0  0  0  0  0  0
    3.9207    6.2364   21.8525 C   0  0  0  0  0  0
    7.1433    7.4648   23.0300 F   0  0  0  0  0  0
    7.2722    8.4903   20.3555 C   0  0  0  0  0  0
    7.8087    7.9858   19.2146 O   0  0  0  0  0  0
    7.7236    9.4760   20.9351 O   0  0  0  0  0  0
    4.7760    8.5907   13.9592 O   0  0  0  0  0  0
    3.9790    9.7170   13.5771 C   0  0  0  0  0  0
    3.4819   10.6067   14.7482 C   0  0  0  0  0  0
    4.6078   10.9737   15.7433 C   0  0  0  0  0  0
    4.0288   11.7253   16.9548 C   0  0  0  0  0  0
    3.2723   12.9925   16.5054 C   0  0  0  0  0  0
    2.2362   12.7271   15.3903 C   0  0  0  0  0  0
    2.8425   11.9140   14.2316 C   0  0  0  0  0  0
    1.4597    6.7197   16.4390 H   0  0  0  0  0  0
    2.2165    8.0788   14.6141 H   0  0  0  0  0  0
    6.9616    7.5972   14.4613 H   0  0  0  0  0  0
    8.6168    6.2865   15.7432 H   0  0  0  0  0  0
    7.8920    4.8078   17.5439 H   0  0  0  0  0  0
    5.5629    4.6348   18.1436 H   0  0  0  0  0  0
    1.9499    7.0064   19.9119 H   0  0  0  0  0  0
    4.9814    7.7903   19.0271 H   0  0  0  0  0  0
    5.0099    6.1509   23.6981 H   0  0  0  0  0  0
    3.0854    5.6716   22.2355 H   0  0  0  0  0  0
    8.5691    8.5153   18.9584 H   0  0  0  0  0  0
    4.6219   10.3199   12.9402 H   0  0  0  0  0  0
    3.1413    9.3937   12.9543 H   0  0  0  0  0  0
    2.7105   10.0776   15.3045 H   0  0  0  0  0  0
    5.1186   10.0759   16.0936 H   0  0  0  0  0  0
    5.3877   11.5507   15.2427 H   0  0  0  0  0  0
    3.3528   11.0693   17.5058 H   0  0  0  0  0  0
    4.8243   12.0005   17.6487 H   0  0  0  0  0  0
    2.7902   13.4706   17.3586 H   0  0  0  0  0  0
    4.0045   13.7092   16.1370 H   0  0  0  0  0  0
    1.3838   12.1905   15.8025 H   0  0  0  0  0  0
    1.8428   13.6731   15.0148 H   0  0  0  0  0  0
    3.5741   12.5066   13.6807 H   0  0  0  0  0  0
    2.0643   11.6867   13.5021 H   0  0  0  0  0  0
  1  2  2  0  0  0
  2  3  2  0  0  0
  2  7  1  0  0  0
  2 14  1  0  0  0
  4  5  2  0  0  0
  4  7  1  0  0  0
  4 33  1  0  0  0
  5  6  1  0  0  0
  5 34  1  0  0  0
  6  9  2  0  0  0
  6 25  1  0  0  0
  7  8  2  0  0  0
  8  9  1  0  0  0
  8 13  1  0  0  0
  9 10  1  0  0  0
 10 11  2  0  0  0
 10 35  1  0  0  0
 11 12  1  0  0  0
 11 36  1  0  0  0
 12 13  2  0  0  0
 12 37  1  0  0  0
 13 38  1  0  0  0
 14 15  1  0  0  0
 14 39  1  0  0  0
 15 16  2  0  0  0
 15 20  1  0  0  0
 16 17  1  0  0  0
 16 40  1  0  0  0
 17 18  2  0  0  0
 17 22  1  0  0  0
 18 19  1  0  0  0
 18 21  1  0  0  0
 19 20  2  0  0  0
 19 41  1  0  0  0
 20 42  1  0  0  0
 22 23  1  0  0  0
 22 24  2  0  0  0
 23 43  1  0  0  0
 25 26  1  0  0  0
 26 27  1  0  0  0
 26 44  1  0  0  0
 26 45  1  0  0  0
 27 28  1  0  0  0
 27 32  1  0  0  0
 27 46  1  0  0  0
 28 29  1  0  0  0
 28 47  1  0  0  0
 28 48  1  0  0  0
 29 30  1  0  0  0
 29 49  1  0  0  0
 29 50  1  0  0  0
 30 31  1  0  0  0
 30 51  1  0  0  0
 30 52  1  0  0  0
 31 32  1  0  0  0
 31 53  1  0  0  0
 31 54  1  0  0  0
 32 55  1  0  0  0
 32 56  1  0  0  0
M  END
> <s_m_entry_id>
2598

> <s_m_entry_name>
dock_pv.126

> <s_m_Source_Path>
/home/csk/Desktop/cluster/DUD-E-result/fabp4

> <s_m_Source_File>
dock_pv.maegz

> <i_m_Source_File_Index>
126

> <chembl_id>
CHEMBL4591848

> <chembl_pref_name>
None

> <i_lp_mmshare_version>
53161

> <r_lp_tautomer_probability>
1

> <s_lp_Force_Field>
OPLS_2005

> <r_lp_Energy>
29.072295

> <b_lp_Chiralities_Consistent>
1

> <s_lp_Variant>
CHEMBL2083_lig147 -1

> <s_i_glide_gridfile>
glide-grid_2nnq

> <i_i_glide_lignum>
161

> <i_i_glide_rotatable_bonds>
8

> <r_i_docking_score>
-7.07025925591993

> <r_i_glide_ligand_efficiency>
-0.220945601747498

> <r_i_glide_ligand_efficiency_sa>
-0.701458560473093

> <r_i_glide_ligand_efficiency_ln>
-1.58322377538881

> <r_i_glide_gscore>
-7.07025925591993

> <r_i_glide_lipo>
-3.51980762863331

> <r_i_glide_hbond>
-0.0331951492198792

> <r_i_glide_metal>
0

> <r_i_glide_rewards>
-1.31780980983359

> <r_i_glide_evdw>
-53.6658058166504

> <r_i_glide_ecoul>
-1.25677132606506

> <r_i_glide_erotb>
0.672359321509136

> <r_i_glide_esite>
0

> <r_i_glide_emodel>
-74.4418126574471

> <r_i_glide_energy>
-54.9225771427155

> <r_i_glide_einternal>
10.0630788803101

> <i_i_glide_confnum>
128

> <i_i_glide_posenum>
311

> <r_i_glide_eff_state_penalty>
0

> <s_user_duplicate_titles>
CHEMBL2083_lig147 

> <i_f3d_flags>
0

> <s_m_subgroup_title>
dock_pv

> <s_m_subgroupid>
dock_pv

> <b_m_subgroup_collapsed>
1

$$$$
CHEMBL2083_lig163
                    3D
 Schrodinger Suite 2021-1.
 48 50  0  0  1  0            999 V2000
    4.7941   11.5818   15.4699 C   0  0  0  0  0  0
    3.9300   10.8568   14.6571 C   0  0  0  0  0  0
    3.6010    9.5496   14.9935 C   0  0  0  0  0  0
    4.1362    8.9520   16.1444 C   0  0  0  0  0  0
    5.0263    9.6763   16.9619 C   0  0  0  0  0  0
    5.3511   11.0081   16.6216 C   0  0  0  0  0  0
    6.2586   11.8891   17.4907 C   0  0  1  0  0  0
    5.7412   12.1087   18.9342 C   0  0  0  0  0  0
    7.6071   11.4609   17.4855 O   0  0  0  0  0  0
    5.5837    9.0805   18.0792 O   0  0  0  0  0  0
    4.6800    8.8316   19.1601 C   0  0  0  0  0  0
    5.3449    8.2248   20.4042 C   0  0  0  0  0  0
    6.6664    8.4950   20.8273 C   0  0  0  0  0  0
    7.1200    8.0035   22.0505 C   0  0  0  0  0  0
    6.2931    7.2340   22.8598 C   0  0  0  0  0  0
    5.0115    6.9088   22.4290 C   0  0  0  0  0  0
    4.5460    7.3995   21.2104 C   0  0  0  0  0  0
    7.7997    9.4313   19.9199 Cl  0  0  0  0  0  0
    3.8111    7.6605   16.4990 O   0  0  0  0  0  0
    2.4472    7.2674   16.3287 C   0  0  0  0  0  0
    2.0740    6.1096   17.2531 C   0  0  0  0  0  0
    0.7342    5.7030   17.3624 C   0  0  0  0  0  0
    0.4025    4.5934   18.1418 C   0  0  0  0  0  0
    1.3863    3.9169   18.8628 C   0  0  0  0  0  0
    2.7125    4.3402   18.7938 C   0  0  0  0  0  0
    3.0567    5.4239   17.9853 C   0  0  0  0  0  0
   -0.5412    6.5352   16.5416 Cl  0  0  0  0  0  0
    4.3841   12.5087   18.9416 O   0  0  0  0  0  0
    5.0211   12.6047   15.2004 H   0  0  0  0  0  0
    3.5097   11.3128   13.7729 H   0  0  0  0  0  0
    2.9340    8.9992   14.3496 H   0  0  0  0  0  0
    6.2844   12.8789   17.0306 H   0  0  0  0  0  0
    5.8509   11.2282   19.5545 H   0  0  0  0  0  0
    6.3200   12.8875   19.4296 H   0  0  0  0  0  0
    8.0813   11.9812   18.1441 H   0  0  0  0  0  0
    3.8804    8.1646   18.8405 H   0  0  0  0  0  0
    4.1841    9.7555   19.4607 H   0  0  0  0  0  0
    8.1182    8.2333   22.3922 H   0  0  0  0  0  0
    6.6473    6.9069   23.8245 H   0  0  0  0  0  0
    4.3686    6.3033   23.0524 H   0  0  0  0  0  0
    3.5341    7.1597   20.9117 H   0  0  0  0  0  0
    1.7823    8.1059   16.5497 H   0  0  0  0  0  0
    2.2766    6.9642   15.2942 H   0  0  0  0  0  0
   -0.6244    4.2645   18.2019 H   0  0  0  0  0  0
    1.1195    3.0671   19.4759 H   0  0  0  0  0  0
    3.4768    3.8193   19.3513 H   0  0  0  0  0  0
    4.0931    5.7216   17.9292 H   0  0  0  0  0  0
    4.3889   13.4179   18.6028 H   0  0  0  0  0  0
  1  2  2  0  0  0
  1  6  1  0  0  0
  1 29  1  0  0  0
  2  3  1  0  0  0
  2 30  1  0  0  0
  3  4  2  0  0  0
  3 31  1  0  0  0
  4  5  1  0  0  0
  4 19  1  0  0  0
  5  6  2  0  0  0
  5 10  1  0  0  0
  6  7  1  0  0  0
  7  8  1  0  0  0
  7  9  1  0  0  0
  7 32  1  0  0  0
  8 28  1  0  0  0
  8 33  1  0  0  0
  8 34  1  0  0  0
  9 35  1  0  0  0
 10 11  1  0  0  0
 11 12  1  0  0  0
 11 36  1  0  0  0
 11 37  1  0  0  0
 12 13  2  0  0  0
 12 17  1  0  0  0
 13 14  1  0  0  0
 13 18  1  0  0  0
 14 15  2  0  0  0
 14 38  1  0  0  0
 15 16  1  0  0  0
 15 39  1  0  0  0
 16 17  2  0  0  0
 16 40  1  0  0  0
 17 41  1  0  0  0
 19 20  1  0  0  0
 20 21  1  0  0  0
 20 42  1  0  0  0
 20 43  1  0  0  0
 21 22  2  0  0  0
 21 26  1  0  0  0
 22 23  1  0  0  0
 22 27  1  0  0  0
 23 24  2  0  0  0
 23 44  1  0  0  0
 24 25  1  0  0  0
 24 45  1  0  0  0
 25 26  2  0  0  0
 25 46  1  0  0  0
 26 47  1  0  0  0
 28 48  1  0  0  0
M  END
> <s_m_entry_id>
2599

> <s_m_entry_name>
dock_pv.127

> <s_m_Source_Path>
/home/csk/Desktop/cluster/DUD-E-result/fabp4

> <s_m_Source_File>
dock_pv.maegz

> <i_m_Source_File_Index>
127

> <chembl_id>
CHEMBL210078

> <chembl_pref_name>
None

> <i_lp_mmshare_version>
53161

> <r_lp_tautomer_probability>
1

> <s_lp_Force_Field>
OPLS_2005

> <r_lp_Energy>
34.540228

> <b_lp_Chiralities_Consistent>
1

> <s_lp_Variant>
CHEMBL2083_lig163-2

> <s_i_glide_gridfile>
glide-grid_2nnq

> <i_i_glide_lignum>
178

> <i_i_glide_rotatable_bonds>
10

> <r_i_docking_score>
-7.068557580634

> <r_i_glide_ligand_efficiency>
-0.252448485022643

> <r_i_glide_ligand_efficiency_sa>
-0.766582284735005

> <r_i_glide_ligand_efficiency_ln>
-1.63163063147915

> <r_i_glide_gscore>
-7.068557580634

> <r_i_glide_lipo>
-3.8147749413837

> <r_i_glide_hbond>
-0.130289439208471

> <r_i_glide_metal>
0

> <r_i_glide_rewards>
-0.622921217835511

> <r_i_glide_evdw>
-40.0963401794434

> <r_i_glide_ecoul>
-9.30607795715332

> <r_i_glide_erotb>
0.900156720338857

> <r_i_glide_esite>
0

> <r_i_glide_emodel>
-69.1690058558271

> <r_i_glide_energy>
-49.4024181365967

> <r_i_glide_einternal>
4.95401954650879

> <i_i_glide_confnum>
161

> <i_i_glide_posenum>
350

> <r_i_glide_eff_state_penalty>
0

> <s_user_duplicate_titles>
CHEMBL2083_lig163

> <i_f3d_flags>
0

> <s_m_subgroup_title>
dock_pv

> <s_m_subgroupid>
dock_pv

> <b_m_subgroup_collapsed>
1

$$$$
CHEMBL2083_lig31
                    3D
 Schrodinger Suite 2021-1.
 46 49  0  0  1  0            999 V2000
    8.0459    8.1093   17.8237 C   0  0  0  0  0  0
    7.3644    7.5439   16.7590 C   0  0  0  0  0  0
    6.0960    6.9580   16.8870 C   0  0  0  0  0  0
    7.4950    8.1175   19.0942 C   0  0  0  0  0  0
    6.2393    7.5316   19.3002 C   0  0  0  0  0  0
    5.5229    6.9518   18.1941 C   0  0  0  0  0  0
    4.3305    6.4473   18.7517 N   0  0  0  0  0  0
    5.4709    7.3452   20.4871 C   0  0  0  0  0  0
    4.3200    6.6768   20.1160 C   0  0  0  0  0  0
    3.2275    6.2213   21.0817 C   0  0  0  0  0  0
    3.4900    6.8053   22.4933 C   0  0  0  0  0  0
    4.9835    6.8174   22.8742 C   0  0  0  0  0  0
    5.7985    7.7197   21.9252 C   0  0  0  0  0  0
    3.2125    5.7837   18.0752 C   0  0  0  0  0  0
    2.0831    6.7306   17.6718 C   0  0  0  0  0  0
    2.3551    7.9990   17.1433 C   0  0  0  0  0  0
    1.3198    8.8616   16.7558 C   0  0  0  0  0  0
   -0.0004    8.4481   16.9419 C   0  0  0  0  0  0
   -0.2845    7.1902   17.4712 C   0  0  0  0  0  0
    0.7530    6.3294   17.8225 C   0  0  0  0  0  0
    5.4655    6.3921   15.6411 C   0  0  0  0  0  0
    6.3199    5.6770   14.8593 O   0  0  0  0  0  0
    4.2923    6.5680   15.3327 O   0  0  0  0  0  0
    1.5201   10.1026   16.1831 O   0  0  0  0  0  0
    2.8470   10.5514   15.9267 C   0  0  0  0  0  0
    9.0266    8.5327   17.6604 H   0  0  0  0  0  0
    7.8546    7.5592   15.7955 H   0  0  0  0  0  0
    8.0422    8.5473   19.9212 H   0  0  0  0  0  0
    2.2386    6.5093   20.7297 H   0  0  0  0  0  0
    3.2382    5.1324   21.1522 H   0  0  0  0  0  0
    3.1164    7.8281   22.5422 H   0  0  0  0  0  0
    2.9168    6.2461   23.2347 H   0  0  0  0  0  0
    5.1199    7.1549   23.9024 H   0  0  0  0  0  0
    5.3716    5.7970   22.8400 H   0  0  0  0  0  0
    6.8617    7.5949   22.1320 H   0  0  0  0  0  0
    5.5673    8.7684   22.1067 H   0  0  0  0  0  0
    3.5741    5.2162   17.2233 H   0  0  0  0  0  0
    2.8183    5.0202   18.7498 H   0  0  0  0  0  0
    3.3815    8.3030   17.0198 H   0  0  0  0  0  0
   -0.8098    9.0984   16.6491 H   0  0  0  0  0  0
   -1.3072    6.8763   17.6003 H   0  0  0  0  0  0
    0.5178    5.3544   18.2210 H   0  0  0  0  0  0
    5.8316    5.3324   14.1025 H   0  0  0  0  0  0
    2.8086   11.5342   15.4565 H   0  0  0  0  0  0
    3.4215   10.6484   16.8493 H   0  0  0  0  0  0
    3.3737    9.8798   15.2463 H   0  0  0  0  0  0
  1  2  2  0  0  0
  1  4  1  0  0  0
  1 26  1  0  0  0
  2  3  1  0  0  0
  2 27  1  0  0  0
  3  6  2  0  0  0
  3 21  1  0  0  0
  4  5  2  0  0  0
  4 28  1  0  0  0
  5  8  1  0  0  0
  5  6  1  0  0  0
  6  7  1  0  0  0
  7 14  1  0  0  0
  7  9  1  0  0  0
  8  9  2  0  0  0
  8 13  1  0  0  0
  9 10  1  0  0  0
 10 11  1  0  0  0
 10 29  1  0  0  0
 10 30  1  0  0  0
 11 12  1  0  0  0
 11 31  1  0  0  0
 11 32  1  0  0  0
 12 13  1  0  0  0
 12 33  1  0  0  0
 12 34  1  0  0  0
 13 35  1  0  0  0
 13 36  1  0  0  0
 14 15  1  0  0  0
 14 37  1  0  0  0
 14 38  1  0  0  0
 15 16  2  0  0  0
 15 20  1  0  0  0
 16 17  1  0  0  0
 16 39  1  0  0  0
 17 18  2  0  0  0
 17 24  1  0  0  0
 18 19  1  0  0  0
 18 40  1  0  0  0
 19 20  2  0  0  0
 19 41  1  0  0  0
 20 42  1  0  0  0
 21 22  1  0  0  0
 21 23  2  0  0  0
 22 43  1  0  0  0
 24 25  1  0  0  0
 25 44  1  0  0  0
 25 45  1  0  0  0
 25 46  1  0  0  0
M  END
> <s_m_entry_id>
2600

> <s_m_entry_name>
dock_pv.128

> <s_m_Source_Path>
/home/csk/Desktop/cluster/DUD-E-result/fabp4

> <s_m_Source_File>
dock_pv.maegz

> <i_m_Source_File_Index>
128

> <chembl_id>
CHEMBL514666

> <chembl_pref_name>
None

> <i_lp_mmshare_version>
53161

> <r_lp_tautomer_probability>
1

> <s_lp_Force_Field>
OPLS_2005

> <r_lp_Energy>
26.286767

> <b_lp_Chiralities_Consistent>
1

> <s_lp_Variant>
CHEMBL2083_lig31-1

> <s_i_glide_gridfile>
glide-grid_2nnq

> <i_i_glide_lignum>
41

> <i_i_glide_rotatable_bonds>
5

> <r_i_docking_score>
-7.0636570192467

> <r_i_glide_ligand_efficiency>
-0.282546280769868

> <r_i_glide_ligand_efficiency_sa>
-0.82617033595072

> <r_i_glide_ligand_efficiency_ln>
-1.67429839428075

> <r_i_glide_gscore>
-7.0636570192467

> <r_i_glide_lipo>
-3.79292311429197

> <r_i_glide_hbond>
0

> <r_i_glide_metal>
0

> <r_i_glide_rewards>
-1.50397961668232

> <r_i_glide_evdw>
-35.4707183837891

> <r_i_glide_ecoul>
-3.31025624275208

> <r_i_glide_erotb>
0.503320067329862

> <r_i_glide_esite>
0

> <r_i_glide_emodel>
-55.4891748888107

> <r_i_glide_energy>
-38.7809746265411

> <r_i_glide_einternal>
2.38120579719543

> <i_i_glide_confnum>
22

> <i_i_glide_posenum>
280

> <r_i_glide_eff_state_penalty>
0

> <s_user_duplicate_titles>
CHEMBL2083_lig31,457576

> <i_f3d_flags>
0

> <s_m_subgroup_title>
dock_pv

> <s_m_subgroupid>
dock_pv

> <b_m_subgroup_collapsed>
1

$$$$
CHEMBL2083_lig25
                    3D
 Schrodinger Suite 2021-1.
 29 31  0  0  1  0            999 V2000
    3.7276    8.9189   16.9740 S   0  0  0  0  0  0
    2.3358    7.9275   17.2208 N   0  0  0  0  0  0
    3.1237   10.4184   16.1079 C   0  0  0  0  0  0
    2.9474   11.7429   16.5898 C   0  0  0  0  0  0
    2.3319    6.6284   17.7162 C   0  0  0  0  0  0
    1.0356    8.3163   16.9770 C   0  0  0  0  0  0
    3.2046   12.3367   17.8978 C   0  0  0  0  0  0
    2.7714   10.3041   14.7514 C   0  0  0  0  0  0
    2.3172   12.7670   15.3074 S   0  0  0  0  0  0
    0.1729    7.2814   17.2582 C   0  0  0  0  0  0
    4.5529    8.1817   16.0086 O   0  0  0  0  0  0
    4.2309    9.2335   18.3122 O   0  0  0  0  0  0
    0.9691    6.1885   17.7197 C   0  0  0  0  0  0
    2.2877   11.4662   14.1870 C   0  0  0  0  0  0
    3.3687    5.7860   18.1516 C   0  0  0  0  0  0
    3.5172   11.7089   18.9047 O   0  0  0  0  0  0
    3.1197   13.6990   17.8938 O   0  0  0  0  0  0
    4.6645    6.1719   18.1615 F   0  0  0  0  0  0
    1.7031    4.0621   18.5899 C   0  0  0  0  0  0
    0.6725    4.8834   18.1420 C   0  0  0  0  0  0
    3.0202    4.5103   18.5935 C   0  0  0  0  0  0
    0.8194    9.3089   16.6103 H   0  0  0  0  0  0
    2.8481    9.3754   14.2038 H   0  0  0  0  0  0
   -0.9001    7.3126   17.1476 H   0  0  0  0  0  0
    1.9199   11.6247   13.1837 H   0  0  0  0  0  0
    3.7101   14.0986   18.5421 H   0  0  0  0  0  0
    1.4780    3.0637   18.9395 H   0  0  0  0  0  0
   -0.3462    4.5235   18.1418 H   0  0  0  0  0  0
    3.8011    3.8514   18.9435 H   0  0  0  0  0  0
  1  2  1  0  0  0
  1  3  1  0  0  0
  1 11  2  0  0  0
  1 12  2  0  0  0
  2  5  1  0  0  0
  2  6  1  0  0  0
  3  4  2  0  0  0
  3  8  1  0  0  0
  4  7  1  0  0  0
  4  9  1  0  0  0
  5 13  1  0  0  0
  5 15  2  0  0  0
  6 10  2  0  0  0
  6 22  1  0  0  0
  7 16  2  0  0  0
  7 17  1  0  0  0
  8 14  2  0  0  0
  8 23  1  0  0  0
  9 14  1  0  0  0
 10 13  1  0  0  0
 10 24  1  0  0  0
 13 20  2  0  0  0
 14 25  1  0  0  0
 15 18  1  0  0  0
 15 21  1  0  0  0
 17 26  1  0  0  0
 19 21  2  0  0  0
 19 20  1  0  0  0
 19 27  1  0  0  0
 20 28  1  0  0  0
 21 29  1  0  0  0
M  END
> <s_m_entry_id>
2601

> <s_m_entry_name>
dock_pv.129

> <s_m_Source_Path>
/home/csk/Desktop/cluster/DUD-E-result/fabp4

> <s_m_Source_File>
dock_pv.maegz

> <i_m_Source_File_Index>
129

> <chembl_id>
CHEMBL181645

> <chembl_pref_name>
None

> <i_lp_mmshare_version>
53161

> <r_lp_tautomer_probability>
1

> <s_lp_Force_Field>
OPLS_2005

> <r_lp_Energy>
5.658885

> <b_lp_Chiralities_Consistent>
1

> <s_lp_Variant>
CHEMBL2083_lig25-1

> <s_i_glide_gridfile>
glide-grid_2nnq

> <i_i_glide_lignum>
35

> <i_i_glide_rotatable_bonds>
4

> <r_i_docking_score>
-7.06295474749412

> <r_i_glide_ligand_efficiency>
-0.336331178452101

> <r_i_glide_ligand_efficiency_sa>
-0.927912218560571

> <r_i_glide_ligand_efficiency_ln>
-1.74630128927402

> <r_i_glide_gscore>
-7.06295474749412

> <r_i_glide_lipo>
-3.04083148325385

> <r_i_glide_hbond>
-0.166792702543349

> <r_i_glide_metal>
0

> <r_i_glide_rewards>
-1.68835766760299

> <r_i_glide_evdw>
-37.8646697998047

> <r_i_glide_ecoul>
-5.10239171981812

> <r_i_glide_erotb>
0.531153389109475

> <r_i_glide_esite>
-0.0395340352404561

> <r_i_glide_emodel>
-58.9880123457597

> <r_i_glide_energy>
-42.9670615196228

> <r_i_glide_einternal>
7.36056900024414

> <i_i_glide_confnum>
8

> <i_i_glide_posenum>
210

> <r_i_glide_eff_state_penalty>
0

> <s_user_duplicate_titles>
CHEMBL2083_lig25

> <i_f3d_flags>
0

> <s_m_subgroup_title>
dock_pv

> <s_m_subgroupid>
dock_pv

> <b_m_subgroup_collapsed>
1

$$$$
CHEMBL2083_lig41
                    3D
 Schrodinger Suite 2021-1.
 42 45  0  0  1  0            999 V2000
    7.8018    8.4598   17.8218 C   0  0  0  0  0  0
    7.2280    7.8528   16.7145 C   0  0  0  0  0  0
    6.0377    7.1210   16.7885 C   0  0  0  0  0  0
    7.2172    8.3537   19.0755 C   0  0  0  0  0  0
    6.0299    7.6221   19.2192 C   0  0  0  0  0  0
    5.4289    7.0059   18.0666 C   0  0  0  0  0  0
    4.2687    6.3714   18.5361 N   0  0  0  0  0  0
    5.2302    7.3090   20.3611 C   0  0  0  0  0  0
    4.1753    6.5393   19.9066 C   0  0  0  0  0  0
    3.0848    5.9289   20.7921 C   0  0  0  0  0  0
    3.2590    6.3781   22.2662 C   0  0  0  0  0  0
    4.7288    6.5774   22.6848 C   0  0  0  0  0  0
    5.4295    7.6550   21.8290 C   0  0  0  0  0  0
    3.2361    5.6742   17.7596 C   0  0  0  0  0  0
    2.0233    6.5459   17.4477 C   0  0  0  0  0  0
    2.1862    7.8175   16.8871 C   0  0  0  0  0  0
    1.0745    8.6163   16.6386 C   0  0  0  0  0  0
   -0.1989    8.1423   16.9419 C   0  0  0  0  0  0
   -0.3689    6.8784   17.4983 C   0  0  0  0  0  0
    0.7405    6.0754   17.7437 C   0  0  0  0  0  0
    5.5107    6.5116   15.5251 C   0  0  0  0  0  0
    5.8557    5.2062   15.3420 O   0  0  0  0  0  0
    4.8612    7.1596   14.7112 O   0  0  0  0  0  0
   -1.2795    8.9088   16.6731 F   0  0  0  0  0  0
    8.7199    9.0164   17.7070 H   0  0  0  0  0  0
    7.7365    7.9531   15.7655 H   0  0  0  0  0  0
    7.6810    8.8206   19.9316 H   0  0  0  0  0  0
    2.0873    6.1982   20.4442 H   0  0  0  0  0  0
    3.1544    4.8417   20.7494 H   0  0  0  0  0  0
    2.7199    7.3093   22.4320 H   0  0  0  0  0  0
    2.7805    5.6537   22.9268 H   0  0  0  0  0  0
    4.7865    6.8504   23.7393 H   0  0  0  0  0  0
    5.2647    5.6318   22.5871 H   0  0  0  0  0  0
    6.4886    7.6912   22.0859 H   0  0  0  0  0  0
    5.0191    8.6418   22.0439 H   0  0  0  0  0  0
    3.6470    5.2703   16.8405 H   0  0  0  0  0  0
    2.9302    4.7937   18.3269 H   0  0  0  0  0  0
    3.1698    8.1933   16.6459 H   0  0  0  0  0  0
    1.1976    9.5964   16.2026 H   0  0  0  0  0  0
   -1.3581    6.5215   17.7363 H   0  0  0  0  0  0
    0.5978    5.0951   18.1754 H   0  0  0  0  0  0
    5.5203    4.9104   14.4825 H   0  0  0  0  0  0
  1  2  2  0  0  0
  1  4  1  0  0  0
  1 25  1  0  0  0
  2  3  1  0  0  0
  2 26  1  0  0  0
  3  6  2  0  0  0
  3 21  1  0  0  0
  4  5  2  0  0  0
  4 27  1  0  0  0
  5  8  1  0  0  0
  5  6  1  0  0  0
  6  7  1  0  0  0
  7 14  1  0  0  0
  7  9  1  0  0  0
  8 13  1  0  0  0
  8  9  2  0  0  0
  9 10  1  0  0  0
 10 11  1  0  0  0
 10 28  1  0  0  0
 10 29  1  0  0  0
 11 12  1  0  0  0
 11 30  1  0  0  0
 11 31  1  0  0  0
 12 13  1  0  0  0
 12 32  1  0  0  0
 12 33  1  0  0  0
 13 34  1  0  0  0
 13 35  1  0  0  0
 14 15  1  0  0  0
 14 36  1  0  0  0
 14 37  1  0  0  0
 15 16  2  0  0  0
 15 20  1  0  0  0
 16 17  1  0  0  0
 16 38  1  0  0  0
 17 18  2  0  0  0
 17 39  1  0  0  0
 18 19  1  0  0  0
 18 24  1  0  0  0
 19 20  2  0  0  0
 19 40  1  0  0  0
 20 41  1  0  0  0
 21 22  1  0  0  0
 21 23  2  0  0  0
 22 42  1  0  0  0
M  END
> <s_m_entry_id>
2602

> <s_m_entry_name>
dock_pv.130

> <s_m_Source_Path>
/home/csk/Desktop/cluster/DUD-E-result/fabp4

> <s_m_Source_File>
dock_pv.maegz

> <i_m_Source_File_Index>
130

> <chembl_id>
CHEMBL515905

> <chembl_pref_name>
None

> <i_lp_mmshare_version>
53161

> <r_lp_tautomer_probability>
1

> <s_lp_Force_Field>
OPLS_2005

> <r_lp_Energy>
23.510178

> <b_lp_Chiralities_Consistent>
1

> <s_lp_Variant>
CHEMBL2083_lig41-1

> <s_i_glide_gridfile>
glide-grid_2nnq

> <i_i_glide_lignum>
51

> <i_i_glide_rotatable_bonds>
4

> <r_i_docking_score>
-7.06000999724346

> <r_i_glide_ligand_efficiency>
-0.294167083218477

> <r_i_glide_ligand_efficiency_sa>
-0.84852469784198

> <r_i_glide_ligand_efficiency_ln>
-1.68978435508944

> <r_i_glide_gscore>
-7.06000999724346

> <r_i_glide_lipo>
-3.54431060964202

> <r_i_glide_hbond>
0

> <r_i_glide_metal>
0

> <r_i_glide_rewards>
-1.62476050482683

> <r_i_glide_evdw>
-34.5702056884766

> <r_i_glide_ecoul>
-4.27740001678467

> <r_i_glide_erotb>
0.536894890376446

> <r_i_glide_esite>
-0.0577134862095305

> <r_i_glide_emodel>
-53.4787783485962

> <r_i_glide_energy>
-38.8476057052612

> <r_i_glide_einternal>
2.13082146644592

> <i_i_glide_confnum>
9

> <i_i_glide_posenum>
54

> <r_i_glide_eff_state_penalty>
0

> <s_user_duplicate_titles>
CHEMBL2083_lig41,457637

> <i_f3d_flags>
0

> <s_m_subgroup_title>
dock_pv

> <s_m_subgroupid>
dock_pv

> <b_m_subgroup_collapsed>
1

$$$$
CHEMBL2083_lig199
                    3D
 Schrodinger Suite 2021-1.
 41 45  0  0  1  0            999 V2000
    2.1789    9.3302   16.5354 C   0  0  0  0  0  0
    2.4872    8.1858   17.3843 N   0  0  0  0  0  0
    1.8329    6.9263   17.0057 C   0  0  2  0  0  0
    3.5263    8.1820   18.3143 C   0  0  0  0  0  0
    4.5296    9.1735   18.2592 C   0  0  0  0  0  0
    5.5457    9.1245   19.2215 C   0  0  0  0  0  0
    5.5635    8.1497   20.2118 C   0  0  0  0  0  0
    4.5529    7.1990   20.2631 C   0  0  0  0  0  0
    3.5208    7.1845   19.3206 C   0  0  0  0  0  0
    4.5807   10.2230   17.1395 C   0  0  1  0  0  0
    3.3035   10.3572   16.2815 C   0  0  2  0  0  0
    2.8314   11.8206   16.3792 C   0  0  0  0  0  0
    3.9176   12.5063   17.1654 C   0  0  0  0  0  0
    4.8533   11.6456   17.5946 C   0  0  0  0  0  0
    1.3322    6.2212   18.3062 C   0  0  2  0  0  0
    2.3627    6.1776   19.4539 C   0  0  1  0  0  0
    2.7107    4.7055   19.5463 C   0  0  0  0  0  0
    1.8184    3.9471   18.8834 C   0  0  0  0  0  0
    0.7994    4.7900   18.1417 C   0  0  0  0  0  0
    2.8395    6.1093   16.1351 C   0  0  0  0  0  0
    2.7201    6.3944   14.8041 O   0  0  0  0  0  0
    3.6673    5.3190   16.5887 O   0  0  0  0  0  0
    6.8379    8.1196   21.3746 Cl  0  0  0  0  0  0
    1.4654    9.1703   15.7348 H   0  0  0  0  0  0
    1.6029    9.8737   17.2845 H   0  0  0  0  0  0
    0.9686    7.0985   16.3629 H   0  0  0  0  0  0
    6.3444    9.8505   19.1948 H   0  0  0  0  0  0
    4.5645    6.4663   21.0563 H   0  0  0  0  0  0
    5.3998    9.9006   16.4940 H   0  0  0  0  0  0
    3.5844   10.2324   15.2334 H   0  0  0  0  0  0
    2.7283   12.2793   15.3936 H   0  0  0  0  0  0
    1.8858   11.9426   16.9063 H   0  0  0  0  0  0
    3.9151   13.5731   17.3427 H   0  0  0  0  0  0
    5.7316   11.9172   18.1642 H   0  0  0  0  0  0
    0.5008    6.8343   18.6620 H   0  0  0  0  0  0
    1.8713    6.4484   20.3894 H   0  0  0  0  0  0
    3.5188    4.3410   20.1622 H   0  0  0  0  0  0
    1.8020    2.8670   18.8504 H   0  0  0  0  0  0
    0.7204    4.5099   17.0957 H   0  0  0  0  0  0
   -0.2065    4.6654   18.5390 H   0  0  0  0  0  0
    1.9785    6.9653   14.5830 H   0  0  0  0  0  0
  1 11  1  0  0  0
  1  2  1  0  0  0
  1 24  1  0  0  0
  1 25  1  0  0  0
  2  4  1  0  0  0
  2  3  1  0  0  0
  3 15  1  0  0  0
  3 20  1  0  0  0
  3 26  1  0  0  0
  4  5  2  0  0  0
  4  9  1  0  0  0
  5 10  1  0  0  0
  5  6  1  0  0  0
  6  7  2  0  0  0
  6 27  1  0  0  0
  7  8  1  0  0  0
  7 23  1  0  0  0
  8  9  2  0  0  0
  8 28  1  0  0  0
  9 16  1  0  0  0
 10 11  1  0  0  0
 10 14  1  0  0  0
 10 29  1  0  0  0
 11 12  1  0  0  0
 11 30  1  0  0  0
 12 13  1  0  0  0
 12 31  1  0  0  0
 12 32  1  0  0  0
 13 14  2  0  0  0
 13 33  1  0  0  0
 14 34  1  0  0  0
 15 16  1  0  0  0
 15 19  1  0  0  0
 15 35  1  0  0  0
 16 17  1  0  0  0
 16 36  1  0  0  0
 17 18  2  0  0  0
 17 37  1  0  0  0
 18 19  1  0  0  0
 18 38  1  0  0  0
 19 39  1  0  0  0
 19 40  1  0  0  0
 20 21  1  0  0  0
 20 22  2  0  0  0
 21 41  1  0  0  0
M  END
> <s_m_entry_id>
2603

> <s_m_entry_name>
dock_pv.131

> <s_m_Source_Path>
/home/csk/Desktop/cluster/DUD-E-result/fabp4

> <s_m_Source_File>
dock_pv.maegz

> <i_m_Source_File_Index>
131

> <chembl_id>
CHEMBL3828043

> <chembl_pref_name>
None

> <i_lp_mmshare_version>
53161

> <r_lp_tautomer_probability>
1

> <s_lp_Force_Field>
OPLS_2005

> <r_lp_Energy>
67.188594

> <b_lp_Chiralities_Consistent>
1

> <s_lp_Variant>
CHEMBL2083_lig199-19

> <s_i_glide_gridfile>
glide-grid_2nnq

> <i_i_glide_lignum>
360

> <i_i_glide_rotatable_bonds>
2

> <r_i_docking_score>
-7.05637801943532

> <r_i_glide_ligand_efficiency>
-0.306799044323275

> <r_i_glide_ligand_efficiency_sa>
-0.872495670689076

> <r_i_glide_ligand_efficiency_ln>
-1.70629618879782

> <r_i_glide_gscore>
-7.05637801943532

> <r_i_glide_lipo>
-3.09471447435706

> <r_i_glide_hbond>
0

> <r_i_glide_metal>
0

> <r_i_glide_rewards>
-1.62287234157942

> <r_i_glide_evdw>
-33.9163627624512

> <r_i_glide_ecoul>
-4.28648710250854

> <r_i_glide_erotb>
0

> <r_i_glide_esite>
0

> <r_i_glide_emodel>
-54.9616681174697

> <r_i_glide_energy>
-38.2028498649597

> <r_i_glide_einternal>
0.562505125999451

> <i_i_glide_confnum>
1

> <i_i_glide_posenum>
176

> <r_i_glide_eff_state_penalty>
0

> <s_user_duplicate_titles>
CHEMBL2083_lig199

> <i_f3d_flags>
0

> <s_m_subgroup_title>
dock_pv

> <s_m_subgroupid>
dock_pv

> <b_m_subgroup_collapsed>
1

$$$$
CHEMBL2083_lig6
                    3D
 Schrodinger Suite 2021-1.
 35 36  0  0  1  0            999 V2000
    1.9170    4.7935   20.1415 F   0  0  0  0  0  0
    1.6088    4.3699   18.9143 C   0  0  0  0  0  0
    0.4496    3.7087   18.9419 F   0  0  0  0  0  0
    2.5491    3.5011   18.5427 F   0  0  0  0  0  0
    1.5229    5.5806   17.9799 C   0  0  0  0  0  0
    2.6495    5.8788   17.2786 N   0  0  0  0  0  0
    0.3452    6.3317   17.8308 C   0  0  0  0  0  0
    0.3736    7.4406   16.9780 C   0  0  0  0  0  0
   -0.8054    8.1288   16.8562 O   0  0  0  0  0  0
    1.5112    7.7624   16.3042 N   0  0  0  0  0  0
    2.5827    6.9406   16.4411 C   0  0  0  0  0  0
    3.9726    7.1654   15.3702 S   0  0  0  0  0  0
    3.6245    8.5180   14.1907 C   0  0  0  0  0  0
    4.3824    9.8168   14.5135 C   0  0  0  0  0  0
    5.5198    9.7119   14.9796 O   0  0  0  0  0  0
    3.8670   11.0224   14.1421 N   0  0  0  0  0  0
    4.5758   12.2635   14.5052 C   0  0  0  0  0  0
    3.9840   12.7451   15.8551 C   0  0  0  0  0  0
    2.4410   12.8622   15.8242 C   0  0  0  0  0  0
    1.7724   11.6197   15.2007 C   0  0  0  0  0  0
    2.4376   11.2570   13.8621 C   0  0  0  0  0  0
   -0.5597    6.0708   18.3556 H   0  0  0  0  0  0
   -1.5363    7.7145   17.3253 H   0  0  0  0  0  0
    2.5530    8.6824   14.1827 H   0  0  0  0  0  0
    3.8992    8.1930   13.1881 H   0  0  0  0  0  0
    4.3739   12.9829   13.7125 H   0  0  0  0  0  0
    5.6616   12.1552   14.4881 H   0  0  0  0  0  0
    4.4210   13.7075   16.1261 H   0  0  0  0  0  0
    4.2885   12.0607   16.6487 H   0  0  0  0  0  0
    2.0578   13.0404   16.8289 H   0  0  0  0  0  0
    2.1588   13.7269   15.2256 H   0  0  0  0  0  0
    1.8062   10.7690   15.8835 H   0  0  0  0  0  0
    0.7198   11.8241   15.0181 H   0  0  0  0  0  0
    2.3813   12.1186   13.1978 H   0  0  0  0  0  0
    1.9343   10.5089   13.2582 H   0  0  0  0  0  0
  1  2  1  0  0  0
  2  3  1  0  0  0
  2  4  1  0  0  0
  2  5  1  0  0  0
  5  6  2  0  0  0
  5  7  1  0  0  0
  6 11  1  0  0  0
  7  8  2  0  0  0
  7 22  1  0  0  0
  8  9  1  0  0  0
  8 10  1  0  0  0
  9 23  1  0  0  0
 10 11  2  0  0  0
 11 12  1  0  0  0
 12 13  1  0  0  0
 13 14  1  0  0  0
 13 24  1  0  0  0
 13 25  1  0  0  0
 14 15  2  0  0  0
 14 16  1  0  0  0
 16 17  1  0  0  0
 16 21  1  0  0  0
 17 18  1  0  0  0
 17 26  1  0  0  0
 17 27  1  0  0  0
 18 19  1  0  0  0
 18 28  1  0  0  0
 18 29  1  0  0  0
 19 20  1  0  0  0
 19 30  1  0  0  0
 19 31  1  0  0  0
 20 21  1  0  0  0
 20 32  1  0  0  0
 20 33  1  0  0  0
 21 34  1  0  0  0
 21 35  1  0  0  0
M  END
> <s_m_entry_id>
2604

> <s_m_entry_name>
dock_pv.132

> <s_m_Source_Path>
/home/csk/Desktop/cluster/DUD-E-result/fabp4

> <s_m_Source_File>
dock_pv.maegz

> <i_m_Source_File_Index>
132

> <chembl_id>
CHEMBL360376

> <chembl_pref_name>
None

> <i_lp_mmshare_version>
53161

> <r_lp_tautomer_probability>
0.0660144953277732

> <s_lp_Force_Field>
OPLS_2005

> <r_lp_Energy>
14.954382

> <b_lp_Chiralities_Consistent>
1

> <s_lp_Variant>
CHEMBL2083_lig6-3

> <s_i_glide_gridfile>
glide-grid_2nnq

> <i_i_glide_lignum>
8

> <i_i_glide_rotatable_bonds>
6

> <r_i_docking_score>
-7.05212914092828

> <r_i_glide_ligand_efficiency>
-0.335815673377537

> <r_i_glide_ligand_efficiency_sa>
-0.926489979148754

> <r_i_glide_ligand_efficiency_ln>
-1.74362467992582

> <r_i_glide_gscore>
-7.05212914092828

> <r_i_glide_lipo>
-2.73352083981551

> <r_i_glide_hbond>
-0.276715778123521

> <r_i_glide_metal>
0

> <r_i_glide_rewards>
-2.59000751226679

> <r_i_glide_evdw>
-31.1513233184814

> <r_i_glide_ecoul>
-2.91494607925415

> <r_i_glide_erotb>
0.542923067089725

> <r_i_glide_esite>
0

> <r_i_glide_emodel>
-48.1104871699024

> <r_i_glide_energy>
-34.0662693977356

> <r_i_glide_einternal>
3.8249135017395

> <i_i_glide_confnum>
11

> <i_i_glide_posenum>
387

> <r_i_glide_eff_state_penalty>
0

> <s_user_duplicate_titles>
CHEMBL2083_lig6

> <i_f3d_flags>
0

> <s_m_subgroup_title>
dock_pv

> <s_m_subgroupid>
dock_pv

> <b_m_subgroup_collapsed>
1

$$$$
CHEMBL2083_lig202
                    3D
 Schrodinger Suite 2021-1.
 56 60  0  0  1  0            999 V2000
    4.0085    9.6172   17.5762 C   0  0  2  0  0  0
    2.9852    8.5888   17.3702 N   0  0  0  0  0  0
    3.6283    7.3051   19.3420 C   0  0  0  0  0  0
    2.7558    7.5023   18.2447 C   0  0  0  0  0  0
    1.6185    6.6784   18.0648 C   0  0  0  0  0  0
    1.5171    5.5300   18.8665 C   0  0  0  0  0  0
    2.4198    5.2811   19.8905 C   0  0  0  0  0  0
    3.4410    6.1816   20.1501 C   0  0  0  0  0  0
    4.2779    9.7181   19.1077 C   0  0  1  0  0  0
    4.7283    8.3323   19.6039 C   0  0  1  0  0  0
    5.2669    8.6499   21.0105 C   0  0  2  0  0  0
    6.1155    9.9312   20.7776 C   0  0  2  0  0  0
    5.3144   10.7031   19.6989 C   0  0  0  0  0  0
    7.8991    9.7097   20.3346 S   0  0  0  0  0  0
    7.9428    8.7289   18.8606 C   0  0  0  0  0  0
    6.2171    7.3163   21.7412 Cl  0  0  0  0  0  0
    0.4872    7.0495   17.1114 C   0  0  0  0  0  0
    0.4107    8.1389   16.5453 O   0  0  0  0  0  0
   -0.4792    6.1072   16.9532 O   0  0  0  0  0  0
    3.6182   10.8817   16.7890 C   0  0  0  0  0  0
    3.2124   12.0218   17.4980 C   0  0  0  0  0  0
    2.7202   13.1413   16.8413 C   0  0  0  0  0  0
    2.5957   13.1382   15.4586 C   0  0  0  0  0  0
    3.0169   12.0364   14.7310 C   0  0  0  0  0  0
    3.5449   10.8979   15.3628 C   0  0  0  0  0  0
    7.6908    9.2872   17.5965 C   0  0  0  0  0  0
    7.4030    8.4277   16.5340 C   0  0  0  0  0  0
    7.4338    7.0485   16.6830 C   0  0  0  0  0  0
    7.7727    6.5089   17.9143 C   0  0  0  0  0  0
    8.0492    7.3433   18.9961 C   0  0  0  0  0  0
    7.7390   10.7392   17.3507 N   0  3  0  0  0  0
    6.8357   11.2531   16.6945 O   0  0  0  0  0  0
    8.7159   11.3466   17.7637 O   0  5  0  0  0  0
    3.9735    9.7705   14.4847 N   0  3  0  0  0  0
    4.8041    8.9620   14.8780 O   0  0  0  0  0  0
    3.5107    9.7085   13.3490 O   0  5  0  0  0  0
    4.9403    9.2753   17.1395 H   0  0  0  0  0  0
    2.3542    8.7467   16.5944 H   0  0  0  0  0  0
    0.7060    4.8260   18.7609 H   0  0  0  0  0  0
    2.2978    4.4114   20.5172 H   0  0  0  0  0  0
    4.0906    5.9852   20.9875 H   0  0  0  0  0  0
    3.3310    9.9723   19.5798 H   0  0  0  0  0  0
    5.5371    7.9680   18.9846 H   0  0  0  0  0  0
    4.4258    8.8954   21.6633 H   0  0  0  0  0  0
    6.1235   10.4978   21.7058 H   0  0  0  0  0  0
    5.9433   11.1383   18.9394 H   0  0  0  0  0  0
    4.8269   11.5699   20.1420 H   0  0  0  0  0  0
   -0.2936    5.3014   17.4315 H   0  0  0  0  0  0
    3.2389   12.0573   18.5736 H   0  0  0  0  0  0
    2.4147   14.0075   17.4105 H   0  0  0  0  0  0
    2.1969   14.0018   14.9423 H   0  0  0  0  0  0
    2.9281   12.0834   13.6552 H   0  0  0  0  0  0
    7.1507    8.8279   15.5705 H   0  0  0  0  0  0
    7.2068    6.4039   15.8463 H   0  0  0  0  0  0
    7.8032    5.4376   18.0272 H   0  0  0  0  0  0
    8.2653    6.9109   19.9608 H   0  0  0  0  0  0
  1  9  1  0  0  0
  1  2  1  0  0  0
  1 20  1  0  0  0
  1 37  1  0  0  0
  2  4  1  0  0  0
  2 38  1  0  0  0
  3 10  1  0  0  0
  3  4  2  0  0  0
  3  8  1  0  0  0
  4  5  1  0  0  0
  5  6  2  0  0  0
  5 17  1  0  0  0
  6  7  1  0  0  0
  6 39  1  0  0  0
  7  8  2  0  0  0
  7 40  1  0  0  0
  8 41  1  0  0  0
  9 10  1  0  0  0
  9 13  1  0  0  0
  9 42  1  0  0  0
 10 11  1  0  0  0
 10 43  1  0  0  0
 11 12  1  0  0  0
 11 16  1  0  0  0
 11 44  1  0  0  0
 12 13  1  0  0  0
 12 14  1  0  0  0
 12 45  1  0  0  0
 13 46  1  0  0  0
 13 47  1  0  0  0
 14 15  1  0  0  0
 15 26  2  0  0  0
 15 30  1  0  0  0
 17 18  2  0  0  0
 17 19  1  0  0  0
 19 48  1  0  0  0
 20 21  2  0  0  0
 20 25  1  0  0  0
 21 22  1  0  0  0
 21 49  1  0  0  0
 22 23  2  0  0  0
 22 50  1  0  0  0
 23 24  1  0  0  0
 23 51  1  0  0  0
 24 25  2  0  0  0
 24 52  1  0  0  0
 25 34  1  0  0  0
 26 27  1  0  0  0
 26 31  1  0  0  0
 27 28  2  0  0  0
 27 53  1  0  0  0
 28 29  1  0  0  0
 28 54  1  0  0  0
 29 30  2  0  0  0
 29 55  1  0  0  0
 30 56  1  0  0  0
 31 32  2  0  0  0
 31 33  1  0  0  0
 34 35  2  0  0  0
 34 36  1  0  0  0
M  CHG  4  31   1  33  -1  34   1  36  -1
M  END
> <s_m_entry_id>
2605

> <s_m_entry_name>
dock_pv.133

> <s_m_Source_Path>
/home/csk/Desktop/cluster/DUD-E-result/fabp4

> <s_m_Source_File>
dock_pv.maegz

> <i_m_Source_File_Index>
133

> <chembl_id>
CHEMBL3827527

> <chembl_pref_name>
None

> <i_lp_mmshare_version>
53161

> <r_lp_tautomer_probability>
1

> <s_lp_Force_Field>
OPLS_2005

> <r_lp_Energy>
64.499516

> <b_lp_Chiralities_Consistent>
1

> <s_lp_Variant>
CHEMBL2083_lig202-8

> <s_i_glide_gridfile>
glide-grid_2nnq

> <i_i_glide_lignum>
383

> <i_i_glide_rotatable_bonds>
7

> <r_i_docking_score>
-7.05195009059205

> <r_i_glide_ligand_efficiency>
-0.195887502516446

> <r_i_glide_ligand_efficiency_sa>
-0.646806281504353

> <r_i_glide_ligand_efficiency_ln>
-1.53854498809323

> <r_i_glide_gscore>
-7.05195009059205

> <r_i_glide_lipo>
-4.08459014557648

> <r_i_glide_hbond>
-0.00185835453799412

> <r_i_glide_metal>
0

> <r_i_glide_rewards>
-0.789177401567287

> <r_i_glide_evdw>
-51.5729827880859

> <r_i_glide_ecoul>
2.00507926940918

> <r_i_glide_erotb>
0.297662755552557

> <r_i_glide_esite>
-0.196099695469922

> <r_i_glide_emodel>
-44.1464721761421

> <r_i_glide_energy>
-49.5679035186768

> <r_i_glide_einternal>
17.2478446960449

> <i_i_glide_confnum>
66

> <i_i_glide_posenum>
6

> <r_i_glide_eff_state_penalty>
0

> <s_user_duplicate_titles>
CHEMBL2083_lig202

> <i_f3d_flags>
0

> <s_m_subgroup_title>
dock_pv

> <s_m_subgroupid>
dock_pv

> <b_m_subgroup_collapsed>
1

$$$$
CHEMBL2083_lig201
                    3D
 Schrodinger Suite 2021-1.
 41 43  0  0  1  0            999 V2000
    3.1292   12.4183   14.1420 Cl  0  0  0  0  0  0
    2.7734    6.6543   16.6362 S   0  0  0  0  0  0
    6.8272   10.2064   18.1128 S   0  0  0  0  0  0
    3.9499    5.9202   16.1540 O   0  0  0  0  0  0
    1.4221    6.1093   16.4749 O   0  0  0  0  0  0
    7.3951    9.2315   20.9174 O   0  0  0  0  0  0
    3.8752   10.8651   19.3417 O   0  0  0  0  0  0
    3.9200   12.9089   18.3294 O   0  0  0  0  0  0
    2.9670    6.8948   18.3810 N   0  0  0  0  0  0
    4.1310    7.3674   19.0131 C   0  0  0  0  0  0
    4.3812    7.0818   20.3908 C   0  0  0  0  0  0
    5.5161    7.6780   21.0378 C   0  0  0  0  0  0
    6.3312    8.5999   20.3164 C   0  0  0  0  0  0
    6.0308    8.8834   18.9837 C   0  0  0  0  0  0
    4.9969    8.2247   18.3343 C   0  0  0  0  0  0
    2.7781    8.2800   15.8797 C   0  0  0  0  0  0
    3.5378    6.2201   21.1524 C   0  0  0  0  0  0
    5.7769    7.3478   22.3959 C   0  0  0  0  0  0
    3.4199    8.4632   14.6513 C   0  0  0  0  0  0
    2.2040    9.3650   16.5461 C   0  0  0  0  0  0
    3.8085    5.9573   22.4891 C   0  0  0  0  0  0
    4.9238    6.5090   23.1013 C   0  0  0  0  0  0
    3.5196    9.7416   14.1068 C   0  0  0  0  0  0
    2.3187   10.6429   16.0066 C   0  0  0  0  0  0
    2.9761   10.8277   14.7919 C   0  0  0  0  0  0
    6.0405   11.7696   18.6646 C   0  0  0  0  0  0
    4.5036   11.7666   18.7967 C   0  0  0  0  0  0
    7.8728    9.7583   20.2713 H   0  0  0  0  0  0
    4.5699   13.6129   18.1420 H   0  0  0  0  0  0
    2.1668    6.6841   18.9557 H   0  0  0  0  0  0
    4.8177    8.4906   17.3076 H   0  0  0  0  0  0
    2.6756    5.7582   20.6946 H   0  0  0  0  0  0
    6.6276    7.7823   22.9001 H   0  0  0  0  0  0
    3.8561    7.6242   14.1283 H   0  0  0  0  0  0
    1.7126    9.2310   17.4983 H   0  0  0  0  0  0
    3.1556    5.3076   23.0538 H   0  0  0  0  0  0
    5.1206    6.2924   24.1406 H   0  0  0  0  0  0
    4.0228    9.8898   13.1620 H   0  0  0  0  0  0
    1.9185   11.4943   16.5383 H   0  0  0  0  0  0
    6.4854   12.0965   19.6046 H   0  0  0  0  0  0
    6.3239   12.5090   17.9185 H   0  0  0  0  0  0
  1 25  1  0  0  0
  2  4  2  0  0  0
  2  5  2  0  0  0
  2  9  1  0  0  0
  2 16  1  0  0  0
  3 14  1  0  0  0
  3 26  1  0  0  0
  6 13  1  0  0  0
  6 28  1  0  0  0
  7 27  2  0  0  0
  8 27  1  0  0  0
  8 29  1  0  0  0
  9 10  1  0  0  0
  9 30  1  0  0  0
 10 11  2  0  0  0
 10 15  1  0  0  0
 11 12  1  0  0  0
 11 17  1  0  0  0
 12 13  2  0  0  0
 12 18  1  0  0  0
 13 14  1  0  0  0
 14 15  2  0  0  0
 15 31  1  0  0  0
 16 19  2  0  0  0
 16 20  1  0  0  0
 17 21  2  0  0  0
 17 32  1  0  0  0
 18 22  2  0  0  0
 18 33  1  0  0  0
 19 23  1  0  0  0
 19 34  1  0  0  0
 20 24  2  0  0  0
 20 35  1  0  0  0
 21 22  1  0  0  0
 21 36  1  0  0  0
 22 37  1  0  0  0
 23 25  2  0  0  0
 23 38  1  0  0  0
 24 25  1  0  0  0
 24 39  1  0  0  0
 26 27  1  0  0  0
 26 40  1  0  0  0
 26 41  1  0  0  0
M  END
> <s_m_entry_id>
2606

> <s_m_entry_name>
dock_pv.134

> <s_m_Source_Path>
/home/csk/Desktop/cluster/DUD-E-result/fabp4

> <s_m_Source_File>
dock_pv.maegz

> <i_m_Source_File_Index>
134

> <chembl_id>
CHEMBL1564699

> <chembl_pref_name>
None

> <i_lp_mmshare_version>
53161

> <r_lp_tautomer_probability>
1

> <s_lp_Force_Field>
OPLS_2005

> <r_lp_Energy>
16.159518

> <b_lp_Chiralities_Consistent>
1

> <s_lp_Variant>
CHEMBL2083_lig201-1

> <s_i_glide_gridfile>
glide-grid_2nnq

> <i_i_glide_lignum>
375

> <i_i_glide_rotatable_bonds>
8

> <r_i_docking_score>
-7.03955405212461

> <r_i_glide_ligand_efficiency>
-0.260724224152763

> <r_i_glide_ligand_efficiency_sa>
-0.782172671598986

> <r_i_glide_ligand_efficiency_ln>
-1.63869212721578

> <r_i_glide_gscore>
-7.03955405212461

> <r_i_glide_lipo>
-3.33379759811567

> <r_i_glide_hbond>
-0.304

> <r_i_glide_metal>
0

> <r_i_glide_rewards>
-0.285052278726483

> <r_i_glide_evdw>
-42.5581588745117

> <r_i_glide_ecoul>
-10.4925537109375

> <r_i_glide_erotb>
0.661942172808937

> <r_i_glide_esite>
-0.0768553477251836

> <r_i_glide_emodel>
-71.54068292193

> <r_i_glide_energy>
-53.0507125854492

> <r_i_glide_einternal>
10.1053352355957

> <i_i_glide_confnum>
104

> <i_i_glide_posenum>
113

> <r_i_glide_eff_state_penalty>
0

> <s_user_duplicate_titles>
CHEMBL2083_lig201

> <i_f3d_flags>
0

> <s_m_subgroup_title>
dock_pv

> <s_m_subgroupid>
dock_pv

> <b_m_subgroup_collapsed>
1

$$$$
CHEMBL2083_lig87
                    3D
 Schrodinger Suite 2021-1.
 41 43  0  0  1  0            999 V2000
    5.7855   12.5101   16.1423 O   0  0  0  0  0  0
    4.9455   11.5110   15.7457 C   0  0  0  0  0  0
    5.1197   10.7904   14.7849 O   0  0  0  0  0  0
    3.7476   11.3267   16.6939 C   0  0  0  0  0  0
    2.4724   12.0049   16.2283 C   0  0  0  0  0  0
    3.1917   12.5352   17.4468 C   0  0  0  0  0  0
    3.6085    9.9739   17.2525 N   0  0  0  0  0  0
    3.9685    9.5890   18.4891 C   0  0  0  0  0  0
    4.1938   10.3817   19.4080 O   0  0  0  0  0  0
    4.0312    8.2428   18.6067 N   0  0  0  0  0  0
    4.2591    7.5545   19.8146 C   0  0  0  0  0  0
    5.3534    7.9092   20.6210 C   0  0  0  0  0  0
    5.5675    7.2872   21.8550 C   0  0  0  0  0  0
    4.6175    6.3875   22.3321 C   0  0  0  0  0  0
    3.5514    6.0102   21.5258 C   0  0  0  0  0  0
    3.3962    6.5093   20.2250 C   0  0  0  0  0  0
    2.3348    5.8881   19.3680 C   0  0  0  0  0  0
    1.4297    6.6466   18.6133 C   0  0  0  0  0  0
    0.4279    6.0276   17.8713 C   0  0  0  0  0  0
    0.3199    4.6405   17.8897 C   0  0  0  0  0  0
    1.2147    3.8652   18.6161 C   0  0  0  0  0  0
    2.2221    4.4891   19.3415 C   0  0  0  0  0  0
    6.8592    7.4821   22.6358 C   0  0  0  0  0  0
    7.5217    6.3379   22.5353 F   0  0  0  0  0  0
    7.6159    8.4609   22.1360 F   0  0  0  0  0  0
    6.6557    7.7090   23.9300 F   0  0  0  0  0  0
    5.5084   12.9991   16.9271 H   0  0  0  0  0  0
    1.5204   11.4864   16.3477 H   0  0  0  0  0  0
    2.4673   12.6759   15.3667 H   0  0  0  0  0  0
    3.5920   13.5435   17.3237 H   0  0  0  0  0  0
    2.7323   12.3947   18.4258 H   0  0  0  0  0  0
    3.3947    9.2544   16.5780 H   0  0  0  0  0  0
    3.7125    7.6805   17.8336 H   0  0  0  0  0  0
    6.0569    8.6482   20.2636 H   0  0  0  0  0  0
    4.7416    5.9209   23.2996 H   0  0  0  0  0  0
    2.8533    5.2869   21.9133 H   0  0  0  0  0  0
    1.4740    7.7227   18.6184 H   0  0  0  0  0  0
   -0.2773    6.6197   17.3063 H   0  0  0  0  0  0
   -0.4725    4.1555   17.3424 H   0  0  0  0  0  0
    1.1230    2.7889   18.6270 H   0  0  0  0  0  0
    2.9075    3.8747   19.9072 H   0  0  0  0  0  0
  1  2  1  0  0  0
  1 27  1  0  0  0
  2  3  2  0  0  0
  2  4  1  0  0  0
  4  5  1  0  0  0
  4  6  1  0  0  0
  4  7  1  0  0  0
  5  6  1  0  0  0
  5 28  1  0  0  0
  5 29  1  0  0  0
  6 30  1  0  0  0
  6 31  1  0  0  0
  7  8  1  0  0  0
  7 32  1  0  0  0
  8  9  2  0  0  0
  8 10  1  0  0  0
 10 11  1  0  0  0
 10 33  1  0  0  0
 11 12  2  0  0  0
 11 16  1  0  0  0
 12 13  1  0  0  0
 12 34  1  0  0  0
 13 14  2  0  0  0
 13 23  1  0  0  0
 14 15  1  0  0  0
 14 35  1  0  0  0
 15 16  2  0  0  0
 15 36  1  0  0  0
 16 17  1  0  0  0
 17 18  2  0  0  0
 17 22  1  0  0  0
 18 19  1  0  0  0
 18 37  1  0  0  0
 19 20  2  0  0  0
 19 38  1  0  0  0
 20 21  1  0  0  0
 20 39  1  0  0  0
 21 22  2  0  0  0
 21 40  1  0  0  0
 22 41  1  0  0  0
 23 24  1  0  0  0
 23 25  1  0  0  0
 23 26  1  0  0  0
M  END
> <s_m_entry_id>
2607

> <s_m_entry_name>
dock_pv.135

> <s_m_Source_Path>
/home/csk/Desktop/cluster/DUD-E-result/fabp4

> <s_m_Source_File>
dock_pv.maegz

> <i_m_Source_File_Index>
135

> <chembl_id>
CHEMBL3968270

> <chembl_pref_name>
None

> <i_lp_mmshare_version>
53161

> <r_lp_tautomer_probability>
1

> <s_lp_Force_Field>
OPLS_2005

> <r_lp_Energy>
31.278338

> <b_lp_Chiralities_Consistent>
1

> <s_lp_Variant>
CHEMBL2083_lig87-1

> <s_i_glide_gridfile>
glide-grid_2nnq

> <i_i_glide_lignum>
97

> <i_i_glide_rotatable_bonds>
8

> <r_i_docking_score>
-7.03660030941584

> <r_i_glide_ligand_efficiency>
-0.270638473439071

> <r_i_glide_ligand_efficiency_sa>
-0.801765412652277

> <r_i_glide_ligand_efficiency_ln>
-1.65252249369747

> <r_i_glide_gscore>
-7.03660030941584

> <r_i_glide_lipo>
-3.47759804115874

> <r_i_glide_hbond>
-0.191283650297898

> <r_i_glide_metal>
0

> <r_i_glide_rewards>
-1.48315420013941

> <r_i_glide_evdw>
-38.0564804077148

> <r_i_glide_ecoul>
-5.50887060165405

> <r_i_glide_erotb>
0.869000652778598

> <r_i_glide_esite>
-0.0244104599645339

> <r_i_glide_emodel>
-60.9435949275464

> <r_i_glide_energy>
-43.5653510093689

> <r_i_glide_einternal>
4.89058780670166

> <i_i_glide_confnum>
100

> <i_i_glide_posenum>
357

> <r_i_glide_eff_state_penalty>
0

> <s_user_duplicate_titles>
CHEMBL2083_lig87

> <i_f3d_flags>
0

> <s_m_subgroup_title>
dock_pv

> <s_m_subgroupid>
dock_pv

> <b_m_subgroup_collapsed>
1

$$$$
CHEMBL2083_lig198
                    3D
 Schrodinger Suite 2021-1.
 44 48  0  0  1  0            999 V2000
    5.6498    8.7536   19.5013 C   0  0  0  0  0  0
    4.7098    9.2596   18.4920 N   0  0  0  0  0  0
    5.0916   10.5389   17.8128 C   0  0  1  0  0  0
    3.5397    8.5491   18.1407 C   0  0  0  0  0  0
    3.2209    7.3265   18.7796 C   0  0  0  0  0  0
    2.0089    6.7022   18.4583 C   0  0  0  0  0  0
    1.1204    7.2499   17.5386 C   0  0  0  0  0  0
    1.4632    8.4253   16.8812 C   0  0  0  0  0  0
    2.6713    9.0758   17.1432 C   0  0  0  0  0  0
    4.1497    6.6408   19.7853 C   0  0  1  0  0  0
    5.5178    7.3092   20.0084 C   0  0  2  0  0  0
    5.8061    7.1986   21.5230 C   0  0  0  0  0  0
    4.4828    6.7941   22.1279 C   0  0  0  0  0  0
    3.5751    6.5087   21.1827 C   0  0  0  0  0  0
    3.8272   11.2443   17.2704 C   0  0  2  0  0  0
    3.1200   10.2924   16.3343 C   0  0  2  0  0  0
    2.1458   11.2325   15.6478 C   0  0  0  0  0  0
    2.6408   12.4865   15.6654 C   0  0  0  0  0  0
    3.9175   12.5561   16.4878 C   0  0  0  0  0  0
    5.8265   11.5258   18.7592 C   0  0  0  0  0  0
    7.1200   11.7090   18.3776 O   0  0  0  0  0  0
    5.3080   12.0514   19.7419 O   0  0  0  0  0  0
   -0.1938    6.5564   17.2230 C   0  0  0  0  0  0
    6.6746    9.1219   19.4366 H   0  0  0  0  0  0
    5.2338    9.2840   20.3605 H   0  0  0  0  0  0
    5.7897   10.3188   17.0037 H   0  0  0  0  0  0
    1.7513    5.7721   18.9448 H   0  0  0  0  0  0
    0.7878    8.8271   16.1423 H   0  0  0  0  0  0
    4.3159    5.6364   19.3906 H   0  0  0  0  0  0
    6.2904    6.7501   19.4786 H   0  0  0  0  0  0
    6.5685    6.4503   21.7420 H   0  0  0  0  0  0
    6.1471    8.1375   21.9624 H   0  0  0  0  0  0
    4.3322    6.7427   23.1965 H   0  0  0  0  0  0
    2.5680    6.1611   21.3588 H   0  0  0  0  0  0
    3.1732   11.4475   18.1269 H   0  0  0  0  0  0
    3.8038    9.9026   15.5765 H   0  0  0  0  0  0
    1.2659   10.9089   15.1151 H   0  0  0  0  0  0
    2.2118   13.3558   15.1862 H   0  0  0  0  0  0
    4.8159   12.6250   15.8735 H   0  0  0  0  0  0
    3.9193   13.4110   17.1655 H   0  0  0  0  0  0
    7.5367   12.3950   18.9208 H   0  0  0  0  0  0
   -0.2184    5.5324   17.5996 H   0  0  0  0  0  0
   -1.0290    7.1131   17.6492 H   0  0  0  0  0  0
   -0.3450    6.5058   16.1440 H   0  0  0  0  0  0
  1 11  1  0  0  0
  1  2  1  0  0  0
  1 24  1  0  0  0
  1 25  1  0  0  0
  2  4  1  0  0  0
  2  3  1  0  0  0
  3 15  1  0  0  0
  3 20  1  0  0  0
  3 26  1  0  0  0
  4  5  2  0  0  0
  4  9  1  0  0  0
  5 10  1  0  0  0
  5  6  1  0  0  0
  6  7  2  0  0  0
  6 27  1  0  0  0
  7  8  1  0  0  0
  7 23  1  0  0  0
  8  9  2  0  0  0
  8 28  1  0  0  0
  9 16  1  0  0  0
 10 11  1  0  0  0
 10 14  1  0  0  0
 10 29  1  0  0  0
 11 12  1  0  0  0
 11 30  1  0  0  0
 12 13  1  0  0  0
 12 31  1  0  0  0
 12 32  1  0  0  0
 13 14  2  0  0  0
 13 33  1  0  0  0
 14 34  1  0  0  0
 15 16  1  0  0  0
 15 19  1  0  0  0
 15 35  1  0  0  0
 16 17  1  0  0  0
 16 36  1  0  0  0
 17 18  2  0  0  0
 17 37  1  0  0  0
 18 19  1  0  0  0
 18 38  1  0  0  0
 19 39  1  0  0  0
 19 40  1  0  0  0
 20 21  1  0  0  0
 20 22  2  0  0  0
 21 41  1  0  0  0
 23 42  1  0  0  0
 23 43  1  0  0  0
 23 44  1  0  0  0
M  END
> <s_m_entry_id>
2608

> <s_m_entry_name>
dock_pv.136

> <s_m_Source_Path>
/home/csk/Desktop/cluster/DUD-E-result/fabp4

> <s_m_Source_File>
dock_pv.maegz

> <i_m_Source_File_Index>
136

> <chembl_id>
CHEMBL3827483

> <chembl_pref_name>
None

> <i_lp_mmshare_version>
53161

> <r_lp_tautomer_probability>
1

> <s_lp_Force_Field>
OPLS_2005

> <r_lp_Energy>
73.004632

> <b_lp_Chiralities_Consistent>
1

> <s_lp_Variant>
CHEMBL2083_lig198-4

> <s_i_glide_gridfile>
glide-grid_2nnq

> <i_i_glide_lignum>
313

> <i_i_glide_rotatable_bonds>
2

> <r_i_docking_score>
-7.02840681573929

> <r_i_glide_ligand_efficiency>
-0.305582905032143

> <r_i_glide_ligand_efficiency_sa>
-0.869037132319742

> <r_i_glide_ligand_efficiency_ln>
-1.69953249811526

> <r_i_glide_gscore>
-7.02840681573929

> <r_i_glide_lipo>
-3.05747112629791

> <r_i_glide_hbond>
0

> <r_i_glide_metal>
0

> <r_i_glide_rewards>
-1.53214109174233

> <r_i_glide_evdw>
-31.0385780334473

> <r_i_glide_ecoul>
-6.72066593170166

> <r_i_glide_erotb>
0.195647951793434

> <r_i_glide_esite>
-0.0744137580648757

> <r_i_glide_emodel>
-53.5154732614856

> <r_i_glide_energy>
-37.7592439651489

> <r_i_glide_einternal>
1.37667596340179

> <i_i_glide_confnum>
1

> <i_i_glide_posenum>
177

> <r_i_glide_eff_state_penalty>
0

> <s_user_duplicate_titles>
CHEMBL2083_lig198

> <i_f3d_flags>
0

> <s_m_subgroup_title>
dock_pv

> <s_m_subgroupid>
dock_pv

> <b_m_subgroup_collapsed>
1

$$$$
CHEMBL2083_lig176
                    3D
 Schrodinger Suite 2021-1.
 55 59  0  0  1  0            999 V2000
    4.3591    8.6602   15.7891 N   0  0  0  0  0  0
    3.1906    9.1131   16.1127 C   0  0  0  0  0  0
    4.3574    7.4157   16.2191 C   0  0  0  0  0  0
    3.1458    7.1093   16.8528 C   0  0  0  0  0  0
    2.3849    8.2277   16.7464 O   0  0  0  0  0  0
    2.7914   10.5190   16.0366 C   0  0  0  0  0  0
    3.1736   11.4555   17.0134 C   0  0  0  0  0  0
    4.1155   11.0904   18.1264 C   0  0  0  0  0  0
    5.5479    6.6156   15.8990 C   0  0  0  0  0  0
    6.6730    7.3098   21.5146 C   0  0  0  0  0  0
    2.5319    5.9400   17.5556 C   0  0  0  0  0  0
    3.9427    9.9505   18.9269 C   0  0  0  0  0  0
    7.2924    6.7995   22.4438 O   0  0  0  0  0  0
    4.6441    8.3581   20.5303 O   0  0  0  0  0  0
    5.3395    8.0330   21.7394 C   0  0  0  0  0  0
    4.8853    9.5523   19.8767 C   0  0  0  0  0  0
    7.1030    7.3100   20.2213 O   0  0  0  0  0  0
    5.2783   11.8354   18.3262 C   0  0  0  0  0  0
    2.1007   10.9084   14.8931 C   0  0  0  0  0  0
    2.7203   12.7740   16.8525 C   0  0  0  0  0  0
    6.2151   11.4868   19.2968 C   0  0  0  0  0  0
    5.8509    6.5089   14.5422 C   0  0  0  0  0  0
    1.1483    5.7395   17.4830 C   0  0  0  0  0  0
    3.3111    5.0576   18.3104 C   0  0  0  0  0  0
    6.3780    6.0502   16.8649 C   0  0  0  0  0  0
    6.0177   10.3507   20.0749 C   0  0  0  0  0  0
    1.9473   13.1353   15.7419 C   0  0  0  0  0  0
    1.6685   12.2142   14.7435 C   0  0  0  0  0  0
    6.9470    5.7733   14.1427 C   0  0  0  0  0  0
    0.5569    4.6625   18.1417 C   0  0  0  0  0  0
    2.7201    3.9840   18.9700 C   0  0  0  0  0  0
    7.4802    5.3090   16.4600 C   0  0  0  0  0  0
    7.7418    5.1509   15.0988 C   0  0  0  0  0  0
    1.3457    3.7878   18.8841 C   0  0  0  0  0  0
    3.0913    9.3127   18.7887 H   0  0  0  0  0  0
    4.6882    7.3980   22.3380 H   0  0  0  0  0  0
    5.5429    8.9183   22.3287 H   0  0  0  0  0  0
    7.9566    6.8813   20.1507 H   0  0  0  0  0  0
    5.4735   12.6874   17.6931 H   0  0  0  0  0  0
    1.9204   10.1915   14.1095 H   0  0  0  0  0  0
    2.9814   13.5290   17.5854 H   0  0  0  0  0  0
    7.1043   12.0880   19.4188 H   0  0  0  0  0  0
    5.2186    6.9650   13.7940 H   0  0  0  0  0  0
    0.5232    6.4126   16.9118 H   0  0  0  0  0  0
    4.3721    5.2029   18.4167 H   0  0  0  0  0  0
    6.1828    6.1977   17.9158 H   0  0  0  0  0  0
    6.7759   10.0823   20.7906 H   0  0  0  0  0  0
    1.5501   14.1310   15.6445 H   0  0  0  0  0  0
    1.1105   12.5053   13.8656 H   0  0  0  0  0  0
    7.1223    5.6841   13.0853 H   0  0  0  0  0  0
   -0.5071    4.5074   18.0831 H   0  0  0  0  0  0
    3.3222    3.3088   19.5589 H   0  0  0  0  0  0
    8.1257    4.8613   17.1997 H   0  0  0  0  0  0
    8.5769    4.5421   14.7802 H   0  0  0  0  0  0
    0.8891    2.9575   19.4041 H   0  0  0  0  0  0
  1  2  2  0  0  0
  1  3  1  0  0  0
  2  5  1  0  0  0
  2  6  1  0  0  0
  3  4  2  0  0  0
  3  9  1  0  0  0
  4 11  1  0  0  0
  4  5  1  0  0  0
  6  7  1  0  0  0
  6 19  2  0  0  0
  7  8  1  0  0  0
  7 20  2  0  0  0
  8 12  1  0  0  0
  8 18  2  0  0  0
  9 22  1  0  0  0
  9 25  2  0  0  0
 10 15  1  0  0  0
 10 13  2  0  0  0
 10 17  1  0  0  0
 11 23  2  0  0  0
 11 24  1  0  0  0
 12 16  2  0  0  0
 12 35  1  0  0  0
 14 16  1  0  0  0
 14 15  1  0  0  0
 15 36  1  0  0  0
 15 37  1  0  0  0
 16 26  1  0  0  0
 17 38  1  0  0  0
 18 21  1  0  0  0
 18 39  1  0  0  0
 19 28  1  0  0  0
 19 40  1  0  0  0
 20 27  1  0  0  0
 20 41  1  0  0  0
 21 26  2  0  0  0
 21 42  1  0  0  0
 22 29  2  0  0  0
 22 43  1  0  0  0
 23 30  1  0  0  0
 23 44  1  0  0  0
 24 31  2  0  0  0
 24 45  1  0  0  0
 25 32  1  0  0  0
 25 46  1  0  0  0
 26 47  1  0  0  0
 27 28  2  0  0  0
 27 48  1  0  0  0
 28 49  1  0  0  0
 29 33  1  0  0  0
 29 50  1  0  0  0
 30 34  2  0  0  0
 30 51  1  0  0  0
 31 34  1  0  0  0
 31 52  1  0  0  0
 32 33  2  0  0  0
 32 53  1  0  0  0
 33 54  1  0  0  0
 34 55  1  0  0  0
M  END
> <s_m_entry_id>
2609

> <s_m_entry_name>
dock_pv.137

> <s_m_Source_Path>
/home/csk/Desktop/cluster/DUD-E-result/fabp4

> <s_m_Source_File>
dock_pv.maegz

> <i_m_Source_File_Index>
137

> <chembl_id>
CHEMBL126078

> <chembl_pref_name>
None

> <i_lp_mmshare_version>
53161

> <r_lp_tautomer_probability>
1

> <s_lp_Force_Field>
OPLS_2005

> <r_lp_Energy>
35.179493

> <b_lp_Chiralities_Consistent>
1

> <s_lp_Variant>
CHEMBL2083_lig176-1

> <s_i_glide_gridfile>
glide-grid_2nnq

> <i_i_glide_lignum>
192

> <i_i_glide_rotatable_bonds>
8

> <r_i_docking_score>
-7.02440014828811

> <r_i_glide_ligand_efficiency>
-0.206600004361415

> <r_i_glide_ligand_efficiency_sa>
-0.669303811486484

> <r_i_glide_ligand_efficiency_ln>
-1.55188702050723

> <r_i_glide_gscore>
-7.02440014828811

> <r_i_glide_lipo>
-4.14932164363385

> <r_i_glide_hbond>
0

> <r_i_glide_metal>
0

> <r_i_glide_rewards>
-0.949643176934083

> <r_i_glide_evdw>
-43.2328796386719

> <r_i_glide_ecoul>
-3.09217691421509

> <r_i_glide_erotb>
0.700035191345681

> <r_i_glide_esite>
0

> <r_i_glide_emodel>
-55.34429964601

> <r_i_glide_energy>
-46.325056552887

> <r_i_glide_einternal>
7.71369647979736

> <i_i_glide_confnum>
136

> <i_i_glide_posenum>
367

> <r_i_glide_eff_state_penalty>
0

> <s_user_duplicate_titles>
CHEMBL2083_lig176,210705

> <i_f3d_flags>
0

> <s_m_subgroup_title>
dock_pv

> <s_m_subgroupid>
dock_pv

> <b_m_subgroup_collapsed>
1

$$$$
CHEMBL2083_lig199
                    3D
 Schrodinger Suite 2021-1.
 41 45  0  0  1  0            999 V2000
    2.3628    9.2807   16.1332 C   0  0  0  0  0  0
    2.4816    8.2494   17.1841 N   0  0  0  0  0  0
    1.8436    6.9625   16.8636 C   0  0  2  0  0  0
    3.5217    8.2699   18.1404 C   0  0  0  0  0  0
    4.5088    9.2881   18.0942 C   0  0  0  0  0  0
    5.5172    9.2934   19.0628 C   0  0  0  0  0  0
    5.5456    8.3303   20.0660 C   0  0  0  0  0  0
    4.5549    7.3557   20.1216 C   0  0  0  0  0  0
    3.5218    7.3083   19.1776 C   0  0  0  0  0  0
    4.4735   10.2936   16.9436 C   0  0  1  0  0  0
    3.0244   10.5819   16.5946 C   0  0  1  0  0  0
    3.0696   11.8136   15.7025 C   0  0  0  0  0  0
    4.2644   12.5341   16.3105 C   0  0  0  0  0  0
    5.0047   11.7059   17.0795 C   0  0  0  0  0  0
    1.3440    6.3028   18.1925 C   0  0  2  0  0  0
    2.3702    6.3038   19.3426 C   0  0  1  0  0  0
    2.7300    4.8400   19.4969 C   0  0  0  0  0  0
    1.8402    4.0513   18.8685 C   0  0  0  0  0  0
    0.8134    4.8630   18.1032 C   0  0  0  0  0  0
    2.8466    6.1092   16.0258 C   0  0  0  0  0  0
    2.7200    6.3401   14.6840 O   0  0  0  0  0  0
    3.6580    5.3146   16.5060 O   0  0  0  0  0  0
    6.8042    8.3475   21.2477 Cl  0  0  0  0  0  0
    2.8776    8.9472   15.2308 H   0  0  0  0  0  0
    1.3301    9.3719   15.7981 H   0  0  0  0  0  0
    0.9787    7.1081   16.2134 H   0  0  0  0  0  0
    6.2932   10.0434   19.0294 H   0  0  0  0  0  0
    4.5720    6.6381   20.9290 H   0  0  0  0  0  0
    4.9898    9.8106   16.1112 H   0  0  0  0  0  0
    2.5190   10.8673   17.5245 H   0  0  0  0  0  0
    3.2069   11.5726   14.6473 H   0  0  0  0  0  0
    2.1505   12.3944   15.7943 H   0  0  0  0  0  0
    4.4481   13.5882   16.1543 H   0  0  0  0  0  0
    5.9098   11.9646   17.6108 H   0  0  0  0  0  0
    0.5097    6.9273   18.5197 H   0  0  0  0  0  0
    1.8711    6.6026   20.2655 H   0  0  0  0  0  0
    3.5421    4.5052   20.1248 H   0  0  0  0  0  0
    1.8286    2.9716   18.8768 H   0  0  0  0  0  0
    0.7204    4.5291   17.0743 H   0  0  0  0  0  0
   -0.1786    4.7606   18.5417 H   0  0  0  0  0  0
    1.9796    6.9085   14.4459 H   0  0  0  0  0  0
  1 11  1  0  0  0
  1  2  1  0  0  0
  1 24  1  0  0  0
  1 25  1  0  0  0
  2  4  1  0  0  0
  2  3  1  0  0  0
  3 15  1  0  0  0
  3 20  1  0  0  0
  3 26  1  0  0  0
  4  5  2  0  0  0
  4  9  1  0  0  0
  5 10  1  0  0  0
  5  6  1  0  0  0
  6  7  2  0  0  0
  6 27  1  0  0  0
  7  8  1  0  0  0
  7 23  1  0  0  0
  8  9  2  0  0  0
  8 28  1  0  0  0
  9 16  1  0  0  0
 10 11  1  0  0  0
 10 14  1  0  0  0
 10 29  1  0  0  0
 11 12  1  0  0  0
 11 30  1  0  0  0
 12 13  1  0  0  0
 12 31  1  0  0  0
 12 32  1  0  0  0
 13 14  2  0  0  0
 13 33  1  0  0  0
 14 34  1  0  0  0
 15 16  1  0  0  0
 15 19  1  0  0  0
 15 35  1  0  0  0
 16 17  1  0  0  0
 16 36  1  0  0  0
 17 18  2  0  0  0
 17 37  1  0  0  0
 18 19  1  0  0  0
 18 38  1  0  0  0
 19 39  1  0  0  0
 19 40  1  0  0  0
 20 21  1  0  0  0
 20 22  2  0  0  0
 21 41  1  0  0  0
M  END
> <s_m_entry_id>
2610

> <s_m_entry_name>
dock_pv.138

> <s_m_Source_Path>
/home/csk/Desktop/cluster/DUD-E-result/fabp4

> <s_m_Source_File>
dock_pv.maegz

> <i_m_Source_File_Index>
138

> <chembl_id>
CHEMBL3828043

> <chembl_pref_name>
None

> <i_lp_mmshare_version>
53161

> <r_lp_tautomer_probability>
1

> <s_lp_Force_Field>
OPLS_2005

> <r_lp_Energy>
71.590428

> <b_lp_Chiralities_Consistent>
1

> <s_lp_Variant>
CHEMBL2083_lig199-23

> <s_i_glide_gridfile>
glide-grid_2nnq

> <i_i_glide_lignum>
364

> <i_i_glide_rotatable_bonds>
2

> <r_i_docking_score>
-7.02228357872264

> <r_i_glide_ligand_efficiency>
-0.305316677335767

> <r_i_glide_ligand_efficiency_sa>
-0.868280016165687

> <r_i_glide_ligand_efficiency_ln>
-1.69805184388219

> <r_i_glide_gscore>
-7.02228357872264

> <r_i_glide_lipo>
-3.02083886189366

> <r_i_glide_hbond>
0

> <r_i_glide_metal>
0

> <r_i_glide_rewards>
-1.61714090861669

> <r_i_glide_evdw>
-34.0739440917969

> <r_i_glide_ecoul>
-4.53737735748291

> <r_i_glide_erotb>
0

> <r_i_glide_esite>
0

> <r_i_glide_emodel>
-56.2552900622202

> <r_i_glide_energy>
-38.6113214492798

> <r_i_glide_einternal>
0.105329945683479

> <i_i_glide_confnum>
1

> <i_i_glide_posenum>
155

> <r_i_glide_eff_state_penalty>
0

> <s_user_duplicate_titles>
CHEMBL2083_lig199

> <i_f3d_flags>
0

> <s_m_subgroup_title>
dock_pv

> <s_m_subgroupid>
dock_pv

> <b_m_subgroup_collapsed>
1

$$$$
CHEMBL2083_lig198
                    3D
 Schrodinger Suite 2021-1.
 44 48  0  0  1  0            999 V2000
    5.4387    9.1900   19.6388 C   0  0  0  0  0  0
    4.7011    9.6267   18.4375 N   0  0  0  0  0  0
    5.2618   10.6516   17.5143 C   0  0  1  0  0  0
    3.5181    8.9832   18.0462 C   0  0  0  0  0  0
    3.2005    7.6929   18.5401 C   0  0  0  0  0  0
    1.9917    7.1053   18.1429 C   0  0  0  0  0  0
    1.0945    7.7626   17.3124 C   0  0  0  0  0  0
    1.4228    9.0220   16.8296 C   0  0  0  0  0  0
    2.6212    9.6541   17.1751 C   0  0  0  0  0  0
    4.1653    6.9014   19.4278 C   0  0  1  0  0  0
    5.2056    7.7546   20.1633 C   0  0  2  0  0  0
    4.8897    7.6631   21.6699 C   0  0  0  0  0  0
    3.9197    6.5106   21.7643 C   0  0  0  0  0  0
    3.5198    6.1017   20.5503 C   0  0  0  0  0  0
    4.1891   11.7156   17.1253 C   0  0  2  0  0  0
    2.8767   11.0717   16.6495 C   0  0  1  0  0  0
    2.9534   11.1965   15.1392 C   0  0  0  0  0  0
    3.8725   12.1030   14.7725 C   0  0  0  0  0  0
    4.6024   12.6592   15.9740 C   0  0  0  0  0  0
    6.5367   11.3734   18.0322 C   0  0  0  0  0  0
    6.3185   12.1090   19.1609 O   0  0  0  0  0  0
    7.6142   11.3095   17.4428 O   0  0  0  0  0  0
   -0.2248    7.1075   16.9413 C   0  0  0  0  0  0
    6.4520    9.5570   19.7940 H   0  0  0  0  0  0
    4.8320    9.7492   20.3511 H   0  0  0  0  0  0
    5.6045   10.1321   16.6184 H   0  0  0  0  0  0
    1.7359    6.1160   18.4928 H   0  0  0  0  0  0
    0.7264    9.5320   16.1800 H   0  0  0  0  0  0
    4.6845    6.2222   18.7494 H   0  0  0  0  0  0
    6.1737    7.2577   20.0713 H   0  0  0  0  0  0
    5.7896    7.4695   22.2560 H   0  0  0  0  0  0
    4.4235    8.5611   22.0764 H   0  0  0  0  0  0
    3.6037    6.1011   22.7133 H   0  0  0  0  0  0
    2.8299    5.2931   20.3582 H   0  0  0  0  0  0
    3.9635   12.3161   18.0105 H   0  0  0  0  0  0
    2.0356   11.6757   16.9969 H   0  0  0  0  0  0
    2.2775   10.6760   14.4767 H   0  0  0  0  0  0
    4.0889   12.4264   13.7640 H   0  0  0  0  0  0
    5.6779   12.6720   15.7996 H   0  0  0  0  0  0
    4.3052   13.6904   16.1725 H   0  0  0  0  0  0
    7.0716   12.6895   19.3423 H   0  0  0  0  0  0
   -0.0478    6.1108   16.5360 H   0  0  0  0  0  0
   -0.8517    6.9928   17.8269 H   0  0  0  0  0  0
   -0.7777    7.6805   16.1955 H   0  0  0  0  0  0
  1 11  1  0  0  0
  1  2  1  0  0  0
  1 24  1  0  0  0
  1 25  1  0  0  0
  2  4  1  0  0  0
  2  3  1  0  0  0
  3 15  1  0  0  0
  3 20  1  0  0  0
  3 26  1  0  0  0
  4  5  2  0  0  0
  4  9  1  0  0  0
  5 10  1  0  0  0
  5  6  1  0  0  0
  6  7  2  0  0  0
  6 27  1  0  0  0
  7  8  1  0  0  0
  7 23  1  0  0  0
  8  9  2  0  0  0
  8 28  1  0  0  0
  9 16  1  0  0  0
 10 11  1  0  0  0
 10 14  1  0  0  0
 10 29  1  0  0  0
 11 12  1  0  0  0
 11 30  1  0  0  0
 12 13  1  0  0  0
 12 31  1  0  0  0
 12 32  1  0  0  0
 13 14  2  0  0  0
 13 33  1  0  0  0
 14 34  1  0  0  0
 15 16  1  0  0  0
 15 19  1  0  0  0
 15 35  1  0  0  0
 16 17  1  0  0  0
 16 36  1  0  0  0
 17 18  2  0  0  0
 17 37  1  0  0  0
 18 19  1  0  0  0
 18 38  1  0  0  0
 19 39  1  0  0  0
 19 40  1  0  0  0
 20 21  1  0  0  0
 20 22  2  0  0  0
 21 41  1  0  0  0
 23 42  1  0  0  0
 23 43  1  0  0  0
 23 44  1  0  0  0
M  END
> <s_m_entry_id>
2611

> <s_m_entry_name>
dock_pv.139

> <s_m_Source_Path>
/home/csk/Desktop/cluster/DUD-E-result/fabp4

> <s_m_Source_File>
dock_pv.maegz

> <i_m_Source_File_Index>
139

> <chembl_id>
CHEMBL3827483

> <chembl_pref_name>
None

> <i_lp_mmshare_version>
53161

> <r_lp_tautomer_probability>
1

> <s_lp_Force_Field>
OPLS_2005

> <r_lp_Energy>
70.828753

> <b_lp_Chiralities_Consistent>
1

> <s_lp_Variant>
CHEMBL2083_lig198-20

> <s_i_glide_gridfile>
glide-grid_2nnq

> <i_i_glide_lignum>
329

> <i_i_glide_rotatable_bonds>
2

> <r_i_docking_score>
-7.01079990865817

> <r_i_glide_ligand_efficiency>
-0.304817387332964

> <r_i_glide_ligand_efficiency_sa>
-0.86686010181483

> <r_i_glide_ligand_efficiency_ln>
-1.69527498833244

> <r_i_glide_gscore>
-7.01079990865817

> <r_i_glide_lipo>
-3.12115096531834

> <r_i_glide_hbond>
-0.00602483703944269

> <r_i_glide_metal>
0

> <r_i_glide_rewards>
-1.53126144550717

> <r_i_glide_evdw>
-33.0196571350098

> <r_i_glide_ecoul>
-5.54128265380859

> <r_i_glide_erotb>
0.195647951793434

> <r_i_glide_esite>
-0.0658353577648783

> <r_i_glide_emodel>
-53.8449729188464

> <r_i_glide_energy>
-38.5609397888184

> <r_i_glide_einternal>
2.1226167678833

> <i_i_glide_confnum>
2

> <i_i_glide_posenum>
292

> <r_i_glide_eff_state_penalty>
0

> <s_user_duplicate_titles>
CHEMBL2083_lig198

> <i_f3d_flags>
0

> <s_m_subgroup_title>
dock_pv

> <s_m_subgroupid>
dock_pv

> <b_m_subgroup_collapsed>
1

$$$$
CHEMBL2083_lig197
                    3D
 Schrodinger Suite 2021-1.
 41 45  0  0  1  0            999 V2000
    6.1797    9.4912   19.8498 C   0  0  0  0  0  0
    5.0082    9.3256   18.9838 N   0  0  0  0  0  0
    5.0666   10.1974   17.7801 C   0  0  1  0  0  0
    4.3981    8.0537   18.9505 C   0  0  0  0  0  0
    4.2945    7.3098   20.1469 C   0  0  0  0  0  0
    3.5743    6.1075   20.1190 C   0  0  0  0  0  0
    3.0064    5.6274   18.9441 C   0  0  0  0  0  0
    3.1349    6.3528   17.7667 C   0  0  0  0  0  0
    3.8229    7.5682   17.7485 C   0  0  0  0  0  0
    4.8887    7.8526   21.4524 C   0  0  2  0  0  0
    6.0723    8.8087   21.2244 C   0  0  1  0  0  0
    7.3424    8.0413   21.5844 C   0  0  0  0  0  0
    6.8298    6.8998   22.4179 C   0  0  0  0  0  0
    5.4915    6.8065   22.3718 C   0  0  0  0  0  0
    3.9370    9.8341   16.7935 C   0  0  2  0  0  0
    4.0531    8.3598   16.4680 C   0  0  2  0  0  0
    3.1382    8.2567   15.2694 C   0  0  0  0  0  0
    3.1202    9.4452   14.6298 C   0  0  0  0  0  0
    3.8481   10.5127   15.4284 C   0  0  0  0  0  0
    4.9019   11.6766   18.2024 C   0  0  0  0  0  0
    5.5077   12.5090   17.3157 O   0  0  0  0  0  0
    4.3199   12.0457   19.2202 O   0  0  0  0  0  0
    2.0665    3.9727   18.9428 Br  0  0  0  0  0  0
    6.9474    8.9726   19.2729 H   0  0  0  0  0  0
    6.5681   10.5084   19.9088 H   0  0  0  0  0  0
    6.0457   10.1214   17.3046 H   0  0  0  0  0  0
    3.4533    5.5296   21.0233 H   0  0  0  0  0  0
    2.7017    5.9607   16.8585 H   0  0  0  0  0  0
    4.0898    8.3902   21.9651 H   0  0  0  0  0  0
    6.0177    9.6115   21.9599 H   0  0  0  0  0  0
    7.8727    7.6549   20.7130 H   0  0  0  0  0  0
    8.0451    8.6592   22.1426 H   0  0  0  0  0  0
    7.5062    6.2464   22.9435 H   0  0  0  0  0  0
    4.8904    6.0650   22.8782 H   0  0  0  0  0  0
    2.9799   10.0131   17.2978 H   0  0  0  0  0  0
    5.0654    8.1037   16.1455 H   0  0  0  0  0  0
    2.7139    7.3294   14.9112 H   0  0  0  0  0  0
    2.6580    9.6683   13.6808 H   0  0  0  0  0  0
    4.8260   10.7580   15.0128 H   0  0  0  0  0  0
    3.2749   11.4391   15.4904 H   0  0  0  0  0  0
    5.5212   13.4352   17.6534 H   0  0  0  0  0  0
  1 11  1  0  0  0
  1  2  1  0  0  0
  1 24  1  0  0  0
  1 25  1  0  0  0
  2  4  1  0  0  0
  2  3  1  0  0  0
  3 15  1  0  0  0
  3 20  1  0  0  0
  3 26  1  0  0  0
  4  5  2  0  0  0
  4  9  1  0  0  0
  5 10  1  0  0  0
  5  6  1  0  0  0
  6  7  2  0  0  0
  6 27  1  0  0  0
  7  8  1  0  0  0
  7 23  1  0  0  0
  8  9  2  0  0  0
  8 28  1  0  0  0
  9 16  1  0  0  0
 10 11  1  0  0  0
 10 14  1  0  0  0
 10 29  1  0  0  0
 11 12  1  0  0  0
 11 30  1  0  0  0
 12 13  1  0  0  0
 12 31  1  0  0  0
 12 32  1  0  0  0
 13 14  2  0  0  0
 13 33  1  0  0  0
 14 34  1  0  0  0
 15 16  1  0  0  0
 15 19  1  0  0  0
 15 35  1  0  0  0
 16 17  1  0  0  0
 16 36  1  0  0  0
 17 18  2  0  0  0
 17 37  1  0  0  0
 18 19  1  0  0  0
 18 38  1  0  0  0
 19 39  1  0  0  0
 19 40  1  0  0  0
 20 21  1  0  0  0
 20 22  2  0  0  0
 21 41  1  0  0  0
M  END
> <s_m_entry_id>
2612

> <s_m_entry_name>
dock_pv.140

> <s_m_Source_Path>
/home/csk/Desktop/cluster/DUD-E-result/fabp4

> <s_m_Source_File>
dock_pv.maegz

> <i_m_Source_File_Index>
140

> <chembl_id>
CHEMBL3828508

> <chembl_pref_name>
None

> <i_lp_mmshare_version>
53161

> <r_lp_tautomer_probability>
1

> <s_lp_Force_Field>
OPLS_2005

> <r_lp_Energy>
70.576456

> <b_lp_Chiralities_Consistent>
1

> <s_lp_Variant>
CHEMBL2083_lig197-6

> <s_i_glide_gridfile>
glide-grid_2nnq

> <i_i_glide_lignum>
283

> <i_i_glide_rotatable_bonds>
2

> <r_i_docking_score>
-7.00302465321794

> <r_i_glide_ligand_efficiency>
-0.304479332748606

> <r_i_glide_ligand_efficiency_sa>
-0.865898719545992

> <r_i_glide_ligand_efficiency_ln>
-1.69339486106488

> <r_i_glide_gscore>
-7.00302465321794

> <r_i_glide_lipo>
-2.80726668897349

> <r_i_glide_hbond>
-0.0173209866421113

> <r_i_glide_metal>
0

> <r_i_glide_rewards>
-1.14766482507315

> <r_i_glide_evdw>
-30.7359085083008

> <r_i_glide_ecoul>
-9.46578216552734

> <r_i_glide_erotb>
0

> <r_i_glide_esite>
-0.0741094022850479

> <r_i_glide_emodel>
-56.6341250634576

> <r_i_glide_energy>
-40.2016906738281

> <r_i_glide_einternal>
1.25400710105896

> <i_i_glide_confnum>
1

> <i_i_glide_posenum>
67

> <r_i_glide_eff_state_penalty>
0

> <s_user_duplicate_titles>
CHEMBL2083_lig197

> <i_f3d_flags>
0

> <s_m_subgroup_title>
dock_pv

> <s_m_subgroupid>
dock_pv

> <b_m_subgroup_collapsed>
1

$$$$
CHEMBL2083_lig202
                    3D
 Schrodinger Suite 2021-1.
 56 60  0  0  1  0            999 V2000
    4.3059    6.5079   18.7646 C   0  0  2  0  0  0
    4.1765    6.6776   20.1905 N   0  0  0  0  0  0
    6.3933    7.6110   20.5236 C   0  0  0  0  0  0
    5.1982    7.0934   21.0473 C   0  0  0  0  0  0
    5.0233    6.8654   22.4208 C   0  0  0  0  0  0
    6.0643    7.1764   23.2934 C   0  0  0  0  0  0
    7.2504    7.7091   22.8015 C   0  0  0  0  0  0
    7.3959    7.9510   21.4359 C   0  0  0  0  0  0
    5.2799    7.5814   18.2081 C   0  0  2  0  0  0
    6.6003    7.7370   19.0090 C   0  0  1  0  0  0
    7.1463    9.0916   18.5179 C   0  0  2  0  0  0
    5.8864    9.9679   18.3320 C   0  0  2  0  0  0
    4.7109    9.0044   18.0728 C   0  0  0  0  0  0
    6.0608   11.3811   17.1829 S   0  0  0  0  0  0
    4.5781   11.5193   16.2160 C   0  0  0  0  0  0
    7.9275    8.7531   16.9421 Cl  0  0  0  0  0  0
    3.6607    6.5088   22.9420 C   0  0  0  0  0  0
    2.7200    7.2038   22.6144 O   0  0  0  0  0  0
    3.5200    5.4039   23.7127 O   0  0  0  0  0  0
    2.9217    6.4740   18.0869 C   0  0  0  0  0  0
    1.7465    6.7282   18.8313 C   0  0  0  0  0  0
    0.4924    6.7807   18.2358 C   0  0  0  0  0  0
    0.3797    6.5661   16.8757 C   0  0  0  0  0  0
    1.5251    6.2944   16.1368 C   0  0  0  0  0  0
    2.7899    6.2179   16.7134 C   0  0  0  0  0  0
    3.4367   12.2316   16.6447 C   0  0  0  0  0  0
    2.3543   12.3577   15.7627 C   0  0  0  0  0  0
    2.3585   11.7262   14.5230 C   0  0  0  0  0  0
    3.4624   10.9715   14.1419 C   0  0  0  0  0  0
    4.5792   10.8977   14.9667 C   0  0  0  0  0  0
    3.3059   12.7960   18.0025 N   0  3  0  0  0  0
    2.7200   13.8662   18.1379 O   0  0  0  0  0  0
    3.6843   12.1091   18.9422 O   0  5  0  0  0  0
    3.9317    5.8635   15.8502 N   0  3  0  0  0  0
    4.6399    4.9158   16.1819 O   0  0  0  0  0  0
    4.0911    6.5171   14.8253 O   0  5  0  0  0  0
    4.7398    5.5186   18.6175 H   0  0  0  0  0  0
    3.3676    6.2223   20.5868 H   0  0  0  0  0  0
    5.9382    7.0853   24.3593 H   0  0  0  0  0  0
    8.0468    7.9673   23.4848 H   0  0  0  0  0  0
    8.3209    8.3720   21.0765 H   0  0  0  0  0  0
    5.5669    7.2679   17.2052 H   0  0  0  0  0  0
    7.2824    6.9210   18.7605 H   0  0  0  0  0  0
    7.8622    9.5548   19.1966 H   0  0  0  0  0  0
    5.6850   10.4681   19.2807 H   0  0  0  0  0  0
    4.2779    9.1166   17.0810 H   0  0  0  0  0  0
    3.8998    9.1913   18.7787 H   0  0  0  0  0  0
    4.3200    4.8722   23.7494 H   0  0  0  0  0  0
    1.7720    6.9090   19.8940 H   0  0  0  0  0  0
   -0.3862    6.9899   18.8288 H   0  0  0  0  0  0
   -0.5886    6.6012   16.3988 H   0  0  0  0  0  0
    1.4463    6.1091   15.0780 H   0  0  0  0  0  0
    1.4870   12.9251   16.0550 H   0  0  0  0  0  0
    1.5063   11.8151   13.8640 H   0  0  0  0  0  0
    3.4644   10.4606   13.1913 H   0  0  0  0  0  0
    5.4414   10.3356   14.6406 H   0  0  0  0  0  0
  1  9  1  0  0  0
  1  2  1  0  0  0
  1 20  1  0  0  0
  1 37  1  0  0  0
  2  4  1  0  0  0
  2 38  1  0  0  0
  3 10  1  0  0  0
  3  4  2  0  0  0
  3  8  1  0  0  0
  4  5  1  0  0  0
  5  6  2  0  0  0
  5 17  1  0  0  0
  6  7  1  0  0  0
  6 39  1  0  0  0
  7  8  2  0  0  0
  7 40  1  0  0  0
  8 41  1  0  0  0
  9 10  1  0  0  0
  9 13  1  0  0  0
  9 42  1  0  0  0
 10 11  1  0  0  0
 10 43  1  0  0  0
 11 12  1  0  0  0
 11 16  1  0  0  0
 11 44  1  0  0  0
 12 13  1  0  0  0
 12 14  1  0  0  0
 12 45  1  0  0  0
 13 46  1  0  0  0
 13 47  1  0  0  0
 14 15  1  0  0  0
 15 26  2  0  0  0
 15 30  1  0  0  0
 17 18  2  0  0  0
 17 19  1  0  0  0
 19 48  1  0  0  0
 20 21  2  0  0  0
 20 25  1  0  0  0
 21 22  1  0  0  0
 21 49  1  0  0  0
 22 23  2  0  0  0
 22 50  1  0  0  0
 23 24  1  0  0  0
 23 51  1  0  0  0
 24 25  2  0  0  0
 24 52  1  0  0  0
 25 34  1  0  0  0
 26 27  1  0  0  0
 26 31  1  0  0  0
 27 28  2  0  0  0
 27 53  1  0  0  0
 28 29  1  0  0  0
 28 54  1  0  0  0
 29 30  2  0  0  0
 29 55  1  0  0  0
 30 56  1  0  0  0
 31 32  2  0  0  0
 31 33  1  0  0  0
 34 35  2  0  0  0
 34 36  1  0  0  0
M  CHG  4  31   1  33  -1  34   1  36  -1
M  END
> <s_m_entry_id>
2613

> <s_m_entry_name>
dock_pv.141

> <s_m_Source_Path>
/home/csk/Desktop/cluster/DUD-E-result/fabp4

> <s_m_Source_File>
dock_pv.maegz

> <i_m_Source_File_Index>
141

> <chembl_id>
CHEMBL3827527

> <chembl_pref_name>
None

> <i_lp_mmshare_version>
53161

> <r_lp_tautomer_probability>
1

> <s_lp_Force_Field>
OPLS_2005

> <r_lp_Energy>
58.760044

> <b_lp_Chiralities_Consistent>
1

> <s_lp_Variant>
CHEMBL2083_lig202-6

> <s_i_glide_gridfile>
glide-grid_2nnq

> <i_i_glide_lignum>
381

> <i_i_glide_rotatable_bonds>
7

> <r_i_docking_score>
-7.0015594211821

> <r_i_glide_ligand_efficiency>
-0.194487761699503

> <r_i_glide_ligand_efficiency_sa>
-0.64218443916502

> <r_i_glide_ligand_efficiency_ln>
-1.52755110542654

> <r_i_glide_gscore>
-7.0015594211821

> <r_i_glide_lipo>
-3.80991529229553

> <r_i_glide_hbond>
0

> <r_i_glide_metal>
0

> <r_i_glide_rewards>
-0.600917704341737

> <r_i_glide_evdw>
-41.9031257629395

> <r_i_glide_ecoul>
-3.30081701278687

> <r_i_glide_erotb>
0.297662755552557

> <r_i_glide_esite>
-0.298110340032395

> <r_i_glide_emodel>
-50.9630658758731

> <r_i_glide_energy>
-45.2039427757263

> <r_i_glide_einternal>
13.0020570755005

> <i_i_glide_confnum>
135

> <i_i_glide_posenum>
217

> <r_i_glide_eff_state_penalty>
0

> <s_user_duplicate_titles>
CHEMBL2083_lig202

> <i_f3d_flags>
0

> <s_m_subgroup_title>
dock_pv

> <s_m_subgroupid>
dock_pv

> <b_m_subgroup_collapsed>
1

$$$$
CHEMBL2083_lig64
                    3D
 Schrodinger Suite 2021-1.
 52 55  0  0  1  0            999 V2000
    0.3210    4.5529   17.9036 C   0  0  0  0  0  0
    1.0711    5.6752   17.5772 C   0  0  0  0  0  0
    2.2268    5.9947   18.3040 C   0  0  0  0  0  0
    2.6065    5.1698   19.3824 C   0  0  0  0  0  0
    1.8725    4.0204   19.6588 C   0  0  0  0  0  0
    0.7206    3.7279   18.9420 C   0  0  0  0  0  0
    3.0154    7.1928   17.8960 C   0  0  0  0  0  0
    3.6524    5.4827   20.2209 O   0  0  0  0  0  0
    3.2593    6.1094   21.4436 C   0  0  0  0  0  0
    2.5561    8.0809   17.0428 N   0  0  0  0  0  0
    3.5106    9.0155   16.8962 N   0  0  0  0  0  0
    4.6066    8.7419   17.7011 C   0  0  0  0  0  0
    4.3007    7.5380   18.2944 C   0  0  0  0  0  0
    5.8456    9.5356   17.9036 C   0  0  0  0  0  0
    3.2858   10.0850   15.9936 C   0  0  0  0  0  0
    4.3048    7.1342   21.9213 C   0  0  0  0  0  0
    4.3543   10.6518   15.2914 C   0  0  0  0  0  0
    4.1603   11.7785   14.5007 C   0  0  0  0  0  0
    2.8811   12.3113   14.3452 C   0  0  0  0  0  0
    1.7947   11.7069   14.9703 C   0  0  0  0  0  0
    1.9949   10.5988   15.7949 C   0  0  0  0  0  0
    7.0355    8.8320   18.1104 C   0  0  0  0  0  0
    8.2151    9.5180   18.3507 C   0  0  0  0  0  0
    8.2086   10.9087   18.3461 C   0  0  0  0  0  0
    7.0299   11.6193   18.1372 C   0  0  0  0  0  0
    5.8391   10.9321   17.9503 C   0  0  0  0  0  0
    5.5344    6.5104   22.6175 C   0  0  0  0  0  0
    6.7876    7.3941   22.5853 C   0  0  0  0  0  0
    7.5040    7.3089   23.7390 O   0  0  0  0  0  0
    7.1177    8.0839   21.6244 O   0  0  0  0  0  0
    5.5208   12.5091   13.7420 Cl  0  0  0  0  0  0
   -0.5619    4.3099   17.3425 H   0  0  0  0  0  0
    0.7474    6.2853   16.7462 H   0  0  0  0  0  0
    2.1801    3.3699   20.4568 H   0  0  0  0  0  0
    0.0986    2.9090   19.2333 H   0  0  0  0  0  0
    3.0801    5.3520   22.2084 H   0  0  0  0  0  0
    2.3201    6.6430   21.3129 H   0  0  0  0  0  0
    4.9443    6.9908   18.9647 H   0  0  0  0  0  0
    3.8269    7.8165   22.6263 H   0  0  0  0  0  0
    4.5898    7.7620   21.0771 H   0  0  0  0  0  0
    5.3516   10.2509   15.3846 H   0  0  0  0  0  0
    2.7200   13.1904   13.7419 H   0  0  0  0  0  0
    0.8021   12.1091   14.8284 H   0  0  0  0  0  0
    1.1471   10.1450   16.2890 H   0  0  0  0  0  0
    7.0515    7.7516   18.1055 H   0  0  0  0  0  0
    9.1200    8.9641   18.5421 H   0  0  0  0  0  0
    9.1200   11.4546   18.5278 H   0  0  0  0  0  0
    7.0358   12.7009   18.1421 H   0  0  0  0  0  0
    4.9230   11.4919   17.8286 H   0  0  0  0  0  0
    5.8041    5.5703   22.1427 H   0  0  0  0  0  0
    5.2754    6.2605   23.6478 H   0  0  0  0  0  0
    8.2894    7.8544   23.6835 H   0  0  0  0  0  0
  1  2  2  0  0  0
  1  6  1  0  0  0
  1 32  1  0  0  0
  2  3  1  0  0  0
  2 33  1  0  0  0
  3  4  2  0  0  0
  3  7  1  0  0  0
  4  5  1  0  0  0
  4  8  1  0  0  0
  5  6  2  0  0  0
  5 34  1  0  0  0
  6 35  1  0  0  0
  7 10  2  0  0  0
  7 13  1  0  0  0
  8  9  1  0  0  0
  9 16  1  0  0  0
  9 36  1  0  0  0
  9 37  1  0  0  0
 10 11  1  0  0  0
 11 12  1  0  0  0
 11 15  1  0  0  0
 12 13  2  0  0  0
 12 14  1  0  0  0
 13 38  1  0  0  0
 14 22  2  0  0  0
 14 26  1  0  0  0
 15 17  2  0  0  0
 15 21  1  0  0  0
 16 27  1  0  0  0
 16 39  1  0  0  0
 16 40  1  0  0  0
 17 18  1  0  0  0
 17 41  1  0  0  0
 18 19  2  0  0  0
 18 31  1  0  0  0
 19 20  1  0  0  0
 19 42  1  0  0  0
 20 21  2  0  0  0
 20 43  1  0  0  0
 21 44  1  0  0  0
 22 23  1  0  0  0
 22 45  1  0  0  0
 23 24  2  0  0  0
 23 46  1  0  0  0
 24 25  1  0  0  0
 24 47  1  0  0  0
 25 26  2  0  0  0
 25 48  1  0  0  0
 26 49  1  0  0  0
 27 28  1  0  0  0
 27 50  1  0  0  0
 27 51  1  0  0  0
 28 29  1  0  0  0
 28 30  2  0  0  0
 29 52  1  0  0  0
M  END
> <s_m_entry_id>
2614

> <s_m_entry_name>
dock_pv.142

> <s_m_Source_Path>
/home/csk/Desktop/cluster/DUD-E-result/fabp4

> <s_m_Source_File>
dock_pv.maegz

> <i_m_Source_File_Index>
142

> <chembl_id>
CHEMBL2334261

> <chembl_pref_name>
None

> <i_lp_mmshare_version>
53161

> <r_lp_tautomer_probability>
1

> <s_lp_Force_Field>
OPLS_2005

> <r_lp_Energy>
28.252594

> <b_lp_Chiralities_Consistent>
1

> <s_lp_Variant>
CHEMBL2083_lig64-1

> <s_i_glide_gridfile>
glide-grid_2nnq

> <i_i_glide_lignum>
74

> <i_i_glide_rotatable_bonds>
9

> <r_i_docking_score>
-6.99897827387298

> <r_i_glide_ligand_efficiency>
-0.22577349270558

> <r_i_glide_ligand_efficiency_sa>
-0.709240480996297

> <r_i_glide_ligand_efficiency_ln>
-1.57848409368283

> <r_i_glide_gscore>
-6.99897827387298

> <r_i_glide_lipo>
-4.32294761558204

> <r_i_glide_hbond>
0

> <r_i_glide_metal>
0

> <r_i_glide_rewards>
-0.939316789593011

> <r_i_glide_evdw>
-46.3622016906738

> <r_i_glide_ecoul>
-1.78816759586334

> <r_i_glide_erotb>
0.849621355215258

> <r_i_glide_esite>
0

> <r_i_glide_emodel>
-62.4783657677755

> <r_i_glide_energy>
-48.1503692865372

> <r_i_glide_einternal>
11.5012311935425

> <i_i_glide_confnum>
36

> <i_i_glide_posenum>
324

> <r_i_glide_eff_state_penalty>
0

> <s_user_duplicate_titles>
CHEMBL2083_lig64

> <i_f3d_flags>
0

> <s_m_subgroup_title>
dock_pv

> <s_m_subgroupid>
dock_pv

> <b_m_subgroup_collapsed>
1

$$$$
CHEMBL2083_lig199
                    3D
 Schrodinger Suite 2021-1.
 41 45  0  0  1  0            999 V2000
    5.1804    9.1126   19.7608 C   0  0  0  0  0  0
    4.4398    9.4757   18.5512 N   0  0  0  0  0  0
    4.6836   10.8920   18.1528 C   0  0  2  0  0  0
    3.3340    8.7244   18.1032 C   0  0  0  0  0  0
    3.0700    7.4454   18.6446 C   0  0  0  0  0  0
    1.8964    6.7880   18.2478 C   0  0  0  0  0  0
    1.0118    7.3543   17.3413 C   0  0  0  0  0  0
    1.3275    8.5667   16.7467 C   0  0  0  0  0  0
    2.4993    9.2501   17.0810 C   0  0  0  0  0  0
    4.0305    6.7492   19.6117 C   0  0  1  0  0  0
    5.1350    7.6388   20.2179 C   0  0  2  0  0  0
    5.0366    7.4965   21.7484 C   0  0  0  0  0  0
    3.9196    6.5074   21.9750 C   0  0  0  0  0  0
    3.3663    6.1097   20.8203 C   0  0  0  0  0  0
    3.4530   11.4863   17.4132 C   0  0  2  0  0  0
    2.9363   10.5239   16.3630 C   0  0  2  0  0  0
    1.9682   11.4042   15.5964 C   0  0  0  0  0  0
    2.3208   12.6978   15.7401 C   0  0  0  0  0  0
    3.4746   12.8512   16.7205 C   0  0  0  0  0  0
    5.9610   10.9312   17.2755 C   0  0  0  0  0  0
    6.6379   12.1089   17.3947 O   0  0  0  0  0  0
    6.3190   10.0101   16.5419 O   0  0  0  0  0  0
   -0.4587    6.5404   16.9447 Cl  0  0  0  0  0  0
    6.1477    9.6034   19.8778 H   0  0  0  0  0  0
    4.5719    9.6380   20.4977 H   0  0  0  0  0  0
    4.9111   11.5066   19.0254 H   0  0  0  0  0  0
    1.6552    5.8162   18.6567 H   0  0  0  0  0  0
    0.6556    8.9741   16.0100 H   0  0  0  0  0  0
    4.5011    5.9650   19.0157 H   0  0  0  0  0  0
    6.1069    7.2123   19.9541 H   0  0  0  0  0  0
    5.9678    7.1173   22.1785 H   0  0  0  0  0  0
    4.7975    8.4356   22.2464 H   0  0  0  0  0  0
    3.6303    6.1823   22.9649 H   0  0  0  0  0  0
    2.5639    5.3937   20.7276 H   0  0  0  0  0  0
    2.6870   11.5821   18.1898 H   0  0  0  0  0  0
    3.7233   10.2165   15.6720 H   0  0  0  0  0  0
    1.2040   11.0213   14.9373 H   0  0  0  0  0  0
    1.8663   13.5428   15.2450 H   0  0  0  0  0  0
    4.4139   13.0732   16.2122 H   0  0  0  0  0  0
    3.3034   13.6559   17.4364 H   0  0  0  0  0  0
    6.2051   12.7900   17.9213 H   0  0  0  0  0  0
  1 11  1  0  0  0
  1  2  1  0  0  0
  1 24  1  0  0  0
  1 25  1  0  0  0
  2  4  1  0  0  0
  2  3  1  0  0  0
  3 15  1  0  0  0
  3 20  1  0  0  0
  3 26  1  0  0  0
  4  5  2  0  0  0
  4  9  1  0  0  0
  5 10  1  0  0  0
  5  6  1  0  0  0
  6  7  2  0  0  0
  6 27  1  0  0  0
  7  8  1  0  0  0
  7 23  1  0  0  0
  8  9  2  0  0  0
  8 28  1  0  0  0
  9 16  1  0  0  0
 10 11  1  0  0  0
 10 14  1  0  0  0
 10 29  1  0  0  0
 11 12  1  0  0  0
 11 30  1  0  0  0
 12 13  1  0  0  0
 12 31  1  0  0  0
 12 32  1  0  0  0
 13 14  2  0  0  0
 13 33  1  0  0  0
 14 34  1  0  0  0
 15 16  1  0  0  0
 15 19  1  0  0  0
 15 35  1  0  0  0
 16 17  1  0  0  0
 16 36  1  0  0  0
 17 18  2  0  0  0
 17 37  1  0  0  0
 18 19  1  0  0  0
 18 38  1  0  0  0
 19 39  1  0  0  0
 19 40  1  0  0  0
 20 21  1  0  0  0
 20 22  2  0  0  0
 21 41  1  0  0  0
M  END
> <s_m_entry_id>
2615

> <s_m_entry_name>
dock_pv.143

> <s_m_Source_Path>
/home/csk/Desktop/cluster/DUD-E-result/fabp4

> <s_m_Source_File>
dock_pv.maegz

> <i_m_Source_File_Index>
143

> <chembl_id>
CHEMBL3828043

> <chembl_pref_name>
None

> <i_lp_mmshare_version>
53161

> <r_lp_tautomer_probability>
1

> <s_lp_Force_Field>
OPLS_2005

> <r_lp_Energy>
73.759118

> <b_lp_Chiralities_Consistent>
1

> <s_lp_Variant>
CHEMBL2083_lig199-3

> <s_i_glide_gridfile>
glide-grid_2nnq

> <i_i_glide_lignum>
344

> <i_i_glide_rotatable_bonds>
2

> <r_i_docking_score>
-6.99647251229139

> <r_i_glide_ligand_efficiency>
-0.304194457056147

> <r_i_glide_ligand_efficiency_sa>
-0.865088570971692

> <r_i_glide_ligand_efficiency_ln>
-1.69181049397731

> <r_i_glide_gscore>
-6.99647251229139

> <r_i_glide_lipo>
-3.2162470155191

> <r_i_glide_hbond>
0

> <r_i_glide_metal>
0

> <r_i_glide_rewards>
-1.3930931824512

> <r_i_glide_evdw>
-36.0067558288574

> <r_i_glide_ecoul>
-3.65279865264893

> <r_i_glide_erotb>
0

> <r_i_glide_esite>
-0.038874724980878

> <r_i_glide_emodel>
-56.7089048868054

> <r_i_glide_energy>
-39.6595544815063

> <r_i_glide_einternal>
0.120224639773369

> <i_i_glide_confnum>
1

> <i_i_glide_posenum>
354

> <r_i_glide_eff_state_penalty>
0

> <s_user_duplicate_titles>
CHEMBL2083_lig199

> <i_f3d_flags>
0

> <s_m_subgroup_title>
dock_pv

> <s_m_subgroupid>
dock_pv

> <b_m_subgroup_collapsed>
1

$$$$
CHEMBL2083_lig206
                    3D
 Schrodinger Suite 2021-1.
 39 41  0  0  1  0            999 V2000
    5.6095    8.9123   19.0943 C   0  0  0  0  0  0
    5.1185    9.8534   18.1641 C   0  0  0  0  0  0
    3.9028    9.5832   17.4879 C   0  0  0  0  0  0
    4.9626    7.7496   19.3641 N   0  0  0  0  0  0
    3.7789    7.4844   18.7606 C   0  0  0  0  0  0
    3.1977    8.3765   17.8115 C   0  0  0  0  0  0
    1.9313    8.0280   17.2553 C   0  0  0  0  0  0
    1.2841    6.8534   17.6255 C   0  0  0  0  0  0
    1.8696    5.9853   18.5409 C   0  0  0  0  0  0
    3.1059    6.2859   19.1079 C   0  0  0  0  0  0
    6.9413    9.0885   19.8611 C   0  0  0  0  0  0
    3.3422   10.5046   16.4492 C   0  0  0  0  0  0
    3.2710   10.0832   15.1163 C   0  0  0  0  0  0
    2.7198   10.9099   14.1434 C   0  0  0  0  0  0
    2.2466   12.1695   14.4982 C   0  0  0  0  0  0
    2.3235   12.6093   15.8160 C   0  0  0  0  0  0
    2.8656   11.7758   16.7911 C   0  0  0  0  0  0
    5.8677   11.1353   17.9008 C   0  0  0  0  0  0
    5.5840   12.1092   18.8078 O   0  0  0  0  0  0
    6.6228   11.2804   16.9421 O   0  0  0  0  0  0
   -0.2617    6.4881   16.9493 Cl  0  0  0  0  0  0
    8.1285    8.5269   19.0530 C   0  0  0  0  0  0
    6.9308    8.5092   21.2958 C   0  0  0  0  0  0
    1.4490    8.6881   16.5500 H   0  0  0  0  0  0
    1.3575    5.0755   18.8213 H   0  0  0  0  0  0
    3.5524    5.6148   19.8284 H   0  0  0  0  0  0
    7.1191   10.1564   19.9955 H   0  0  0  0  0  0
    3.6324    9.1042   14.8349 H   0  0  0  0  0  0
    2.6540   10.5693   13.1207 H   0  0  0  0  0  0
    1.8197   12.8123   13.7421 H   0  0  0  0  0  0
    1.9588   13.5914   16.0809 H   0  0  0  0  0  0
    2.9151   12.1206   17.8141 H   0  0  0  0  0  0
    5.9184   12.9837   18.5426 H   0  0  0  0  0  0
    8.1869    8.9810   18.0631 H   0  0  0  0  0  0
    9.0788    8.7217   19.5532 H   0  0  0  0  0  0
    8.0438    7.4480   18.9169 H   0  0  0  0  0  0
    6.0984    8.9082   21.8771 H   0  0  0  0  0  0
    6.8416    7.4215   21.2937 H   0  0  0  0  0  0
    7.8515    8.7541   21.8261 H   0  0  0  0  0  0
  1  2  2  0  0  0
  1  4  1  0  0  0
  1 11  1  0  0  0
  2  3  1  0  0  0
  2 18  1  0  0  0
  3  6  2  0  0  0
  3 12  1  0  0  0
  4  5  2  0  0  0
  5  6  1  0  0  0
  5 10  1  0  0  0
  6  7  1  0  0  0
  7  8  2  0  0  0
  7 24  1  0  0  0
  8  9  1  0  0  0
  8 21  1  0  0  0
  9 10  2  0  0  0
  9 25  1  0  0  0
 10 26  1  0  0  0
 11 22  1  0  0  0
 11 23  1  0  0  0
 11 27  1  0  0  0
 12 13  2  0  0  0
 12 17  1  0  0  0
 13 14  1  0  0  0
 13 28  1  0  0  0
 14 15  2  0  0  0
 14 29  1  0  0  0
 15 16  1  0  0  0
 15 30  1  0  0  0
 16 17  2  0  0  0
 16 31  1  0  0  0
 17 32  1  0  0  0
 18 19  1  0  0  0
 18 20  2  0  0  0
 19 33  1  0  0  0
 22 34  1  0  0  0
 22 35  1  0  0  0
 22 36  1  0  0  0
 23 37  1  0  0  0
 23 38  1  0  0  0
 23 39  1  0  0  0
M  END
> <s_m_entry_id>
2616

> <s_m_entry_name>
dock_pv.144

> <s_m_Source_Path>
/home/csk/Desktop/cluster/DUD-E-result/fabp4

> <s_m_Source_File>
dock_pv.maegz

> <i_m_Source_File_Index>
144

> <chembl_id>
CHEMBL3947458

> <chembl_pref_name>
None

> <i_lp_mmshare_version>
53161

> <r_lp_tautomer_probability>
1

> <s_lp_Force_Field>
OPLS_2005

> <r_lp_Energy>
22.384758

> <b_lp_Chiralities_Consistent>
1

> <s_lp_Variant>
CHEMBL2083_lig206-1

> <s_i_glide_gridfile>
glide-grid_2nnq

> <i_i_glide_lignum>
411

> <i_i_glide_rotatable_bonds>
4

> <r_i_docking_score>
-6.9849194869465

> <r_i_glide_ligand_efficiency>
-0.30369215160637

> <r_i_glide_ligand_efficiency_sa>
-0.863660081090763

> <r_i_glide_ligand_efficiency_ln>
-1.68901686769187

> <r_i_glide_gscore>
-6.9849194869465

> <r_i_glide_lipo>
-3.51803762160897

> <r_i_glide_hbond>
-0.0072050911820403

> <r_i_glide_metal>
0

> <r_i_glide_rewards>
-1.18780540909091

> <r_i_glide_evdw>
-35.2593803405762

> <r_i_glide_ecoul>
-5.46008110046387

> <r_i_glide_erotb>
0.353237098083831

> <r_i_glide_esite>
-0.0431272810500236

> <r_i_glide_emodel>
-58.8242495327335

> <r_i_glide_energy>
-40.71946144104

> <r_i_glide_einternal>
0.916451811790466

> <i_i_glide_confnum>
6

> <i_i_glide_posenum>
140

> <r_i_glide_eff_state_penalty>
0

> <s_user_duplicate_titles>
CHEMBL2083_lig206

> <i_f3d_flags>
0

> <s_m_subgroup_title>
dock_pv

> <s_m_subgroupid>
dock_pv

> <b_m_subgroup_collapsed>
1

$$$$
CHEMBL2083_lig106
                    3D
 Schrodinger Suite 2021-1.
 48 51  0  0  1  0            999 V2000
    6.7163    7.4921   23.0293 C   0  0  0  0  0  0
    5.8431    7.5911   21.7980 C   0  0  0  0  0  0
    6.1885    8.7764   20.5797 S   0  0  0  0  0  0
    4.9150    8.1728   19.5726 C   0  0  0  0  0  0
    4.6096    8.7763   18.3705 N   0  0  0  0  0  0
    5.4778    9.0236   17.3721 C   0  0  0  0  0  0
    6.6920    8.8134   17.4034 O   0  0  0  0  0  0
    4.8045    9.4839   16.1751 C   0  0  0  0  0  0
    4.2466   10.7304   16.0095 C   0  0  0  0  0  0
    3.4289   11.0943   14.7555 C   0  0  0  0  0  0
    3.5356   10.0304   13.6378 C   0  0  0  0  0  0
    3.5249    8.5993   14.1744 C   0  0  0  0  0  0
    4.7191    8.3817   15.1076 C   0  0  0  0  0  0
    4.3136   11.7959   17.0067 C   0  0  0  0  0  0
    3.8642   11.7022   18.1478 O   0  0  0  0  0  0
    4.9601   12.9059   16.5418 O   0  0  0  0  0  0
    4.2374    7.1047   20.1553 C   0  0  0  0  0  0
    4.7163    6.8285   21.4579 C   0  0  0  0  0  0
    4.0684    5.8386   22.4059 C   0  0  0  0  0  0
    3.1434    6.3608   19.4985 C   0  0  0  0  0  0
    2.0983    6.9091   18.9417 N   0  0  0  0  0  0
    1.2801    5.9717   18.4994 C   0  0  0  0  0  0
    1.6048    4.6952   18.5513 N   0  0  0  0  0  0
    3.1184    4.6363   19.3420 S   0  0  0  0  0  0
   -0.0887    6.3365   17.9520 C   0  0  0  0  0  0
   -0.6119    7.7567   17.9335 C   0  0  0  0  0  0
   -0.2189    7.0626   16.6461 C   0  0  0  0  0  0
    6.1481    7.6561   23.9461 H   0  0  0  0  0  0
    7.1793    6.5091   23.1008 H   0  0  0  0  0  0
    7.5332    8.2123   23.0286 H   0  0  0  0  0  0
    3.6320    8.9350   18.1810 H   0  0  0  0  0  0
    3.6908   12.0762   14.3546 H   0  0  0  0  0  0
    2.3794   11.1706   15.0471 H   0  0  0  0  0  0
    4.4525   10.1893   13.0670 H   0  0  0  0  0  0
    2.7203   10.1330   12.9234 H   0  0  0  0  0  0
    2.5900    8.4052   14.7043 H   0  0  0  0  0  0
    3.5614    7.8878   13.3467 H   0  0  0  0  0  0
    4.6579    7.3794   15.5421 H   0  0  0  0  0  0
    5.6407    8.3736   14.5222 H   0  0  0  0  0  0
    5.1127   13.5828   17.2289 H   0  0  0  0  0  0
    4.3261    4.8110   22.1482 H   0  0  0  0  0  0
    4.3319    6.0100   23.4497 H   0  0  0  0  0  0
    2.9809    5.9035   22.3628 H   0  0  0  0  0  0
   -0.8442    5.5723   18.1409 H   0  0  0  0  0  0
   -1.6720    7.9234   18.1404 H   0  0  0  0  0  0
    0.0105    8.5715   18.2991 H   0  0  0  0  0  0
    0.6982    7.3679   16.1425 H   0  0  0  0  0  0
   -1.0004    6.7306   15.9622 H   0  0  0  0  0  0
  1  2  1  0  0  0
  1 28  1  0  0  0
  1 29  1  0  0  0
  1 30  1  0  0  0
  2  3  1  0  0  0
  2 18  2  0  0  0
  3  4  1  0  0  0
  4  5  1  0  0  0
  4 17  2  0  0  0
  5  6  1  0  0  0
  5 31  1  0  0  0
  6  7  2  0  0  0
  6  8  1  0  0  0
  8  9  2  0  0  0
  8 13  1  0  0  0
  9 10  1  0  0  0
  9 14  1  0  0  0
 10 11  1  0  0  0
 10 32  1  0  0  0
 10 33  1  0  0  0
 11 12  1  0  0  0
 11 34  1  0  0  0
 11 35  1  0  0  0
 12 13  1  0  0  0
 12 36  1  0  0  0
 12 37  1  0  0  0
 13 38  1  0  0  0
 13 39  1  0  0  0
 14 15  2  0  0  0
 14 16  1  0  0  0
 16 40  1  0  0  0
 17 18  1  0  0  0
 17 20  1  0  0  0
 18 19  1  0  0  0
 19 41  1  0  0  0
 19 42  1  0  0  0
 19 43  1  0  0  0
 20 21  2  0  0  0
 20 24  1  0  0  0
 21 22  1  0  0  0
 22 23  2  0  0  0
 22 25  1  0  0  0
 23 24  1  0  0  0
 25 26  1  0  0  0
 25 27  1  0  0  0
 25 44  1  0  0  0
 26 27  1  0  0  0
 26 45  1  0  0  0
 26 46  1  0  0  0
 27 47  1  0  0  0
 27 48  1  0  0  0
M  END
> <s_m_entry_id>
2617

> <s_m_entry_name>
dock_pv.145

> <s_m_Source_Path>
/home/csk/Desktop/cluster/DUD-E-result/fabp4

> <s_m_Source_File>
dock_pv.maegz

> <i_m_Source_File_Index>
145

> <chembl_id>
CHEMBL3952008

> <chembl_pref_name>
None

> <i_lp_mmshare_version>
53161

> <r_lp_tautomer_probability>
1

> <s_lp_Force_Field>
OPLS_2005

> <r_lp_Energy>
30.564314

> <b_lp_Chiralities_Consistent>
1

> <s_lp_Variant>
CHEMBL2083_lig106-1

> <s_i_glide_gridfile>
glide-grid_2nnq

> <i_i_glide_lignum>
116

> <i_i_glide_rotatable_bonds>
7

> <r_i_docking_score>
-6.97309292198693

> <r_i_glide_ligand_efficiency>
-0.258262700814331

> <r_i_glide_ligand_efficiency_sa>
-0.774788101591801

> <r_i_glide_ligand_efficiency_ln>
-1.62322107181709

> <r_i_glide_gscore>
-6.97309292198693

> <r_i_glide_lipo>
-3.46291895386301

> <r_i_glide_hbond>
0

> <r_i_glide_metal>
0

> <r_i_glide_rewards>
-1.14281018747333

> <r_i_glide_evdw>
-43.5052070617676

> <r_i_glide_ecoul>
-5.81500196456909

> <r_i_glide_erotb>
0.723493918825653

> <r_i_glide_esite>
-0.043347051702498

> <r_i_glide_emodel>
-69.7414931414068

> <r_i_glide_energy>
-49.3202090263367

> <r_i_glide_einternal>
1.93923437595367

> <i_i_glide_confnum>
120

> <i_i_glide_posenum>
213

> <r_i_glide_eff_state_penalty>
0

> <s_user_duplicate_titles>
CHEMBL2083_lig106

> <i_f3d_flags>
0

> <s_m_subgroup_title>
dock_pv

> <s_m_subgroupid>
dock_pv

> <b_m_subgroup_collapsed>
1

$$$$
CHEMBL2083_lig202
                    3D
 Schrodinger Suite 2021-1.
 56 60  0  0  1  0            999 V2000
    3.8948    9.2385   17.7061 C   0  0  2  0  0  0
    2.6743    8.4778   17.3860 N   0  0  0  0  0  0
    3.1792    6.7084   18.9923 C   0  0  0  0  0  0
    2.3120    7.2636   18.0229 C   0  0  0  0  0  0
    1.0868    6.6293   17.7097 C   0  0  0  0  0  0
    0.8511    5.3458   18.2240 C   0  0  0  0  0  0
    1.7509    4.7538   19.1061 C   0  0  0  0  0  0
    2.8827    5.4477   19.5166 C   0  0  0  0  0  0
    4.2153    8.9915   19.1971 C   0  0  1  0  0  0
    4.4230    7.4933   19.4004 C   0  0  1  0  0  0
    5.0986    7.3810   20.7791 C   0  0  1  0  0  0
    5.9887    8.6291   20.8628 C   0  0  2  0  0  0
    5.4027    9.6722   19.8912 C   0  0  0  0  0  0
    7.6807    8.1498   20.4278 S   0  0  0  0  0  0
    7.7477    7.7910   18.6921 C   0  0  0  0  0  0
    3.9205    7.3840   22.1045 Cl  0  0  0  0  0  0
   -0.0114    7.3343   16.9400 C   0  0  0  0  0  0
   -0.1436    8.5548   16.9331 O   0  0  0  0  0  0
   -0.8439    6.5104   16.2495 O   0  0  0  0  0  0
    3.7137   10.6983   17.2769 C   0  0  0  0  0  0
    3.4844   11.6829   18.2513 C   0  0  0  0  0  0
    3.0346   12.9437   17.9049 C   0  0  0  0  0  0
    2.7670   13.2200   16.5747 C   0  0  0  0  0  0
    3.0770   12.3034   15.5773 C   0  0  0  0  0  0
    3.5861   11.0415   15.9077 C   0  0  0  0  0  0
    8.1024    8.7477   17.7271 C   0  0  0  0  0  0
    8.2500    8.2899   16.4099 C   0  0  0  0  0  0
    7.8849    7.0132   16.0074 C   0  0  0  0  0  0
    7.4719    6.1017   16.9521 C   0  0  0  0  0  0
    7.4447    6.4952   18.2771 C   0  0  0  0  0  0
    8.3163   10.1859   18.0423 N   0  3  0  0  0  0
    8.0646   11.0084   17.1696 O   0  0  0  0  0  0
    8.7202   10.5122   19.1498 O   0  5  0  0  0  0
    3.9010   10.1002   14.8070 N   0  3  0  0  0  0
    4.9179    9.4122   14.8847 O   0  0  0  0  0  0
    3.1484   10.0778   13.8377 O   0  5  0  0  0  0
    4.7251    8.8353   17.1303 H   0  0  0  0  0  0
    2.0686    8.8909   16.6891 H   0  0  0  0  0  0
   -0.0634    4.8078   18.0132 H   0  0  0  0  0  0
    1.5401    3.7771   19.5190 H   0  0  0  0  0  0
    3.5436    4.9942   20.2415 H   0  0  0  0  0  0
    3.3516    9.3240   19.7429 H   0  0  0  0  0  0
    5.1311    7.1629   18.6532 H   0  0  0  0  0  0
    5.7135    6.5128   20.8854 H   0  0  0  0  0  0
    6.0410    9.0092   21.8839 H   0  0  0  0  0  0
    6.1060   10.0419   19.1565 H   0  0  0  0  0  0
    5.1035   10.5504   20.4606 H   0  0  0  0  0  0
   -0.5810    5.5979   16.3675 H   0  0  0  0  0  0
    3.5587   11.4820   19.3033 H   0  0  0  0  0  0
    2.8005   13.6632   18.6794 H   0  0  0  0  0  0
    2.2266   14.1086   16.3294 H   0  0  0  0  0  0
    2.8803   12.5666   14.5462 H   0  0  0  0  0  0
    8.6620    8.9105   15.6556 H   0  0  0  0  0  0
    7.9254    6.7231   14.9696 H   0  0  0  0  0  0
    7.1976    5.0969   16.6683 H   0  0  0  0  0  0
    7.1304    5.7473   18.9651 H   0  0  0  0  0  0
  1  9  1  0  0  0
  1  2  1  0  0  0
  1 20  1  0  0  0
  1 37  1  0  0  0
  2  4  1  0  0  0
  2 38  1  0  0  0
  3 10  1  0  0  0
  3  4  2  0  0  0
  3  8  1  0  0  0
  4  5  1  0  0  0
  5  6  2  0  0  0
  5 17  1  0  0  0
  6  7  1  0  0  0
  6 39  1  0  0  0
  7  8  2  0  0  0
  7 40  1  0  0  0
  8 41  1  0  0  0
  9 10  1  0  0  0
  9 13  1  0  0  0
  9 42  1  0  0  0
 10 11  1  0  0  0
 10 43  1  0  0  0
 11 12  1  0  0  0
 11 16  1  0  0  0
 11 44  1  0  0  0
 12 13  1  0  0  0
 12 14  1  0  0  0
 12 45  1  0  0  0
 13 46  1  0  0  0
 13 47  1  0  0  0
 14 15  1  0  0  0
 15 26  2  0  0  0
 15 30  1  0  0  0
 17 18  2  0  0  0
 17 19  1  0  0  0
 19 48  1  0  0  0
 20 21  2  0  0  0
 20 25  1  0  0  0
 21 22  1  0  0  0
 21 49  1  0  0  0
 22 23  2  0  0  0
 22 50  1  0  0  0
 23 24  1  0  0  0
 23 51  1  0  0  0
 24 25  2  0  0  0
 24 52  1  0  0  0
 25 34  1  0  0  0
 26 27  1  0  0  0
 26 31  1  0  0  0
 27 28  2  0  0  0
 27 53  1  0  0  0
 28 29  1  0  0  0
 28 54  1  0  0  0
 29 30  2  0  0  0
 29 55  1  0  0  0
 30 56  1  0  0  0
 31 32  2  0  0  0
 31 33  1  0  0  0
 34 35  2  0  0  0
 34 36  1  0  0  0
M  CHG  4  31   1  33  -1  34   1  36  -1
M  END
> <s_m_entry_id>
2618

> <s_m_entry_name>
dock_pv.146

> <s_m_Source_Path>
/home/csk/Desktop/cluster/DUD-E-result/fabp4

> <s_m_Source_File>
dock_pv.maegz

> <i_m_Source_File_Index>
146

> <chembl_id>
CHEMBL3827527

> <chembl_pref_name>
None

> <i_lp_mmshare_version>
53161

> <r_lp_tautomer_probability>
1

> <s_lp_Force_Field>
OPLS_2005

> <r_lp_Energy>
60.652158

> <b_lp_Chiralities_Consistent>
1

> <s_lp_Variant>
CHEMBL2083_lig202-16

> <s_i_glide_gridfile>
glide-grid_2nnq

> <i_i_glide_lignum>
391

> <i_i_glide_rotatable_bonds>
7

> <r_i_docking_score>
-6.95859355138226

> <r_i_glide_ligand_efficiency>
-0.193294265316174

> <r_i_glide_ligand_efficiency_sa>
-0.638243600940156

> <r_i_glide_ligand_efficiency_ln>
-1.51817711343987

> <r_i_glide_gscore>
-6.95859355138226

> <r_i_glide_lipo>
-4.07289052439555

> <r_i_glide_hbond>
0

> <r_i_glide_metal>
0

> <r_i_glide_rewards>
-0.893737378380098

> <r_i_glide_evdw>
-41.548755645752

> <r_i_glide_ecoul>
-0.766127705574036

> <r_i_glide_erotb>
0.297662755552557

> <r_i_glide_esite>
-0.0972714660354674

> <r_i_glide_emodel>
-37.7393717402192

> <r_i_glide_energy>
-42.314883351326

> <r_i_glide_einternal>
15.23743724823

> <i_i_glide_confnum>
58

> <i_i_glide_posenum>
256

> <r_i_glide_eff_state_penalty>
0

> <s_user_duplicate_titles>
CHEMBL2083_lig202

> <i_f3d_flags>
0

> <s_m_subgroup_title>
dock_pv

> <s_m_subgroupid>
dock_pv

> <b_m_subgroup_collapsed>
1

$$$$
CHEMBL2083_lig196
                    3D
 Schrodinger Suite 2021-1.
 47 51  0  0  1  0            999 V2000
    6.8914   10.9983   18.3046 C   0  0  0  0  0  0
    5.8533   10.7292   17.3047 N   0  0  0  0  0  0
    4.9418   11.8879   17.1394 C   0  0  1  0  0  0
    5.7343    9.5131   16.5903 C   0  0  0  0  0  0
    6.7143    8.5039   16.7744 C   0  0  0  0  0  0
    6.6497    7.3465   15.9769 C   0  0  0  0  0  0
    5.6080    7.1688   15.0800 C   0  0  0  0  0  0
    4.6006    8.1147   14.9464 C   0  0  0  0  0  0
    4.6555    9.3263   15.6695 C   0  0  0  0  0  0
    7.8087    8.6286   17.8424 C   0  0  1  0  0  0
    8.1019   10.0479   18.3406 C   0  0  2  0  0  0
    8.6277    9.8318   19.7697 C   0  0  0  0  0  0
    7.9517    8.5494   20.1956 C   0  0  0  0  0  0
    7.4797    7.8898   19.1269 C   0  0  0  0  0  0
    4.2238   11.7796   15.7830 C   0  0  1  0  0  0
    3.5675   10.4212   15.5925 C   0  0  1  0  0  0
    2.7482   10.7260   14.3458 C   0  0  0  0  0  0
    2.4688   12.0398   14.2664 C   0  0  0  0  0  0
    3.1841   12.8127   15.3538 C   0  0  0  0  0  0
    3.4405    7.7338   14.0380 C   0  0  0  0  0  0
    7.6874    6.2323   16.0852 C   0  0  0  0  0  0
    3.9275   11.9656   18.3145 C   0  0  0  0  0  0
    3.5196   13.2487   18.5404 O   0  0  0  0  0  0
    3.5183   10.9894   18.9418 O   0  0  0  0  0  0
    7.1171   12.0519   18.4836 H   0  0  0  0  0  0
    6.3697   10.7005   19.2159 H   0  0  0  0  0  0
    5.5090   12.8203   17.1663 H   0  0  0  0  0  0
    5.5583    6.2564   14.5013 H   0  0  0  0  0  0
    8.7340    8.2234   17.4303 H   0  0  0  0  0  0
    8.8753   10.5181   17.7332 H   0  0  0  0  0  0
    9.7111    9.7100   19.7881 H   0  0  0  0  0  0
    8.3849   10.6715   20.4211 H   0  0  0  0  0  0
    7.8945    8.2313   21.2261 H   0  0  0  0  0  0
    6.9885    6.9276   19.1364 H   0  0  0  0  0  0
    5.0287   11.8719   15.0451 H   0  0  0  0  0  0
    2.8701   10.1918   16.4003 H   0  0  0  0  0  0
    2.3208    9.9882   13.6983 H   0  0  0  0  0  0
    1.8338   12.5094   13.5302 H   0  0  0  0  0  0
    3.6767   13.7084   14.9835 H   0  0  0  0  0  0
    2.5035   13.1205   16.1476 H   0  0  0  0  0  0
    3.4121    6.6637   13.8277 H   0  0  0  0  0  0
    2.4883    7.9605   14.5188 H   0  0  0  0  0  0
    3.5101    8.2617   13.0874 H   0  0  0  0  0  0
    7.7719    5.8762   17.1113 H   0  0  0  0  0  0
    7.4447    5.3707   15.4612 H   0  0  0  0  0  0
    8.6680    6.5995   15.7836 H   0  0  0  0  0  0
    4.1375   13.8948   18.1595 H   0  0  0  0  0  0
  1 11  1  0  0  0
  1  2  1  0  0  0
  1 25  1  0  0  0
  1 26  1  0  0  0
  2  4  1  0  0  0
  2  3  1  0  0  0
  3 15  1  0  0  0
  3 22  1  0  0  0
  3 27  1  0  0  0
  4  5  2  0  0  0
  4  9  1  0  0  0
  5 10  1  0  0  0
  5  6  1  0  0  0
  6  7  2  0  0  0
  6 21  1  0  0  0
  7  8  1  0  0  0
  7 28  1  0  0  0
  8  9  2  0  0  0
  8 20  1  0  0  0
  9 16  1  0  0  0
 10 11  1  0  0  0
 10 14  1  0  0  0
 10 29  1  0  0  0
 11 12  1  0  0  0
 11 30  1  0  0  0
 12 13  1  0  0  0
 12 31  1  0  0  0
 12 32  1  0  0  0
 13 14  2  0  0  0
 13 33  1  0  0  0
 14 34  1  0  0  0
 15 16  1  0  0  0
 15 19  1  0  0  0
 15 35  1  0  0  0
 16 17  1  0  0  0
 16 36  1  0  0  0
 17 18  2  0  0  0
 17 37  1  0  0  0
 18 19  1  0  0  0
 18 38  1  0  0  0
 19 39  1  0  0  0
 19 40  1  0  0  0
 20 41  1  0  0  0
 20 42  1  0  0  0
 20 43  1  0  0  0
 21 44  1  0  0  0
 21 45  1  0  0  0
 21 46  1  0  0  0
 22 23  1  0  0  0
 22 24  2  0  0  0
 23 47  1  0  0  0
M  END
> <s_m_entry_id>
2619

> <s_m_entry_name>
dock_pv.147

> <s_m_Source_Path>
/home/csk/Desktop/cluster/DUD-E-result/fabp4

> <s_m_Source_File>
dock_pv.maegz

> <i_m_Source_File_Index>
147

> <chembl_id>
CHEMBL3827900

> <chembl_pref_name>
None

> <i_lp_mmshare_version>
53161

> <r_lp_tautomer_probability>
1

> <s_lp_Force_Field>
OPLS_2005

> <r_lp_Energy>
79.00225

> <b_lp_Chiralities_Consistent>
1

> <s_lp_Variant>
CHEMBL2083_lig196-28

> <s_i_glide_gridfile>
glide-grid_2nnq

> <i_i_glide_lignum>
273

> <i_i_glide_rotatable_bonds>
2

> <r_i_docking_score>
-6.95690821034906

> <r_i_glide_ligand_efficiency>
-0.289871175431211

> <r_i_glide_ligand_efficiency_sa>
-0.836133155534576

> <r_i_glide_ligand_efficiency_ln>
-1.66510736645289

> <r_i_glide_gscore>
-6.95690821034906

> <r_i_glide_lipo>
-2.60153382706696

> <r_i_glide_hbond>
-0.253041593009838

> <r_i_glide_metal>
0

> <r_i_glide_rewards>
-1.21763986363636

> <r_i_glide_evdw>
-31.2115516662598

> <r_i_glide_ecoul>
-9.39582443237305

> <r_i_glide_erotb>
0.180881914396739

> <r_i_glide_esite>
-0.0956235928636901

> <r_i_glide_emodel>
-56.1851709671606

> <r_i_glide_energy>
-40.6073760986328

> <r_i_glide_einternal>
0.787968933582306

> <i_i_glide_confnum>
1

> <i_i_glide_posenum>
300

> <r_i_glide_eff_state_penalty>
0

> <s_user_duplicate_titles>
CHEMBL2083_lig196

> <i_f3d_flags>
0

> <s_m_subgroup_title>
dock_pv

> <s_m_subgroupid>
dock_pv

> <b_m_subgroup_collapsed>
1

$$$$
CHEMBL2083_lig182
                    3D
 Schrodinger Suite 2021-1.
 56 60  0  0  1  0            999 V2000
    2.2509    6.0700   17.9354 C   0  0  0  0  0  0
    0.9413    5.6142   18.1085 C   0  0  0  0  0  0
    0.7075    4.3119   18.5416 C   0  0  0  0  0  0
    1.7763    3.4960   18.8906 C   0  0  0  0  0  0
    3.0805    3.9416   18.7004 C   0  0  0  0  0  0
    3.3349    5.1920   18.1343 C   0  0  0  0  0  0
    4.7219    5.5214   17.6976 C   0  0  0  0  0  0
    7.3495    6.0781   16.8907 C   0  0  0  0  0  0
    6.4768    5.4270   16.0201 C   0  0  0  0  0  0
    5.1666    5.1656   16.4193 C   0  0  0  0  0  0
    6.9088    6.5111   18.1425 C   0  0  0  0  0  0
    5.5925    6.2223   18.5323 C   0  0  0  0  0  0
    8.3030    9.1362   20.2979 C   0  0  0  0  0  0
    7.3140    7.9993   20.0157 C   0  0  0  0  0  0
    7.8077    7.2046   18.9265 O   0  0  0  0  0  0
    9.5198    8.9075   19.7421 O   0  0  0  0  0  0
    8.0148   10.1392   20.9420 O   0  0  0  0  0  0
    2.4747    7.4875   17.5696 C   0  0  0  0  0  0
    3.6199    8.0362   18.0372 O   0  0  0  0  0  0
    3.7598    9.2552   17.4970 C   0  0  0  0  0  0
    2.6144    9.5669   16.8049 C   0  0  0  0  0  0
    1.7845    8.4439   16.8501 C   0  0  0  0  0  0
    5.0804    9.9079   17.6233 C   0  0  0  0  0  0
    5.2865   11.0806   18.3513 C   0  0  0  0  0  0
    6.5492   11.6619   18.3686 C   0  0  0  0  0  0
    7.6038   11.0540   17.6911 C   0  0  0  0  0  0
    7.4023    9.8711   16.9787 C   0  0  0  0  0  0
    6.1306    9.3189   16.9212 C   0  0  0  0  0  0
    2.4242   10.8239   16.1064 C   0  0  0  0  0  0
    2.2935   10.8420   14.7243 C   0  0  0  0  0  0
    2.0982   12.0552   14.0936 C   0  0  0  0  0  0
    2.1010   13.2187   14.8455 C   0  0  0  0  0  0
    2.3198   13.2062   16.2173 C   0  0  0  0  0  0
    2.4531   11.9936   16.8573 C   0  0  0  0  0  0
    0.1022    6.2681   17.9178 H   0  0  0  0  0  0
   -0.3054    3.9543   18.6597 H   0  0  0  0  0  0
    1.5916    2.5087   19.2796 H   0  0  0  0  0  0
    3.9012    3.2825   18.9411 H   0  0  0  0  0  0
    8.3622    6.2877   16.5789 H   0  0  0  0  0  0
    6.8116    5.1352   15.0351 H   0  0  0  0  0  0
    4.4937    4.6773   15.7300 H   0  0  0  0  0  0
    5.2285    6.5194   19.5037 H   0  0  0  0  0  0
    7.2085    7.3860   20.9106 H   0  0  0  0  0  0
    6.3525    8.4616   19.7876 H   0  0  0  0  0  0
    9.4995    8.0845   19.2449 H   0  0  0  0  0  0
    0.8257    8.3287   16.3677 H   0  0  0  0  0  0
    4.4833   11.5481   18.8977 H   0  0  0  0  0  0
    6.7177   12.5744   18.9228 H   0  0  0  0  0  0
    8.5887   11.4966   17.7434 H   0  0  0  0  0  0
    8.2351    9.3729   16.5055 H   0  0  0  0  0  0
    5.9615    8.4195   16.3463 H   0  0  0  0  0  0
    2.3208    9.9271   14.1509 H   0  0  0  0  0  0
    1.9434   12.1085   13.0258 H   0  0  0  0  0  0
    1.9197   14.1300   14.3226 H   0  0  0  0  0  0
    2.3201   14.1083   16.8108 H   0  0  0  0  0  0
    2.5606   11.9697   17.9306 H   0  0  0  0  0  0
  1 18  1  0  0  0
  1  6  1  0  0  0
  1  2  2  0  0  0
  2  3  1  0  0  0
  2 35  1  0  0  0
  3  4  2  0  0  0
  3 36  1  0  0  0
  4  5  1  0  0  0
  4 37  1  0  0  0
  5  6  2  0  0  0
  5 38  1  0  0  0
  6  7  1  0  0  0
  7 10  1  0  0  0
  7 12  2  0  0  0
  8  9  1  0  0  0
  8 11  2  0  0  0
  8 39  1  0  0  0
  9 10  2  0  0  0
  9 40  1  0  0  0
 10 41  1  0  0  0
 11 12  1  0  0  0
 11 15  1  0  0  0
 12 42  1  0  0  0
 13 16  1  0  0  0
 13 17  2  0  0  0
 13 14  1  0  0  0
 14 15  1  0  0  0
 14 43  1  0  0  0
 14 44  1  0  0  0
 16 45  1  0  0  0
 18 19  1  0  0  0
 18 22  2  0  0  0
 19 20  1  0  0  0
 20 21  2  0  0  0
 20 23  1  0  0  0
 21 22  1  0  0  0
 21 29  1  0  0  0
 22 46  1  0  0  0
 23 24  2  0  0  0
 23 28  1  0  0  0
 24 25  1  0  0  0
 24 47  1  0  0  0
 25 26  2  0  0  0
 25 48  1  0  0  0
 26 27  1  0  0  0
 26 49  1  0  0  0
 27 28  2  0  0  0
 27 50  1  0  0  0
 28 51  1  0  0  0
 29 30  2  0  0  0
 29 34  1  0  0  0
 30 31  1  0  0  0
 30 52  1  0  0  0
 31 32  2  0  0  0
 31 53  1  0  0  0
 32 33  1  0  0  0
 32 54  1  0  0  0
 33 34  2  0  0  0
 33 55  1  0  0  0
 34 56  1  0  0  0
M  END
> <s_m_entry_id>
2620

> <s_m_entry_name>
dock_pv.148

> <s_m_Source_Path>
/home/csk/Desktop/cluster/DUD-E-result/fabp4

> <s_m_Source_File>
dock_pv.maegz

> <i_m_Source_File_Index>
148

> <chembl_id>
CHEMBL246902

> <chembl_pref_name>
None

> <i_lp_mmshare_version>
53161

> <r_lp_tautomer_probability>
1

> <s_lp_Force_Field>
OPLS_2005

> <r_lp_Energy>
33.796517

> <b_lp_Chiralities_Consistent>
1

> <s_lp_Variant>
CHEMBL2083_lig182-1

> <s_i_glide_gridfile>
glide-grid_2nnq

> <i_i_glide_lignum>
199

> <i_i_glide_rotatable_bonds>
8

> <r_i_docking_score>
-6.95513803572141

> <r_i_glide_ligand_efficiency>
-0.204562883403571

> <r_i_glide_ligand_efficiency_sa>
-0.662704330398579

> <r_i_glide_ligand_efficiency_ln>
-1.53658507710479

> <r_i_glide_gscore>
-6.95513803572141

> <r_i_glide_lipo>
-4.33669265978936

> <r_i_glide_hbond>
-0.208684325607696

> <r_i_glide_metal>
0

> <r_i_glide_rewards>
-0.748067467236717

> <r_i_glide_evdw>
-35.4035873413086

> <r_i_glide_ecoul>
-3.96244668960571

> <r_i_glide_erotb>
0.70285278741865

> <r_i_glide_esite>
0

> <r_i_glide_emodel>
-44.2075966477158

> <r_i_glide_energy>
-39.3660340309143

> <r_i_glide_einternal>
7.16003322601318

> <i_i_glide_confnum>
38

> <i_i_glide_posenum>
259

> <r_i_glide_eff_state_penalty>
0

> <s_user_duplicate_titles>
CHEMBL2083_lig182,412726

> <i_f3d_flags>
0

> <s_m_subgroup_title>
dock_pv

> <s_m_subgroupid>
dock_pv

> <b_m_subgroup_collapsed>
1

$$$$
CHEMBL2083_lig146 
                    3D
 Schrodinger Suite 2021-1.
 56 59  0  0  1  0            999 V2000
    3.5202    3.9606   18.9419 O   0  0  0  0  0  0
    2.6255    5.0643   18.5972 S   0  0  0  0  0  0
    1.2198    4.7862   18.2819 O   0  0  0  0  0  0
    2.3504    6.8132   16.5463 C   0  0  0  0  0  0
    2.7201    7.6998   15.5546 C   0  0  0  0  0  0
    4.0515    7.9172   15.2274 C   0  0  0  0  0  0
    3.2940    6.0530   17.2310 C   0  0  0  0  0  0
    4.6789    6.1434   16.8378 C   0  0  0  0  0  0
    5.0488    7.1007   15.8288 C   0  0  0  0  0  0
    6.4116    7.2244   15.4476 C   0  0  0  0  0  0
    7.3901    6.4317   16.0302 C   0  0  0  0  0  0
    7.0454    5.4955   16.9894 C   0  0  0  0  0  0
    5.7230    5.3485   17.3918 C   0  0  0  0  0  0
    2.5802    6.1569   19.9851 N   0  0  0  0  0  0
    3.7049    6.5091   20.7415 C   0  0  0  0  0  0
    4.7216    7.3083   20.2043 C   0  0  0  0  0  0
    5.8198    7.6923   20.9918 C   0  0  0  0  0  0
    5.8836    7.2733   22.3293 C   0  0  0  0  0  0
    4.8515    6.5079   22.8687 C   0  0  0  0  0  0
    3.7678    6.1238   22.0802 C   0  0  0  0  0  0
    6.9392    7.5936   23.1174 F   0  0  0  0  0  0
    6.9306    8.5120   20.4016 C   0  0  0  0  0  0
    7.4490    8.0000   19.2546 O   0  0  0  0  0  0
    7.3580    9.5322   20.9363 O   0  0  0  0  0  0
    4.4087    8.8625   14.2845 O   0  0  0  0  0  0
    4.1547   10.2620   14.5245 C   0  0  0  0  0  0
    2.6734   10.6192   14.2896 C   0  0  0  0  0  0
    2.3793   12.1089   14.1069 C   0  0  0  0  0  0
    4.7295   10.7514   15.8786 C   0  0  0  0  0  0
    2.1363   12.9092   15.3873 C   0  0  0  0  0  0
    4.5740   12.2638   16.1716 C   0  0  0  0  0  0
    3.1464   12.7251   16.5436 C   0  0  0  0  0  0
    1.2991    6.7308   16.7826 H   0  0  0  0  0  0
    1.9312    8.2109   15.0317 H   0  0  0  0  0  0
    6.6866    7.9381   14.6868 H   0  0  0  0  0  0
    8.4248    6.5389   15.7421 H   0  0  0  0  0  0
    7.8156    4.8842   17.4385 H   0  0  0  0  0  0
    5.5260    4.6092   18.1423 H   0  0  0  0  0  0
    1.6958    6.5908   20.1972 H   0  0  0  0  0  0
    4.6516    7.6347   19.1755 H   0  0  0  0  0  0
    4.9002    6.1988   23.9013 H   0  0  0  0  0  0
    2.9794    5.5262   22.5142 H   0  0  0  0  0  0
    8.1721    8.5511   18.9518 H   0  0  0  0  0  0
    4.7391   10.7361   13.7341 H   0  0  0  0  0  0
    2.3207   10.1093   13.3947 H   0  0  0  0  0  0
    2.0557   10.2711   15.1140 H   0  0  0  0  0  0
    3.1774   12.5747   13.5243 H   0  0  0  0  0  0
    1.4862   12.2007   13.4868 H   0  0  0  0  0  0
    4.3017   10.1820   16.7039 H   0  0  0  0  0  0
    5.7972   10.5363   15.8799 H   0  0  0  0  0  0
    2.0911   13.9587   15.0981 H   0  0  0  0  0  0
    1.1314   12.6814   15.7455 H   0  0  0  0  0  0
    4.9592   12.8585   15.3418 H   0  0  0  0  0  0
    5.2246   12.5044   17.0154 H   0  0  0  0  0  0
    3.2186   13.6797   17.0725 H   0  0  0  0  0  0
    2.7323   12.0272   17.2729 H   0  0  0  0  0  0
  1  2  2  0  0  0
  2  3  2  0  0  0
  2  7  1  0  0  0
  2 14  1  0  0  0
  4  5  2  0  0  0
  4  7  1  0  0  0
  4 33  1  0  0  0
  5  6  1  0  0  0
  5 34  1  0  0  0
  6  9  2  0  0  0
  6 25  1  0  0  0
  7  8  2  0  0  0
  8  9  1  0  0  0
  8 13  1  0  0  0
  9 10  1  0  0  0
 10 11  2  0  0  0
 10 35  1  0  0  0
 11 12  1  0  0  0
 11 36  1  0  0  0
 12 13  2  0  0  0
 12 37  1  0  0  0
 13 38  1  0  0  0
 14 15  1  0  0  0
 14 39  1  0  0  0
 15 16  2  0  0  0
 15 20  1  0  0  0
 16 17  1  0  0  0
 16 40  1  0  0  0
 17 18  2  0  0  0
 17 22  1  0  0  0
 18 19  1  0  0  0
 18 21  1  0  0  0
 19 20  2  0  0  0
 19 41  1  0  0  0
 20 42  1  0  0  0
 22 23  1  0  0  0
 22 24  2  0  0  0
 23 43  1  0  0  0
 25 26  1  0  0  0
 26 27  1  0  0  0
 26 29  1  0  0  0
 26 44  1  0  0  0
 27 28  1  0  0  0
 27 45  1  0  0  0
 27 46  1  0  0  0
 28 30  1  0  0  0
 28 47  1  0  0  0
 28 48  1  0  0  0
 29 31  1  0  0  0
 29 49  1  0  0  0
 29 50  1  0  0  0
 30 32  1  0  0  0
 30 51  1  0  0  0
 30 52  1  0  0  0
 31 32  1  0  0  0
 31 53  1  0  0  0
 31 54  1  0  0  0
 32 55  1  0  0  0
 32 56  1  0  0  0
M  END
> <s_m_entry_id>
2621

> <s_m_entry_name>
dock_pv.149

> <s_m_Source_Path>
/home/csk/Desktop/cluster/DUD-E-result/fabp4

> <s_m_Source_File>
dock_pv.maegz

> <i_m_Source_File_Index>
149

> <chembl_id>
CHEMBL4457434

> <chembl_pref_name>
None

> <i_lp_mmshare_version>
53161

> <r_lp_tautomer_probability>
1

> <s_lp_Force_Field>
OPLS_2005

> <r_lp_Energy>
34.79484

> <b_lp_Chiralities_Consistent>
1

> <s_lp_Variant>
CHEMBL2083_lig146 -1

> <s_i_glide_gridfile>
glide-grid_2nnq

> <i_i_glide_lignum>
160

> <i_i_glide_rotatable_bonds>
7

> <r_i_docking_score>
-6.94294917934547

> <r_i_glide_ligand_efficiency>
-0.216967161854546

> <r_i_glide_ligand_efficiency_sa>
-0.688827801145156

> <r_i_glide_ligand_efficiency_ln>
-1.55471557890217

> <r_i_glide_gscore>
-6.94294917934547

> <r_i_glide_lipo>
-3.59545192265291

> <r_i_glide_hbond>
-0.0160975243985263

> <r_i_glide_metal>
0

> <r_i_glide_rewards>
-1.18152544614849

> <r_i_glide_evdw>
-52.9358825683594

> <r_i_glide_ecoul>
-0.52925431728363

> <r_i_glide_erotb>
0.576307989864974

> <r_i_glide_esite>
0

> <r_i_glide_emodel>
-67.9275953607882

> <r_i_glide_energy>
-53.465136885643

> <r_i_glide_einternal>
17.9836273193359

> <i_i_glide_confnum>
284

> <i_i_glide_posenum>
104

> <r_i_glide_eff_state_penalty>
0

> <s_user_duplicate_titles>
CHEMBL2083_lig146 

> <i_f3d_flags>
0

> <s_m_subgroup_title>
dock_pv

> <s_m_subgroupid>
dock_pv

> <b_m_subgroup_collapsed>
1

$$$$
CHEMBL2083_lig169
                    3D
 Schrodinger Suite 2021-1.
 69 73  0  0  1  0            999 V2000
    2.8737   10.6124   16.6944 C   0  0  0  0  0  0
    2.0140   11.1720   15.7444 C   0  0  0  0  0  0
    1.7871   12.5397   15.7420 C   0  0  0  0  0  0
    2.3201   13.3090   16.7708 C   0  0  0  0  0  0
    3.1758   12.7680   17.7122 C   0  0  0  0  0  0
    3.5064   11.4181   17.6682 C   0  0  0  0  0  0
    4.5226   10.9096   18.6330 C   0  0  0  0  0  0
    6.4854    9.9197   20.3848 C   0  0  0  0  0  0
    6.6902   11.1207   19.7094 C   0  0  0  0  0  0
    5.7236   11.5988   18.8303 C   0  0  0  0  0  0
    5.2909    9.2172   20.1982 C   0  0  0  0  0  0
    4.3200    9.7307   19.3487 C   0  0  0  0  0  0
    4.9899    6.5090   22.7342 C   0  0  0  0  0  0
    5.8423    7.4013   21.8328 C   0  0  0  0  0  0
    4.9906    8.0045   20.8192 N   0  0  0  0  0  0
    4.1089    5.7088   22.0659 O   0  0  0  0  0  0
    5.1200    6.5089   23.9479 O   0  0  0  0  0  0
    3.1585    9.1716   16.6001 C   0  0  0  0  0  0
    2.3576    8.2492   17.0610 N   0  0  0  0  0  0
    3.0651    7.1317   17.0766 C   0  0  0  0  0  0
    4.3240    7.3433   16.4965 C   0  0  0  0  0  0
    4.3493    8.6742   16.1407 N   0  0  0  0  0  0
    2.4721    5.9095   17.6968 C   0  0  0  0  0  0
    3.2485    5.0517   18.4823 C   0  0  0  0  0  0
    2.6617    3.9562   19.1107 C   0  0  0  0  0  0
    1.3031    3.7090   18.9402 C   0  0  0  0  0  0
    0.5258    4.5419   18.1419 C   0  0  0  0  0  0
    1.1051    5.6512   17.5356 C   0  0  0  0  0  0
    5.5032    6.4905   16.2569 C   0  0  0  0  0  0
    6.4067    6.2241   17.2848 C   0  0  0  0  0  0
    7.6232    5.6268   16.9756 C   0  0  0  0  0  0
    7.9206    5.3090   15.6550 C   0  0  0  0  0  0
    7.0111    5.5487   14.6364 C   0  0  0  0  0  0
    5.7924    6.1357   14.9418 C   0  0  0  0  0  0
    5.4553    9.4279   15.5167 C   0  0  0  0  0  0
    5.0998   10.1035   14.1534 C   0  0  0  0  0  0
    5.0546   11.6469   14.2558 C   0  0  0  0  0  0
    3.9113    9.4889   13.3849 C   0  0  0  0  0  0
    1.5285   10.5603   15.0013 H   0  0  0  0  0  0
    1.1198   12.9818   15.0170 H   0  0  0  0  0  0
    2.0045   14.3276   16.9418 H   0  0  0  0  0  0
    3.5847   13.4123   18.4785 H   0  0  0  0  0  0
    7.2588    9.5451   21.0353 H   0  0  0  0  0  0
    7.5933   11.6933   19.8483 H   0  0  0  0  0  0
    5.9228   12.5089   18.2872 H   0  0  0  0  0  0
    3.3964    9.1900   19.2327 H   0  0  0  0  0  0
    6.6336    6.8121   21.3703 H   0  0  0  0  0  0
    6.3082    8.1603   22.4625 H   0  0  0  0  0  0
    4.2285    7.4449   20.4587 H   0  0  0  0  0  0
    3.6304    5.1697   22.6992 H   0  0  0  0  0  0
    4.2969    5.2469   18.6382 H   0  0  0  0  0  0
    3.2500    3.3031   19.7361 H   0  0  0  0  0  0
    0.8444    2.8685   19.4362 H   0  0  0  0  0  0
   -0.5256    4.3380   18.0129 H   0  0  0  0  0  0
    0.4906    6.3052   16.9334 H   0  0  0  0  0  0
    6.2011    6.5403   18.2979 H   0  0  0  0  0  0
    8.3599    5.4484   17.7421 H   0  0  0  0  0  0
    8.8919    4.9091   15.4068 H   0  0  0  0  0  0
    7.2590    5.3091   13.6141 H   0  0  0  0  0  0
    5.1000    6.3726   14.1462 H   0  0  0  0  0  0
    5.7984   10.1630   16.2445 H   0  0  0  0  0  0
    6.3043    8.7620   15.3785 H   0  0  0  0  0  0
    5.9202    9.9030   13.4716 H   0  0  0  0  0  0
    4.4112   12.0002   15.0518 H   0  0  0  0  0  0
    6.0370   12.0689   14.4637 H   0  0  0  0  0  0
    4.7010   12.1167   13.3420 H   0  0  0  0  0  0
    3.0054    9.3903   13.9704 H   0  0  0  0  0  0
    3.6508   10.1066   12.5339 H   0  0  0  0  0  0
    4.1546    8.4906   13.0200 H   0  0  0  0  0  0
  1  6  1  0  0  0
  1  2  2  0  0  0
  1 18  1  0  0  0
  2  3  1  0  0  0
  2 39  1  0  0  0
  3  4  2  0  0  0
  3 40  1  0  0  0
  4  5  1  0  0  0
  4 41  1  0  0  0
  5  6  2  0  0  0
  5 42  1  0  0  0
  6  7  1  0  0  0
  7 10  1  0  0  0
  7 12  2  0  0  0
  8  9  1  0  0  0
  8 11  2  0  0  0
  8 43  1  0  0  0
  9 10  2  0  0  0
  9 44  1  0  0  0
 10 45  1  0  0  0
 11 12  1  0  0  0
 11 15  1  0  0  0
 12 46  1  0  0  0
 13 14  1  0  0  0
 13 16  1  0  0  0
 13 17  2  0  0  0
 14 15  1  0  0  0
 14 47  1  0  0  0
 14 48  1  0  0  0
 15 49  1  0  0  0
 16 50  1  0  0  0
 18 19  2  0  0  0
 18 22  1  0  0  0
 19 20  1  0  0  0
 20 21  2  0  0  0
 20 23  1  0  0  0
 21 22  1  0  0  0
 21 29  1  0  0  0
 22 35  1  0  0  0
 23 24  2  0  0  0
 23 28  1  0  0  0
 24 25  1  0  0  0
 24 51  1  0  0  0
 25 26  2  0  0  0
 25 52  1  0  0  0
 26 27  1  0  0  0
 26 53  1  0  0  0
 27 28  2  0  0  0
 27 54  1  0  0  0
 28 55  1  0  0  0
 29 30  2  0  0  0
 29 34  1  0  0  0
 30 31  1  0  0  0
 30 56  1  0  0  0
 31 32  2  0  0  0
 31 57  1  0  0  0
 32 33  1  0  0  0
 32 58  1  0  0  0
 33 34  2  0  0  0
 33 59  1  0  0  0
 34 60  1  0  0  0
 35 36  1  0  0  0
 35 61  1  0  0  0
 35 62  1  0  0  0
 36 37  1  0  0  0
 36 38  1  0  0  0
 36 63  1  0  0  0
 37 64  1  0  0  0
 37 65  1  0  0  0
 37 66  1  0  0  0
 38 67  1  0  0  0
 38 68  1  0  0  0
 38 69  1  0  0  0
M  END
> <s_m_entry_id>
2622

> <s_m_entry_name>
dock_pv.150

> <s_m_Source_Path>
/home/csk/Desktop/cluster/DUD-E-result/fabp4

> <s_m_Source_File>
dock_pv.maegz

> <i_m_Source_File_Index>
150

> <chembl_id>
CHEMBL245857

> <chembl_pref_name>
None

> <i_lp_mmshare_version>
53161

> <r_lp_tautomer_probability>
1

> <s_lp_Force_Field>
OPLS_2005

> <r_lp_Energy>
37.03635

> <b_lp_Chiralities_Consistent>
1

> <s_lp_Variant>
CHEMBL2083_lig169-1

> <s_i_glide_gridfile>
glide-grid_2nnq

> <i_i_glide_lignum>
185

> <i_i_glide_rotatable_bonds>
10

> <r_i_docking_score>
-6.92689191041381

> <r_i_glide_ligand_efficiency>
-0.182286629221416

> <r_i_glide_ligand_efficiency_sa>
-0.612843163687592

> <r_i_glide_ligand_efficiency_ln>
-1.49364166440036

> <r_i_glide_gscore>
-6.92689191041381

> <r_i_glide_lipo>
-3.93413972862946

> <r_i_glide_hbond>
0

> <r_i_glide_metal>
0

> <r_i_glide_rewards>
-0.8649406682808

> <r_i_glide_evdw>
-47.5249519348145

> <r_i_glide_ecoul>
-2.67358756065369

> <r_i_glide_erotb>
0.649474217335219

> <r_i_glide_esite>
0

> <r_i_glide_emodel>
-54.5101025716136

> <r_i_glide_energy>
-50.1985394954681

> <r_i_glide_einternal>
13.1570281982422

> <i_i_glide_confnum>
65

> <i_i_glide_posenum>
11

> <r_i_glide_eff_state_penalty>
0

> <s_user_duplicate_titles>
CHEMBL2083_lig169,412713

> <i_f3d_flags>
0

> <s_m_subgroup_title>
dock_pv

> <s_m_subgroupid>
dock_pv

> <b_m_subgroup_collapsed>
1

$$$$
CHEMBL2083_lig198
                    3D
 Schrodinger Suite 2021-1.
 44 48  0  0  1  0            999 V2000
    1.4497    9.4261   16.5097 C   0  0  0  0  0  0
    1.9993    8.0509   16.6003 N   0  0  0  0  0  0
    1.0839    6.8940   16.7680 C   0  0  1  0  0  0
    3.2169    7.7156   15.9654 C   0  0  0  0  0  0
    3.8537    8.6336   15.0926 C   0  0  0  0  0  0
    5.0244    8.2477   14.4352 C   0  0  0  0  0  0
    5.5914    6.9973   14.6590 C   0  0  0  0  0  0
    4.9988    6.1307   15.5746 C   0  0  0  0  0  0
    3.8153    6.4655   16.2407 C   0  0  0  0  0  0
    3.1974    9.9855   14.8534 C   0  0  1  0  0  0
    2.5469   10.4358   16.1504 C   0  0  1  0  0  0
    2.2461   11.9119   15.9352 C   0  0  0  0  0  0
    3.4327   12.2943   15.0645 C   0  0  0  0  0  0
    4.0134   11.2117   14.5115 C   0  0  0  0  0  0
    1.7685    5.8515   17.7069 C   0  0  1  0  0  0
    3.2015    5.4902   17.2510 C   0  0  2  0  0  0
    3.9906    5.4038   18.5367 C   0  0  0  0  0  0
    3.2733    5.7983   19.5974 C   0  0  0  0  0  0
    1.8878    6.2379   19.1918 C   0  0  0  0  0  0
   -0.3619    7.2555   17.2334 C   0  0  0  0  0  0
   -1.2799    7.1423   16.2242 O   0  0  0  0  0  0
   -0.6498    7.6167   18.3717 O   0  0  0  0  0  0
    6.8507    6.5857   13.9170 C   0  0  0  0  0  0
    0.6834    9.4645   15.7427 H   0  0  0  0  0  0
    0.8945    9.6759   17.4129 H   0  0  0  0  0  0
    0.9398    6.4385   15.7848 H   0  0  0  0  0  0
    5.4849    8.9199   13.7258 H   0  0  0  0  0  0
    5.4598    5.1734   15.7656 H   0  0  0  0  0  0
    2.4557    9.8267   14.0709 H   0  0  0  0  0  0
    3.3010   10.3618   16.9416 H   0  0  0  0  0  0
    1.2910   12.0855   15.4371 H   0  0  0  0  0  0
    2.2386   12.4545   16.8823 H   0  0  0  0  0  0
    3.7565   13.3117   14.9448 H   0  0  0  0  0  0
    4.8528   11.2071   13.8337 H   0  0  0  0  0  0
    1.1768    4.9332   17.6662 H   0  0  0  0  0  0
    3.2203    4.5090   16.7976 H   0  0  0  0  0  0
    5.0116    5.0534   18.5414 H   0  0  0  0  0  0
    3.6101    5.8311   20.6236 H   0  0  0  0  0  0
    1.1275    5.7371   19.7869 H   0  0  0  0  0  0
    1.7828    7.3091   19.3411 H   0  0  0  0  0  0
   -2.1722    7.3526   16.5483 H   0  0  0  0  0  0
    7.5082    7.4425   13.7590 H   0  0  0  0  0  0
    7.4242    5.8505   14.4840 H   0  0  0  0  0  0
    6.5980    6.1590   12.9453 H   0  0  0  0  0  0
  1 11  1  0  0  0
  1  2  1  0  0  0
  1 24  1  0  0  0
  1 25  1  0  0  0
  2  4  1  0  0  0
  2  3  1  0  0  0
  3 15  1  0  0  0
  3 20  1  0  0  0
  3 26  1  0  0  0
  4  5  2  0  0  0
  4  9  1  0  0  0
  5 10  1  0  0  0
  5  6  1  0  0  0
  6  7  2  0  0  0
  6 27  1  0  0  0
  7  8  1  0  0  0
  7 23  1  0  0  0
  8  9  2  0  0  0
  8 28  1  0  0  0
  9 16  1  0  0  0
 10 11  1  0  0  0
 10 14  1  0  0  0
 10 29  1  0  0  0
 11 12  1  0  0  0
 11 30  1  0  0  0
 12 13  1  0  0  0
 12 31  1  0  0  0
 12 32  1  0  0  0
 13 14  2  0  0  0
 13 33  1  0  0  0
 14 34  1  0  0  0
 15 16  1  0  0  0
 15 19  1  0  0  0
 15 35  1  0  0  0
 16 17  1  0  0  0
 16 36  1  0  0  0
 17 18  2  0  0  0
 17 37  1  0  0  0
 18 19  1  0  0  0
 18 38  1  0  0  0
 19 39  1  0  0  0
 19 40  1  0  0  0
 20 21  1  0  0  0
 20 22  2  0  0  0
 21 41  1  0  0  0
 23 42  1  0  0  0
 23 43  1  0  0  0
 23 44  1  0  0  0
M  END
> <s_m_entry_id>
2623

> <s_m_entry_name>
dock_pv.151

> <s_m_Source_Path>
/home/csk/Desktop/cluster/DUD-E-result/fabp4

> <s_m_Source_File>
dock_pv.maegz

> <i_m_Source_File_Index>
151

> <chembl_id>
CHEMBL3827483

> <chembl_pref_name>
None

> <i_lp_mmshare_version>
53161

> <r_lp_tautomer_probability>
1

> <s_lp_Force_Field>
OPLS_2005

> <r_lp_Energy>
74.671371

> <b_lp_Chiralities_Consistent>
1

> <s_lp_Variant>
CHEMBL2083_lig198-16

> <s_i_glide_gridfile>
glide-grid_2nnq

> <i_i_glide_lignum>
325

> <i_i_glide_rotatable_bonds>
2

> <r_i_docking_score>
-6.92527399785548

> <r_i_glide_ligand_efficiency>
-0.301098869471977

> <r_i_glide_ligand_efficiency_sa>
-0.856285131667034

> <r_i_glide_ligand_efficiency_ln>
-1.67459404759427

> <r_i_glide_gscore>
-6.92527399785548

> <r_i_glide_lipo>
-2.82058181612102

> <r_i_glide_hbond>
0

> <r_i_glide_metal>
0

> <r_i_glide_rewards>
-1.92156866155066

> <r_i_glide_evdw>
-31.5454711914062

> <r_i_glide_ecoul>
-5.34331941604614

> <r_i_glide_erotb>
0.195647951793434

> <r_i_glide_esite>
0

> <r_i_glide_emodel>
-52.4179755952059

> <r_i_glide_energy>
-36.8887906074524

> <r_i_glide_einternal>
0.516755104064941

> <i_i_glide_confnum>
3

> <i_i_glide_posenum>
254

> <r_i_glide_eff_state_penalty>
0

> <s_user_duplicate_titles>
CHEMBL2083_lig198

> <i_f3d_flags>
0

> <s_m_subgroup_title>
dock_pv

> <s_m_subgroupid>
dock_pv

> <b_m_subgroup_collapsed>
1

$$$$
CHEMBL2083_lig195
                    3D
 Schrodinger Suite 2021-1.
 56 61  0  0  1  0            999 V2000
    3.6346    9.4781   14.6307 C   0  0  0  0  0  0
    4.6806    9.0033   15.5764 N   0  0  0  0  0  0
    5.5039    7.8230   15.2607 C   0  0  1  0  0  0
    5.4349    9.9127   16.3393 C   0  0  0  0  0  0
    5.2543   11.2937   16.1461 C   0  0  0  0  0  0
    6.1017   12.1622   16.8097 C   0  0  0  0  0  0
    7.1037   11.7090   17.6555 C   0  0  0  0  0  0
    7.2348   10.3489   17.8972 C   0  0  0  0  0  0
    6.3759    9.4317   17.2847 C   0  0  0  0  0  0
    4.2050   11.7886   15.1644 C   0  0  1  0  0  0
    3.0631   10.8001   15.1346 C   0  0  1  0  0  0
    1.9174   11.5280   14.4501 C   0  0  0  0  0  0
    2.1897   12.9359   14.9456 C   0  0  0  0  0  0
    3.4431   13.0549   15.4305 C   0  0  0  0  0  0
    5.7512    7.0383   16.5798 C   0  0  1  0  0  0
    6.4349    7.9377   17.6538 C   0  0  2  0  0  0
    5.8142    7.5442   19.0321 C   0  0  2  0  0  0
    4.7180    6.4956   18.7340 C   0  0  2  0  0  0
    4.4625    6.4992   17.2340 C   0  0  0  0  0  0
    3.2183    6.5049   19.7763 S   0  0  0  0  0  0
    1.9964    5.5331   18.9704 C   0  0  0  0  0  0
    0.9114    6.0962   18.2599 C   0  0  0  0  0  0
   -0.0545    5.2300   17.7425 C   0  0  0  0  0  0
    0.0390    3.8515   17.9217 C   0  0  0  0  0  0
    1.1231    3.3130   18.6070 C   0  0  0  0  0  0
    2.0958    4.1520   19.1333 C   0  0  0  0  0  0
    0.7169    7.5487   18.0491 N   0  3  0  0  0  0
   -0.4279    7.9886   18.1385 O   0  0  0  0  0  0
    1.6768    8.2424   17.7400 O   0  5  0  0  0  0
    5.1217    8.9733   19.8953 Cl  0  0  0  0  0  0
    4.9261    6.9090   14.1775 C   0  0  0  0  0  0
    5.9170    6.5091   13.3408 O   0  0  0  0  0  0
    3.7620    6.5106   14.1294 O   0  0  0  0  0  0
    4.0446    9.6039   13.6267 H   0  0  0  0  0  0
    2.8695    8.7154   14.4905 H   0  0  0  0  0  0
    6.4563    8.1592   14.8459 H   0  0  0  0  0  0
    5.9785   13.2204   16.6373 H   0  0  0  0  0  0
    7.7518   12.4185   18.1408 H   0  0  0  0  0  0
    7.9821   10.0083   18.5998 H   0  0  0  0  0  0
    4.6986   11.8711   14.1924 H   0  0  0  0  0  0
    2.7461   10.6207   16.1691 H   0  0  0  0  0  0
    0.9537   11.1746   14.8096 H   0  0  0  0  0  0
    1.9346   11.4396   13.3627 H   0  0  0  0  0  0
    1.4399   13.7104   14.9200 H   0  0  0  0  0  0
    3.9150   13.9443   15.8284 H   0  0  0  0  0  0
    6.4077    6.1885   16.3742 H   0  0  0  0  0  0
    7.4992    7.6884   17.6561 H   0  0  0  0  0  0
    6.5802    7.0850   19.6589 H   0  0  0  0  0  0
    5.1194    5.5079   18.9410 H   0  0  0  0  0  0
    3.6096    7.1173   16.9773 H   0  0  0  0  0  0
    4.2540    5.4928   16.8694 H   0  0  0  0  0  0
   -0.8791    5.6412   17.1831 H   0  0  0  0  0  0
   -0.7235    3.2082   17.5119 H   0  0  0  0  0  0
    1.2185    2.2477   18.7362 H   0  0  0  0  0  0
    2.9196    3.7264   19.6885 H   0  0  0  0  0  0
    5.5525    5.8218   12.7745 H   0  0  0  0  0  0
  1 11  1  0  0  0
  1  2  1  0  0  0
  1 34  1  0  0  0
  1 35  1  0  0  0
  2  4  1  0  0  0
  2  3  1  0  0  0
  3 15  1  0  0  0
  3 31  1  0  0  0
  3 36  1  0  0  0
  4  5  2  0  0  0
  4  9  1  0  0  0
  5 10  1  0  0  0
  5  6  1  0  0  0
  6  7  2  0  0  0
  6 37  1  0  0  0
  7  8  1  0  0  0
  7 38  1  0  0  0
  8  9  2  0  0  0
  8 39  1  0  0  0
  9 16  1  0  0  0
 10 11  1  0  0  0
 10 14  1  0  0  0
 10 40  1  0  0  0
 11 12  1  0  0  0
 11 41  1  0  0  0
 12 13  1  0  0  0
 12 42  1  0  0  0
 12 43  1  0  0  0
 13 14  2  0  0  0
 13 44  1  0  0  0
 14 45  1  0  0  0
 15 16  1  0  0  0
 15 19  1  0  0  0
 15 46  1  0  0  0
 16 17  1  0  0  0
 16 47  1  0  0  0
 17 18  1  0  0  0
 17 30  1  0  0  0
 17 48  1  0  0  0
 18 19  1  0  0  0
 18 20  1  0  0  0
 18 49  1  0  0  0
 19 50  1  0  0  0
 19 51  1  0  0  0
 20 21  1  0  0  0
 21 22  2  0  0  0
 21 26  1  0  0  0
 22 23  1  0  0  0
 22 27  1  0  0  0
 23 24  2  0  0  0
 23 52  1  0  0  0
 24 25  1  0  0  0
 24 53  1  0  0  0
 25 26  2  0  0  0
 25 54  1  0  0  0
 26 55  1  0  0  0
 27 28  2  0  0  0
 27 29  1  0  0  0
 31 32  1  0  0  0
 31 33  2  0  0  0
 32 56  1  0  0  0
M  CHG  2  27   1  29  -1
M  END
> <s_m_entry_id>
2624

> <s_m_entry_name>
dock_pv.152

> <s_m_Source_Path>
/home/csk/Desktop/cluster/DUD-E-result/fabp4

> <s_m_Source_File>
dock_pv.maegz

> <i_m_Source_File_Index>
152

> <chembl_id>
CHEMBL3827833

> <chembl_pref_name>
None

> <i_lp_mmshare_version>
53161

> <r_lp_tautomer_probability>
1

> <s_lp_Force_Field>
OPLS_2005

> <r_lp_Energy>
90.936579

> <b_lp_Chiralities_Consistent>
1

> <s_lp_Variant>
CHEMBL2083_lig195-16

> <s_i_glide_gridfile>
glide-grid_2nnq

> <i_i_glide_lignum>
229

> <i_i_glide_rotatable_bonds>
5

> <r_i_docking_score>
-6.92277492867273

> <r_i_glide_ligand_efficiency>
-0.209781058444628

> <r_i_glide_ligand_efficiency_sa>
-0.672879945959762

> <r_i_glide_ligand_efficiency_ln>
-1.53958929992657

> <r_i_glide_gscore>
-6.92277492867273

> <r_i_glide_lipo>
-3.4780187951245

> <r_i_glide_hbond>
0

> <r_i_glide_metal>
0

> <r_i_glide_rewards>
-0.825396043581464

> <r_i_glide_evdw>
-40.7188186645508

> <r_i_glide_ecoul>
-5.62971878051758

> <r_i_glide_erotb>
0.261038660338412

> <r_i_glide_esite>
0

> <r_i_glide_emodel>
-52.7964651263207

> <r_i_glide_energy>
-46.3485374450684

> <r_i_glide_einternal>
5.64288663864136

> <i_i_glide_confnum>
2

> <i_i_glide_posenum>
210

> <r_i_glide_eff_state_penalty>
0

> <s_user_duplicate_titles>
CHEMBL2083_lig195

> <i_f3d_flags>
0

> <s_m_subgroup_title>
dock_pv

> <s_m_subgroupid>
dock_pv

> <b_m_subgroup_collapsed>
1

$$$$
CHEMBL2083_lig202
                    3D
 Schrodinger Suite 2021-1.
 56 60  0  0  1  0            999 V2000
    5.9825    9.1482   18.2752 C   0  0  2  0  0  0
    5.1393   10.3254   18.0103 N   0  0  0  0  0  0
    4.7570    9.7000   15.6645 C   0  0  0  0  0  0
    4.5024   10.5658   16.7570 C   0  0  0  0  0  0
    3.5563   11.6070   16.6184 C   0  0  0  0  0  0
    2.9409   11.8144   15.3749 C   0  0  0  0  0  0
    3.2282   10.9933   14.2928 C   0  0  0  0  0  0
    4.1241    9.9422   14.4398 C   0  0  0  0  0  0
    5.5351    8.0370   17.3122 C   0  0  1  0  0  0
    5.6807    8.5064   15.8702 C   0  0  1  0  0  0
    5.4870    7.2314   15.0270 C   0  0  2  0  0  0
    5.7290    6.0476   16.0001 C   0  0  1  0  0  0
    6.2153    6.6712   17.3231 C   0  0  0  0  0  0
    4.1835    5.0912   16.2114 S   0  0  0  0  0  0
    2.8562    6.0342   16.9397 C   0  0  0  0  0  0
    6.7208    7.2170   13.7406 Cl  0  0  0  0  0  0
    3.1336   12.4618   17.7849 C   0  0  0  0  0  0
    3.1438   12.0586   18.9417 O   0  0  0  0  0  0
    2.7205   13.7088   17.4603 O   0  0  0  0  0  0
    5.9654    8.6607   19.7343 C   0  0  0  0  0  0
    4.7571    8.2030   20.2810 C   0  0  0  0  0  0
    4.7077    7.6732   21.5687 C   0  0  0  0  0  0
    5.8637    7.6019   22.3374 C   0  0  0  0  0  0
    7.0619    8.0893   21.8295 C   0  0  0  0  0  0
    7.1274    8.6146   20.5340 C   0  0  0  0  0  0
    2.4559    5.8697   18.2865 C   0  0  0  0  0  0
    1.4371    6.6871   18.7908 C   0  0  0  0  0  0
    0.8074    7.6355   17.9939 C   0  0  0  0  0  0
    1.1894    7.7786   16.6665 C   0  0  0  0  0  0
    2.1927    6.9702   16.1373 C   0  0  0  0  0  0
    3.0202    4.8474   19.1922 N   0  3  0  0  0  0
    3.2362    5.1699   20.3562 O   0  0  0  0  0  0
    3.1696    3.7072   18.7742 O   0  5  0  0  0  0
    8.4187    9.1210   20.0603 N   0  3  0  0  0  0
    8.9680    8.5142   19.1480 O   0  0  0  0  0  0
    8.8712   10.1080   20.6335 O   0  5  0  0  0  0
    6.9989    9.4434   18.0220 H   0  0  0  0  0  0
    5.0697   11.0025   18.7566 H   0  0  0  0  0  0
    2.2160   12.6049   15.2328 H   0  0  0  0  0  0
    2.7383   11.1610   13.3447 H   0  0  0  0  0  0
    4.3155    9.3046   13.5882 H   0  0  0  0  0  0
    4.4814    7.8698   17.5247 H   0  0  0  0  0  0
    6.6981    8.8797   15.7386 H   0  0  0  0  0  0
    4.4994    7.1879   14.5756 H   0  0  0  0  0  0
    6.4864    5.3803   15.5869 H   0  0  0  0  0  0
    7.3010    6.7828   17.3401 H   0  0  0  0  0  0
    5.9122    6.0913   18.1965 H   0  0  0  0  0  0
    2.5591   14.2140   18.2595 H   0  0  0  0  0  0
    3.8506    8.2397   19.6944 H   0  0  0  0  0  0
    3.7722    7.3129   21.9720 H   0  0  0  0  0  0
    5.8207    7.1993   23.3393 H   0  0  0  0  0  0
    7.9440    8.0559   22.4518 H   0  0  0  0  0  0
    1.1169    6.5818   19.8161 H   0  0  0  0  0  0
    0.0197    8.2503   18.4052 H   0  0  0  0  0  0
    0.7019    8.5112   16.0433 H   0  0  0  0  0  0
    2.4397    7.0843   15.0933 H   0  0  0  0  0  0
  1  9  1  0  0  0
  1  2  1  0  0  0
  1 20  1  0  0  0
  1 37  1  0  0  0
  2  4  1  0  0  0
  2 38  1  0  0  0
  3 10  1  0  0  0
  3  4  2  0  0  0
  3  8  1  0  0  0
  4  5  1  0  0  0
  5  6  2  0  0  0
  5 17  1  0  0  0
  6  7  1  0  0  0
  6 39  1  0  0  0
  7  8  2  0  0  0
  7 40  1  0  0  0
  8 41  1  0  0  0
  9 10  1  0  0  0
  9 13  1  0  0  0
  9 42  1  0  0  0
 10 11  1  0  0  0
 10 43  1  0  0  0
 11 12  1  0  0  0
 11 16  1  0  0  0
 11 44  1  0  0  0
 12 13  1  0  0  0
 12 14  1  0  0  0
 12 45  1  0  0  0
 13 46  1  0  0  0
 13 47  1  0  0  0
 14 15  1  0  0  0
 15 26  2  0  0  0
 15 30  1  0  0  0
 17 18  2  0  0  0
 17 19  1  0  0  0
 19 48  1  0  0  0
 20 21  2  0  0  0
 20 25  1  0  0  0
 21 22  1  0  0  0
 21 49  1  0  0  0
 22 23  2  0  0  0
 22 50  1  0  0  0
 23 24  1  0  0  0
 23 51  1  0  0  0
 24 25  2  0  0  0
 24 52  1  0  0  0
 25 34  1  0  0  0
 26 27  1  0  0  0
 26 31  1  0  0  0
 27 28  2  0  0  0
 27 53  1  0  0  0
 28 29  1  0  0  0
 28 54  1  0  0  0
 29 30  2  0  0  0
 29 55  1  0  0  0
 30 56  1  0  0  0
 31 32  2  0  0  0
 31 33  1  0  0  0
 34 35  2  0  0  0
 34 36  1  0  0  0
M  CHG  4  31   1  33  -1  34   1  36  -1
M  END
> <s_m_entry_id>
2625

> <s_m_entry_name>
dock_pv.153

> <s_m_Source_Path>
/home/csk/Desktop/cluster/DUD-E-result/fabp4

> <s_m_Source_File>
dock_pv.maegz

> <i_m_Source_File_Index>
153

> <chembl_id>
CHEMBL3827527

> <chembl_pref_name>
None

> <i_lp_mmshare_version>
53161

> <r_lp_tautomer_probability>
1

> <s_lp_Force_Field>
OPLS_2005

> <r_lp_Energy>
62.122404

> <b_lp_Chiralities_Consistent>
1

> <s_lp_Variant>
CHEMBL2083_lig202-24

> <s_i_glide_gridfile>
glide-grid_2nnq

> <i_i_glide_lignum>
399

> <i_i_glide_rotatable_bonds>
7

> <r_i_docking_score>
-6.91004640800127

> <r_i_glide_ligand_efficiency>
-0.191945733555591

> <r_i_glide_ligand_efficiency_sa>
-0.633790847179206

> <r_i_glide_ligand_efficiency_ln>
-1.50758543834638

> <r_i_glide_gscore>
-6.91004640800127

> <r_i_glide_lipo>
-3.15601091591245

> <r_i_glide_hbond>
-0.123713652584595

> <r_i_glide_metal>
0

> <r_i_glide_rewards>
-0.763901592229148

> <r_i_glide_evdw>
-51.2910041809082

> <r_i_glide_ecoul>
-3.33226561546326

> <r_i_glide_erotb>
0.297662755552557

> <r_i_glide_esite>
-0.0996929514627317

> <r_i_glide_emodel>
-71.69421199855

> <r_i_glide_energy>
-54.6232697963715

> <r_i_glide_einternal>
6.32838249206543

> <i_i_glide_confnum>
65

> <i_i_glide_posenum>
76

> <r_i_glide_eff_state_penalty>
0

> <s_user_duplicate_titles>
CHEMBL2083_lig202

> <i_f3d_flags>
0

> <s_m_subgroup_title>
dock_pv

> <s_m_subgroupid>
dock_pv

> <b_m_subgroup_collapsed>
1

$$$$
CHEMBL2083_lig95
                    3D
 Schrodinger Suite 2021-1.
 48 51  0  0  1  0            999 V2000
    0.3742    4.0374   18.1420 C   0  0  0  0  0  0
    1.3384    5.2044   18.2369 C   0  0  0  0  0  0
    1.0728    6.6430   17.3105 S   0  0  0  0  0  0
    2.5052    7.4035   17.9541 C   0  0  0  0  0  0
    2.9966    8.6332   17.5184 N   0  0  0  0  0  0
    2.3511    9.5857   16.8174 C   0  0  0  0  0  0
    1.1528    9.5601   16.5420 O   0  0  0  0  0  0
    3.2425   10.6038   16.2774 C   0  0  0  0  0  0
    3.9908   11.5144   16.9942 C   0  0  0  0  0  0
    4.9473   12.5090   16.3186 C   0  0  0  0  0  0
    5.2698   12.1079   14.8875 C   0  0  0  0  0  0
    4.0136   11.7080   14.1418 C   0  0  0  0  0  0
    3.3420   10.4825   14.7567 C   0  0  0  0  0  0
    3.8128   11.7533   18.4117 C   0  0  0  0  0  0
    2.7200   11.6958   18.9420 O   0  0  0  0  0  0
    4.9434   12.1090   19.0885 O   0  0  0  0  0  0
    3.1298    6.5816   18.8882 C   0  0  0  0  0  0
    2.5229    5.3054   18.9748 C   0  0  0  0  0  0
    3.0498    4.1679   19.8119 C   0  0  0  0  0  0
    4.3121    7.0007   19.6535 C   0  0  0  0  0  0
    4.3203    6.8072   20.9957 O   0  0  0  0  0  0
    5.5070    7.3878   21.4377 N   0  0  0  0  0  0
    6.0407    7.8586   20.3312 C   0  0  0  0  0  0
    5.3559    7.6584   19.2199 N   0  0  0  0  0  0
    7.3730    8.5935   20.3566 C   0  0  0  0  0  0
    8.3755    8.4268   19.2384 C   0  0  0  0  0  0
    7.6464    9.7463   19.4157 C   0  0  0  0  0  0
    0.8601    3.1489   17.7421 H   0  0  0  0  0  0
   -0.0254    3.7462   19.1133 H   0  0  0  0  0  0
   -0.4768    4.2484   17.4965 H   0  0  0  0  0  0
    3.9669    8.8096   17.7327 H   0  0  0  0  0  0
    5.8935   12.6262   16.8494 H   0  0  0  0  0  0
    4.4877   13.5008   16.3093 H   0  0  0  0  0  0
    5.9200   11.2398   14.9049 H   0  0  0  0  0  0
    5.7977   12.9090   14.3682 H   0  0  0  0  0  0
    3.3174   12.5453   14.0622 H   0  0  0  0  0  0
    4.3206   11.4335   13.1458 H   0  0  0  0  0  0
    2.3699   10.3324   14.2807 H   0  0  0  0  0  0
    3.9276    9.5947   14.5090 H   0  0  0  0  0  0
    5.5506   12.6194   18.5424 H   0  0  0  0  0  0
    3.3763    4.5094   20.7936 H   0  0  0  0  0  0
    2.3127    3.3870   20.0009 H   0  0  0  0  0  0
    3.9197    3.7101   19.3416 H   0  0  0  0  0  0
    7.8007    8.6809   21.3560 H   0  0  0  0  0  0
    9.4334    8.3620   19.4985 H   0  0  0  0  0  0
    8.1212    7.7848   18.3939 H   0  0  0  0  0  0
    6.8768   10.0303   18.6970 H   0  0  0  0  0  0
    8.1972   10.6114   19.7871 H   0  0  0  0  0  0
  1  2  1  0  0  0
  1 28  1  0  0  0
  1 29  1  0  0  0
  1 30  1  0  0  0
  2  3  1  0  0  0
  2 18  2  0  0  0
  3  4  1  0  0  0
  4  5  1  0  0  0
  4 17  2  0  0  0
  5  6  1  0  0  0
  5 31  1  0  0  0
  6  7  2  0  0  0
  6  8  1  0  0  0
  8  9  2  0  0  0
  8 13  1  0  0  0
  9 10  1  0  0  0
  9 14  1  0  0  0
 10 11  1  0  0  0
 10 32  1  0  0  0
 10 33  1  0  0  0
 11 12  1  0  0  0
 11 34  1  0  0  0
 11 35  1  0  0  0
 12 13  1  0  0  0
 12 36  1  0  0  0
 12 37  1  0  0  0
 13 38  1  0  0  0
 13 39  1  0  0  0
 14 15  2  0  0  0
 14 16  1  0  0  0
 16 40  1  0  0  0
 17 18  1  0  0  0
 17 20  1  0  0  0
 18 19  1  0  0  0
 19 41  1  0  0  0
 19 42  1  0  0  0
 19 43  1  0  0  0
 20 21  1  0  0  0
 20 24  2  0  0  0
 21 22  1  0  0  0
 22 23  2  0  0  0
 23 24  1  0  0  0
 23 25  1  0  0  0
 25 26  1  0  0  0
 25 27  1  0  0  0
 25 44  1  0  0  0
 26 27  1  0  0  0
 26 45  1  0  0  0
 26 46  1  0  0  0
 27 47  1  0  0  0
 27 48  1  0  0  0
M  END
> <s_m_entry_id>
2626

> <s_m_entry_name>
dock_pv.154

> <s_m_Source_Path>
/home/csk/Desktop/cluster/DUD-E-result/fabp4

> <s_m_Source_File>
dock_pv.maegz

> <i_m_Source_File_Index>
154

> <chembl_id>
CHEMBL3979971

> <chembl_pref_name>
None

> <i_lp_mmshare_version>
53161

> <r_lp_tautomer_probability>
1

> <s_lp_Force_Field>
OPLS_2005

> <r_lp_Energy>
27.942543

> <b_lp_Chiralities_Consistent>
1

> <s_lp_Variant>
CHEMBL2083_lig95-1

> <s_i_glide_gridfile>
glide-grid_2nnq

> <i_i_glide_lignum>
105

> <i_i_glide_rotatable_bonds>
7

> <r_i_docking_score>
-6.90803108081408

> <r_i_glide_ligand_efficiency>
-0.255853002993114

> <r_i_glide_ligand_efficiency_sa>
-0.767559008136092

> <r_i_glide_ligand_efficiency_ln>
-1.60807574782034

> <r_i_glide_gscore>
-6.90803108081408

> <r_i_glide_lipo>
-2.95902229895828

> <r_i_glide_hbond>
-0.116601802122308

> <r_i_glide_metal>
0

> <r_i_glide_rewards>
-1.28680330826617

> <r_i_glide_evdw>
-40.5275955200195

> <r_i_glide_ecoul>
-8.29927158355713

> <r_i_glide_erotb>
0.778330538077683

> <r_i_glide_esite>
-0.0526636960104576

> <r_i_glide_emodel>
-65.4413121549754

> <r_i_glide_energy>
-48.8268671035767

> <r_i_glide_einternal>
8.50809001922607

> <i_i_glide_confnum>
47

> <i_i_glide_posenum>
273

> <r_i_glide_eff_state_penalty>
0

> <s_user_duplicate_titles>
CHEMBL2083_lig95

> <i_f3d_flags>
0

> <s_m_subgroup_title>
dock_pv

> <s_m_subgroupid>
dock_pv

> <b_m_subgroup_collapsed>
1

$$$$
CHEMBL2083_lig197
                    3D
 Schrodinger Suite 2021-1.
 41 45  0  0  1  0            999 V2000
    5.6739    8.8941   19.4256 C   0  0  0  0  0  0
    4.9676    9.2389   18.1843 N   0  0  0  0  0  0
    5.1809   10.6504   17.7923 C   0  0  1  0  0  0
    3.7571    8.6168   17.8498 C   0  0  0  0  0  0
    3.3339    7.4562   18.5386 C   0  0  0  0  0  0
    2.0747    6.9255   18.2347 C   0  0  0  0  0  0
    1.2606    7.5072   17.2752 C   0  0  0  0  0  0
    1.7320    8.5782   16.5370 C   0  0  0  0  0  0
    2.9879    9.1330   16.7773 C   0  0  0  0  0  0
    4.2033    6.7466   19.5766 C   0  0  1  0  0  0
    5.5306    7.4478   19.9342 C   0  0  2  0  0  0
    5.6618    7.3466   21.4675 C   0  0  0  0  0  0
    4.3248    6.8287   21.9406 C   0  0  0  0  0  0
    3.5258    6.5096   20.9146 C   0  0  0  0  0  0
    4.8451   10.8535   16.2809 C   0  0  1  0  0  0
    3.5023   10.2429   15.8502 C   0  0  2  0  0  0
    2.6115   11.4623   15.6838 C   0  0  0  0  0  0
    3.3427   12.5871   15.5940 C   0  0  0  0  0  0
    4.8207   12.3070   15.7762 C   0  0  0  0  0  0
    4.3443   11.5699   18.7303 C   0  0  0  0  0  0
    5.1133   12.5088   19.3429 O   0  0  0  0  0  0
    3.1418   11.4285   18.9417 O   0  0  0  0  0  0
   -0.4797    6.8251   16.9445 Br  0  0  0  0  0  0
    6.6897    9.2914   19.4666 H   0  0  0  0  0  0
    5.1808    9.5085   20.1801 H   0  0  0  0  0  0
    6.2242   10.9258   17.9541 H   0  0  0  0  0  0
    1.7141    6.0515   18.7587 H   0  0  0  0  0  0
    1.1207    8.9737   15.7424 H   0  0  0  0  0  0
    4.4283    5.7752   19.1348 H   0  0  0  0  0  0
    6.3541    6.8987   19.4758 H   0  0  0  0  0  0
    6.4500    6.6535   21.7597 H   0  0  0  0  0  0
    5.8813    8.3049   21.9386 H   0  0  0  0  0  0
    4.0866    6.7283   22.9894 H   0  0  0  0  0  0
    2.5332    6.0897   20.9952 H   0  0  0  0  0  0
    5.6299   10.3282   15.7349 H   0  0  0  0  0  0
    3.6135    9.7746   14.8689 H   0  0  0  0  0  0
    1.5405   11.3912   15.5615 H   0  0  0  0  0  0
    2.9627   13.5832   15.4183 H   0  0  0  0  0  0
    5.3512   12.4206   14.8292 H   0  0  0  0  0  0
    5.2795   12.9976   16.4821 H   0  0  0  0  0  0
    5.9168   12.7668   18.8808 H   0  0  0  0  0  0
  1 11  1  0  0  0
  1  2  1  0  0  0
  1 24  1  0  0  0
  1 25  1  0  0  0
  2  4  1  0  0  0
  2  3  1  0  0  0
  3 15  1  0  0  0
  3 20  1  0  0  0
  3 26  1  0  0  0
  4  5  2  0  0  0
  4  9  1  0  0  0
  5 10  1  0  0  0
  5  6  1  0  0  0
  6  7  2  0  0  0
  6 27  1  0  0  0
  7  8  1  0  0  0
  7 23  1  0  0  0
  8  9  2  0  0  0
  8 28  1  0  0  0
  9 16  1  0  0  0
 10 11  1  0  0  0
 10 14  1  0  0  0
 10 29  1  0  0  0
 11 12  1  0  0  0
 11 30  1  0  0  0
 12 13  1  0  0  0
 12 31  1  0  0  0
 12 32  1  0  0  0
 13 14  2  0  0  0
 13 33  1  0  0  0
 14 34  1  0  0  0
 15 16  1  0  0  0
 15 19  1  0  0  0
 15 35  1  0  0  0
 16 17  1  0  0  0
 16 36  1  0  0  0
 17 18  2  0  0  0
 17 37  1  0  0  0
 18 19  1  0  0  0
 18 38  1  0  0  0
 19 39  1  0  0  0
 19 40  1  0  0  0
 20 21  1  0  0  0
 20 22  2  0  0  0
 21 41  1  0  0  0
M  END
> <s_m_entry_id>
2627

> <s_m_entry_name>
dock_pv.155

> <s_m_Source_Path>
/home/csk/Desktop/cluster/DUD-E-result/fabp4

> <s_m_Source_File>
dock_pv.maegz

> <i_m_Source_File_Index>
155

> <chembl_id>
CHEMBL3828508

> <chembl_pref_name>
None

> <i_lp_mmshare_version>
53161

> <r_lp_tautomer_probability>
1

> <s_lp_Force_Field>
OPLS_2005

> <r_lp_Energy>
68.241051

> <b_lp_Chiralities_Consistent>
1

> <s_lp_Variant>
CHEMBL2083_lig197-12

> <s_i_glide_gridfile>
glide-grid_2nnq

> <i_i_glide_lignum>
289

> <i_i_glide_rotatable_bonds>
2

> <r_i_docking_score>
-6.88905972615241

> <r_i_glide_ligand_efficiency>
-0.29952433591967

> <r_i_glide_ligand_efficiency_sa>
-0.851807367693638

> <r_i_glide_ligand_efficiency_ln>
-1.6658371083236

> <r_i_glide_gscore>
-6.88905972615241

> <r_i_glide_lipo>
-2.8000717424736

> <r_i_glide_hbond>
-0.239974676694474

> <r_i_glide_metal>
0

> <r_i_glide_rewards>
-1.03063147575329

> <r_i_glide_evdw>
-35.5957717895508

> <r_i_glide_ecoul>
-6.50676488876343

> <r_i_glide_erotb>
0

> <r_i_glide_esite>
-0.0625785084389859

> <r_i_glide_emodel>
-61.1442935844488

> <r_i_glide_energy>
-42.1025366783142

> <r_i_glide_einternal>
0.718884885311127

> <i_i_glide_confnum>
1

> <i_i_glide_posenum>
275

> <r_i_glide_eff_state_penalty>
0

> <s_user_duplicate_titles>
CHEMBL2083_lig197

> <i_f3d_flags>
0

> <s_m_subgroup_title>
dock_pv

> <s_m_subgroupid>
dock_pv

> <b_m_subgroup_collapsed>
1

$$$$
CHEMBL2083_lig199
                    3D
 Schrodinger Suite 2021-1.
 41 45  0  0  1  0            999 V2000
    4.3039    9.8368   17.0273 C   0  0  0  0  0  0
    3.7380    8.6055   17.5871 N   0  0  0  0  0  0
    2.7522    7.9356   16.6883 C   0  0  2  0  0  0
    4.0984    8.1091   18.8585 C   0  0  0  0  0  0
    4.9447    8.8590   19.7067 C   0  0  0  0  0  0
    5.2324    8.3527   20.9812 C   0  0  0  0  0  0
    4.7194    7.1370   21.4134 C   0  0  0  0  0  0
    3.8949    6.4030   20.5789 C   0  0  0  0  0  0
    3.5722    6.8646   19.3031 C   0  0  0  0  0  0
    5.5560   10.1971   19.2951 C   0  0  2  0  0  0
    5.0070   10.8179   17.9971 C   0  0  1  0  0  0
    6.2142   11.5249   17.3516 C   0  0  0  0  0  0
    7.4172   10.8992   18.0163 C   0  0  0  0  0  0
    7.0537   10.1398   19.0608 C   0  0  0  0  0  0
    1.8606    7.0029   17.5505 C   0  0  2  0  0  0
    2.7057    6.0381   18.3637 C   0  0  2  0  0  0
    1.6458    5.0909   18.8886 C   0  0  0  0  0  0
    0.5804    5.1047   18.0628 C   0  0  0  0  0  0
    0.7439    6.1494   16.9667 C   0  0  0  0  0  0
    3.4895    7.1537   15.5585 C   0  0  0  0  0  0
    2.7201    6.9738   14.4416 O   0  0  0  0  0  0
    4.6357    6.7178   15.6668 O   0  0  0  0  0  0
    5.1212    6.5127   22.9673 Cl  0  0  0  0  0  0
    5.1752    9.4168   16.5213 H   0  0  0  0  0  0
    3.7335   10.2985   16.2201 H   0  0  0  0  0  0
    2.1350    8.6805   16.1833 H   0  0  0  0  0  0
    5.8739    8.9108   21.6482 H   0  0  0  0  0  0
    3.5168    5.4525   20.9253 H   0  0  0  0  0  0
    5.3692   10.8869   20.1210 H   0  0  0  0  0  0
    4.2693   11.5836   18.2458 H   0  0  0  0  0  0
    6.2387   11.4022   16.2686 H   0  0  0  0  0  0
    6.1994   12.5951   17.5490 H   0  0  0  0  0  0
    8.4272   11.0791   17.6775 H   0  0  0  0  0  0
    7.7240    9.6104   19.7222 H   0  0  0  0  0  0
    1.3471    7.6799   18.2426 H   0  0  0  0  0  0
    3.3962    5.4636   17.7443 H   0  0  0  0  0  0
    1.7976    4.4295   19.7294 H   0  0  0  0  0  0
   -0.3015    4.4833   18.1399 H   0  0  0  0  0  0
    1.0226    5.7092   16.0133 H   0  0  0  0  0  0
   -0.1639    6.7349   16.8139 H   0  0  0  0  0  0
    1.8136    7.3091   14.4547 H   0  0  0  0  0  0
  1 11  1  0  0  0
  1  2  1  0  0  0
  1 24  1  0  0  0
  1 25  1  0  0  0
  2  4  1  0  0  0
  2  3  1  0  0  0
  3 15  1  0  0  0
  3 20  1  0  0  0
  3 26  1  0  0  0
  4  5  2  0  0  0
  4  9  1  0  0  0
  5 10  1  0  0  0
  5  6  1  0  0  0
  6  7  2  0  0  0
  6 27  1  0  0  0
  7  8  1  0  0  0
  7 23  1  0  0  0
  8  9  2  0  0  0
  8 28  1  0  0  0
  9 16  1  0  0  0
 10 11  1  0  0  0
 10 14  1  0  0  0
 10 29  1  0  0  0
 11 12  1  0  0  0
 11 30  1  0  0  0
 12 13  1  0  0  0
 12 31  1  0  0  0
 12 32  1  0  0  0
 13 14  2  0  0  0
 13 33  1  0  0  0
 14 34  1  0  0  0
 15 16  1  0  0  0
 15 19  1  0  0  0
 15 35  1  0  0  0
 16 17  1  0  0  0
 16 36  1  0  0  0
 17 18  2  0  0  0
 17 37  1  0  0  0
 18 19  1  0  0  0
 18 38  1  0  0  0
 19 39  1  0  0  0
 19 40  1  0  0  0
 20 21  1  0  0  0
 20 22  2  0  0  0
 21 41  1  0  0  0
M  END
> <s_m_entry_id>
2628

> <s_m_entry_name>
dock_pv.156

> <s_m_Source_Path>
/home/csk/Desktop/cluster/DUD-E-result/fabp4

> <s_m_Source_File>
dock_pv.maegz

> <i_m_Source_File_Index>
156

> <chembl_id>
CHEMBL3828043

> <chembl_pref_name>
None

> <i_lp_mmshare_version>
53161

> <r_lp_tautomer_probability>
1

> <s_lp_Force_Field>
OPLS_2005

> <r_lp_Energy>
75.240382

> <b_lp_Chiralities_Consistent>
1

> <s_lp_Variant>
CHEMBL2083_lig199-5

> <s_i_glide_gridfile>
glide-grid_2nnq

> <i_i_glide_lignum>
346

> <i_i_glide_rotatable_bonds>
2

> <r_i_docking_score>
-6.88573640464569

> <r_i_glide_ligand_efficiency>
-0.299379843680247

> <r_i_glide_ligand_efficiency_sa>
-0.85139645098553

> <r_i_glide_ligand_efficiency_ln>
-1.66503349904907

> <r_i_glide_gscore>
-6.88573640464569

> <r_i_glide_lipo>
-2.99549271997333

> <r_i_glide_hbond>
0

> <r_i_glide_metal>
0

> <r_i_glide_rewards>
-1.53759990873242

> <r_i_glide_evdw>
-34.4080467224121

> <r_i_glide_ecoul>
-4.21494293212891

> <r_i_glide_erotb>
0

> <r_i_glide_esite>
0

> <r_i_glide_emodel>
-55.06132843966

> <r_i_glide_energy>
-38.622989654541

> <r_i_glide_einternal>
0.00697321863844991

> <i_i_glide_confnum>
1

> <i_i_glide_posenum>
145

> <r_i_glide_eff_state_penalty>
0

> <s_user_duplicate_titles>
CHEMBL2083_lig199

> <i_f3d_flags>
0

> <s_m_subgroup_title>
dock_pv

> <s_m_subgroupid>
dock_pv

> <b_m_subgroup_collapsed>
1

$$$$
CHEMBL2083_lig197
                    3D
 Schrodinger Suite 2021-1.
 41 45  0  0  1  0            999 V2000
    5.2432   11.5315   16.3271 C   0  0  0  0  0  0
    5.6672   10.3248   17.0473 N   0  0  0  0  0  0
    6.5214   10.6397   18.2164 C   0  0  2  0  0  0
    4.8087    9.2165   17.1285 C   0  0  0  0  0  0
    3.6598    9.1429   16.3062 C   0  0  0  0  0  0
    2.7755    8.0752   16.4958 C   0  0  0  0  0  0
    3.0258    7.0889   17.4405 C   0  0  0  0  0  0
    4.2125    7.1116   18.1604 C   0  0  0  0  0  0
    5.1345    8.1515   18.0074 C   0  0  0  0  0  0
    3.3639   10.1751   15.2147 C   0  0  2  0  0  0
    4.4351   11.2647   15.0400 C   0  0  1  0  0  0
    3.6646   12.5090   14.5815 C   0  0  0  0  0  0
    2.2442   12.2448   15.0240 C   0  0  0  0  0  0
    2.0890   10.9701   15.4127 C   0  0  0  0  0  0
    7.3439    9.3609   18.5865 C   0  0  2  0  0  0
    6.4747    8.1013   18.7583 C   0  0  1  0  0  0
    6.4097    7.9459   20.2665 C   0  0  0  0  0  0
    7.3953    8.6357   20.8657 C   0  0  0  0  0  0
    8.2041    9.4342   19.8617 C   0  0  0  0  0  0
    5.6594   11.1718   19.4100 C   0  0  0  0  0  0
    6.3200   12.1090   20.1419 O   0  0  0  0  0  0
    4.5320   10.7659   19.7002 O   0  0  0  0  0  0
    1.7515    5.7087   17.7419 Br  0  0  0  0  0  0
    4.6061   12.1002   17.0075 H   0  0  0  0  0  0
    6.0701   12.2294   16.1857 H   0  0  0  0  0  0
    7.2083   11.4504   17.9681 H   0  0  0  0  0  0
    1.8733    8.0143   15.9030 H   0  0  0  0  0  0
    4.4192    6.3084   18.8526 H   0  0  0  0  0  0
    3.2672    9.6097   14.2851 H   0  0  0  0  0  0
    5.1302   10.9153   14.2742 H   0  0  0  0  0  0
    4.0582   13.4139   15.0456 H   0  0  0  0  0  0
    3.7187   12.6451   13.5007 H   0  0  0  0  0  0
    1.4815   13.0118   15.0079 H   0  0  0  0  0  0
    1.1689   10.5100   15.7421 H   0  0  0  0  0  0
    8.0171    9.1852   17.7444 H   0  0  0  0  0  0
    7.0041    7.2368   18.3523 H   0  0  0  0  0  0
    5.7086    7.2849   20.7554 H   0  0  0  0  0  0
    7.6103    8.6415   21.9239 H   0  0  0  0  0  0
    8.3745   10.4605   20.1850 H   0  0  0  0  0  0
    9.1870    8.9831   19.7118 H   0  0  0  0  0  0
    7.0794   12.5347   19.7236 H   0  0  0  0  0  0
  1 11  1  0  0  0
  1  2  1  0  0  0
  1 24  1  0  0  0
  1 25  1  0  0  0
  2  4  1  0  0  0
  2  3  1  0  0  0
  3 15  1  0  0  0
  3 20  1  0  0  0
  3 26  1  0  0  0
  4  5  2  0  0  0
  4  9  1  0  0  0
  5 10  1  0  0  0
  5  6  1  0  0  0
  6  7  2  0  0  0
  6 27  1  0  0  0
  7  8  1  0  0  0
  7 23  1  0  0  0
  8  9  2  0  0  0
  8 28  1  0  0  0
  9 16  1  0  0  0
 10 11  1  0  0  0
 10 14  1  0  0  0
 10 29  1  0  0  0
 11 12  1  0  0  0
 11 30  1  0  0  0
 12 13  1  0  0  0
 12 31  1  0  0  0
 12 32  1  0  0  0
 13 14  2  0  0  0
 13 33  1  0  0  0
 14 34  1  0  0  0
 15 16  1  0  0  0
 15 19  1  0  0  0
 15 35  1  0  0  0
 16 17  1  0  0  0
 16 36  1  0  0  0
 17 18  2  0  0  0
 17 37  1  0  0  0
 18 19  1  0  0  0
 18 38  1  0  0  0
 19 39  1  0  0  0
 19 40  1  0  0  0
 20 21  1  0  0  0
 20 22  2  0  0  0
 21 41  1  0  0  0
M  END
> <s_m_entry_id>
2629

> <s_m_entry_name>
dock_pv.157

> <s_m_Source_Path>
/home/csk/Desktop/cluster/DUD-E-result/fabp4

> <s_m_Source_File>
dock_pv.maegz

> <i_m_Source_File_Index>
157

> <chembl_id>
CHEMBL3828508

> <chembl_pref_name>
None

> <i_lp_mmshare_version>
53161

> <r_lp_tautomer_probability>
1

> <s_lp_Force_Field>
OPLS_2005

> <r_lp_Energy>
68.241582

> <b_lp_Chiralities_Consistent>
1

> <s_lp_Variant>
CHEMBL2083_lig197-21

> <s_i_glide_gridfile>
glide-grid_2nnq

> <i_i_glide_lignum>
298

> <i_i_glide_rotatable_bonds>
2

> <r_i_docking_score>
-6.87778224188788

> <r_i_glide_ligand_efficiency>
-0.299034010516864

> <r_i_glide_ligand_efficiency_sa>
-0.850412947472675

> <r_i_glide_ligand_efficiency_ln>
-1.66311011036987

> <r_i_glide_gscore>
-6.87778224188788

> <r_i_glide_lipo>
-2.55247021483282

> <r_i_glide_hbond>
-0.226697875268535

> <r_i_glide_metal>
0

> <r_i_glide_rewards>
-0.870983727272727

> <r_i_glide_evdw>
-35.3453178405762

> <r_i_glide_ecoul>
-9.31326293945312

> <r_i_glide_erotb>
0

> <r_i_glide_esite>
-0.0633750915670242

> <r_i_glide_emodel>
-63.0015856115031

> <r_i_glide_energy>
-44.6585807800293

> <r_i_glide_einternal>
0.36119019985199

> <i_i_glide_confnum>
1

> <i_i_glide_posenum>
128

> <r_i_glide_eff_state_penalty>
0

> <s_user_duplicate_titles>
CHEMBL2083_lig197

> <i_f3d_flags>
0

> <s_m_subgroup_title>
dock_pv

> <s_m_subgroupid>
dock_pv

> <b_m_subgroup_collapsed>
1

$$$$
CHEMBL2083_lig150 
                    3D
 Schrodinger Suite 2021-1.
 50 53  0  0  1  0            999 V2000
    6.9780    5.6931   14.9353 O   0  0  0  0  0  0
    6.7020    7.0711   15.3586 S   0  0  0  0  0  0
    7.7112    8.1089   15.1755 O   0  0  0  0  0  0
    5.3595    5.9160   17.3399 C   0  0  0  0  0  0
    4.6810    5.8102   18.5274 C   0  0  0  0  0  0
    4.7140    6.8237   19.4891 C   0  0  0  0  0  0
    6.1661    7.0078   17.0703 C   0  0  0  0  0  0
    6.3857    8.0022   18.0924 C   0  0  0  0  0  0
    5.6011    7.9194   19.2953 C   0  0  0  0  0  0
    5.7236    8.9376   20.2822 C   0  0  0  0  0  0
    6.6154    9.9884   20.1137 C   0  0  0  0  0  0
    7.4199   10.0480   18.9866 C   0  0  0  0  0  0
    7.3213    9.0764   17.9952 C   0  0  0  0  0  0
    5.2402    7.5772   14.4687 N   0  0  0  0  0  0
    4.6466    8.8542   14.5274 C   0  0  0  0  0  0
    5.1207    9.8841   15.3431 C   0  0  0  0  0  0
    4.5161   11.1518   15.3791 C   0  0  0  0  0  0
    3.4054   11.3885   14.5550 C   0  0  0  0  0  0
    2.9226   10.3697   13.7430 C   0  0  0  0  0  0
    3.5225    9.1081   13.7428 C   0  0  0  0  0  0
    2.7788   12.5870   14.5131 F   0  0  0  0  0  0
    5.1197   12.2217   16.2543 C   0  0  0  0  0  0
    4.3208   13.2922   16.5419 O   0  0  0  0  0  0
    6.2668   12.1091   16.6828 O   0  0  0  0  0  0
    3.9356    6.7881   20.6376 O   0  0  0  0  0  0
    3.0595    5.6817   20.9021 C   0  0  0  0  0  0
    2.0118    5.4448   19.8072 C   0  0  0  0  0  0
    1.5613    4.1445   19.5503 C   0  0  0  0  0  0
    0.6679    3.9150   18.5121 C   0  0  0  0  0  0
    0.2248    4.9880   17.7420 C   0  0  0  0  0  0
    0.6596    6.2831   17.9873 C   0  0  0  0  0  0
    1.5566    6.5082   19.0213 C   0  0  0  0  0  0
    5.2150    5.1434   16.5996 H   0  0  0  0  0  0
    4.0994    4.9144   18.6555 H   0  0  0  0  0  0
    5.1228    8.8896   21.1800 H   0  0  0  0  0  0
    6.6904   10.7599   20.8662 H   0  0  0  0  0  0
    8.1199   10.8642   18.8721 H   0  0  0  0  0  0
    7.9814    9.1720   17.1538 H   0  0  0  0  0  0
    4.7100    6.8345   14.0390 H   0  0  0  0  0  0
    5.9828    9.7080   15.9570 H   0  0  0  0  0  0
    2.0720   10.5748   13.1100 H   0  0  0  0  0  0
    3.1196    8.3298   13.1139 H   0  0  0  0  0  0
    4.8109   13.9039   17.1266 H   0  0  0  0  0  0
    3.6636    4.7859   21.0550 H   0  0  0  0  0  0
    2.5466    5.8675   21.8450 H   0  0  0  0  0  0
    1.9142    3.3104   20.1400 H   0  0  0  0  0  0
    0.3239    2.9134   18.2991 H   0  0  0  0  0  0
   -0.4799    4.8267   16.9434 H   0  0  0  0  0  0
    0.3093    7.1038   17.3793 H   0  0  0  0  0  0
    1.9193    7.5095   19.1900 H   0  0  0  0  0  0
  1  2  2  0  0  0
  2  3  2  0  0  0
  2  7  1  0  0  0
  2 14  1  0  0  0
  4  5  2  0  0  0
  4  7  1  0  0  0
  4 33  1  0  0  0
  5  6  1  0  0  0
  5 34  1  0  0  0
  6  9  2  0  0  0
  6 25  1  0  0  0
  7  8  2  0  0  0
  8  9  1  0  0  0
  8 13  1  0  0  0
  9 10  1  0  0  0
 10 11  2  0  0  0
 10 35  1  0  0  0
 11 12  1  0  0  0
 11 36  1  0  0  0
 12 13  2  0  0  0
 12 37  1  0  0  0
 13 38  1  0  0  0
 14 15  1  0  0  0
 14 39  1  0  0  0
 15 16  2  0  0  0
 15 20  1  0  0  0
 16 17  1  0  0  0
 16 40  1  0  0  0
 17 18  2  0  0  0
 17 22  1  0  0  0
 18 19  1  0  0  0
 18 21  1  0  0  0
 19 20  2  0  0  0
 19 41  1  0  0  0
 20 42  1  0  0  0
 22 23  1  0  0  0
 22 24  2  0  0  0
 23 43  1  0  0  0
 25 26  1  0  0  0
 26 27  1  0  0  0
 26 44  1  0  0  0
 26 45  1  0  0  0
 27 28  2  0  0  0
 27 32  1  0  0  0
 28 29  1  0  0  0
 28 46  1  0  0  0
 29 30  2  0  0  0
 29 47  1  0  0  0
 30 31  1  0  0  0
 30 48  1  0  0  0
 31 32  2  0  0  0
 31 49  1  0  0  0
 32 50  1  0  0  0
M  END
> <s_m_entry_id>
2630

> <s_m_entry_name>
dock_pv.158

> <s_m_Source_Path>
/home/csk/Desktop/cluster/DUD-E-result/fabp4

> <s_m_Source_File>
dock_pv.maegz

> <i_m_Source_File_Index>
158

> <chembl_id>
CHEMBL4554177

> <chembl_pref_name>
None

> <i_lp_mmshare_version>
53161

> <r_lp_tautomer_probability>
1

> <s_lp_Force_Field>
OPLS_2005

> <r_lp_Energy>
27.959308

> <b_lp_Chiralities_Consistent>
1

> <s_lp_Variant>
CHEMBL2083_lig150 -1

> <s_i_glide_gridfile>
glide-grid_2nnq

> <i_i_glide_lignum>
164

> <i_i_glide_rotatable_bonds>
8

> <r_i_docking_score>
-6.87350174394547

> <r_i_glide_ligand_efficiency>
-0.214796929498296

> <r_i_glide_ligand_efficiency_sa>
-0.681937742902463

> <r_i_glide_ligand_efficiency_ln>
-1.53916440505052

> <r_i_glide_gscore>
-6.87350174394547

> <r_i_glide_lipo>
-3.76079915797117

> <r_i_glide_hbond>
0

> <r_i_glide_metal>
0

> <r_i_glide_rewards>
-0.614639636692254

> <r_i_glide_evdw>
-37.3879661560059

> <r_i_glide_ecoul>
-7.78229665756226

> <r_i_glide_erotb>
0.688838074851804

> <r_i_glide_esite>
-0.150158217699219

> <r_i_glide_emodel>
-61.7461405258794

> <r_i_glide_energy>
-45.1702628135681

> <r_i_glide_einternal>
9.13661766052246

> <i_i_glide_confnum>
5

> <i_i_glide_posenum>
225

> <r_i_glide_eff_state_penalty>
0

> <s_user_duplicate_titles>
CHEMBL2083_lig150 

> <i_f3d_flags>
0

> <s_m_subgroup_title>
dock_pv

> <s_m_subgroupid>
dock_pv

> <b_m_subgroup_collapsed>
1

$$$$
CHEMBL2083_lig193
                    3D
 Schrodinger Suite 2021-1.
 55 59  0  0  1  0            999 V2000
    4.1768    7.3829   18.3626 C   0  0  0  0  0  0
    5.0661    7.2500   19.4461 C   0  0  0  0  0  0
    6.3756    7.3783   18.9353 N   0  0  0  0  0  0
    4.9620    7.6675   17.2205 C   0  0  0  0  0  0
    6.3251    7.5802   17.5683 C   0  0  0  0  0  0
    7.3370    7.6865   16.5990 C   0  0  0  0  0  0
    6.9378    7.9911   15.3004 C   0  0  0  0  0  0
    5.5997    8.2054   14.9846 C   0  0  0  0  0  0
    4.6083    7.9713   15.9089 C   0  0  0  0  0  0
    5.1757    8.6746   13.6305 C   0  0  0  0  0  0
    7.6836    7.2304   19.6069 C   0  0  0  0  0  0
    8.5741    8.5105   19.6328 C   0  0  0  0  0  0
    8.1154    9.6579   20.5336 C   0  0  0  0  0  0
    9.1201   10.1075   21.3419 O   0  0  0  0  0  0
    6.9793   10.1189   20.5189 O   0  0  0  0  0  0
    2.6877    7.3391   18.1775 C   0  0  0  0  0  0
    4.0820    9.7091   13.4037 C   0  0  0  0  0  0
    5.5197   10.0610   13.1448 C   0  0  0  0  0  0
    4.7296    6.9483   20.8880 C   0  0  0  0  0  0
    5.5580    7.3576   21.9409 C   0  0  0  0  0  0
    5.3452    6.9056   23.2354 C   0  0  0  0  0  0
    4.2407    6.1089   23.5034 C   0  0  0  0  0  0
    3.3233    5.8196   22.5076 C   0  0  0  0  0  0
    3.5873    6.2029   21.2015 C   0  0  0  0  0  0
    2.0375    8.5081   17.7414 C   0  0  0  0  0  0
    0.6907    8.4104   17.3487 C   0  0  0  0  0  0
   -0.0124    7.2508   17.3857 N   0  0  0  0  0  0
    0.6365    6.1333   17.7955 C   0  0  0  0  0  0
    1.9786    6.1311   18.1799 C   0  0  0  0  0  0
    2.7797    9.6773   17.7003 O   0  0  0  0  0  0
    2.2550   10.8396   17.0794 C   0  0  0  0  0  0
    8.3841    7.5625   16.8353 H   0  0  0  0  0  0
    7.6918    8.0930   14.5346 H   0  0  0  0  0  0
    3.5710    8.0645   15.6248 H   0  0  0  0  0  0
    5.1496    7.8438   12.9420 H   0  0  0  0  0  0
    7.5889    6.7475   20.5749 H   0  0  0  0  0  0
    8.2376    6.5116   19.0090 H   0  0  0  0  0  0
    9.5906    8.2144   19.8923 H   0  0  0  0  0  0
    8.6682    8.9347   18.6346 H   0  0  0  0  0  0
    9.9436    9.6065   21.2474 H   0  0  0  0  0  0
    3.5863   10.1400   14.2738 H   0  0  0  0  0  0
    3.4191    9.6828   12.5422 H   0  0  0  0  0  0
    5.9476   10.1091   12.1439 H   0  0  0  0  0  0
    5.9103   10.8266   13.8106 H   0  0  0  0  0  0
    6.3947    8.0093   21.7786 H   0  0  0  0  0  0
    6.0134    7.1975   24.0320 H   0  0  0  0  0  0
    4.0563    5.7691   24.5126 H   0  0  0  0  0  0
    2.4111    5.3036   22.7497 H   0  0  0  0  0  0
    2.8898    5.8937   20.4513 H   0  0  0  0  0  0
    0.1377    9.2723   17.0119 H   0  0  0  0  0  0
    0.0622    5.2178   17.7806 H   0  0  0  0  0  0
    2.4694    5.2016   18.4270 H   0  0  0  0  0  0
    3.0613   11.5576   16.9298 H   0  0  0  0  0  0
    1.8152   10.6327   16.1030 H   0  0  0  0  0  0
    1.5202   11.3092   17.7286 H   0  0  0  0  0  0
  1  4  1  0  0  0
  1  2  2  0  0  0
  1 16  1  0  0  0
  2  3  1  0  0  0
  2 19  1  0  0  0
  3  5  1  0  0  0
  3 11  1  0  0  0
  4  5  2  0  0  0
  4  9  1  0  0  0
  5  6  1  0  0  0
  6  7  2  0  0  0
  6 32  1  0  0  0
  7  8  1  0  0  0
  7 33  1  0  0  0
  8  9  2  0  0  0
  8 10  1  0  0  0
  9 34  1  0  0  0
 10 17  1  0  0  0
 10 18  1  0  0  0
 10 35  1  0  0  0
 11 12  1  0  0  0
 11 36  1  0  0  0
 11 37  1  0  0  0
 12 13  1  0  0  0
 12 38  1  0  0  0
 12 39  1  0  0  0
 13 14  1  0  0  0
 13 15  2  0  0  0
 14 40  1  0  0  0
 16 25  2  0  0  0
 16 29  1  0  0  0
 17 18  1  0  0  0
 17 41  1  0  0  0
 17 42  1  0  0  0
 18 43  1  0  0  0
 18 44  1  0  0  0
 19 20  2  0  0  0
 19 24  1  0  0  0
 20 21  1  0  0  0
 20 45  1  0  0  0
 21 22  2  0  0  0
 21 46  1  0  0  0
 22 23  1  0  0  0
 22 47  1  0  0  0
 23 24  2  0  0  0
 23 48  1  0  0  0
 24 49  1  0  0  0
 25 26  1  0  0  0
 25 30  1  0  0  0
 26 27  2  0  0  0
 26 50  1  0  0  0
 27 28  1  0  0  0
 28 29  2  0  0  0
 28 51  1  0  0  0
 29 52  1  0  0  0
 30 31  1  0  0  0
 31 53  1  0  0  0
 31 54  1  0  0  0
 31 55  1  0  0  0
M  END
> <s_m_entry_id>
2632

> <s_m_entry_name>
dock_pv.160

> <s_m_Source_Path>
/home/csk/Desktop/cluster/DUD-E-result/fabp4

> <s_m_Source_File>
dock_pv.maegz

> <i_m_Source_File_Index>
160

> <chembl_id>
CHEMBL3813892

> <chembl_pref_name>
None

> <i_lp_mmshare_version>
53161

> <r_lp_tautomer_probability>
1

> <s_lp_Force_Field>
OPLS_2005

> <r_lp_Energy>
32.631502

> <b_lp_Chiralities_Consistent>
1

> <s_lp_Variant>
CHEMBL2083_lig193-1

> <s_i_glide_gridfile>
glide-grid_2nnq

> <i_i_glide_lignum>
212

> <i_i_glide_rotatable_bonds>
8

> <r_i_docking_score>
-6.86789277494517

> <r_i_glide_ligand_efficiency>
-0.221544928224038

> <r_i_glide_ligand_efficiency_sa>
-0.695956950361796

> <r_i_glide_ligand_efficiency_ln>
-1.54892029638652

> <r_i_glide_gscore>
-6.86789277494517

> <r_i_glide_lipo>
-3.72066442939886

> <r_i_glide_hbond>
0

> <r_i_glide_metal>
0

> <r_i_glide_rewards>
-0.903080858084055

> <r_i_glide_evdw>
-35.2416572570801

> <r_i_glide_ecoul>
-7.80825805664062

> <r_i_glide_erotb>
0.695403438290143

> <r_i_glide_esite>
-0.00622935440229908

> <r_i_glide_emodel>
-55.9584516997722

> <r_i_glide_energy>
-43.0499153137207

> <r_i_glide_einternal>
4.64352083206177

> <i_i_glide_confnum>
5

> <i_i_glide_posenum>
3

> <r_i_glide_eff_state_penalty>
0

> <s_user_duplicate_titles>
CHEMBL2083_lig193

> <i_f3d_flags>
0

> <s_m_subgroup_title>
dock_pv

> <s_m_subgroupid>
dock_pv

> <b_m_subgroup_collapsed>
1

$$$$
CHEMBL2083_lig96
                    3D
 Schrodinger Suite 2021-1.
 49 53  0  0  1  0            999 V2000
    1.9215   10.4693   15.7025 C   0  0  0  0  0  0
    3.2358   10.2619   16.4055 C   0  0  0  0  0  0
    4.2722   11.1980   16.3345 C   0  0  0  0  0  0
    5.5710   10.8065   17.4013 S   0  0  0  0  0  0
    4.7168    9.4050   17.9295 C   0  0  0  0  0  0
    5.2299    8.7056   18.9840 N   0  0  0  0  0  0
    4.9607    9.0995   20.2418 C   0  0  0  0  0  0
    4.3201   10.1088   20.5421 O   0  0  0  0  0  0
    5.4809    8.1967   21.2356 C   0  0  0  0  0  0
    6.7974    7.9286   21.4370 C   0  0  0  0  0  0
    6.9873    6.9093   22.5417 C   0  0  0  0  0  0
    5.5566    6.5092   22.9141 C   0  0  0  0  0  0
    4.5820    7.3865   22.1421 C   0  0  0  0  0  0
    7.8835    8.5473   20.7042 C   0  0  0  0  0  0
    8.3385    9.6636   20.9423 O   0  0  0  0  0  0
    8.3204    7.7513   19.6921 O   0  0  0  0  0  0
    3.5346    9.1642   17.2393 C   0  0  0  0  0  0
    2.6907    7.9536   17.3907 C   0  0  0  0  0  0
    1.6475    7.7642   16.5437 O   0  0  0  0  0  0
    1.0951    6.5373   16.8910 N   0  0  0  0  0  0
    1.8802    6.1334   17.8611 C   0  0  0  0  0  0
    2.8580    6.9496   18.2124 N   0  0  0  0  0  0
    1.6503    4.7883   18.5203 C   0  0  0  0  0  0
    2.8047    3.9221   18.9685 C   0  0  0  0  0  0
    1.9203    4.6068   19.9865 C   0  0  0  0  0  0
    4.3605   12.4078   15.4503 C   0  0  0  0  0  0
    5.3109   12.3991   14.2828 C   0  0  0  0  0  0
    3.8199   12.3018   14.0502 C   0  0  0  0  0  0
    1.9200    9.9592   14.7419 H   0  0  0  0  0  0
    1.1116   10.0786   16.3026 H   0  0  0  0  0  0
    1.6757   11.5193   15.5436 H   0  0  0  0  0  0
    5.6520    7.8043   18.8203 H   0  0  0  0  0  0
    7.5149    7.3567   23.3861 H   0  0  0  0  0  0
    7.5644    6.0470   22.2040 H   0  0  0  0  0  0
    5.3870    5.4634   22.6526 H   0  0  0  0  0  0
    5.3892    6.5884   23.9894 H   0  0  0  0  0  0
    3.8672    6.7912   21.5743 H   0  0  0  0  0  0
    4.0124    8.0426   22.8015 H   0  0  0  0  0  0
    9.0493    8.1757   19.2342 H   0  0  0  0  0  0
    0.7845    4.2517   18.1274 H   0  0  0  0  0  0
    2.7230    2.8405   18.8616 H   0  0  0  0  0  0
    3.8255    4.2805   18.8259 H   0  0  0  0  0  0
    2.3055    5.4477   20.5616 H   0  0  0  0  0  0
    1.1843    4.0261   20.5418 H   0  0  0  0  0  0
    4.2255   13.3567   15.9736 H   0  0  0  0  0  0
    5.8498   13.3089   14.0590 H   0  0  0  0  0  0
    5.9185   11.5151   14.0993 H   0  0  0  0  0  0
    3.4398   11.3493   13.6857 H   0  0  0  0  0  0
    3.2330   13.1271   13.6551 H   0  0  0  0  0  0
  1  2  1  0  0  0
  1 29  1  0  0  0
  1 30  1  0  0  0
  1 31  1  0  0  0
  2  3  2  0  0  0
  2 17  1  0  0  0
  3  4  1  0  0  0
  3 26  1  0  0  0
  4  5  1  0  0  0
  5  6  1  0  0  0
  5 17  2  0  0  0
  6  7  1  0  0  0
  6 32  1  0  0  0
  7  8  2  0  0  0
  7  9  1  0  0  0
  9 10  2  0  0  0
  9 13  1  0  0  0
 10 11  1  0  0  0
 10 14  1  0  0  0
 11 12  1  0  0  0
 11 33  1  0  0  0
 11 34  1  0  0  0
 12 13  1  0  0  0
 12 35  1  0  0  0
 12 36  1  0  0  0
 13 37  1  0  0  0
 13 38  1  0  0  0
 14 15  2  0  0  0
 14 16  1  0  0  0
 16 39  1  0  0  0
 17 18  1  0  0  0
 18 19  1  0  0  0
 18 22  2  0  0  0
 19 20  1  0  0  0
 20 21  2  0  0  0
 21 22  1  0  0  0
 21 23  1  0  0  0
 23 24  1  0  0  0
 23 25  1  0  0  0
 23 40  1  0  0  0
 24 25  1  0  0  0
 24 41  1  0  0  0
 24 42  1  0  0  0
 25 43  1  0  0  0
 25 44  1  0  0  0
 26 27  1  0  0  0
 26 28  1  0  0  0
 26 45  1  0  0  0
 27 28  1  0  0  0
 27 46  1  0  0  0
 27 47  1  0  0  0
 28 48  1  0  0  0
 28 49  1  0  0  0
M  END
> <s_m_entry_id>
2633

> <s_m_entry_name>
dock_pv.161

> <s_m_Source_Path>
/home/csk/Desktop/cluster/DUD-E-result/fabp4

> <s_m_Source_File>
dock_pv.maegz

> <i_m_Source_File_Index>
161

> <chembl_id>
CHEMBL3918729

> <chembl_pref_name>
None

> <i_lp_mmshare_version>
53161

> <r_lp_tautomer_probability>
1

> <s_lp_Force_Field>
OPLS_2005

> <r_lp_Energy>
36.354087

> <b_lp_Chiralities_Consistent>
1

> <s_lp_Variant>
CHEMBL2083_lig96-1

> <s_i_glide_gridfile>
glide-grid_2nnq

> <i_i_glide_lignum>
106

> <i_i_glide_rotatable_bonds>
8

> <r_i_docking_score>
-6.85491459541262

> <r_i_glide_ligand_efficiency>
-0.244818378407594

> <r_i_glide_ligand_efficiency_sa>
-0.743412787159247

> <r_i_glide_ligand_efficiency_ln>
-1.58231555765944

> <r_i_glide_gscore>
-6.85491459541262

> <r_i_glide_lipo>
-2.74441554607681

> <r_i_glide_hbond>
-0.391459605968364

> <r_i_glide_metal>
0

> <r_i_glide_rewards>
-1.6354099909257

> <r_i_glide_evdw>
-41.0437355041504

> <r_i_glide_ecoul>
-5.94008684158325

> <r_i_glide_erotb>
0.859570349003268

> <r_i_glide_esite>
0

> <r_i_glide_emodel>
-59.0438513911711

> <r_i_glide_energy>
-46.9838223457336

> <r_i_glide_einternal>
14.0151968002319

> <i_i_glide_confnum>
14

> <i_i_glide_posenum>
191

> <r_i_glide_eff_state_penalty>
0

> <s_user_duplicate_titles>
CHEMBL2083_lig96

> <i_f3d_flags>
0

> <s_m_subgroup_title>
dock_pv

> <s_m_subgroupid>
dock_pv

> <b_m_subgroup_collapsed>
1

$$$$
CHEMBL2083_lig5
                    3D
 Schrodinger Suite 2021-1.
 32 34  0  0  1  0            999 V2000
    3.7613    8.6152   17.8038 S   0  0  0  0  0  0
    2.3941    7.5652   17.8122 N   0  0  0  0  0  0
    4.9293    7.8923   16.6111 C   0  0  0  0  0  0
    4.6041    7.5488   15.2745 C   0  0  0  0  0  0
    2.3949    6.2383   18.2015 C   0  0  0  0  0  0
    1.0744    5.7311   17.9928 C   0  0  0  0  0  0
    1.1440    7.8943   17.3359 C   0  0  0  0  0  0
    0.2975    6.8112   17.4585 C   0  0  0  0  0  0
    3.2677    7.8359   14.6531 C   0  0  0  0  0  0
    4.3436    8.4820   19.1448 O   0  0  0  0  0  0
    3.2992    9.9165   17.3094 O   0  0  0  0  0  0
    0.8125    4.3868   18.3147 C   0  0  0  0  0  0
    2.7200    8.9297   14.7355 O   0  0  0  0  0  0
    2.7200    6.7678   14.0064 O   0  0  0  0  0  0
   -0.4098    3.8424   18.1420 F   0  0  0  0  0  0
    5.5635    6.9090   14.4795 C   0  0  0  0  0  0
    3.4277    5.4356   18.6985 C   0  0  0  0  0  0
    6.2147    7.5988   17.0905 C   0  0  0  0  0  0
    3.1200    4.1090   18.9852 C   0  0  0  0  0  0
    1.8425    3.5947   18.8079 C   0  0  0  0  0  0
    6.8185    6.5976   14.9854 C   0  0  0  0  0  0
    7.1528    6.9537   16.2875 C   0  0  0  0  0  0
    0.9603    8.8927   16.9585 H   0  0  0  0  0  0
   -0.7467    6.7954   17.1825 H   0  0  0  0  0  0
    1.8052    6.9683   13.7420 H   0  0  0  0  0  0
    5.3367    6.6237   13.4599 H   0  0  0  0  0  0
    4.4252    5.8216   18.8472 H   0  0  0  0  0  0
    6.4926    7.8506   18.1040 H   0  0  0  0  0  0
    3.9008    3.4560   19.3420 H   0  0  0  0  0  0
    1.6444    2.5577   19.0379 H   0  0  0  0  0  0
    7.5200    6.0743   14.3567 H   0  0  0  0  0  0
    8.1323    6.7195   16.6804 H   0  0  0  0  0  0
  1  2  1  0  0  0
  1  3  1  0  0  0
  1 10  2  0  0  0
  1 11  2  0  0  0
  2  5  1  0  0  0
  2  7  1  0  0  0
  3  4  2  0  0  0
  3 18  1  0  0  0
  4  9  1  0  0  0
  4 16  1  0  0  0
  5  6  1  0  0  0
  5 17  2  0  0  0
  6 12  2  0  0  0
  6  8  1  0  0  0
  7  8  2  0  0  0
  7 23  1  0  0  0
  8 24  1  0  0  0
  9 13  2  0  0  0
  9 14  1  0  0  0
 12 15  1  0  0  0
 12 20  1  0  0  0
 14 25  1  0  0  0
 16 21  2  0  0  0
 16 26  1  0  0  0
 17 19  1  0  0  0
 17 27  1  0  0  0
 18 22  2  0  0  0
 18 28  1  0  0  0
 19 20  2  0  0  0
 19 29  1  0  0  0
 20 30  1  0  0  0
 21 22  1  0  0  0
 21 31  1  0  0  0
 22 32  1  0  0  0
M  END
> <s_m_entry_id>
2634

> <s_m_entry_name>
dock_pv.162

> <s_m_Source_Path>
/home/csk/Desktop/cluster/DUD-E-result/fabp4

> <s_m_Source_File>
dock_pv.maegz

> <i_m_Source_File_Index>
162

> <chembl_id>
CHEMBL362888

> <chembl_pref_name>
None

> <i_lp_mmshare_version>
53161

> <r_lp_tautomer_probability>
1

> <s_lp_Force_Field>
OPLS_2005

> <r_lp_Energy>
11.419912

> <b_lp_Chiralities_Consistent>
1

> <s_lp_Variant>
CHEMBL2083_lig5-1

> <s_i_glide_gridfile>
glide-grid_2nnq

> <i_i_glide_lignum>
5

> <i_i_glide_rotatable_bonds>
4

> <r_i_docking_score>
-6.85189178460519

> <r_i_glide_ligand_efficiency>
-0.311449626572963

> <r_i_glide_ligand_efficiency_sa>
-0.872694102276198

> <r_i_glide_ligand_efficiency_ln>
-1.67485228098293

> <r_i_glide_gscore>
-6.85189178460519

> <r_i_glide_lipo>
-2.64809554530897

> <r_i_glide_hbond>
0

> <r_i_glide_metal>
0

> <r_i_glide_rewards>
-1.74646312735143

> <r_i_glide_evdw>
-30.1528339385986

> <r_i_glide_ecoul>
-9.78087329864502

> <r_i_glide_erotb>
0.548962838628009

> <r_i_glide_esite>
-0.0315232588461173

> <r_i_glide_emodel>
-57.3494136887219

> <r_i_glide_energy>
-39.9337072372437

> <r_i_glide_einternal>
2.66135668754578

> <i_i_glide_confnum>
4

> <i_i_glide_posenum>
388

> <r_i_glide_eff_state_penalty>
0

> <s_user_duplicate_titles>
CHEMBL2083_lig5

> <i_f3d_flags>
0

> <s_m_subgroup_title>
dock_pv

> <s_m_subgroupid>
dock_pv

> <b_m_subgroup_collapsed>
1

$$$$
CHEMBL2083_lig154 
                    3D
 Schrodinger Suite 2021-1.
 47 50  0  0  1  0            999 V2000
    7.3352    5.9348   16.0241 O   0  0  0  0  0  0
    6.7728    7.2527   16.3377 S   0  0  0  0  0  0
    7.6240    8.4438   16.4185 O   0  0  0  0  0  0
    4.5679    6.4620   17.7283 C   0  0  0  0  0  0
    3.7189    6.2825   18.8120 C   0  0  0  0  0  0
    4.1098    6.6894   20.0896 C   0  0  0  0  0  0
    5.8190    7.0603   17.8586 C   0  0  0  0  0  0
    6.2597    7.4925   19.1509 C   0  0  0  0  0  0
    5.3817    7.3092   20.2739 C   0  0  0  0  0  0
    5.8132    7.7299   21.5603 C   0  0  0  0  0  0
    7.0764    8.2698   21.7438 C   0  0  0  0  0  0
    7.9188    8.4803   20.6638 C   0  0  0  0  0  0
    7.5363    8.0809   19.3907 C   0  0  0  0  0  0
    5.5768    7.5831   15.0687 N   0  0  0  0  0  0
    4.8252    8.7661   14.9825 C   0  0  0  0  0  0
    4.8710    9.7791   15.9523 C   0  0  0  0  0  0
    4.0953   10.9389   15.8172 C   0  0  0  0  0  0
    3.2617   11.0838   14.7016 C   0  0  0  0  0  0
    3.2101   10.0757   13.7432 C   0  0  0  0  0  0
    3.9812    8.9239   13.8832 C   0  0  0  0  0  0
    2.5092   12.1963   14.5244 F   0  0  0  0  0  0
    4.2171   12.0442   16.8210 C   0  0  0  0  0  0
    5.4901   12.5090   16.9422 O   0  0  0  0  0  0
    3.2513   12.5018   17.4279 O   0  0  0  0  0  0
    3.2526    6.5093   21.1525 O   0  0  0  0  0  0
    3.5453    5.3907   21.9792 C   0  0  0  0  0  0
    2.3976    5.6652   18.5354 C   0  0  0  0  0  0
    1.3825    6.2100   17.7425 C   0  0  0  0  0  0
    0.3383    5.3069   17.7412 C   0  0  0  0  0  0
    0.6645    4.2112   18.4704 O   0  0  0  0  0  0
    1.9075    4.4364   18.9660 C   0  0  0  0  0  0
    4.2344    6.1311   16.7550 H   0  0  0  0  0  0
    5.1643    7.6139   22.4166 H   0  0  0  0  0  0
    7.4026    8.5092   22.7436 H   0  0  0  0  0  0
    8.9010    8.9050   20.8193 H   0  0  0  0  0  0
    8.2564    8.2038   18.6013 H   0  0  0  0  0  0
    5.2942    6.7980   14.5012 H   0  0  0  0  0  0
    5.5112    9.6816   16.8170 H   0  0  0  0  0  0
    2.5790   10.1982   12.8776 H   0  0  0  0  0  0
    3.9240    8.1570   13.1248 H   0  0  0  0  0  0
    5.5160   13.3551   17.4351 H   0  0  0  0  0  0
    2.7937    5.3192   22.7654 H   0  0  0  0  0  0
    3.5227    4.4705   21.4011 H   0  0  0  0  0  0
    4.5206    5.4588   22.4614 H   0  0  0  0  0  0
    1.4082    7.1625   17.2320 H   0  0  0  0  0  0
   -0.6326    5.3030   17.2745 H   0  0  0  0  0  0
    2.3143    3.6458   19.5787 H   0  0  0  0  0  0
  1  2  2  0  0  0
  2  3  2  0  0  0
  2  7  1  0  0  0
  2 14  1  0  0  0
  4  5  2  0  0  0
  4  7  1  0  0  0
  4 32  1  0  0  0
  5  6  1  0  0  0
  5 27  1  0  0  0
  6  9  2  0  0  0
  6 25  1  0  0  0
  7  8  2  0  0  0
  8  9  1  0  0  0
  8 13  1  0  0  0
  9 10  1  0  0  0
 10 11  2  0  0  0
 10 33  1  0  0  0
 11 12  1  0  0  0
 11 34  1  0  0  0
 12 13  2  0  0  0
 12 35  1  0  0  0
 13 36  1  0  0  0
 14 15  1  0  0  0
 14 37  1  0  0  0
 15 16  2  0  0  0
 15 20  1  0  0  0
 16 17  1  0  0  0
 16 38  1  0  0  0
 17 18  2  0  0  0
 17 22  1  0  0  0
 18 19  1  0  0  0
 18 21  1  0  0  0
 19 20  2  0  0  0
 19 39  1  0  0  0
 20 40  1  0  0  0
 22 23  1  0  0  0
 22 24  2  0  0  0
 23 41  1  0  0  0
 25 26  1  0  0  0
 26 42  1  0  0  0
 26 43  1  0  0  0
 26 44  1  0  0  0
 27 28  1  0  0  0
 27 31  2  0  0  0
 28 29  2  0  0  0
 28 45  1  0  0  0
 29 30  1  0  0  0
 29 46  1  0  0  0
 30 31  1  0  0  0
 31 47  1  0  0  0
M  END
> <s_m_entry_id>
2635

> <s_m_entry_name>
dock_pv.163

> <s_m_Source_Path>
/home/csk/Desktop/cluster/DUD-E-result/fabp4

> <s_m_Source_File>
dock_pv.maegz

> <i_m_Source_File_Index>
163

> <chembl_id>
CHEMBL4548608

> <chembl_pref_name>
None

> <i_lp_mmshare_version>
53161

> <r_lp_tautomer_probability>
1

> <s_lp_Force_Field>
OPLS_2005

> <r_lp_Energy>
27.897313

> <b_lp_Chiralities_Consistent>
1

> <s_lp_Variant>
CHEMBL2083_lig154 -1

> <s_i_glide_gridfile>
glide-grid_2nnq

> <i_i_glide_lignum>
168

> <i_i_glide_rotatable_bonds>
7

> <r_i_docking_score>
-6.84526414524706

> <r_i_glide_ligand_efficiency>
-0.220814972427325

> <r_i_glide_ligand_efficiency_sa>
-0.693663881347525

> <r_i_glide_ligand_efficiency_ln>
-1.54381684690538

> <r_i_glide_gscore>
-6.84526414524706

> <r_i_glide_lipo>
-3.37710138949295

> <r_i_glide_hbond>
0

> <r_i_glide_metal>
0

> <r_i_glide_rewards>
-0.548447956179565

> <r_i_glide_evdw>
-42.9291152954102

> <r_i_glide_ecoul>
-8.18293476104736

> <r_i_glide_erotb>
0.512545033673357

> <r_i_glide_esite>
-0.0583638543202953

> <r_i_glide_emodel>
-69.0090179654273

> <r_i_glide_energy>
-51.1120500564575

> <r_i_glide_einternal>
8.00689601898193

> <i_i_glide_confnum>
119

> <i_i_glide_posenum>
220

> <r_i_glide_eff_state_penalty>
0

> <s_user_duplicate_titles>
CHEMBL2083_lig154 

> <i_f3d_flags>
0

> <s_m_subgroup_title>
dock_pv

> <s_m_subgroupid>
dock_pv

> <b_m_subgroup_collapsed>
1

$$$$
CHEMBL2083_lig197
                    3D
 Schrodinger Suite 2021-1.
 41 45  0  0  1  0            999 V2000
    6.0789    9.5622   19.8782 C   0  0  0  0  0  0
    4.9537    9.3746   18.9565 N   0  0  0  0  0  0
    5.1709   10.1750   17.7186 C   0  0  1  0  0  0
    4.2375    8.1559   18.9590 C   0  0  0  0  0  0
    4.2331    7.3369   20.1147 C   0  0  0  0  0  0
    3.5221    6.1294   20.0746 C   0  0  0  0  0  0
    2.8052    5.7462   18.9490 C   0  0  0  0  0  0
    2.7489    6.5896   17.8475 C   0  0  0  0  0  0
    3.4363    7.8070   17.8392 C   0  0  0  0  0  0
    4.8646    7.8236   21.4238 C   0  0  2  0  0  0
    6.0058    8.8274   21.2292 C   0  0  1  0  0  0
    7.3018    8.0884   21.5795 C   0  0  0  0  0  0
    6.8260    6.9092   22.3913 C   0  0  0  0  0  0
    5.4943    6.7621   22.3083 C   0  0  0  0  0  0
    4.6526    9.4403   16.4583 C   0  0  1  0  0  0
    3.2989    8.8050   16.6927 C   0  0  1  0  0  0
    2.9634    8.3540   15.2837 C   0  0  0  0  0  0
    3.6037    9.1358   14.3893 C   0  0  0  0  0  0
    4.5435   10.1070   15.0864 C   0  0  0  0  0  0
    4.5639   11.5896   17.9076 C   0  0  0  0  0  0
    5.2509   12.5090   17.1698 O   0  0  0  0  0  0
    3.6208   11.8529   18.6552 O   0  0  0  0  0  0
    1.8560    4.0961   18.9427 Br  0  0  0  0  0  0
    6.8749    9.0747   19.3124 H   0  0  0  0  0  0
    6.4503   10.5873   19.9350 H   0  0  0  0  0  0
    6.2359   10.3690   17.5738 H   0  0  0  0  0  0
    3.4976    5.4864   20.9421 H   0  0  0  0  0  0
    2.1419    6.3012   17.0021 H   0  0  0  0  0  0
    4.0598    8.3166   21.9724 H   0  0  0  0  0  0
    5.9203    9.6032   21.9909 H   0  0  0  0  0  0
    7.8436    7.7367   20.7002 H   0  0  0  0  0  0
    7.9851    8.7192   22.1473 H   0  0  0  0  0  0
    7.5114    6.2826   22.9421 H   0  0  0  0  0  0
    4.9104    5.9928   22.7933 H   0  0  0  0  0  0
    5.3808    8.6338   16.3173 H   0  0  0  0  0  0
    2.5624    9.5444   17.0164 H   0  0  0  0  0  0
    2.2241    7.6003   15.0569 H   0  0  0  0  0  0
    3.5014    9.0984   13.3142 H   0  0  0  0  0  0
    5.5172   10.1646   14.6007 H   0  0  0  0  0  0
    4.1387   11.1192   15.1237 H   0  0  0  0  0  0
    5.1203   13.4250   17.4818 H   0  0  0  0  0  0
  1 11  1  0  0  0
  1  2  1  0  0  0
  1 24  1  0  0  0
  1 25  1  0  0  0
  2  4  1  0  0  0
  2  3  1  0  0  0
  3 15  1  0  0  0
  3 20  1  0  0  0
  3 26  1  0  0  0
  4  5  2  0  0  0
  4  9  1  0  0  0
  5 10  1  0  0  0
  5  6  1  0  0  0
  6  7  2  0  0  0
  6 27  1  0  0  0
  7  8  1  0  0  0
  7 23  1  0  0  0
  8  9  2  0  0  0
  8 28  1  0  0  0
  9 16  1  0  0  0
 10 11  1  0  0  0
 10 14  1  0  0  0
 10 29  1  0  0  0
 11 12  1  0  0  0
 11 30  1  0  0  0
 12 13  1  0  0  0
 12 31  1  0  0  0
 12 32  1  0  0  0
 13 14  2  0  0  0
 13 33  1  0  0  0
 14 34  1  0  0  0
 15 16  1  0  0  0
 15 19  1  0  0  0
 15 35  1  0  0  0
 16 17  1  0  0  0
 16 36  1  0  0  0
 17 18  2  0  0  0
 17 37  1  0  0  0
 18 19  1  0  0  0
 18 38  1  0  0  0
 19 39  1  0  0  0
 19 40  1  0  0  0
 20 21  1  0  0  0
 20 22  2  0  0  0
 21 41  1  0  0  0
M  END
> <s_m_entry_id>
2636

> <s_m_entry_name>
dock_pv.164

> <s_m_Source_Path>
/home/csk/Desktop/cluster/DUD-E-result/fabp4

> <s_m_Source_File>
dock_pv.maegz

> <i_m_Source_File_Index>
164

> <chembl_id>
CHEMBL3828508

> <chembl_pref_name>
None

> <i_lp_mmshare_version>
53161

> <r_lp_tautomer_probability>
1

> <s_lp_Force_Field>
OPLS_2005

> <r_lp_Energy>
73.224456

> <b_lp_Chiralities_Consistent>
1

> <s_lp_Variant>
CHEMBL2083_lig197-30

> <s_i_glide_gridfile>
glide-grid_2nnq

> <i_i_glide_lignum>
307

> <i_i_glide_rotatable_bonds>
2

> <r_i_docking_score>
-6.83396637407092

> <r_i_glide_ligand_efficiency>
-0.297128972785692

> <r_i_glide_ligand_efficiency_sa>
-0.844995273579286

> <r_i_glide_ligand_efficiency_ln>
-1.6525150362314

> <r_i_glide_gscore>
-6.83396637407092

> <r_i_glide_lipo>
-2.8560407384756

> <r_i_glide_hbond>
0

> <r_i_glide_metal>
0

> <r_i_glide_rewards>
-1.13427326349172

> <r_i_glide_evdw>
-33.474048614502

> <r_i_glide_ecoul>
-7.41392421722412

> <r_i_glide_erotb>
0

> <r_i_glide_esite>
-0.0578613087948871

> <r_i_glide_emodel>
-55.7088455052514

> <r_i_glide_energy>
-40.8879728317261

> <r_i_glide_einternal>
0.774296700954437

> <i_i_glide_confnum>
1

> <i_i_glide_posenum>
352

> <r_i_glide_eff_state_penalty>
0

> <s_user_duplicate_titles>
CHEMBL2083_lig197

> <i_f3d_flags>
0

> <s_m_subgroup_title>
dock_pv

> <s_m_subgroupid>
dock_pv

> <b_m_subgroup_collapsed>
1

$$$$
CHEMBL2083_lig10
                    3D
 Schrodinger Suite 2021-1.
 32 33  0  0  1  0            999 V2000
    3.4010    9.1894   16.7122 C   0  0  0  0  0  0
    3.8417    9.6430   17.8350 N   0  0  0  0  0  0
    2.8545   10.0576   15.7683 N   0  0  0  0  0  0
    2.8184   11.4260   15.9824 C   0  0  0  0  0  0
    2.3696   12.2978   14.8098 C   0  0  0  0  0  0
    3.7192   10.9864   18.2264 C   0  0  0  0  0  0
    3.2518   11.8866   17.1812 C   0  0  0  0  0  0
    3.4898    7.7800   16.4111 N   0  0  0  0  0  0
    4.4532    6.9090   17.1147 C   0  0  0  0  0  0
    3.4051   12.5087   13.9996 F   0  0  0  0  0  0
    1.9199   13.4675   15.2526 F   0  0  0  0  0  0
    1.3910   11.7089   14.1223 F   0  0  0  0  0  0
    4.1335    6.6722   18.5898 C   0  0  0  0  0  0
    3.9199   11.4572   19.3416 O   0  0  0  0  0  0
    3.5139    6.3133   21.2767 C   0  0  0  0  0  0
    3.1201    6.1086   22.9417 Cl  0  0  0  0  0  0
    4.8924    7.3093   19.5769 C   0  0  0  0  0  0
    3.0541    5.8629   18.9526 C   0  0  0  0  0  0
    4.5796    7.1353   20.9213 C   0  0  0  0  0  0
    2.7496    5.6770   20.2990 C   0  0  0  0  0  0
    3.2191    7.3074   15.0489 C   0  0  0  0  0  0
    3.2902   12.9455   17.3918 H   0  0  0  0  0  0
    4.5215    5.9280   16.6416 H   0  0  0  0  0  0
    5.4450    7.3561   17.0203 H   0  0  0  0  0  0
    2.5400    9.6784   14.8890 H   0  0  0  0  0  0
    5.7092    7.9614   19.3023 H   0  0  0  0  0  0
    2.4503    5.3849   18.1952 H   0  0  0  0  0  0
    5.1562    7.6410   21.6825 H   0  0  0  0  0  0
    1.9163    5.0520   20.5833 H   0  0  0  0  0  0
    2.3239    7.7669   14.6281 H   0  0  0  0  0  0
    4.0597    7.5227   14.3873 H   0  0  0  0  0  0
    3.0421    6.2307   15.0327 H   0  0  0  0  0  0
  1  3  1  0  0  0
  1  8  1  0  0  0
  1  2  2  0  0  0
  2  6  1  0  0  0
  3 25  1  0  0  0
  3  4  1  0  0  0
  4  7  2  0  0  0
  4  5  1  0  0  0
  5 10  1  0  0  0
  5 11  1  0  0  0
  5 12  1  0  0  0
  6 14  2  0  0  0
  6  7  1  0  0  0
  7 22  1  0  0  0
  8  9  1  0  0  0
  8 21  1  0  0  0
  9 13  1  0  0  0
  9 23  1  0  0  0
  9 24  1  0  0  0
 13 17  1  0  0  0
 13 18  2  0  0  0
 15 20  2  0  0  0
 15 16  1  0  0  0
 15 19  1  0  0  0
 17 19  2  0  0  0
 17 26  1  0  0  0
 18 20  1  0  0  0
 18 27  1  0  0  0
 19 28  1  0  0  0
 20 29  1  0  0  0
 21 30  1  0  0  0
 21 31  1  0  0  0
 21 32  1  0  0  0
M  END
> <s_m_entry_id>
2637

> <s_m_entry_name>
dock_pv.165

> <s_m_Source_Path>
/home/csk/Desktop/cluster/DUD-E-result/fabp4

> <s_m_Source_File>
dock_pv.maegz

> <i_m_Source_File_Index>
165

> <chembl_id>
CHEMBL184142

> <chembl_pref_name>
None

> <i_lp_mmshare_version>
53161

> <r_lp_tautomer_probability>
0.10830649838872

> <s_lp_Force_Field>
OPLS_2005

> <r_lp_Energy>
15.26078

> <b_lp_Chiralities_Consistent>
1

> <s_lp_Variant>
CHEMBL2083_lig10-2

> <s_i_glide_gridfile>
glide-grid_2nnq

> <i_i_glide_lignum>
19

> <i_i_glide_rotatable_bonds>
4

> <r_i_docking_score>
-6.83388555495776

> <r_i_glide_ligand_efficiency>
-0.325423121664655

> <r_i_glide_ligand_efficiency_sa>
-0.89781771700289

> <r_i_glide_ligand_efficiency_ln>
-1.68966439429729

> <r_i_glide_gscore>
-6.83388555495776

> <r_i_glide_lipo>
-2.20257092364486

> <r_i_glide_hbond>
-0.32

> <r_i_glide_metal>
0

> <r_i_glide_rewards>
-2.57481983074324

> <r_i_glide_evdw>
-31.6699085235596

> <r_i_glide_ecoul>
-4.71256971359253

> <r_i_glide_erotb>
0.553886082647209

> <r_i_glide_esite>
0

> <r_i_glide_emodel>
-51.4558440819369

> <r_i_glide_energy>
-36.3824782371521

> <r_i_glide_einternal>
1.01085960865021

> <i_i_glide_confnum>
18

> <i_i_glide_posenum>
30

> <r_i_glide_eff_state_penalty>
0

> <s_user_duplicate_titles>
CHEMBL2083_lig10

> <i_f3d_flags>
0

> <s_m_subgroup_title>
dock_pv

> <s_m_subgroupid>
dock_pv

> <b_m_subgroup_collapsed>
1

$$$$
CHEMBL2083_lig210
                    3D
 Schrodinger Suite 2021-1.
 47 49  0  0  1  0            999 V2000
    4.0830   10.8367   16.1604 C   0  0  0  0  0  0
    4.5853   10.5069   17.4471 C   0  0  0  0  0  0
    5.3135    9.3002   17.6137 C   0  0  0  0  0  0
    4.2756   10.0211   15.0935 N   0  0  0  0  0  0
    4.9885    8.8824   15.2256 C   0  0  0  0  0  0
    5.5422    8.4704   16.4698 C   0  0  0  0  0  0
    6.2663    7.2394   16.5050 C   0  0  0  0  0  0
    6.4340    6.4780   15.3498 C   0  0  0  0  0  0
    5.8972    6.9073   14.1424 C   0  0  0  0  0  0
    5.1708    8.0894   14.0745 C   0  0  0  0  0  0
    3.3511   12.0255   15.8862 N   0  0  0  0  0  0
    5.7859    8.8319   18.9508 C   0  0  0  0  0  0
    7.1351    8.9148   19.3039 C   0  0  0  0  0  0
    7.5660    8.4445   20.5409 C   0  0  0  0  0  0
    6.6572    7.8729   21.4306 C   0  0  0  0  0  0
    5.2956    7.7738   21.1020 C   0  0  0  0  0  0
    4.8793    8.2755   19.8606 C   0  0  0  0  0  0
    4.2702   11.3720   18.6486 C   0  0  0  0  0  0
    5.3560   11.7752   19.3675 O   0  0  0  0  0  0
    3.1192   11.6777   18.9410 O   0  0  0  0  0  0
    7.2933    4.9826   15.4149 Cl  0  0  0  0  0  0
    2.4258   12.0842   14.7521 C   0  0  0  0  0  0
    4.0201   13.2839   16.2028 C   0  0  0  0  0  0
    4.2588    7.1508   22.0606 C   0  0  0  0  0  0
    4.8549    6.5242   23.3385 C   0  0  0  0  0  0
    3.3465    6.1111   21.3689 C   0  0  0  0  0  0
    6.6850    6.8836   17.4349 H   0  0  0  0  0  0
    6.0207    6.3035   13.2539 H   0  0  0  0  0  0
    4.7308    8.4068   13.1393 H   0  0  0  0  0  0
    7.8544    9.3374   18.6167 H   0  0  0  0  0  0
    8.6117    8.5116   20.8031 H   0  0  0  0  0  0
    7.0334    7.5102   22.3751 H   0  0  0  0  0  0
    3.8375    8.2261   19.5823 H   0  0  0  0  0  0
    6.1899   11.5736   18.9400 H   0  0  0  0  0  0
    1.8136   11.1830   14.7047 H   0  0  0  0  0  0
    1.7530   12.9387   14.8394 H   0  0  0  0  0  0
    2.9700   12.1645   13.8101 H   0  0  0  0  0  0
    5.0474   13.1515   16.5414 H   0  0  0  0  0  0
    4.0425   13.9512   15.3435 H   0  0  0  0  0  0
    3.4745   13.7945   16.9964 H   0  0  0  0  0  0
    3.6250    7.9771   22.3872 H   0  0  0  0  0  0
    5.4061    7.2547   23.9320 H   0  0  0  0  0  0
    5.5288    5.7096   23.0832 H   0  0  0  0  0  0
    4.0790    6.1089   23.9821 H   0  0  0  0  0  0
    2.7788    6.5315   20.5403 H   0  0  0  0  0  0
    3.9200    5.2688   20.9816 H   0  0  0  0  0  0
    2.6145    5.7089   22.0701 H   0  0  0  0  0  0
  1  2  2  0  0  0
  1  4  1  0  0  0
  1 11  1  0  0  0
  2  3  1  0  0  0
  2 18  1  0  0  0
  3  6  2  0  0  0
  3 12  1  0  0  0
  4  5  2  0  0  0
  5  6  1  0  0  0
  5 10  1  0  0  0
  6  7  1  0  0  0
  7  8  2  0  0  0
  7 27  1  0  0  0
  8  9  1  0  0  0
  8 21  1  0  0  0
  9 10  2  0  0  0
  9 28  1  0  0  0
 10 29  1  0  0  0
 11 22  1  0  0  0
 11 23  1  0  0  0
 12 13  2  0  0  0
 12 17  1  0  0  0
 13 14  1  0  0  0
 13 30  1  0  0  0
 14 15  2  0  0  0
 14 31  1  0  0  0
 15 16  1  0  0  0
 15 32  1  0  0  0
 16 17  2  0  0  0
 16 24  1  0  0  0
 17 33  1  0  0  0
 18 19  1  0  0  0
 18 20  2  0  0  0
 19 34  1  0  0  0
 22 35  1  0  0  0
 22 36  1  0  0  0
 22 37  1  0  0  0
 23 38  1  0  0  0
 23 39  1  0  0  0
 23 40  1  0  0  0
 24 25  1  0  0  0
 24 26  1  0  0  0
 24 41  1  0  0  0
 25 42  1  0  0  0
 25 43  1  0  0  0
 25 44  1  0  0  0
 26 45  1  0  0  0
 26 46  1  0  0  0
 26 47  1  0  0  0
M  END
> <s_m_entry_id>
2638

> <s_m_entry_name>
dock_pv.166

> <s_m_Source_Path>
/home/csk/Desktop/cluster/DUD-E-result/fabp4

> <s_m_Source_File>
dock_pv.maegz

> <i_m_Source_File_Index>
166

> <chembl_id>
CHEMBL3979347

> <chembl_pref_name>
None

> <i_lp_mmshare_version>
53161

> <r_lp_tautomer_probability>
1

> <s_lp_Force_Field>
OPLS_2005

> <r_lp_Energy>
30.625928

> <b_lp_Chiralities_Consistent>
1

> <s_lp_Variant>
CHEMBL2083_lig210-1

> <s_i_glide_gridfile>
glide-grid_2nnq

> <i_i_glide_lignum>
415

> <i_i_glide_rotatable_bonds>
5

> <r_i_docking_score>
-6.82673480826705

> <r_i_glide_ligand_efficiency>
-0.262566723394886

> <r_i_glide_ligand_efficiency_sa>
-0.777852884907184

> <r_i_glide_ligand_efficiency_ln>
-1.60323626937756

> <r_i_glide_gscore>
-6.82673480826705

> <r_i_glide_lipo>
-2.8187551156054

> <r_i_glide_hbond>
-0.209347043124985

> <r_i_glide_metal>
0

> <r_i_glide_rewards>
-1.290373929742

> <r_i_glide_evdw>
-40.49658203125

> <r_i_glide_ecoul>
-4.78490400314331

> <r_i_glide_erotb>
0.28333422280144

> <r_i_glide_esite>
-0.0490282405621021

> <r_i_glide_emodel>
-62.8614748703031

> <r_i_glide_energy>
-45.2814860343933

> <r_i_glide_einternal>
3.65920042991638

> <i_i_glide_confnum>
6

> <i_i_glide_posenum>
178

> <r_i_glide_eff_state_penalty>
0

> <s_user_duplicate_titles>
CHEMBL2083_lig210

> <i_f3d_flags>
0

> <s_m_subgroup_title>
dock_pv

> <s_m_subgroupid>
dock_pv

> <b_m_subgroup_collapsed>
1

$$$$
CHEMBL2083_lig202
                    3D
 Schrodinger Suite 2021-1.
 56 60  0  0  1  0            999 V2000
    2.6329    7.4349   16.6922 C   0  0  2  0  0  0
    3.8321    7.4280   15.8525 N   0  0  0  0  0  0
    5.2683    7.8443   17.7610 C   0  0  0  0  0  0
    5.1217    7.4203   16.4256 C   0  0  0  0  0  0
    6.2185    6.8667   15.7251 C   0  0  0  0  0  0
    7.4333    6.6901   16.4058 C   0  0  0  0  0  0
    7.5604    7.0517   17.7401 C   0  0  0  0  0  0
    6.4895    7.6319   18.4058 C   0  0  0  0  0  0
    2.7710    8.5219   17.7699 C   0  0  1  0  0  0
    4.1552    8.6127   18.4711 C   0  0  2  0  0  0
    4.4664   10.1180   18.5339 C   0  0  1  0  0  0
    3.1374   10.8374   18.2848 C   0  0  2  0  0  0
    2.4040    9.9339   17.2990 C   0  0  0  0  0  0
    3.1252   12.5601   17.7696 S   0  0  0  0  0  0
    4.1056   12.5383   16.3118 C   0  0  0  0  0  0
    5.1228   10.5096   20.1414 Cl  0  0  0  0  0  0
    6.1358    6.5150   14.2572 C   0  0  0  0  0  0
    5.2400    6.9098   13.5185 O   0  0  0  0  0  0
    7.1200    5.7091   13.7978 O   0  0  0  0  0  0
    2.1829    6.1235   17.3557 C   0  0  0  0  0  0
    3.1208    5.2351   17.8992 C   0  0  0  0  0  0
    2.7071    4.0995   18.5883 C   0  0  0  0  0  0
    1.3529    3.7984   18.6933 C   0  0  0  0  0  0
    0.4086    4.6602   18.1423 C   0  0  0  0  0  0
    0.8083    5.8481   17.5211 C   0  0  0  0  0  0
    3.5613   12.5006   15.0156 C   0  0  0  0  0  0
    4.4283   12.5087   13.9293 C   0  0  0  0  0  0
    5.8003   12.5090   14.0997 C   0  0  0  0  0  0
    6.3177   12.5089   15.3854 C   0  0  0  0  0  0
    5.4828   12.5089   16.4848 C   0  0  0  0  0  0
    2.1221   12.4891   14.7434 N   0  3  0  0  0  0
    1.4427   13.2981   15.3417 O   0  0  0  0  0  0
    1.6899   11.7100   13.8984 O   0  5  0  0  0  0
   -0.2276    6.8069   17.1007 N   0  3  0  0  0  0
   -0.3435    7.8476   17.7376 O   0  0  0  0  0  0
   -0.9245    6.5091   16.1419 O   0  5  0  0  0  0
    1.8287    7.7143   16.0101 H   0  0  0  0  0  0
    3.7032    7.1101   14.8996 H   0  0  0  0  0  0
    8.3018    6.2766   15.9100 H   0  0  0  0  0  0
    8.5022    6.9099   18.2506 H   0  0  0  0  0  0
    6.6204    7.9503   19.4304 H   0  0  0  0  0  0
    2.0427    8.2840   18.5418 H   0  0  0  0  0  0
    4.0480    8.1754   19.4662 H   0  0  0  0  0  0
    5.1871   10.3590   17.7575 H   0  0  0  0  0  0
    2.6099   10.9107   19.2252 H   0  0  0  0  0  0
    2.7384   10.0810   16.2708 H   0  0  0  0  0  0
    1.3245   10.0818   17.3466 H   0  0  0  0  0  0
    6.9111    5.5007   12.8853 H   0  0  0  0  0  0
    4.1788    5.4252   17.8255 H   0  0  0  0  0  0
    3.4411    3.4399   19.0281 H   0  0  0  0  0  0
    1.0355    2.9094   19.2173 H   0  0  0  0  0  0
   -0.6416    4.4302   18.2460 H   0  0  0  0  0  0
    4.0212   12.5717   12.9423 H   0  0  0  0  0  0
    6.4551   12.5279   13.2414 H   0  0  0  0  0  0
    7.3814   12.5089   15.5453 H   0  0  0  0  0  0
    5.9115   12.5256   17.4778 H   0  0  0  0  0  0
  1  9  1  0  0  0
  1  2  1  0  0  0
  1 20  1  0  0  0
  1 37  1  0  0  0
  2  4  1  0  0  0
  2 38  1  0  0  0
  3 10  1  0  0  0
  3  4  2  0  0  0
  3  8  1  0  0  0
  4  5  1  0  0  0
  5  6  2  0  0  0
  5 17  1  0  0  0
  6  7  1  0  0  0
  6 39  1  0  0  0
  7  8  2  0  0  0
  7 40  1  0  0  0
  8 41  1  0  0  0
  9 10  1  0  0  0
  9 13  1  0  0  0
  9 42  1  0  0  0
 10 11  1  0  0  0
 10 43  1  0  0  0
 11 12  1  0  0  0
 11 16  1  0  0  0
 11 44  1  0  0  0
 12 13  1  0  0  0
 12 14  1  0  0  0
 12 45  1  0  0  0
 13 46  1  0  0  0
 13 47  1  0  0  0
 14 15  1  0  0  0
 15 26  2  0  0  0
 15 30  1  0  0  0
 17 18  2  0  0  0
 17 19  1  0  0  0
 19 48  1  0  0  0
 20 21  2  0  0  0
 20 25  1  0  0  0
 21 22  1  0  0  0
 21 49  1  0  0  0
 22 23  2  0  0  0
 22 50  1  0  0  0
 23 24  1  0  0  0
 23 51  1  0  0  0
 24 25  2  0  0  0
 24 52  1  0  0  0
 25 34  1  0  0  0
 26 27  1  0  0  0
 26 31  1  0  0  0
 27 28  2  0  0  0
 27 53  1  0  0  0
 28 29  1  0  0  0
 28 54  1  0  0  0
 29 30  2  0  0  0
 29 55  1  0  0  0
 30 56  1  0  0  0
 31 32  2  0  0  0
 31 33  1  0  0  0
 34 35  2  0  0  0
 34 36  1  0  0  0
M  CHG  4  31   1  33  -1  34   1  36  -1
M  END
> <s_m_entry_id>
2639

> <s_m_entry_name>
dock_pv.167

> <s_m_Source_Path>
/home/csk/Desktop/cluster/DUD-E-result/fabp4

> <s_m_Source_File>
dock_pv.maegz

> <i_m_Source_File_Index>
167

> <chembl_id>
CHEMBL3827527

> <chembl_pref_name>
None

> <i_lp_mmshare_version>
53161

> <r_lp_tautomer_probability>
1

> <s_lp_Force_Field>
OPLS_2005

> <r_lp_Energy>
56.936546

> <b_lp_Chiralities_Consistent>
1

> <s_lp_Variant>
CHEMBL2083_lig202-12

> <s_i_glide_gridfile>
glide-grid_2nnq

> <i_i_glide_lignum>
387

> <i_i_glide_rotatable_bonds>
7

> <r_i_docking_score>
-6.82147341196361

> <r_i_glide_ligand_efficiency>
-0.189485372554545

> <r_i_glide_ligand_efficiency_sa>
-0.625666914157438

> <r_i_glide_ligand_efficiency_ln>
-1.48826120357677

> <r_i_glide_gscore>
-6.82147341196361

> <r_i_glide_lipo>
-3.13489559606611

> <r_i_glide_hbond>
0

> <r_i_glide_metal>
0

> <r_i_glide_rewards>
-1.13397762817151

> <r_i_glide_evdw>
-43.8041343688965

> <r_i_glide_ecoul>
-4.26885652542114

> <r_i_glide_erotb>
0.297662755552557

> <r_i_glide_esite>
-0.0197277460205511

> <r_i_glide_emodel>
-52.1179355060811

> <r_i_glide_energy>
-48.0729908943176

> <r_i_glide_einternal>
14.2793121337891

> <i_i_glide_confnum>
179

> <i_i_glide_posenum>
320

> <r_i_glide_eff_state_penalty>
0

> <s_user_duplicate_titles>
CHEMBL2083_lig202

> <i_f3d_flags>
0

> <s_m_subgroup_title>
dock_pv

> <s_m_subgroupid>
dock_pv

> <b_m_subgroup_collapsed>
1

$$$$
CHEMBL2083_lig162
                    3D
 Schrodinger Suite 2021-1.
 45 47  0  0  1  0            999 V2000
    7.6840    7.9135   18.0159 C   0  0  0  0  0  0
    7.7527    9.2387   18.4426 C   0  0  0  0  0  0
    6.5859    9.9609   18.6812 C   0  0  0  0  0  0
    5.3352    9.3521   18.5140 C   0  0  0  0  0  0
    5.2752    8.0107   18.1039 C   0  0  0  0  0  0
    6.4445    7.2879   17.8006 C   0  0  0  0  0  0
    6.3386    5.8533   17.3421 C   0  0  0  0  0  0
    7.1330    5.3882   16.0632 C   0  0  0  0  0  0
    5.4801    5.0643   17.7419 O   0  0  0  0  0  0
    4.0430    7.4273   17.9377 O   0  0  0  0  0  0
    3.4924    6.8950   19.1342 C   0  0  0  0  0  0
    2.3565    5.9460   18.7884 C   0  0  0  0  0  0
    1.2299    6.3817   18.0706 C   0  0  0  0  0  0
    0.2260    5.4723   17.7417 C   0  0  0  0  0  0
    0.3191    4.1396   18.1420 C   0  0  0  0  0  0
    1.4254    3.7089   18.8700 C   0  0  0  0  0  0
    2.4427    4.6064   19.1871 C   0  0  0  0  0  0
    1.0372    8.0305   17.5778 Cl  0  0  0  0  0  0
    4.1366    9.9893   18.7763 O   0  0  0  0  0  0
    3.9606   11.3606   18.4125 C   0  0  0  0  0  0
    3.3237   11.5204   17.0265 C   0  0  0  0  0  0
    2.7618   12.7514   16.6494 C   0  0  0  0  0  0
    2.2029   12.9090   15.3784 C   0  0  0  0  0  0
    2.1861   11.8486   14.4763 C   0  0  0  0  0  0
    2.7303   10.6209   14.8444 C   0  0  0  0  0  0
    3.2923   10.4581   16.1102 C   0  0  0  0  0  0
    2.7200   14.0903   17.7470 Cl  0  0  0  0  0  0
    8.3200    6.0197   15.9140 O   0  0  0  0  0  0
    6.7197    4.5090   15.3138 O   0  0  0  0  0  0
    8.6155    7.3852   17.8718 H   0  0  0  0  0  0
    8.7156    9.7047   18.5991 H   0  0  0  0  0  0
    6.6715   10.9803   19.0264 H   0  0  0  0  0  0
    3.1198    7.7091   19.7420 H   0  0  0  0  0  0
    4.2469    6.3821   19.7357 H   0  0  0  0  0  0
   -0.6368    5.8036   17.1831 H   0  0  0  0  0  0
   -0.4708    3.4467   17.8890 H   0  0  0  0  0  0
    1.4975    2.6773   19.1795 H   0  0  0  0  0  0
    3.3019    4.2536   19.7401 H   0  0  0  0  0  0
    3.2744   11.7694   19.1540 H   0  0  0  0  0  0
    4.8626   11.9694   18.4718 H   0  0  0  0  0  0
    1.7751   13.8576   15.0897 H   0  0  0  0  0  0
    1.7524   11.9818   13.4954 H   0  0  0  0  0  0
    2.7196    9.7931   14.1500 H   0  0  0  0  0  0
    3.7002    9.4926   16.3642 H   0  0  0  0  0  0
    8.7892    5.6837   15.1483 H   0  0  0  0  0  0
  1  6  1  0  0  0
  1  2  2  0  0  0
  1 30  1  0  0  0
  2  3  1  0  0  0
  2 31  1  0  0  0
  3  4  2  0  0  0
  3 32  1  0  0  0
  4  5  1  0  0  0
  4 19  1  0  0  0
  5  6  2  0  0  0
  5 10  1  0  0  0
  6  7  1  0  0  0
  7  8  1  0  0  0
  7  9  2  0  0  0
  8 28  1  0  0  0
  8 29  2  0  0  0
 10 11  1  0  0  0
 11 12  1  0  0  0
 11 33  1  0  0  0
 11 34  1  0  0  0
 12 13  2  0  0  0
 12 17  1  0  0  0
 13 14  1  0  0  0
 13 18  1  0  0  0
 14 15  2  0  0  0
 14 35  1  0  0  0
 15 16  1  0  0  0
 15 36  1  0  0  0
 16 17  2  0  0  0
 16 37  1  0  0  0
 17 38  1  0  0  0
 19 20  1  0  0  0
 20 21  1  0  0  0
 20 39  1  0  0  0
 20 40  1  0  0  0
 21 22  2  0  0  0
 21 26  1  0  0  0
 22 23  1  0  0  0
 22 27  1  0  0  0
 23 24  2  0  0  0
 23 41  1  0  0  0
 24 25  1  0  0  0
 24 42  1  0  0  0
 25 26  2  0  0  0
 25 43  1  0  0  0
 26 44  1  0  0  0
 28 45  1  0  0  0
M  END
> <s_m_entry_id>
2640

> <s_m_entry_name>
dock_pv.168

> <s_m_Source_Path>
/home/csk/Desktop/cluster/DUD-E-result/fabp4

> <s_m_Source_File>
dock_pv.maegz

> <i_m_Source_File_Index>
168

> <chembl_id>
CHEMBL378181

> <chembl_pref_name>
None

> <i_lp_mmshare_version>
53161

> <r_lp_tautomer_probability>
1

> <s_lp_Force_Field>
OPLS_2005

> <r_lp_Energy>
37.447908

> <b_lp_Chiralities_Consistent>
1

> <s_lp_Variant>
CHEMBL2083_lig162-1

> <s_i_glide_gridfile>
glide-grid_2nnq

> <i_i_glide_lignum>
176

> <i_i_glide_rotatable_bonds>
9

> <r_i_docking_score>
-6.81939867415175

> <r_i_glide_ligand_efficiency>
-0.235151678419026

> <r_i_glide_ligand_efficiency_sa>
-0.722460457384127

> <r_i_glide_ligand_efficiency_ln>
-1.56146937135075

> <r_i_glide_gscore>
-6.81939867415175

> <r_i_glide_lipo>
-3.85521556705639

> <r_i_glide_hbond>
-0.16

> <r_i_glide_metal>
0

> <r_i_glide_rewards>
-1.0080741146087

> <r_i_glide_evdw>
-45.9124603271484

> <r_i_glide_ecoul>
-2.37298941612244

> <r_i_glide_erotb>
0.85546243628913

> <r_i_glide_esite>
0

> <r_i_glide_emodel>
-64.8307762368206

> <r_i_glide_energy>
-48.2854497432709

> <r_i_glide_einternal>
9.56088352203369

> <i_i_glide_confnum>
104

> <i_i_glide_posenum>
9

> <r_i_glide_eff_state_penalty>
0

> <s_user_duplicate_titles>
CHEMBL2083_lig162,355698

> <i_f3d_flags>
0

> <s_m_subgroup_title>
dock_pv

> <s_m_subgroupid>
dock_pv

> <b_m_subgroup_collapsed>
1

$$$$
CHEMBL2083_lig185
                    3D
 Schrodinger Suite 2021-1.
 43 45  0  0  1  0            999 V2000
    4.9605   12.1365   16.1577 C   0  0  0  0  0  0
    5.9996   11.8471   17.0341 C   0  0  0  0  0  0
    5.9193   10.7495   17.8800 C   0  0  0  0  0  0
    4.7781    9.9350   17.8809 C   0  0  0  0  0  0
    3.7247   10.2356   16.9955 C   0  0  0  0  0  0
    3.8071   11.3386   16.1161 C   0  0  0  0  0  0
    4.6273    8.8367   18.7130 O   0  0  0  0  0  0
    5.6294    8.5300   19.6923 C   0  0  0  0  0  0
    5.0865    7.5815   20.7623 C   0  0  0  0  0  0
    5.7601    7.4116   21.9831 C   0  0  0  0  0  0
    5.1598    6.6886   23.0144 C   0  0  0  0  0  0
    3.9094    6.1024   22.8315 C   0  0  0  0  0  0
    3.2879    6.1705   21.5905 C   0  0  0  0  0  0
    3.8743    6.9092   20.5664 C   0  0  0  0  0  0
    2.6055    9.4370   17.0339 O   0  0  0  0  0  0
    2.5849    8.3769   16.0834 C   0  0  0  0  0  0
    2.0840    7.1277   16.7865 C   0  0  0  0  0  0
    3.0140    6.1729   17.2109 C   0  0  0  0  0  0
    2.5957    5.0514   17.9250 C   0  0  0  0  0  0
    1.2395    4.8578   18.1811 C   0  0  0  0  0  0
    0.3055    5.7946   17.7421 C   0  0  0  0  0  0
    0.7187    6.9365   17.0575 C   0  0  0  0  0  0
    2.6785   11.7103   15.1752 C   0  0  0  0  0  0
    3.0522   12.5109   14.1401 O   0  0  0  0  0  0
    1.5223   11.3181   15.3058 O   0  0  0  0  0  0
   -0.4797    8.0915   16.5777 Cl  0  0  0  0  0  0
   -0.7436    5.6448   17.9522 H   0  0  0  0  0  0
    5.6494    6.6112   23.9730 H   0  0  0  0  0  0
    0.7210    3.4602   19.0493 Cl  0  0  0  0  0  0
    3.1201    5.3092   24.1441 Cl  0  0  0  0  0  0
    7.3176    8.1089   22.2628 Cl  0  0  0  0  0  0
    5.0553   13.0177   15.5366 H   0  0  0  0  0  0
    6.8551   12.5040   17.0867 H   0  0  0  0  0  0
    6.7518   10.5653   18.5398 H   0  0  0  0  0  0
    6.5130    8.0965   19.2194 H   0  0  0  0  0  0
    5.9263    9.4442   20.2119 H   0  0  0  0  0  0
    2.3252    5.7027   21.4363 H   0  0  0  0  0  0
    3.3295    7.0284   19.6451 H   0  0  0  0  0  0
    3.5643    8.1817   15.6371 H   0  0  0  0  0  0
    1.9233    8.6278   15.2538 H   0  0  0  0  0  0
    4.0687    6.3209   17.0262 H   0  0  0  0  0  0
    3.3224    4.3330   18.2767 H   0  0  0  0  0  0
    2.3084   12.7292   13.5722 H   0  0  0  0  0  0
  1  6  1  0  0  0
  1  2  2  0  0  0
  1 32  1  0  0  0
  2  3  1  0  0  0
  2 33  1  0  0  0
  3  4  2  0  0  0
  3 34  1  0  0  0
  4  5  1  0  0  0
  4  7  1  0  0  0
  5 15  1  0  0  0
  5  6  2  0  0  0
  6 23  1  0  0  0
  7  8  1  0  0  0
  8  9  1  0  0  0
  8 35  1  0  0  0
  8 36  1  0  0  0
  9 10  2  0  0  0
  9 14  1  0  0  0
 10 11  1  0  0  0
 10 31  1  0  0  0
 11 12  2  0  0  0
 11 28  1  0  0  0
 12 13  1  0  0  0
 12 30  1  0  0  0
 13 14  2  0  0  0
 13 37  1  0  0  0
 14 38  1  0  0  0
 15 16  1  0  0  0
 16 17  1  0  0  0
 16 39  1  0  0  0
 16 40  1  0  0  0
 17 18  2  0  0  0
 17 22  1  0  0  0
 18 19  1  0  0  0
 18 41  1  0  0  0
 19 20  2  0  0  0
 19 42  1  0  0  0
 20 21  1  0  0  0
 20 29  1  0  0  0
 21 22  2  0  0  0
 21 27  1  0  0  0
 22 26  1  0  0  0
 23 24  1  0  0  0
 23 25  2  0  0  0
 24 43  1  0  0  0
M  ISO  2  27   3  28   3
M  END
> <s_m_entry_id>
2641

> <s_m_entry_name>
dock_pv.169

> <s_m_Source_Path>
/home/csk/Desktop/cluster/DUD-E-result/fabp4

> <s_m_Source_File>
dock_pv.maegz

> <i_m_Source_File_Index>
169

> <chembl_id>
CHEMBL247298

> <chembl_pref_name>
None

> <i_lp_mmshare_version>
53161

> <r_lp_tautomer_probability>
1

> <s_lp_Force_Field>
OPLS_2005

> <r_lp_Energy>
31.749954

> <b_lp_Chiralities_Consistent>
1

> <s_lp_Variant>
CHEMBL2083_lig185-1

> <s_i_glide_gridfile>
glide-grid_2nnq

> <i_i_glide_lignum>
202

> <i_i_glide_rotatable_bonds>
8

> <r_i_docking_score>
-6.81090550674366

> <r_i_glide_ligand_efficiency>
-0.234858810577368

> <r_i_glide_ligand_efficiency_sa>
-0.721560674587509

> <r_i_glide_ligand_efficiency_ln>
-1.55952465138244

> <r_i_glide_gscore>
-6.81090550674366

> <r_i_glide_lipo>
-3.76449735431397

> <r_i_glide_hbond>
0

> <r_i_glide_metal>
0

> <r_i_glide_rewards>
-0.711742022667084

> <r_i_glide_evdw>
-46.9522819519043

> <r_i_glide_ecoul>
-4.14613771438599

> <r_i_glide_erotb>
0.634868624990503

> <r_i_glide_esite>
0

> <r_i_glide_emodel>
-69.7659723132944

> <r_i_glide_energy>
-51.0984196662903

> <r_i_glide_einternal>
5.92541027069092

> <i_i_glide_confnum>
67

> <i_i_glide_posenum>
304

> <r_i_glide_eff_state_penalty>
0

> <s_user_duplicate_titles>
CHEMBL2083_lig185,412974

> <i_f3d_flags>
0

> <s_m_subgroup_title>
dock_pv

> <s_m_subgroupid>
dock_pv

> <b_m_subgroup_collapsed>
1

$$$$
CHEMBL2083_lig202
                    3D
 Schrodinger Suite 2021-1.
 56 60  0  0  1  0            999 V2000
    3.2891    8.6820   15.8126 C   0  0  2  0  0  0
    2.1466    7.8308   16.1776 N   0  0  0  0  0  0
    3.5379    6.2233   17.4215 C   0  0  0  0  0  0
    2.2621    6.6992   17.0254 C   0  0  0  0  0  0
    1.0992    6.0807   17.5265 C   0  0  0  0  0  0
    1.2159    4.9453   18.3359 C   0  0  0  0  0  0
    2.4646    4.4420   18.6777 C   0  0  0  0  0  0
    3.6134    5.0859   18.2327 C   0  0  0  0  0  0
    4.5604    7.7890   15.7410 C   0  0  2  0  0  0
    4.7934    6.9984   17.0274 C   0  0  2  0  0  0
    6.1591    6.3235   16.8224 C   0  0  2  0  0  0
    6.9632    7.4119   16.0679 C   0  0  1  0  0  0
    5.9351    8.4248   15.4926 C   0  0  0  0  0  0
    8.2908    8.1833   17.0603 S   0  0  0  0  0  0
    7.6061    8.8201   18.5710 C   0  0  0  0  0  0
    5.9791    4.9097   15.7424 Cl  0  0  0  0  0  0
   -0.2799    6.6202   17.2662 C   0  0  0  0  0  0
   -0.8160    6.6333   16.1602 O   0  0  0  0  0  0
   -0.8806    7.1004   18.3851 O   0  0  0  0  0  0
    3.4378    9.9576   16.6658 C   0  0  0  0  0  0
    3.4730    9.8387   18.0601 C   0  0  0  0  0  0
    3.7032   10.9405   18.8725 C   0  0  0  0  0  0
    3.8488   12.2017   18.3121 C   0  0  0  0  0  0
    3.7814   12.3542   16.9316 C   0  0  0  0  0  0
    3.5855   11.2451   16.0948 C   0  0  0  0  0  0
    7.2965   10.1874   18.7466 C   0  0  0  0  0  0
    6.6830   10.5902   19.9415 C   0  0  0  0  0  0
    6.3759    9.6662   20.9368 C   0  0  0  0  0  0
    6.7374    8.3302   20.7824 C   0  0  0  0  0  0
    7.3643    7.9147   19.6080 C   0  0  0  0  0  0
    7.6217   11.2226   17.7419 N   0  3  0  0  0  0
    8.7200   11.2023   17.2040 O   0  0  0  0  0  0
    6.7860   12.0868   17.5104 O   0  5  0  0  0  0
    3.5424   11.4845   14.6429 N   0  3  0  0  0  0
    2.5431   11.1291   14.0240 O   0  0  0  0  0  0
    4.5025   12.0580   14.1420 O   0  5  0  0  0  0
    3.0884    8.9956   14.7907 H   0  0  0  0  0  0
    1.2573    8.1034   15.7849 H   0  0  0  0  0  0
    0.3350    4.4443   18.7156 H   0  0  0  0  0  0
    2.5416    3.5688   19.3084 H   0  0  0  0  0  0
    4.5769    4.7081   18.5442 H   0  0  0  0  0  0
    4.3796    7.0787   14.9275 H   0  0  0  0  0  0
    4.9539    7.6889   17.8562 H   0  0  0  0  0  0
    6.6181    6.0132   17.7576 H   0  0  0  0  0  0
    7.5321    6.9743   15.2445 H   0  0  0  0  0  0
    6.0932    8.5973   14.4287 H   0  0  0  0  0  0
    6.0136    9.3963   15.9829 H   0  0  0  0  0  0
   -1.7718    7.3760   18.1514 H   0  0  0  0  0  0
    3.3296    8.8813   18.5348 H   0  0  0  0  0  0
    3.7944   10.8016   19.9373 H   0  0  0  0  0  0
    4.0409   13.0599   18.9411 H   0  0  0  0  0  0
    3.9167   13.3400   16.5089 H   0  0  0  0  0  0
    6.4397   11.6334   20.0903 H   0  0  0  0  0  0
    5.8729    9.9865   21.8370 H   0  0  0  0  0  0
    6.5330    7.6181   21.5695 H   0  0  0  0  0  0
    7.6438    6.8756   19.5062 H   0  0  0  0  0  0
  1  9  1  0  0  0
  1  2  1  0  0  0
  1 20  1  0  0  0
  1 37  1  0  0  0
  2  4  1  0  0  0
  2 38  1  0  0  0
  3 10  1  0  0  0
  3  4  2  0  0  0
  3  8  1  0  0  0
  4  5  1  0  0  0
  5  6  2  0  0  0
  5 17  1  0  0  0
  6  7  1  0  0  0
  6 39  1  0  0  0
  7  8  2  0  0  0
  7 40  1  0  0  0
  8 41  1  0  0  0
  9 10  1  0  0  0
  9 13  1  0  0  0
  9 42  1  0  0  0
 10 11  1  0  0  0
 10 43  1  0  0  0
 11 12  1  0  0  0
 11 16  1  0  0  0
 11 44  1  0  0  0
 12 13  1  0  0  0
 12 14  1  0  0  0
 12 45  1  0  0  0
 13 46  1  0  0  0
 13 47  1  0  0  0
 14 15  1  0  0  0
 15 26  2  0  0  0
 15 30  1  0  0  0
 17 18  2  0  0  0
 17 19  1  0  0  0
 19 48  1  0  0  0
 20 21  2  0  0  0
 20 25  1  0  0  0
 21 22  1  0  0  0
 21 49  1  0  0  0
 22 23  2  0  0  0
 22 50  1  0  0  0
 23 24  1  0  0  0
 23 51  1  0  0  0
 24 25  2  0  0  0
 24 52  1  0  0  0
 25 34  1  0  0  0
 26 27  1  0  0  0
 26 31  1  0  0  0
 27 28  2  0  0  0
 27 53  1  0  0  0
 28 29  1  0  0  0
 28 54  1  0  0  0
 29 30  2  0  0  0
 29 55  1  0  0  0
 30 56  1  0  0  0
 31 32  2  0  0  0
 31 33  1  0  0  0
 34 35  2  0  0  0
 34 36  1  0  0  0
M  CHG  4  31   1  33  -1  34   1  36  -1
M  END
> <s_m_entry_id>
2642

> <s_m_entry_name>
dock_pv.170

> <s_m_Source_Path>
/home/csk/Desktop/cluster/DUD-E-result/fabp4

> <s_m_Source_File>
dock_pv.maegz

> <i_m_Source_File_Index>
170

> <chembl_id>
CHEMBL3827527

> <chembl_pref_name>
None

> <i_lp_mmshare_version>
53161

> <r_lp_tautomer_probability>
1

> <s_lp_Force_Field>
OPLS_2005

> <r_lp_Energy>
62.765382

> <b_lp_Chiralities_Consistent>
1

> <s_lp_Variant>
CHEMBL2083_lig202-18

> <s_i_glide_gridfile>
glide-grid_2nnq

> <i_i_glide_lignum>
393

> <i_i_glide_rotatable_bonds>
7

> <r_i_docking_score>
-6.8103744979032

> <r_i_glide_ligand_efficiency>
-0.1891770693862

> <r_i_glide_ligand_efficiency_sa>
-0.624648919526177

> <r_i_glide_ligand_efficiency_ln>
-1.48583972038679

> <r_i_glide_gscore>
-6.8103744979032

> <r_i_glide_lipo>
-2.82646872449876

> <r_i_glide_hbond>
-0.269860966849707

> <r_i_glide_metal>
0

> <r_i_glide_rewards>
-0.853640918831018

> <r_i_glide_evdw>
-55.4145774841309

> <r_i_glide_ecoul>
-0.893819391727448

> <r_i_glide_erotb>
0.297662755552557

> <r_i_glide_esite>
-0.253264860310615

> <r_i_glide_emodel>
-74.3295684950925

> <r_i_glide_energy>
-56.3083968758583

> <r_i_glide_einternal>
10.8871736526489

> <i_i_glide_confnum>
43

> <i_i_glide_posenum>
391

> <r_i_glide_eff_state_penalty>
0

> <s_user_duplicate_titles>
CHEMBL2083_lig202

> <i_f3d_flags>
0

> <s_m_subgroup_title>
dock_pv

> <s_m_subgroupid>
dock_pv

> <b_m_subgroup_collapsed>
1

$$$$
CHEMBL2083_lig202
                    3D
 Schrodinger Suite 2021-1.
 56 60  0  0  1  0            999 V2000
    4.9385    8.4782   16.1110 C   0  0  1  0  0  0
    5.3937    9.6840   15.4364 N   0  0  0  0  0  0
    3.1398   10.2116   14.6325 C   0  0  0  0  0  0
    4.4121   10.6220   15.0442 C   0  0  0  0  0  0
    4.6194   11.9848   15.2600 C   0  0  0  0  0  0
    3.6050   12.9090   15.0582 C   0  0  0  0  0  0
    2.4118   12.5191   14.4844 C   0  0  0  0  0  0
    2.2013   11.1774   14.2311 C   0  0  0  0  0  0
    3.7550    7.8180   15.3684 C   0  0  2  0  0  0
    2.6759    8.8107   14.9419 C   0  0  1  0  0  0
    1.6232    8.8044   16.0716 C   0  0  1  0  0  0
    1.5985    7.3680   16.5368 C   0  0  1  0  0  0
    2.9964    6.7737   16.2277 C   0  0  0  0  0  0
    0.7814    7.1613   18.1419 S   0  0  0  0  0  0
    1.5202    5.7021   18.7128 C   0  0  0  0  0  0
    2.1535    9.9448   17.3420 Cl  0  0  0  0  0  0
    5.8995   12.5090   15.7468 C   0  0  0  0  0  0
    6.7200   12.9090   14.9420 O   0  0  0  0  0  0
    6.0103   12.5090   17.0992 O   0  0  0  0  0  0
    6.0749    7.5107   16.4415 C   0  0  0  0  0  0
    6.4467    6.5432   15.4917 C   0  0  0  0  0  0
    7.3588    5.5461   15.8067 C   0  0  0  0  0  0
    7.9200    5.5151   17.0745 C   0  0  0  0  0  0
    7.6264    6.5116   17.9973 C   0  0  0  0  0  0
    6.7205    7.5308   17.7000 C   0  0  0  0  0  0
    2.6980    5.7074   19.4858 C   0  0  0  0  0  0
    3.2641    4.4887   19.8004 C   0  0  0  0  0  0
    2.7199    3.2969   19.3422 C   0  0  0  0  0  0
    1.5482    3.3027   18.5952 C   0  0  0  0  0  0
    0.9358    4.5085   18.2931 C   0  0  0  0  0  0
    3.4251    6.9090   19.9424 N   0  3  0  0  0  0
    3.9200    6.8875   21.0668 O   0  0  0  0  0  0
    3.5668    7.8488   19.1736 O   0  5  0  0  0  0
    6.5118    8.5943   18.7136 N   0  3  0  0  0  0
    6.5682    8.2800   19.8996 O   0  0  0  0  0  0
    6.3576    9.7495   18.3342 O   0  5  0  0  0  0
    4.5418    8.8086   17.0678 H   0  0  0  0  0  0
    6.1901   10.0719   15.9202 H   0  0  0  0  0  0
    3.7577   13.9418   15.3420 H   0  0  0  0  0  0
    1.6405   13.2460   14.2753 H   0  0  0  0  0  0
    1.2235   10.9090   13.8725 H   0  0  0  0  0  0
    4.1187    7.3508   14.4537 H   0  0  0  0  0  0
    2.3200    8.3872   14.0129 H   0  0  0  0  0  0
    0.6314    9.0885   15.7421 H   0  0  0  0  0  0
    0.9088    6.8100   15.9026 H   0  0  0  0  0  0
    2.8931    5.8349   15.6813 H   0  0  0  0  0  0
    3.5595    6.5223   17.1197 H   0  0  0  0  0  0
    6.3180   13.3648   17.4433 H   0  0  0  0  0  0
    6.0233    6.5302   14.4997 H   0  0  0  0  0  0
    7.6267    4.8044   15.0690 H   0  0  0  0  0  0
    8.6353    4.7523   17.3420 H   0  0  0  0  0  0
    8.1347    6.5090   18.9499 H   0  0  0  0  0  0
    4.1614    4.5090   20.3943 H   0  0  0  0  0  0
    3.1890    2.3579   19.5935 H   0  0  0  0  0  0
    1.1200    2.3740   18.2525 H   0  0  0  0  0  0
    0.0302    4.5147   17.7025 H   0  0  0  0  0  0
  1  9  1  0  0  0
  1  2  1  0  0  0
  1 20  1  0  0  0
  1 37  1  0  0  0
  2  4  1  0  0  0
  2 38  1  0  0  0
  3 10  1  0  0  0
  3  4  2  0  0  0
  3  8  1  0  0  0
  4  5  1  0  0  0
  5  6  2  0  0  0
  5 17  1  0  0  0
  6  7  1  0  0  0
  6 39  1  0  0  0
  7  8  2  0  0  0
  7 40  1  0  0  0
  8 41  1  0  0  0
  9 10  1  0  0  0
  9 13  1  0  0  0
  9 42  1  0  0  0
 10 11  1  0  0  0
 10 43  1  0  0  0
 11 12  1  0  0  0
 11 16  1  0  0  0
 11 44  1  0  0  0
 12 13  1  0  0  0
 12 14  1  0  0  0
 12 45  1  0  0  0
 13 46  1  0  0  0
 13 47  1  0  0  0
 14 15  1  0  0  0
 15 26  2  0  0  0
 15 30  1  0  0  0
 17 18  2  0  0  0
 17 19  1  0  0  0
 19 48  1  0  0  0
 20 21  2  0  0  0
 20 25  1  0  0  0
 21 22  1  0  0  0
 21 49  1  0  0  0
 22 23  2  0  0  0
 22 50  1  0  0  0
 23 24  1  0  0  0
 23 51  1  0  0  0
 24 25  2  0  0  0
 24 52  1  0  0  0
 25 34  1  0  0  0
 26 27  1  0  0  0
 26 31  1  0  0  0
 27 28  2  0  0  0
 27 53  1  0  0  0
 28 29  1  0  0  0
 28 54  1  0  0  0
 29 30  2  0  0  0
 29 55  1  0  0  0
 30 56  1  0  0  0
 31 32  2  0  0  0
 31 33  1  0  0  0
 34 35  2  0  0  0
 34 36  1  0  0  0
M  CHG  4  31   1  33  -1  34   1  36  -1
M  END
> <s_m_entry_id>
2643

> <s_m_entry_name>
dock_pv.171

> <s_m_Source_Path>
/home/csk/Desktop/cluster/DUD-E-result/fabp4

> <s_m_Source_File>
dock_pv.maegz

> <i_m_Source_File_Index>
171

> <chembl_id>
CHEMBL3827527

> <chembl_pref_name>
None

> <i_lp_mmshare_version>
53161

> <r_lp_tautomer_probability>
1

> <s_lp_Force_Field>
OPLS_2005

> <r_lp_Energy>
56.558929

> <b_lp_Chiralities_Consistent>
1

> <s_lp_Variant>
CHEMBL2083_lig202-29

> <s_i_glide_gridfile>
glide-grid_2nnq

> <i_i_glide_lignum>
404

> <i_i_glide_rotatable_bonds>
7

> <r_i_docking_score>
-6.80750537811158

> <r_i_glide_ligand_efficiency>
-0.18909737161421

> <r_i_glide_ligand_efficiency_sa>
-0.624385763281482

> <r_i_glide_ligand_efficiency_ln>
-1.48521375596292

> <r_i_glide_gscore>
-6.80750537811158

> <r_i_glide_lipo>
-4.07414208794647

> <r_i_glide_hbond>
-0.0405843637722088

> <r_i_glide_metal>
0

> <r_i_glide_rewards>
-0.509013424358231

> <r_i_glide_evdw>
-31.4046535491943

> <r_i_glide_ecoul>
-5.42637968063354

> <r_i_glide_erotb>
0.297662755552557

> <r_i_glide_esite>
-0.0972386280324748

> <r_i_glide_emodel>
-31.6502166728629

> <r_i_glide_energy>
-36.8310332298279

> <r_i_glide_einternal>
20.3997745513916

> <i_i_glide_confnum>
46

> <i_i_glide_posenum>
68

> <r_i_glide_eff_state_penalty>
0

> <s_user_duplicate_titles>
CHEMBL2083_lig202

> <i_f3d_flags>
0

> <s_m_subgroup_title>
dock_pv

> <s_m_subgroupid>
dock_pv

> <b_m_subgroup_collapsed>
1

$$$$
CHEMBL2083_lig196
                    3D
 Schrodinger Suite 2021-1.
 47 51  0  0  1  0            999 V2000
    4.5197   11.6331   16.5411 C   0  0  0  0  0  0
    5.1997   10.4996   17.1645 N   0  0  0  0  0  0
    6.0456   10.8152   18.3290 C   0  0  2  0  0  0
    5.3447    9.3402   16.3851 C   0  0  0  0  0  0
    4.2899    9.0135   15.4974 C   0  0  0  0  0  0
    4.3991    7.8091   14.7791 C   0  0  0  0  0  0
    5.5286    7.0087   14.9041 C   0  0  0  0  0  0
    6.5651    7.3387   15.7712 C   0  0  0  0  0  0
    6.4872    8.5082   16.5526 C   0  0  0  0  0  0
    3.0421    9.9327   15.3814 C   0  0  1  0  0  0
    3.0710   11.1817   16.2911 C   0  0  2  0  0  0
    2.2504   12.2588   15.5825 C   0  0  0  0  0  0
    2.3260   11.8217   14.1424 C   0  0  0  0  0  0
    2.8104   10.5728   14.0239 C   0  0  0  0  0  0
    6.8727    9.5874   18.7466 C   0  0  1  0  0  0
    7.5733    9.0041   17.5334 C   0  0  1  0  0  0
    8.5697    8.1089   18.2466 C   0  0  0  0  0  0
    8.8436    8.5920   19.4714 C   0  0  0  0  0  0
    7.9489    9.7614   19.8114 C   0  0  0  0  0  0
    7.7563    6.3955   15.8096 C   0  0  0  0  0  0
    3.2785    7.3028   13.8848 C   0  0  0  0  0  0
    5.1050   11.1791   19.4944 C   0  0  0  0  0  0
    5.1202   12.5090   19.7415 O   0  0  0  0  0  0
    4.4209   10.3718   20.1247 O   0  0  0  0  0  0
    4.5292   12.5280   17.1646 H   0  0  0  0  0  0
    4.9620   11.8847   15.5749 H   0  0  0  0  0  0
    6.6931   11.6694   18.1217 H   0  0  0  0  0  0
    5.5932    6.1037   14.3183 H   0  0  0  0  0  0
    2.1747    9.3229   15.6400 H   0  0  0  0  0  0
    2.6219   10.9007   17.2472 H   0  0  0  0  0  0
    1.2188   12.2975   15.9264 H   0  0  0  0  0  0
    2.6725   13.2562   15.7207 H   0  0  0  0  0  0
    2.0276   12.4785   13.3419 H   0  0  0  0  0  0
    2.9384   10.0414   13.0942 H   0  0  0  0  0  0
    6.1847    8.8189   19.1231 H   0  0  0  0  0  0
    8.1341    9.7716   16.9955 H   0  0  0  0  0  0
    9.1187    7.3098   17.7881 H   0  0  0  0  0  0
    9.6007    8.2198   20.1422 H   0  0  0  0  0  0
    7.5236    9.6765   20.8116 H   0  0  0  0  0  0
    8.4606   10.7230   19.7418 H   0  0  0  0  0  0
    7.7596    5.6951   14.9734 H   0  0  0  0  0  0
    8.6842    6.9610   15.7423 H   0  0  0  0  0  0
    7.7603    5.8221   16.7369 H   0  0  0  0  0  0
    3.2557    7.8419   12.9421 H   0  0  0  0  0  0
    3.3647    6.2372   13.6733 H   0  0  0  0  0  0
    2.3203    7.4304   14.3808 H   0  0  0  0  0  0
    5.5822   13.0641   19.0967 H   0  0  0  0  0  0
  1 11  1  0  0  0
  1  2  1  0  0  0
  1 25  1  0  0  0
  1 26  1  0  0  0
  2  4  1  0  0  0
  2  3  1  0  0  0
  3 15  1  0  0  0
  3 22  1  0  0  0
  3 27  1  0  0  0
  4  5  2  0  0  0
  4  9  1  0  0  0
  5 10  1  0  0  0
  5  6  1  0  0  0
  6  7  2  0  0  0
  6 21  1  0  0  0
  7  8  1  0  0  0
  7 28  1  0  0  0
  8  9  2  0  0  0
  8 20  1  0  0  0
  9 16  1  0  0  0
 10 11  1  0  0  0
 10 14  1  0  0  0
 10 29  1  0  0  0
 11 12  1  0  0  0
 11 30  1  0  0  0
 12 13  1  0  0  0
 12 31  1  0  0  0
 12 32  1  0  0  0
 13 14  2  0  0  0
 13 33  1  0  0  0
 14 34  1  0  0  0
 15 16  1  0  0  0
 15 19  1  0  0  0
 15 35  1  0  0  0
 16 17  1  0  0  0
 16 36  1  0  0  0
 17 18  2  0  0  0
 17 37  1  0  0  0
 18 19  1  0  0  0
 18 38  1  0  0  0
 19 39  1  0  0  0
 19 40  1  0  0  0
 20 41  1  0  0  0
 20 42  1  0  0  0
 20 43  1  0  0  0
 21 44  1  0  0  0
 21 45  1  0  0  0
 21 46  1  0  0  0
 22 23  1  0  0  0
 22 24  2  0  0  0
 23 47  1  0  0  0
M  END
> <s_m_entry_id>
2644

> <s_m_entry_name>
dock_pv.172

> <s_m_Source_Path>
/home/csk/Desktop/cluster/DUD-E-result/fabp4

> <s_m_Source_File>
dock_pv.maegz

> <i_m_Source_File_Index>
172

> <chembl_id>
CHEMBL3827900

> <chembl_pref_name>
None

> <i_lp_mmshare_version>
53161

> <r_lp_tautomer_probability>
1

> <s_lp_Force_Field>
OPLS_2005

> <r_lp_Energy>
77.860914

> <b_lp_Chiralities_Consistent>
1

> <s_lp_Variant>
CHEMBL2083_lig196-27

> <s_i_glide_gridfile>
glide-grid_2nnq

> <i_i_glide_lignum>
272

> <i_i_glide_rotatable_bonds>
2

> <r_i_docking_score>
-6.80215280893414

> <r_i_glide_ligand_efficiency>
-0.283423033705589

> <r_i_glide_ligand_efficiency_sa>
-0.817533496288161

> <r_i_glide_ligand_efficiency_ln>
-1.62806729763165

> <r_i_glide_gscore>
-6.80215280893414

> <r_i_glide_lipo>
-2.55759061081377

> <r_i_glide_hbond>
-0.305201934789615

> <r_i_glide_metal>
0

> <r_i_glide_rewards>
-1.21763986363636

> <r_i_glide_evdw>
-27.1417751312256

> <r_i_glide_ecoul>
-9.86877822875977

> <r_i_glide_erotb>
0.180881914396739

> <r_i_glide_esite>
-0.0651968232158896

> <r_i_glide_emodel>
-50.832017868551

> <r_i_glide_energy>
-37.0105533599854

> <r_i_glide_einternal>
0.944337725639343

> <i_i_glide_confnum>
2

> <i_i_glide_posenum>
194

> <r_i_glide_eff_state_penalty>
0

> <s_user_duplicate_titles>
CHEMBL2083_lig196

> <i_f3d_flags>
0

> <s_m_subgroup_title>
dock_pv

> <s_m_subgroupid>
dock_pv

> <b_m_subgroup_collapsed>
1

$$$$
457190
                    3D
 Schrodinger Suite 2021-1.
 45 48  0  0  1  0            999 V2000
    1.1745    8.7275   16.8217 C   0  0  0  0  0  0
   -0.1127    8.2136   16.9769 C   0  0  0  0  0  0
   -0.2860    6.9073   17.4301 C   0  0  0  0  0  0
    0.8216    6.1093   17.7159 C   0  0  0  0  0  0
    2.1178    6.6195   17.5657 C   0  0  0  0  0  0
    2.2846    7.9343   17.1106 C   0  0  0  0  0  0
    3.3304    5.7433   17.8825 C   0  0  0  0  0  0
    4.4261    6.4443   18.5758 N   0  0  0  0  0  0
    4.3281    6.8236   19.9104 C   0  0  0  0  0  0
    5.4164    7.6164   20.2304 C   0  0  0  0  0  0
    6.2269    7.7135   19.0568 C   0  0  0  0  0  0
    5.6456    6.8875   18.0375 C   0  0  0  0  0  0
    6.3203    6.6918   16.7984 C   0  0  0  0  0  0
    7.5004    7.4191   16.5976 C   0  0  0  0  0  0
    8.0313    8.2642   17.5580 C   0  0  0  0  0  0
    7.4189    8.4060   18.7936 C   0  0  0  0  0  0
    5.9345    5.6873   15.7500 C   0  0  0  0  0  0
    5.6996    4.5106   16.0174 O   0  0  0  0  0  0
    5.9088    6.1730   14.4817 O   0  0  0  0  0  0
    5.7305    8.2562   21.5676 C   0  0  0  0  0  0
    5.8515    7.2428   22.7271 C   0  0  0  0  0  0
    4.6738    6.2617   22.9346 C   0  0  0  0  0  0
    3.3171    6.6676   22.3238 C   0  0  0  0  0  0
    3.1772    6.3647   20.8099 C   0  0  0  0  0  0
    0.6294    4.8394   18.1419 F   0  0  0  0  0  0
    1.3137    9.7395   16.4692 H   0  0  0  0  0  0
   -0.9746    8.8229   16.7471 H   0  0  0  0  0  0
   -1.2802    6.5074   17.5570 H   0  0  0  0  0  0
    3.2748    8.3458   16.9741 H   0  0  0  0  0  0
    3.0475    4.8875   18.4947 H   0  0  0  0  0  0
    3.6545    5.3160   16.9463 H   0  0  0  0  0  0
    8.0564    7.2989   15.6777 H   0  0  0  0  0  0
    8.9556    8.7832   17.3532 H   0  0  0  0  0  0
    7.8694    9.0343   19.5474 H   0  0  0  0  0  0
    5.6006    5.4816   13.8811 H   0  0  0  0  0  0
    6.6491    8.8407   21.5237 H   0  0  0  0  0  0
    4.9526    8.9848   21.7987 H   0  0  0  0  0  0
    6.7638    6.6606   22.5898 H   0  0  0  0  0  0
    6.0114    7.7900   23.6545 H   0  0  0  0  0  0
    4.9544    5.2884   22.5357 H   0  0  0  0  0  0
    4.5477    6.1043   24.0064 H   0  0  0  0  0  0
    2.5314    6.1216   22.8494 H   0  0  0  0  0  0
    3.1183    7.7175   22.5412 H   0  0  0  0  0  0
    2.2294    6.7629   20.4474 H   0  0  0  0  0  0
    3.0777    5.2823   20.7222 H   0  0  0  0  0  0
  1  6  1  0  0  0
  1  2  2  0  0  0
  1 26  1  0  0  0
  2  3  1  0  0  0
  2 27  1  0  0  0
  3  4  2  0  0  0
  3 28  1  0  0  0
  4  5  1  0  0  0
  4 25  1  0  0  0
  5  6  2  0  0  0
  5  7  1  0  0  0
  6 29  1  0  0  0
  7  8  1  0  0  0
  7 30  1  0  0  0
  7 31  1  0  0  0
  8 12  1  0  0  0
  8  9  1  0  0  0
  9 24  1  0  0  0
  9 10  2  0  0  0
 10 11  1  0  0  0
 10 20  1  0  0  0
 11 16  2  0  0  0
 11 12  1  0  0  0
 12 13  2  0  0  0
 13 14  1  0  0  0
 13 17  1  0  0  0
 14 15  2  0  0  0
 14 32  1  0  0  0
 15 16  1  0  0  0
 15 33  1  0  0  0
 16 34  1  0  0  0
 17 18  2  0  0  0
 17 19  1  0  0  0
 19 35  1  0  0  0
 20 21  1  0  0  0
 20 36  1  0  0  0
 20 37  1  0  0  0
 21 22  1  0  0  0
 21 38  1  0  0  0
 21 39  1  0  0  0
 22 23  1  0  0  0
 22 40  1  0  0  0
 22 41  1  0  0  0
 23 24  1  0  0  0
 23 42  1  0  0  0
 23 43  1  0  0  0
 24 44  1  0  0  0
 24 45  1  0  0  0
M  END
> <s_m_entry_id>
2941

> <s_m_entry_name>
ligand_docking-pose.6

> <s_m_Source_Path>
/home/csk/Desktop/cluster/DUD-E-result/fabp4

> <s_m_Source_File>
ligand_docking-pose.sdf

> <i_m_Source_File_Index>
6

> <i_lp_mmshare_version>
53161

> <r_lp_tautomer_probability>
1

> <s_lp_Force_Field>
OPLS_2005

> <r_lp_Energy>
27.762247

> <b_lp_Chiralities_Consistent>
1

> <s_lp_Variant>
457190-1

> <s_i_glide_gridfile>
glide-grid_2nnq

> <i_i_glide_lignum>
45

> <i_i_glide_rotatable_bonds>
4

> <r_i_docking_score>
-8.0145818623563

> <r_i_glide_ligand_efficiency>
-0.320583274494252

> <r_i_glide_ligand_efficiency_sa>
-0.937391180189775

> <r_i_glide_ligand_efficiency_ln>
-1.89969607901571

> <r_i_glide_gscore>
-8.0145818623563

> <r_i_glide_lipo>
-3.86162881009059

> <r_i_glide_hbond>
-0.208618872241241

> <r_i_glide_metal>
0

> <r_i_glide_rewards>
-1.95064117452188

> <r_i_glide_evdw>
-35.5522727966309

> <r_i_glide_ecoul>
-4.76100969314575

> <r_i_glide_erotb>
0.49807208830082

> <r_i_glide_esite>
0

> <r_i_glide_emodel>
-57.8747519917266

> <r_i_glide_energy>
-40.3132824897766

> <r_i_glide_einternal>
4.33626461029053

> <i_i_glide_confnum>
7

> <i_i_glide_posenum>
301

> <r_i_glide_eff_state_penalty>
0

> <s_user_duplicate_titles>
457190

> <i_f3d_flags>
0

> <s_m_subgroup_title>
dock_pv

> <s_m_subgroupid>
dock_pv1

> <b_m_subgroup_collapsed>
0

$$$$
