CHEMBL3820_lig267
                    3D
 Schrodinger Suite 2021-1.
 39 41  0  0  1  0            999 V2000
  -10.0391    3.9893   20.5507 C   0  0  0  0  0  0
   -9.3820    4.8192   19.6373 C   0  0  0  0  0  0
   -8.3638    4.2879   18.8556 C   0  0  0  0  0  0
   -7.9961    2.9464   18.9803 C   0  0  0  0  0  0
   -8.6000    2.1131   19.9502 C   0  0  0  0  0  0
   -9.6488    2.6617   20.6909 C   0  0  0  0  0  0
   -9.7606    6.0973   19.4241 F   0  0  0  0  0  0
   -7.0331    2.5044   18.0857 N   0  0  0  0  0  0
  -11.5148    4.4367   21.3820 S   0  0  0  0  0  0
  -11.4217    6.1712   21.6456 C   0  0  0  0  0  0
  -12.1848    7.0828   20.9515 N   0  0  0  0  0  0
  -11.8884    8.2952   21.5135 C   0  0  0  0  0  0
  -10.9673    8.0246   22.5099 C   0  0  0  0  0  0
  -10.6899    6.7366   22.5793 N   0  0  0  0  0  0
   -8.1304    0.7001   20.2408 C   0  0  0  0  0  0
   -7.5616    0.0406   19.3800 O   0  0  0  0  0  0
   -8.3022    0.2563   21.5050 N   0  0  0  0  0  0
  -13.0635    6.8298   19.8222 C   0  0  0  0  0  0
   -7.9798   -1.0115   22.0191 C   0  0  0  0  0  0
   -7.6819   -1.0844   23.3810 C   0  0  0  0  0  0
   -7.3617   -2.3076   23.9698 C   0  0  0  0  0  0
   -7.3485   -3.4716   23.2025 C   0  0  0  0  0  0
   -7.6523   -3.4115   21.8431 C   0  0  0  0  0  0
   -7.9705   -2.1887   21.2515 C   0  0  0  0  0  0
   -7.0601   -2.3621   25.2861 F   0  0  0  0  0  0
   -7.8926    4.9226   18.1194 H   0  0  0  0  0  0
  -10.2048    2.0434   21.3808 H   0  0  0  0  0  0
   -6.6878    3.1402   17.3720 H   0  0  0  0  0  0
   -6.8174    1.5152   18.0595 H   0  0  0  0  0  0
  -12.3315    9.2123   21.1512 H   0  0  0  0  0  0
  -10.4972    8.7479   23.1601 H   0  0  0  0  0  0
   -8.6548    0.9229   22.1823 H   0  0  0  0  0  0
  -13.0877    7.7037   19.1795 H   0  0  0  0  0  0
  -12.6969    5.9801   19.2470 H   0  0  0  0  0  0
  -14.0704    6.6180   20.1803 H   0  0  0  0  0  0
   -7.6791   -0.1907   23.9886 H   0  0  0  0  0  0
   -7.1015   -4.4178   23.6621 H   0  0  0  0  0  0
   -7.6420   -4.3122   21.2490 H   0  0  0  0  0  0
   -8.2136   -2.1730   20.1995 H   0  0  0  0  0  0
  1  2  2  0  0  0
  1  9  1  0  0  0
  1  6  1  0  0  0
  2  7  1  0  0  0
  2  3  1  0  0  0
  3  4  2  0  0  0
  3 26  1  0  0  0
  4  8  1  0  0  0
  4  5  1  0  0  0
  5 15  1  0  0  0
  5  6  2  0  0  0
  6 27  1  0  0  0
  8 28  1  0  0  0
  8 29  1  0  0  0
  9 10  1  0  0  0
 10 14  2  0  0  0
 10 11  1  0  0  0
 11 12  1  0  0  0
 11 18  1  0  0  0
 12 13  2  0  0  0
 12 30  1  0  0  0
 13 14  1  0  0  0
 13 31  1  0  0  0
 15 16  2  0  0  0
 15 17  1  0  0  0
 17 19  1  0  0  0
 17 32  1  0  0  0
 18 33  1  0  0  0
 18 34  1  0  0  0
 18 35  1  0  0  0
 19 20  2  0  0  0
 19 24  1  0  0  0
 20 21  1  0  0  0
 20 36  1  0  0  0
 21 22  2  0  0  0
 21 25  1  0  0  0
 22 23  1  0  0  0
 22 37  1  0  0  0
 23 24  2  0  0  0
 23 38  1  0  0  0
 24 39  1  0  0  0
M  END
> <s_m_entry_id>
5334

> <s_m_entry_name>
dock_pv.2

> <s_m_Source_Path>
/home/csk/Desktop/cluster/DUD-E-result/hxk4

> <s_m_Source_File>
dock_pv.maegz

> <i_m_Source_File_Index>
2

> <chembl_id>
CHEMBL239481

> <chembl_pref_name>
None

> <i_lp_mmshare_version>
53161

> <r_lp_tautomer_probability>
1

> <s_lp_Force_Field>
OPLS_2005

> <r_lp_Energy>
26.475675

> <b_lp_Chiralities_Consistent>
1

> <s_lp_Variant>
CHEMBL3820_lig267-1

> <s_i_glide_gridfile>
glide-grid_3f9m

> <i_i_glide_lignum>
326

> <i_i_glide_rotatable_bonds>
5

> <r_i_docking_score>
-11.567492893974

> <r_i_glide_ligand_efficiency>
-0.462699715758959

> <r_i_glide_ligand_efficiency_sa>
-1.3529421748936

> <r_i_glide_ligand_efficiency_ln>
-2.74184246566095

> <r_i_glide_gscore>
-11.567492893974

> <r_i_glide_lipo>
-4.21037878856008

> <r_i_glide_hbond>
-0.608

> <r_i_glide_metal>
0

> <r_i_glide_rewards>
-3.94616301582129

> <r_i_glide_evdw>
-46.6713714599609

> <r_i_glide_ecoul>
-8.05146217346191

> <r_i_glide_erotb>
0.738336809424721

> <r_i_glide_esite>
0

> <r_i_glide_emodel>
-73.8719029107499

> <r_i_glide_energy>
-54.7228336334229

> <r_i_glide_einternal>
10.0320405960083

> <i_i_glide_confnum>
56

> <i_i_glide_posenum>
52

> <r_i_glide_eff_state_penalty>
0

> <s_user_duplicate_titles>
CHEMBL3820_lig267

> <i_f3d_flags>
0

> <s_m_subgroup_title>
dock_pv

> <s_m_subgroupid>
dock_pv

> <b_m_subgroup_collapsed>
0

$$$$
CHEMBL3820_lig266
                    3D
 Schrodinger Suite 2021-1.
 40 42  0  0  1  0            999 V2000
  -10.0350    3.9942   20.5559 C   0  0  0  0  0  0
   -9.3893    4.8190   19.6268 C   0  0  0  0  0  0
   -8.3678    4.2852   18.8451 C   0  0  0  0  0  0
   -7.9909    2.9467   18.9766 C   0  0  0  0  0  0
   -8.5903    2.1160   19.9509 C   0  0  0  0  0  0
   -9.6391    2.6672   20.6928 C   0  0  0  0  0  0
   -9.7795    6.0914   19.3980 F   0  0  0  0  0  0
   -7.0150    2.5042   18.0991 N   0  0  0  0  0  0
  -11.4891    4.4512   21.4353 S   0  0  0  0  0  0
  -11.4132    6.1929   21.6559 C   0  0  0  0  0  0
  -12.1797    7.0915   20.9477 N   0  0  0  0  0  0
  -11.8885    8.3131   21.4916 C   0  0  0  0  0  0
  -10.9705    8.0645   22.4937 C   0  0  0  0  0  0
  -10.6909    6.7788   22.5810 N   0  0  0  0  0  0
   -8.1230    0.7031   20.2457 C   0  0  0  0  0  0
   -7.5648    0.0386   19.3812 O   0  0  0  0  0  0
   -8.2890    0.2615   21.5118 N   0  0  0  0  0  0
  -13.0580    6.8284   19.8226 C   0  0  0  0  0  0
   -7.9119   -0.9912   22.0245 C   0  0  0  0  0  0
   -7.4889   -1.0403   23.3554 C   0  0  0  0  0  0
   -7.0787   -2.2526   23.9200 C   0  0  0  0  0  0
   -7.1196   -3.4253   23.1601 C   0  0  0  0  0  0
   -7.5574   -3.3853   21.8385 C   0  0  0  0  0  0
   -7.9532   -2.1758   21.2707 C   0  0  0  0  0  0
   -6.5901   -2.2879   25.2901 C   0  0  0  0  0  0
   -6.2012   -2.3139   26.3792 N   0  0  0  0  0  0
   -7.8899    4.9154   18.1086 H   0  0  0  0  0  0
  -10.1927    2.0471   21.3809 H   0  0  0  0  0  0
   -6.6878    3.1323   17.3708 H   0  0  0  0  0  0
   -6.7910    1.5167   18.0816 H   0  0  0  0  0  0
  -12.3368    9.2223   21.1153 H   0  0  0  0  0  0
  -10.5060    8.7987   23.1341 H   0  0  0  0  0  0
   -8.6397    0.9283   22.1919 H   0  0  0  0  0  0
  -13.0862    7.7049   19.1835 H   0  0  0  0  0  0
  -12.6857    5.9800   19.2472 H   0  0  0  0  0  0
  -14.0642    6.6118   20.1826 H   0  0  0  0  0  0
   -7.4574   -0.1289   23.9390 H   0  0  0  0  0  0
   -6.8088   -4.3710   23.5823 H   0  0  0  0  0  0
   -7.5868   -4.2948   21.2529 H   0  0  0  0  0  0
   -8.2857   -2.1686   20.2437 H   0  0  0  0  0  0
  1  9  1  0  0  0
  1  6  1  0  0  0
  1  2  2  0  0  0
  2  7  1  0  0  0
  2  3  1  0  0  0
  3  4  2  0  0  0
  3 27  1  0  0  0
  4  8  1  0  0  0
  4  5  1  0  0  0
  5 15  1  0  0  0
  5  6  2  0  0  0
  6 28  1  0  0  0
  8 29  1  0  0  0
  8 30  1  0  0  0
  9 10  1  0  0  0
 10 14  2  0  0  0
 10 11  1  0  0  0
 11 12  1  0  0  0
 11 18  1  0  0  0
 12 13  2  0  0  0
 12 31  1  0  0  0
 13 14  1  0  0  0
 13 32  1  0  0  0
 15 16  2  0  0  0
 15 17  1  0  0  0
 17 19  1  0  0  0
 17 33  1  0  0  0
 18 34  1  0  0  0
 18 35  1  0  0  0
 18 36  1  0  0  0
 19 20  2  0  0  0
 19 24  1  0  0  0
 20 21  1  0  0  0
 20 37  1  0  0  0
 21 22  2  0  0  0
 21 25  1  0  0  0
 22 23  1  0  0  0
 22 38  1  0  0  0
 23 24  2  0  0  0
 23 39  1  0  0  0
 24 40  1  0  0  0
 25 26  3  0  0  0
M  END
> <s_m_entry_id>
5335

> <s_m_entry_name>
dock_pv.3

> <s_m_Source_Path>
/home/csk/Desktop/cluster/DUD-E-result/hxk4

> <s_m_Source_File>
dock_pv.maegz

> <i_m_Source_File_Index>
3

> <chembl_id>
CHEMBL394757

> <chembl_pref_name>
None

> <i_lp_mmshare_version>
53161

> <r_lp_tautomer_probability>
1

> <s_lp_Force_Field>
OPLS_2005

> <r_lp_Energy>
26.384235

> <b_lp_Chiralities_Consistent>
1

> <s_lp_Variant>
CHEMBL3820_lig266-1

> <s_i_glide_gridfile>
glide-grid_3f9m

> <i_i_glide_lignum>
325

> <i_i_glide_rotatable_bonds>
5

> <r_i_docking_score>
-11.4989207305751

> <r_i_glide_ligand_efficiency>
-0.442266181945195

> <r_i_glide_ligand_efficiency_sa>
-1.31021182377925

> <r_i_glide_ligand_efficiency_ln>
-2.70048380253916

> <r_i_glide_gscore>
-11.4989207305751

> <r_i_glide_lipo>
-4.15782378254783

> <r_i_glide_hbond>
-0.608

> <r_i_glide_metal>
0

> <r_i_glide_rewards>
-3.85157963864017

> <r_i_glide_evdw>
-47.7525444030762

> <r_i_glide_ecoul>
-8.04830360412598

> <r_i_glide_erotb>
0.713355451385639

> <r_i_glide_esite>
0

> <r_i_glide_emodel>
-76.0561960316838

> <r_i_glide_energy>
-55.8008480072021

> <r_i_glide_einternal>
10.315486907959

> <i_i_glide_confnum>
74

> <i_i_glide_posenum>
60

> <r_i_glide_eff_state_penalty>
0

> <s_user_duplicate_titles>
CHEMBL3820_lig266

> <i_f3d_flags>
0

> <s_m_subgroup_title>
dock_pv

> <s_m_subgroupid>
dock_pv

> <b_m_subgroup_collapsed>
0

$$$$
CHEMBL3820_lig265
                    3D
 Schrodinger Suite 2021-1.
 42 44  0  0  1  0            999 V2000
  -10.0325    3.9968   20.5469 C   0  0  0  0  0  0
   -9.3815    4.8223   19.6247 C   0  0  0  0  0  0
   -8.3601    4.2885   18.8468 C   0  0  0  0  0  0
   -7.9844    2.9495   18.9808 C   0  0  0  0  0  0
   -8.5830    2.1194   19.9564 C   0  0  0  0  0  0
   -9.6343    2.6704   20.6932 C   0  0  0  0  0  0
   -9.7700    6.0963   19.3979 F   0  0  0  0  0  0
   -7.0125    2.5050   18.0987 N   0  0  0  0  0  0
  -11.5080    4.4474   21.3860 S   0  0  0  0  0  0
  -11.4225    6.1835   21.6495 C   0  0  0  0  0  0
  -12.1853    7.1018   20.9642 N   0  0  0  0  0  0
  -11.8888    8.3111   21.5356 C   0  0  0  0  0  0
  -10.9553    8.0356   22.5171 C   0  0  0  0  0  0
  -10.6890    6.7455   22.5803 N   0  0  0  0  0  0
   -8.1180    0.7046   20.2473 C   0  0  0  0  0  0
   -7.5561    0.0454   19.3809 O   0  0  0  0  0  0
   -8.2892    0.2510   21.5104 N   0  0  0  0  0  0
  -13.1518    6.8398   19.9135 C   0  0  0  0  0  0
   -7.9184   -1.0146   22.0044 C   0  0  0  0  0  0
   -7.4798   -1.0954   23.3292 C   0  0  0  0  0  0
   -7.0529   -2.3194   23.8669 C   0  0  0  0  0  0
   -7.1147   -3.4726   23.0765 C   0  0  0  0  0  0
   -7.5779   -3.4050   21.7661 C   0  0  0  0  0  0
   -7.9733   -2.1832   21.2291 C   0  0  0  0  0  0
   -6.4979   -2.4183   25.2856 C   0  0  0  0  0  0
   -6.6888   -1.2964   25.9819 F   0  0  0  0  0  0
   -5.1867   -2.6500   25.2242 F   0  0  0  0  0  0
   -7.0814   -3.4272   25.9357 F   0  0  0  0  0  0
   -7.8909    4.9198   18.1053 H   0  0  0  0  0  0
  -10.1892    2.0502   21.3809 H   0  0  0  0  0  0
   -6.6858    3.1320   17.3687 H   0  0  0  0  0  0
   -6.8016    1.5147   18.0751 H   0  0  0  0  0  0
  -12.3476    9.2280   21.1936 H   0  0  0  0  0  0
  -10.4804    8.7530   23.1708 H   0  0  0  0  0  0
   -8.6384    0.9102   22.1964 H   0  0  0  0  0  0
  -13.7952    7.7050   19.7817 H   0  0  0  0  0  0
  -12.6217    6.6495   18.9805 H   0  0  0  0  0  0
  -13.7642    5.9785   20.1817 H   0  0  0  0  0  0
   -7.4312   -0.1954   23.9268 H   0  0  0  0  0  0
   -6.7935   -4.4255   23.4741 H   0  0  0  0  0  0
   -7.6179   -4.2969   21.1599 H   0  0  0  0  0  0
   -8.3130   -2.1567   20.2064 H   0  0  0  0  0  0
  1  9  1  0  0  0
  1  6  1  0  0  0
  1  2  2  0  0  0
  2  7  1  0  0  0
  2  3  1  0  0  0
  3  4  2  0  0  0
  3 29  1  0  0  0
  4  8  1  0  0  0
  4  5  1  0  0  0
  5 15  1  0  0  0
  5  6  2  0  0  0
  6 30  1  0  0  0
  8 31  1  0  0  0
  8 32  1  0  0  0
  9 10  1  0  0  0
 10 14  2  0  0  0
 10 11  1  0  0  0
 11 18  1  0  0  0
 11 12  1  0  0  0
 12 13  2  0  0  0
 12 33  1  0  0  0
 13 14  1  0  0  0
 13 34  1  0  0  0
 15 16  2  0  0  0
 15 17  1  0  0  0
 17 19  1  0  0  0
 17 35  1  0  0  0
 18 36  1  0  0  0
 18 37  1  0  0  0
 18 38  1  0  0  0
 19 20  2  0  0  0
 19 24  1  0  0  0
 20 21  1  0  0  0
 20 39  1  0  0  0
 21 22  2  0  0  0
 21 25  1  0  0  0
 22 23  1  0  0  0
 22 40  1  0  0  0
 23 24  2  0  0  0
 23 41  1  0  0  0
 24 42  1  0  0  0
 25 26  1  0  0  0
 25 27  1  0  0  0
 25 28  1  0  0  0
M  END
> <s_m_entry_id>
5336

> <s_m_entry_name>
dock_pv.4

> <s_m_Source_Path>
/home/csk/Desktop/cluster/DUD-E-result/hxk4

> <s_m_Source_File>
dock_pv.maegz

> <i_m_Source_File_Index>
4

> <chembl_id>
CHEMBL239692

> <chembl_pref_name>
None

> <i_lp_mmshare_version>
53161

> <r_lp_tautomer_probability>
1

> <s_lp_Force_Field>
OPLS_2005

> <r_lp_Energy>
27.91942

> <b_lp_Chiralities_Consistent>
1

> <s_lp_Variant>
CHEMBL3820_lig265-1

> <s_i_glide_gridfile>
glide-grid_3f9m

> <i_i_glide_lignum>
324

> <i_i_glide_rotatable_bonds>
6

> <r_i_docking_score>
-11.4200423393023

> <r_i_glide_ligand_efficiency>
-0.407858654975083

> <r_i_glide_ligand_efficiency_sa>
-1.23849909240573

> <r_i_glide_ligand_efficiency_ln>
-2.63608107892406

> <r_i_glide_gscore>
-11.4200423393023

> <r_i_glide_lipo>
-4.22877229793469

> <r_i_glide_hbond>
-0.608

> <r_i_glide_metal>
0

> <r_i_glide_rewards>
-3.58937466751195

> <r_i_glide_evdw>
-47.5718116760254

> <r_i_glide_ecoul>
-7.96248340606689

> <r_i_glide_erotb>
0.584841226665421

> <r_i_glide_esite>
-0.00577350580978566

> <r_i_glide_emodel>
-78.0394433458718

> <r_i_glide_energy>
-55.5342950820923

> <r_i_glide_einternal>
9.14786815643311

> <i_i_glide_confnum>
40

> <i_i_glide_posenum>
123

> <r_i_glide_eff_state_penalty>
0

> <s_user_duplicate_titles>
CHEMBL3820_lig265

> <i_f3d_flags>
0

> <s_m_subgroup_title>
dock_pv

> <s_m_subgroupid>
dock_pv

> <b_m_subgroup_collapsed>
0

$$$$
CHEMBL3820_lig161
                    3D
 Schrodinger Suite 2021-1.
 38 40  0  0  1  0            999 V2000
  -10.0993    3.9634   20.5821 C   0  0  0  0  0  0
   -9.4364    4.8209   19.7059 C   0  0  0  0  0  0
   -8.4330    4.3011   18.8878 C   0  0  0  0  0  0
   -8.0647    2.9500   18.9704 C   0  0  0  0  0  0
   -8.6614    2.1002   19.9357 C   0  0  0  0  0  0
   -9.7152    2.6315   20.6840 C   0  0  0  0  0  0
   -8.1892    0.6743   20.2060 C   0  0  0  0  0  0
   -8.5066    0.1337   21.4117 N   0  0  0  0  0  0
   -7.4897    0.0972   19.3810 O   0  0  0  0  0  0
  -11.4869    4.4400   21.5498 S   0  0  0  0  0  0
   -7.0911    2.5084   18.0798 N   0  0  0  0  0  0
  -11.4319    6.1920   21.6431 C   0  0  0  0  0  0
  -12.1394    7.0559   20.8385 N   0  0  0  0  0  0
  -11.8894    8.2866   21.3903 C   0  0  0  0  0  0
  -11.0942    8.2017   22.4248 N   0  0  0  0  0  0
  -10.8037    6.8522   22.5862 N   0  0  0  0  0  0
  -12.9673    6.7590   19.6826 C   0  0  0  0  0  0
   -8.1847   -1.1409   21.8892 C   0  0  0  0  0  0
   -8.1271   -1.4054   23.1746 N   0  0  0  0  0  0
   -7.8026   -2.6687   23.4249 C   0  0  0  0  0  0
   -7.6423   -3.4742   22.3026 C   0  0  0  0  0  0
   -7.8889   -2.5293   20.8758 S   0  0  0  0  0  0
   -7.6085   -3.0826   24.8698 C   0  0  0  0  0  0
   -8.6857   -3.8962   25.3027 O   0  0  0  0  0  0
   -9.7166    5.8603   19.6143 H   0  0  0  0  0  0
   -7.9495    4.9546   18.1759 H   0  0  0  0  0  0
  -10.2593    2.0094   21.3802 H   0  0  0  0  0  0
   -8.8671    0.7785   22.1050 H   0  0  0  0  0  0
   -6.6923    3.1529   17.4028 H   0  0  0  0  0  0
   -6.8442    1.5252   18.0864 H   0  0  0  0  0  0
  -12.3146    9.1842   20.9639 H   0  0  0  0  0  0
  -12.6945    7.4172   18.8587 H   0  0  0  0  0  0
  -12.8197    5.7238   19.3736 H   0  0  0  0  0  0
  -14.0164    6.9054   19.9428 H   0  0  0  0  0  0
   -7.3805   -4.5210   22.2485 H   0  0  0  0  0  0
   -7.4889   -2.2292   25.5379 H   0  0  0  0  0  0
   -6.6889   -3.6585   24.9836 H   0  0  0  0  0  0
   -9.3115   -4.0056   24.5753 H   0  0  0  0  0  0
  1  6  1  0  0  0
  1  2  2  0  0  0
  1 10  1  0  0  0
  2  3  1  0  0  0
  2 25  1  0  0  0
  3  4  2  0  0  0
  3 26  1  0  0  0
  4  5  1  0  0  0
  4 11  1  0  0  0
  5  7  1  0  0  0
  5  6  2  0  0  0
  6 27  1  0  0  0
  7  8  1  0  0  0
  7  9  2  0  0  0
  8 18  1  0  0  0
  8 28  1  0  0  0
 10 12  1  0  0  0
 11 29  1  0  0  0
 11 30  1  0  0  0
 12 13  1  0  0  0
 12 16  2  0  0  0
 13 14  1  0  0  0
 13 17  1  0  0  0
 14 15  2  0  0  0
 14 31  1  0  0  0
 15 16  1  0  0  0
 17 32  1  0  0  0
 17 33  1  0  0  0
 17 34  1  0  0  0
 18 19  2  0  0  0
 18 22  1  0  0  0
 19 20  1  0  0  0
 20 21  2  0  0  0
 20 23  1  0  0  0
 21 22  1  0  0  0
 21 35  1  0  0  0
 23 24  1  0  0  0
 23 36  1  0  0  0
 23 37  1  0  0  0
 24 38  1  0  0  0
M  END
> <s_m_entry_id>
5337

> <s_m_entry_name>
dock_pv.5

> <s_m_Source_Path>
/home/csk/Desktop/cluster/DUD-E-result/hxk4

> <s_m_Source_File>
dock_pv.maegz

> <i_m_Source_File_Index>
5

> <chembl_id>
CHEMBL491323

> <chembl_pref_name>
None

> <i_lp_mmshare_version>
53161

> <r_lp_tautomer_probability>
0.999000488399163

> <s_lp_Force_Field>
OPLS_2005

> <r_lp_Energy>
16.523753

> <b_lp_Chiralities_Consistent>
1

> <s_lp_Variant>
CHEMBL3820_lig161-1

> <s_i_glide_gridfile>
glide-grid_3f9m

> <i_i_glide_lignum>
178

> <i_i_glide_rotatable_bonds>
7

> <r_i_docking_score>
-11.2235218460282

> <r_i_glide_ligand_efficiency>
-0.46764674358451

> <r_i_glide_ligand_efficiency_sa>
-1.34892662855185

> <r_i_glide_ligand_efficiency_ln>
-2.68630379161332

> <r_i_glide_gscore>
-11.2235218460282

> <r_i_glide_lipo>
-3.33924552651555

> <r_i_glide_hbond>
-0.914797682591986

> <r_i_glide_metal>
0

> <r_i_glide_rewards>
-3.79589110448032

> <r_i_glide_evdw>
-48.8020820617676

> <r_i_glide_ecoul>
-10.7371406555176

> <r_i_glide_erotb>
0.877087668975635

> <r_i_glide_esite>
0

> <r_i_glide_emodel>
-90.2691240008981

> <r_i_glide_energy>
-59.5392227172852

> <r_i_glide_einternal>
1.66470575332642

> <i_i_glide_confnum>
97

> <i_i_glide_posenum>
394

> <r_i_glide_eff_state_penalty>
0

> <s_user_duplicate_titles>
CHEMBL3820_lig161,457935

> <i_f3d_flags>
0

> <s_m_subgroup_title>
dock_pv

> <s_m_subgroupid>
dock_pv

> <b_m_subgroup_collapsed>
0

$$$$
CHEMBL3820_lig264
                    3D
 Schrodinger Suite 2021-1.
 35 37  0  0  1  0            999 V2000
   -7.8893   -2.5172   20.9811 S   0  0  0  0  0  0
   -7.8285   -3.4310   22.4548 C   0  0  0  0  0  0
   -8.0715   -2.5747   23.5228 C   0  0  0  0  0  0
   -8.2861   -1.3088   23.2223 N   0  0  0  0  0  0
   -8.2232   -1.0898   21.9332 C   0  0  0  0  0  0
   -8.4803    0.1778   21.4229 N   0  0  0  0  0  0
   -8.1682    0.6755   20.2050 C   0  0  0  0  0  0
   -7.4897    0.0691   19.3811 O   0  0  0  0  0  0
   -8.0120    2.9466   18.9806 C   0  0  0  0  0  0
   -8.6189    2.1050   19.9422 C   0  0  0  0  0  0
   -9.6669    2.6571   20.6913 C   0  0  0  0  0  0
  -10.0483    3.9890   20.5694 C   0  0  0  0  0  0
   -9.3835    4.8229   19.6676 C   0  0  0  0  0  0
   -9.7537    6.1045   19.4633 F   0  0  0  0  0  0
   -8.3668    4.2946   18.8845 C   0  0  0  0  0  0
  -11.5295    4.4348   21.3960 S   0  0  0  0  0  0
  -12.2011    7.0856   20.9500 N   0  0  0  0  0  0
  -11.4467    6.1714   21.6512 C   0  0  0  0  0  0
  -10.7144    6.7390   22.5813 N   0  0  0  0  0  0
  -10.9793    8.0285   22.5029 C   0  0  0  0  0  0
  -11.8885    8.3009   21.4986 C   0  0  0  0  0  0
  -13.0789    6.8372   19.8211 C   0  0  0  0  0  0
   -7.0615    2.5044   18.0732 N   0  0  0  0  0  0
   -7.6327   -4.4936   22.4574 H   0  0  0  0  0  0
   -8.1001   -2.8786   24.5586 H   0  0  0  0  0  0
   -8.8325    0.8432   22.1000 H   0  0  0  0  0  0
  -10.2388    2.0492   21.3797 H   0  0  0  0  0  0
   -7.8885    4.9455   18.1713 H   0  0  0  0  0  0
  -10.5042    8.7557   23.1436 H   0  0  0  0  0  0
  -12.2892    9.2266   21.1150 H   0  0  0  0  0  0
  -13.0800    7.7046   19.1689 H   0  0  0  0  0  0
  -12.7290    5.9718   19.2592 H   0  0  0  0  0  0
  -14.0898    6.6543   20.1828 H   0  0  0  0  0  0
   -6.6894    3.1476   17.3800 H   0  0  0  0  0  0
   -6.8315    1.5171   18.0588 H   0  0  0  0  0  0
  1  2  1  0  0  0
  1  5  1  0  0  0
  2  3  2  0  0  0
  2 24  1  0  0  0
  3  4  1  0  0  0
  3 25  1  0  0  0
  4  5  2  0  0  0
  5  6  1  0  0  0
  6  7  1  0  0  0
  6 26  1  0  0  0
  7  8  2  0  0  0
  7 10  1  0  0  0
  9 10  2  0  0  0
  9 15  1  0  0  0
  9 23  1  0  0  0
 10 11  1  0  0  0
 11 12  2  0  0  0
 11 27  1  0  0  0
 12 13  1  0  0  0
 12 16  1  0  0  0
 13 14  1  0  0  0
 13 15  2  0  0  0
 15 28  1  0  0  0
 16 18  1  0  0  0
 17 18  1  0  0  0
 17 21  1  0  0  0
 17 22  1  0  0  0
 18 19  2  0  0  0
 19 20  1  0  0  0
 20 21  2  0  0  0
 20 29  1  0  0  0
 21 30  1  0  0  0
 22 31  1  0  0  0
 22 32  1  0  0  0
 22 33  1  0  0  0
 23 34  1  0  0  0
 23 35  1  0  0  0
M  END
> <s_m_entry_id>
5338

> <s_m_entry_name>
dock_pv.6

> <s_m_Source_Path>
/home/csk/Desktop/cluster/DUD-E-result/hxk4

> <s_m_Source_File>
dock_pv.maegz

> <i_m_Source_File_Index>
6

> <chembl_id>
CHEMBL608393

> <chembl_pref_name>
None

> <i_lp_mmshare_version>
53161

> <r_lp_tautomer_probability>
0.999000488399163

> <s_lp_Force_Field>
OPLS_2005

> <r_lp_Energy>
16.817614

> <b_lp_Chiralities_Consistent>
1

> <s_lp_Variant>
CHEMBL3820_lig264-1

> <s_i_glide_gridfile>
glide-grid_3f9m

> <i_i_glide_lignum>
323

> <i_i_glide_rotatable_bonds>
5

> <r_i_docking_score>
-11.2065015213059

> <r_i_glide_ligand_efficiency>
-0.487239196578516

> <r_i_glide_ligand_efficiency_sa>
-1.38564346099082

> <r_i_glide_ligand_efficiency_ln>
-2.70983368278948

> <r_i_glide_gscore>
-11.2065015213059

> <r_i_glide_lipo>
-3.678238144704

> <r_i_glide_hbond>
-0.802621048455693

> <r_i_glide_metal>
0

> <r_i_glide_rewards>
-3.97027050615794

> <r_i_glide_evdw>
-47.2180824279785

> <r_i_glide_ecoul>
-7.8305869102478

> <r_i_glide_erotb>
0.780120335947865

> <r_i_glide_esite>
0

> <r_i_glide_emodel>
-74.753615495528

> <r_i_glide_energy>
-55.0486693382263

> <r_i_glide_einternal>
9.67738342285156

> <i_i_glide_confnum>
36

> <i_i_glide_posenum>
135

> <r_i_glide_eff_state_penalty>
0

> <s_user_duplicate_titles>
CHEMBL3820_lig264,594558

> <i_f3d_flags>
0

> <s_m_subgroup_title>
dock_pv

> <s_m_subgroupid>
dock_pv

> <b_m_subgroup_collapsed>
0

$$$$
CHEMBL3820_lig344
                    3D
 Schrodinger Suite 2021-1.
 38 40  0  0  1  0            999 V2000
  -10.0645    3.9865   20.5544 C   0  0  0  0  0  0
   -9.3908    4.8226   19.6609 C   0  0  0  0  0  0
   -8.3699    4.2947   18.8813 C   0  0  0  0  0  0
   -8.0148    2.9465   18.9794 C   0  0  0  0  0  0
   -8.6289    2.1050   19.9381 C   0  0  0  0  0  0
   -9.6854    2.6539   20.6739 C   0  0  0  0  0  0
   -9.7578    6.1057   19.4599 F   0  0  0  0  0  0
  -11.5450    4.4374   21.3814 S   0  0  0  0  0  0
  -11.4448    6.1698   21.6585 C   0  0  0  0  0  0
  -12.2017    7.0944   20.9746 N   0  0  0  0  0  0
  -11.8876    8.3009   21.5415 C   0  0  0  0  0  0
  -10.9546    8.0151   22.5210 C   0  0  0  0  0  0
  -10.6916    6.7238   22.5805 N   0  0  0  0  0  0
  -13.1630    6.8393   19.9174 C   0  0  0  0  0  0
   -7.0558    2.5046   18.0795 N   0  0  0  0  0  0
   -8.1834    0.6737   20.2070 C   0  0  0  0  0  0
   -8.4946    0.1712   21.4260 N   0  0  0  0  0  0
   -7.5093    0.0662   19.3811 O   0  0  0  0  0  0
   -8.2327   -1.1028   21.9282 C   0  0  0  0  0  0
   -8.2882   -1.3475   23.2144 N   0  0  0  0  0  0
   -8.0492   -2.6162   23.5039 C   0  0  0  0  0  0
   -7.8024   -3.4433   22.4154 C   0  0  0  0  0  0
   -7.8893   -2.5130   20.9591 S   0  0  0  0  0  0
   -8.0774   -3.0095   24.9598 C   0  0  0  0  0  0
   -7.8890    4.9478   18.1709 H   0  0  0  0  0  0
  -10.2682    2.0363   21.3419 H   0  0  0  0  0  0
  -12.3055    9.2314   21.1888 H   0  0  0  0  0  0
  -10.4663    8.7306   23.1654 H   0  0  0  0  0  0
  -13.8031    7.7049   19.7814 H   0  0  0  0  0  0
  -12.6291    6.6483   18.9868 H   0  0  0  0  0  0
  -13.7795    5.9797   20.1805 H   0  0  0  0  0  0
   -6.6907    3.1466   17.3818 H   0  0  0  0  0  0
   -6.8290    1.5173   18.0601 H   0  0  0  0  0  0
   -8.8455    0.8349   22.1065 H   0  0  0  0  0  0
   -7.5879   -4.5017   22.4002 H   0  0  0  0  0  0
   -7.7295   -4.0330   25.1059 H   0  0  0  0  0  0
   -9.0869   -2.9653   25.3671 H   0  0  0  0  0  0
   -7.4343   -2.3707   25.5644 H   0  0  0  0  0  0
  1  6  1  0  0  0
  1  2  2  0  0  0
  1  8  1  0  0  0
  2  7  1  0  0  0
  2  3  1  0  0  0
  3  4  2  0  0  0
  3 25  1  0  0  0
  4 15  1  0  0  0
  4  5  1  0  0  0
  5 16  1  0  0  0
  5  6  2  0  0  0
  6 26  1  0  0  0
  8  9  1  0  0  0
  9 10  1  0  0  0
  9 13  2  0  0  0
 10 14  1  0  0  0
 10 11  1  0  0  0
 11 12  2  0  0  0
 11 27  1  0  0  0
 12 13  1  0  0  0
 12 28  1  0  0  0
 14 29  1  0  0  0
 14 30  1  0  0  0
 14 31  1  0  0  0
 15 32  1  0  0  0
 15 33  1  0  0  0
 16 17  1  0  0  0
 16 18  2  0  0  0
 17 19  1  0  0  0
 17 34  1  0  0  0
 19 20  2  0  0  0
 19 23  1  0  0  0
 20 21  1  0  0  0
 21 22  2  0  0  0
 21 24  1  0  0  0
 22 23  1  0  0  0
 22 35  1  0  0  0
 24 36  1  0  0  0
 24 37  1  0  0  0
 24 38  1  0  0  0
M  END
> <s_m_entry_id>
5339

> <s_m_entry_name>
dock_pv.7

> <s_m_Source_Path>
/home/csk/Desktop/cluster/DUD-E-result/hxk4

> <s_m_Source_File>
dock_pv.maegz

> <i_m_Source_File_Index>
7

> <chembl_id>
CHEMBL1783735

> <chembl_pref_name>
None

> <i_lp_mmshare_version>
53161

> <r_lp_tautomer_probability>
0.999000488399163

> <s_lp_Force_Field>
OPLS_2005

> <r_lp_Energy>
15.787041

> <b_lp_Chiralities_Consistent>
1

> <s_lp_Variant>
CHEMBL3820_lig344-1

> <s_i_glide_gridfile>
glide-grid_3f9m

> <i_i_glide_lignum>
420

> <i_i_glide_rotatable_bonds>
5

> <r_i_docking_score>
-11.195341413712

> <r_i_glide_ligand_efficiency>
-0.466472558904666

> <r_i_glide_ligand_efficiency_sa>
-1.3455396938555

> <r_i_glide_ligand_efficiency_ln>
-2.67955892104426

> <r_i_glide_gscore>
-11.195341413712

> <r_i_glide_lipo>
-3.7111042493156

> <r_i_glide_hbond>
-0.797906604319791

> <r_i_glide_metal>
0

> <r_i_glide_rewards>
-3.87358219370771

> <r_i_glide_evdw>
-48.0726661682129

> <r_i_glide_ecoul>
-7.57617855072021

> <r_i_glide_erotb>
0.727311724649799

> <r_i_glide_esite>
0

> <r_i_glide_emodel>
-77.6169248122728

> <r_i_glide_energy>
-55.6488447189331

> <r_i_glide_einternal>
6.54590272903442

> <i_i_glide_confnum>
124

> <i_i_glide_posenum>
87

> <r_i_glide_eff_state_penalty>
0

> <s_user_duplicate_titles>
CHEMBL3820_lig344

> <i_f3d_flags>
0

> <s_m_subgroup_title>
dock_pv

> <s_m_subgroupid>
dock_pv

> <b_m_subgroup_collapsed>
0

$$$$
CHEMBL3820_lig154
                    3D
 Schrodinger Suite 2021-1.
 37 39  0  0  1  0            999 V2000
  -10.1108    3.9798   20.5813 C   0  0  0  0  0  0
   -9.4420    4.8321   19.7061 C   0  0  0  0  0  0
   -8.4373    4.3060   18.8923 C   0  0  0  0  0  0
   -8.0750    2.9535   18.9809 C   0  0  0  0  0  0
   -8.6856    2.1054   19.9361 C   0  0  0  0  0  0
   -9.7383    2.6436   20.6831 C   0  0  0  0  0  0
   -8.2177    0.6807   20.2032 C   0  0  0  0  0  0
   -8.5214    0.1517   21.4079 N   0  0  0  0  0  0
   -7.5342    0.0838   19.3809 O   0  0  0  0  0  0
  -11.4889    4.4724   21.5551 S   0  0  0  0  0  0
   -7.0890    2.5050   18.1075 N   0  0  0  0  0  0
  -11.3968    6.2222   21.6746 C   0  0  0  0  0  0
  -12.1683    7.1004   20.9504 N   0  0  0  0  0  0
  -11.8889    8.3195   21.5143 C   0  0  0  0  0  0
  -11.0027    8.2164   22.4710 N   0  0  0  0  0  0
  -10.6913    6.8648   22.5751 N   0  0  0  0  0  0
  -13.1338    6.7999   19.9084 C   0  0  0  0  0  0
   -8.2368   -1.1356   21.8983 C   0  0  0  0  0  0
   -8.2886   -1.2365   23.2515 N   0  0  0  0  0  0
   -8.0515   -2.4442   23.8252 C   0  0  0  0  0  0
   -7.7598   -3.5892   23.0860 C   0  0  0  0  0  0
   -7.6996   -3.4808   21.6969 C   0  0  0  0  0  0
   -7.9345   -2.2465   21.0892 C   0  0  0  0  0  0
   -9.7160    5.8731   19.6125 H   0  0  0  0  0  0
   -7.9476    4.9554   18.1810 H   0  0  0  0  0  0
  -10.2866    2.0264   21.3809 H   0  0  0  0  0  0
   -8.9436    0.7742   22.0855 H   0  0  0  0  0  0
   -6.6908    3.1407   17.4223 H   0  0  0  0  0  0
   -6.8553    1.5182   18.1142 H   0  0  0  0  0  0
  -12.3662    9.2208   21.1574 H   0  0  0  0  0  0
  -13.8151    7.6377   19.7823 H   0  0  0  0  0  0
  -12.6050    6.6309   18.9708 H   0  0  0  0  0  0
  -13.7054    5.9121   20.1795 H   0  0  0  0  0  0
   -8.1034   -2.4856   24.9026 H   0  0  0  0  0  0
   -7.5841   -4.5374   23.5736 H   0  0  0  0  0  0
   -7.4773   -4.3483   21.0944 H   0  0  0  0  0  0
   -7.8885   -2.1872   20.0136 H   0  0  0  0  0  0
  1  6  1  0  0  0
  1  2  2  0  0  0
  1 10  1  0  0  0
  2  3  1  0  0  0
  2 24  1  0  0  0
  3  4  2  0  0  0
  3 25  1  0  0  0
  4  5  1  0  0  0
  4 11  1  0  0  0
  5  6  2  0  0  0
  5  7  1  0  0  0
  6 26  1  0  0  0
  7  8  1  0  0  0
  7  9  2  0  0  0
  8 18  1  0  0  0
  8 27  1  0  0  0
 10 12  1  0  0  0
 11 28  1  0  0  0
 11 29  1  0  0  0
 12 13  1  0  0  0
 12 16  2  0  0  0
 13 14  1  0  0  0
 13 17  1  0  0  0
 14 15  2  0  0  0
 14 30  1  0  0  0
 15 16  1  0  0  0
 17 31  1  0  0  0
 17 32  1  0  0  0
 17 33  1  0  0  0
 18 19  2  0  0  0
 18 23  1  0  0  0
 19 20  1  0  0  0
 20 21  2  0  0  0
 20 34  1  0  0  0
 21 22  1  0  0  0
 21 35  1  0  0  0
 22 23  2  0  0  0
 22 36  1  0  0  0
 23 37  1  0  0  0
M  END
> <s_m_entry_id>
5340

> <s_m_entry_name>
dock_pv.8

> <s_m_Source_Path>
/home/csk/Desktop/cluster/DUD-E-result/hxk4

> <s_m_Source_File>
dock_pv.maegz

> <i_m_Source_File_Index>
8

> <chembl_id>
CHEMBL505096

> <chembl_pref_name>
None

> <i_lp_mmshare_version>
53161

> <r_lp_tautomer_probability>
1

> <s_lp_Force_Field>
OPLS_2005

> <r_lp_Energy>
18.510939

> <b_lp_Chiralities_Consistent>
1

> <s_lp_Variant>
CHEMBL3820_lig154-1

> <s_i_glide_gridfile>
glide-grid_3f9m

> <i_i_glide_lignum>
171

> <i_i_glide_rotatable_bonds>
5

> <r_i_docking_score>
-11.0683794947581

> <r_i_glide_ligand_efficiency>
-0.48123389107644

> <r_i_glide_ligand_efficiency_sa>
-1.3685651709874

> <r_i_glide_ligand_efficiency_ln>
-2.67643452434894

> <r_i_glide_gscore>
-11.0683794947581

> <r_i_glide_lipo>
-3.41940046682401

> <r_i_glide_hbond>
-0.816161570271896

> <r_i_glide_metal>
0

> <r_i_glide_rewards>
-4.05062122444389

> <r_i_glide_evdw>
-47.3395195007324

> <r_i_glide_ecoul>
-8.63668632507324

> <r_i_glide_erotb>
0.880282690579291

> <r_i_glide_esite>
0

> <r_i_glide_emodel>
-82.1154051918625

> <r_i_glide_energy>
-55.9762058258057

> <r_i_glide_einternal>
5.3876805305481

> <i_i_glide_confnum>
129

> <i_i_glide_posenum>
89

> <r_i_glide_eff_state_penalty>
0

> <s_user_duplicate_titles>
CHEMBL3820_lig154,457869

> <i_f3d_flags>
0

> <s_m_subgroup_title>
dock_pv

> <s_m_subgroupid>
dock_pv

> <b_m_subgroup_collapsed>
0

$$$$
CHEMBL3820_lig157
                    3D
 Schrodinger Suite 2021-1.
 38 40  0  0  1  0            999 V2000
  -10.1711    4.0940   20.6495 C   0  0  0  0  0  0
   -9.5432    4.9811   19.7744 C   0  0  0  0  0  0
   -8.5499    4.5049   18.9214 C   0  0  0  0  0  0
   -8.1452    3.1663   18.9810 C   0  0  0  0  0  0
   -8.7236    2.2782   19.9132 C   0  0  0  0  0  0
   -9.7734    2.7639   20.6955 C   0  0  0  0  0  0
   -8.2423    0.8550   20.1168 C   0  0  0  0  0  0
   -8.3560    0.3650   21.3710 N   0  0  0  0  0  0
   -7.7357    0.2359   19.1882 O   0  0  0  0  0  0
  -11.4867    4.5408   21.7279 S   0  0  0  0  0  0
   -7.0890    2.7763   18.1810 N   0  0  0  0  0  0
  -11.5834    6.2874   21.6432 C   0  0  0  0  0  0
  -12.2884    6.9967   20.6990 N   0  0  0  0  0  0
  -12.1854    8.2920   21.1298 C   0  0  0  0  0  0
  -11.4765    8.3831   22.2253 N   0  0  0  0  0  0
  -11.0900    7.0889   22.5556 N   0  0  0  0  0  0
  -12.9804    6.5058   19.5217 C   0  0  0  0  0  0
   -8.0345   -0.9192   21.8489 C   0  0  0  0  0  0
   -7.8802   -1.0376   23.2301 C   0  0  0  0  0  0
   -7.5974   -2.2748   23.8032 C   0  0  0  0  0  0
   -7.4632   -3.3964   22.9892 C   0  0  0  0  0  0
   -7.6034   -3.2900   21.6083 C   0  0  0  0  0  0
   -7.8905   -2.0544   21.0354 C   0  0  0  0  0  0
   -9.8216    6.0229   19.7249 H   0  0  0  0  0  0
   -8.0729    5.1893   18.2343 H   0  0  0  0  0  0
  -10.2887    2.1055   21.3798 H   0  0  0  0  0  0
   -8.6934    1.0109   22.0739 H   0  0  0  0  0  0
   -6.7172    3.4300   17.4918 H   0  0  0  0  0  0
   -6.8784    1.7864   18.1271 H   0  0  0  0  0  0
  -12.6773    9.0928   20.5918 H   0  0  0  0  0  0
  -13.0889    7.3048   18.7910 H   0  0  0  0  0  0
  -12.4070    5.7008   19.0697 H   0  0  0  0  0  0
  -13.9678    6.1463   19.8109 H   0  0  0  0  0  0
   -7.9662   -0.1643   23.8592 H   0  0  0  0  0  0
   -7.4763   -2.3641   24.8725 H   0  0  0  0  0  0
   -7.2417   -4.3573   23.4310 H   0  0  0  0  0  0
   -7.4895   -4.1628   20.9827 H   0  0  0  0  0  0
   -7.9899   -2.0031   19.9638 H   0  0  0  0  0  0
  1  6  1  0  0  0
  1  2  2  0  0  0
  1 10  1  0  0  0
  2  3  1  0  0  0
  2 24  1  0  0  0
  3  4  2  0  0  0
  3 25  1  0  0  0
  4  5  1  0  0  0
  4 11  1  0  0  0
  5  6  2  0  0  0
  5  7  1  0  0  0
  6 26  1  0  0  0
  7  8  1  0  0  0
  7  9  2  0  0  0
  8 18  1  0  0  0
  8 27  1  0  0  0
 10 12  1  0  0  0
 11 28  1  0  0  0
 11 29  1  0  0  0
 12 13  1  0  0  0
 12 16  2  0  0  0
 13 14  1  0  0  0
 13 17  1  0  0  0
 14 15  2  0  0  0
 14 30  1  0  0  0
 15 16  1  0  0  0
 17 31  1  0  0  0
 17 32  1  0  0  0
 17 33  1  0  0  0
 18 19  2  0  0  0
 18 23  1  0  0  0
 19 20  1  0  0  0
 19 34  1  0  0  0
 20 21  2  0  0  0
 20 35  1  0  0  0
 21 22  1  0  0  0
 21 36  1  0  0  0
 22 23  2  0  0  0
 22 37  1  0  0  0
 23 38  1  0  0  0
M  END
> <s_m_entry_id>
5341

> <s_m_entry_name>
dock_pv.9

> <s_m_Source_Path>
/home/csk/Desktop/cluster/DUD-E-result/hxk4

> <s_m_Source_File>
dock_pv.maegz

> <i_m_Source_File_Index>
9

> <chembl_id>
CHEMBL453735

> <chembl_pref_name>
None

> <i_lp_mmshare_version>
53161

> <r_lp_tautomer_probability>
1

> <s_lp_Force_Field>
OPLS_2005

> <r_lp_Energy>
26.115542

> <b_lp_Chiralities_Consistent>
1

> <s_lp_Variant>
CHEMBL3820_lig157-1

> <s_i_glide_gridfile>
glide-grid_3f9m

> <i_i_glide_lignum>
174

> <i_i_glide_rotatable_bonds>
5

> <r_i_docking_score>
-10.8332147095216

> <r_i_glide_ligand_efficiency>
-0.471009335196591

> <r_i_glide_ligand_efficiency_sa>
-1.33948789416744

> <r_i_glide_ligand_efficiency_ln>
-2.61956954692237

> <r_i_glide_gscore>
-10.8332147095216

> <r_i_glide_lipo>
-3.69959973420286

> <r_i_glide_hbond>
-0.608

> <r_i_glide_metal>
0

> <r_i_glide_rewards>
-3.93322877677057

> <r_i_glide_evdw>
-41.696460723877

> <r_i_glide_ecoul>
-9.28379821777344

> <r_i_glide_erotb>
0.885006570311705

> <r_i_glide_esite>
0

> <r_i_glide_emodel>
-77.1218894402952

> <r_i_glide_energy>
-50.9802589416504

> <r_i_glide_einternal>
3.7319438457489

> <i_i_glide_confnum>
206

> <i_i_glide_posenum>
48

> <r_i_glide_eff_state_penalty>
0

> <s_user_duplicate_titles>
CHEMBL3820_lig157

> <i_f3d_flags>
0

> <s_m_subgroup_title>
dock_pv

> <s_m_subgroupid>
dock_pv

> <b_m_subgroup_collapsed>
0

$$$$
CHEMBL3820_lig150
                    3D
 Schrodinger Suite 2021-1.
 38 40  0  0  1  0            999 V2000
  -10.1026    3.9267   20.6002 C   0  0  0  0  0  0
   -9.4419    4.7924   19.7311 C   0  0  0  0  0  0
   -8.4390    4.2830   18.9062 C   0  0  0  0  0  0
   -8.0636    2.9340   18.9808 C   0  0  0  0  0  0
   -8.6550    2.0755   19.9422 C   0  0  0  0  0  0
   -9.7139    2.5958   20.6911 C   0  0  0  0  0  0
   -8.1715    0.6549   20.2113 C   0  0  0  0  0  0
   -8.4661    0.1161   21.4194 N   0  0  0  0  0  0
   -7.4892    0.0728   19.3805 O   0  0  0  0  0  0
   -8.1304   -1.1536   21.9002 C   0  0  0  0  0  0
   -8.2888   -1.4484   23.1669 N   0  0  0  0  0  0
   -7.9319   -2.6900   23.4532 C   0  0  0  0  0  0
   -7.4779   -3.4476   22.3794 C   0  0  0  0  0  0
   -7.5032   -2.4818   20.9431 S   0  0  0  0  0  0
   -8.0575   -3.1250   24.8928 C   0  0  0  0  0  0
  -11.4890    4.3982   21.5745 S   0  0  0  0  0  0
   -7.0891    2.5050   18.0845 N   0  0  0  0  0  0
  -11.4177    6.1510   21.6740 C   0  0  0  0  0  0
  -12.1804    7.0035   20.9082 N   0  0  0  0  0  0
  -11.8899    8.2558   21.3811 C   0  0  0  0  0  0
  -10.9579    8.0700   22.3834 C   0  0  0  0  0  0
  -10.6890    6.7920   22.5579 N   0  0  0  0  0  0
  -13.1559    6.6518   19.8919 C   0  0  0  0  0  0
   -9.7264    5.8310   19.6459 H   0  0  0  0  0  0
   -7.9625    4.9426   18.1950 H   0  0  0  0  0  0
  -10.2557    1.9651   21.3809 H   0  0  0  0  0  0
   -8.8800    0.7422   22.0994 H   0  0  0  0  0  0
   -7.1402   -4.4737   22.3648 H   0  0  0  0  0  0
   -7.7148   -4.1505   25.0336 H   0  0  0  0  0  0
   -9.0898   -3.0915   25.2390 H   0  0  0  0  0  0
   -7.4592   -2.4988   25.5549 H   0  0  0  0  0  0
   -6.6989    3.1551   17.4080 H   0  0  0  0  0  0
   -6.8424    1.5218   18.0776 H   0  0  0  0  0  0
  -12.3542    9.1402   20.9671 H   0  0  0  0  0  0
  -10.4888    8.8425   22.9760 H   0  0  0  0  0  0
  -13.8852    7.4511   19.7818 H   0  0  0  0  0  0
  -12.6429    6.5043   18.9416 H   0  0  0  0  0  0
  -13.6743    5.7366   20.1797 H   0  0  0  0  0  0
  1  6  1  0  0  0
  1  2  2  0  0  0
  1 16  1  0  0  0
  2  3  1  0  0  0
  2 24  1  0  0  0
  3  4  2  0  0  0
  3 25  1  0  0  0
  4 17  1  0  0  0
  4  5  1  0  0  0
  5  6  2  0  0  0
  5  7  1  0  0  0
  6 26  1  0  0  0
  7  8  1  0  0  0
  7  9  2  0  0  0
  8 10  1  0  0  0
  8 27  1  0  0  0
 10 14  1  0  0  0
 10 11  2  0  0  0
 11 12  1  0  0  0
 12 13  2  0  0  0
 12 15  1  0  0  0
 13 14  1  0  0  0
 13 28  1  0  0  0
 15 29  1  0  0  0
 15 30  1  0  0  0
 15 31  1  0  0  0
 16 18  1  0  0  0
 17 32  1  0  0  0
 17 33  1  0  0  0
 18 19  1  0  0  0
 18 22  2  0  0  0
 19 20  1  0  0  0
 19 23  1  0  0  0
 20 21  2  0  0  0
 20 34  1  0  0  0
 21 22  1  0  0  0
 21 35  1  0  0  0
 23 36  1  0  0  0
 23 37  1  0  0  0
 23 38  1  0  0  0
M  END
> <s_m_entry_id>
5342

> <s_m_entry_name>
dock_pv.10

> <s_m_Source_Path>
/home/csk/Desktop/cluster/DUD-E-result/hxk4

> <s_m_Source_File>
dock_pv.maegz

> <i_m_Source_File_Index>
10

> <chembl_id>
CHEMBL489335

> <chembl_pref_name>
None

> <i_lp_mmshare_version>
53161

> <r_lp_tautomer_probability>
0.999000488399163

> <s_lp_Force_Field>
OPLS_2005

> <r_lp_Energy>
15.071692

> <b_lp_Chiralities_Consistent>
1

> <s_lp_Variant>
CHEMBL3820_lig150-1

> <s_i_glide_gridfile>
glide-grid_3f9m

> <i_i_glide_lignum>
166

> <i_i_glide_rotatable_bonds>
5

> <r_i_docking_score>
-10.8237368337288

> <r_i_glide_ligand_efficiency>
-0.470597253640383

> <r_i_glide_ligand_efficiency_sa>
-1.33831598903796

> <r_i_glide_ligand_efficiency_ln>
-2.61727771061505

> <r_i_glide_gscore>
-10.8237368337288

> <r_i_glide_lipo>
-3.71301515168044

> <r_i_glide_hbond>
-0.77640410857766

> <r_i_glide_metal>
0

> <r_i_glide_rewards>
-3.61848577638776

> <r_i_glide_evdw>
-47.5709648132324

> <r_i_glide_ecoul>
-7.55584859848022

> <r_i_glide_erotb>
0.7960937333507

> <r_i_glide_esite>
0

> <r_i_glide_emodel>
-81.3593845526648

> <r_i_glide_energy>
-55.1268134117126

> <r_i_glide_einternal>
0.976381897926331

> <i_i_glide_confnum>
8

> <i_i_glide_posenum>
170

> <r_i_glide_eff_state_penalty>
0

> <s_user_duplicate_titles>
CHEMBL3820_lig150,457805

> <i_f3d_flags>
0

> <s_m_subgroup_title>
dock_pv

> <s_m_subgroupid>
dock_pv

> <b_m_subgroup_collapsed>
0

$$$$
CHEMBL3820_lig158
                    3D
 Schrodinger Suite 2021-1.
 34 36  0  0  1  0            999 V2000
  -10.0945    3.9820   20.5811 C   0  0  0  0  0  0
   -9.4231    4.8342   19.7068 C   0  0  0  0  0  0
   -8.4188    4.3067   18.8938 C   0  0  0  0  0  0
   -8.0600    2.9532   18.9807 C   0  0  0  0  0  0
   -8.6693    2.1051   19.9368 C   0  0  0  0  0  0
   -9.7209    2.6471   20.6836 C   0  0  0  0  0  0
   -8.2136    0.6759   20.2044 C   0  0  0  0  0  0
   -8.5189    0.1765   21.4233 N   0  0  0  0  0  0
   -7.5404    0.0651   19.3809 O   0  0  0  0  0  0
  -11.4890    4.4669   21.5345 S   0  0  0  0  0  0
   -7.0890    2.5049   18.0919 N   0  0  0  0  0  0
  -11.4066    6.2163   21.6608 C   0  0  0  0  0  0
  -12.1679    7.0946   20.9264 N   0  0  0  0  0  0
  -11.8889    8.3148   21.4863 C   0  0  0  0  0  0
  -11.0304    8.2095   22.4673 N   0  0  0  0  0  0
  -10.7240    6.8572   22.5793 N   0  0  0  0  0  0
  -13.0470    6.8137   19.8073 C   0  0  0  0  0  0
   -8.2419   -1.0882   21.9338 C   0  0  0  0  0  0
   -8.2890   -1.3060   23.2243 N   0  0  0  0  0  0
   -8.0529   -2.5687   23.5248 C   0  0  0  0  0  0
   -7.8091   -3.4246   22.4552 C   0  0  0  0  0  0
   -7.8890   -2.5125   20.9810 S   0  0  0  0  0  0
   -9.6984    5.8744   19.6119 H   0  0  0  0  0  0
   -7.9296    4.9549   18.1803 H   0  0  0  0  0  0
  -10.2717    2.0308   21.3807 H   0  0  0  0  0  0
   -8.8760    0.8415   22.0990 H   0  0  0  0  0  0
   -6.6927    3.1463   17.4101 H   0  0  0  0  0  0
   -6.8587    1.5182   18.0856 H   0  0  0  0  0  0
  -12.3377    9.2198   21.1030 H   0  0  0  0  0  0
  -13.0673    7.6742   19.1427 H   0  0  0  0  0  0
  -12.6897    5.9412   19.2600 H   0  0  0  0  0  0
  -14.0528    6.6203   20.1798 H   0  0  0  0  0  0
   -8.0668   -2.8715   24.5616 H   0  0  0  0  0  0
   -7.6005   -4.4850   22.4578 H   0  0  0  0  0  0
  1  6  1  0  0  0
  1  2  2  0  0  0
  1 10  1  0  0  0
  2  3  1  0  0  0
  2 23  1  0  0  0
  3  4  2  0  0  0
  3 24  1  0  0  0
  4 11  1  0  0  0
  4  5  1  0  0  0
  5  6  2  0  0  0
  5  7  1  0  0  0
  6 25  1  0  0  0
  7  8  1  0  0  0
  7  9  2  0  0  0
  8 18  1  0  0  0
  8 26  1  0  0  0
 10 12  1  0  0  0
 11 27  1  0  0  0
 11 28  1  0  0  0
 12 13  1  0  0  0
 12 16  2  0  0  0
 13 14  1  0  0  0
 13 17  1  0  0  0
 14 15  2  0  0  0
 14 29  1  0  0  0
 15 16  1  0  0  0
 17 30  1  0  0  0
 17 31  1  0  0  0
 17 32  1  0  0  0
 18 19  2  0  0  0
 18 22  1  0  0  0
 19 20  1  0  0  0
 20 21  2  0  0  0
 20 33  1  0  0  0
 21 22  1  0  0  0
 21 34  1  0  0  0
M  END
> <s_m_entry_id>
5343

> <s_m_entry_name>
dock_pv.11

> <s_m_Source_Path>
/home/csk/Desktop/cluster/DUD-E-result/hxk4

> <s_m_Source_File>
dock_pv.maegz

> <i_m_Source_File_Index>
11

> <chembl_id>
CHEMBL491121

> <chembl_pref_name>
None

> <i_lp_mmshare_version>
53161

> <r_lp_tautomer_probability>
0.999000488399163

> <s_lp_Force_Field>
OPLS_2005

> <r_lp_Energy>
14.701149

> <b_lp_Chiralities_Consistent>
1

> <s_lp_Variant>
CHEMBL3820_lig158-1

> <s_i_glide_gridfile>
glide-grid_3f9m

> <i_i_glide_lignum>
175

> <i_i_glide_rotatable_bonds>
5

> <r_i_docking_score>
-10.7764270517718

> <r_i_glide_ligand_efficiency>
-0.489837593262352

> <r_i_glide_ligand_efficiency_sa>
-1.37254420054049

> <r_i_glide_ligand_efficiency_ln>
-2.63415185118048

> <r_i_glide_gscore>
-10.7764270517718

> <r_i_glide_lipo>
-3.17222146582932

> <r_i_glide_hbond>
-0.80493715142953

> <r_i_glide_metal>
0

> <r_i_glide_rewards>
-4.00944219250269

> <r_i_glide_evdw>
-47.2385749816895

> <r_i_glide_ecoul>
-8.53442859649658

> <r_i_glide_erotb>
0.852266796548741

> <r_i_glide_esite>
0

> <r_i_glide_emodel>
-82.8671685688858

> <r_i_glide_energy>
-55.773003578186

> <r_i_glide_einternal>
0.985639691352844

> <i_i_glide_confnum>
70

> <i_i_glide_posenum>
90

> <r_i_glide_eff_state_penalty>
0

> <s_user_duplicate_titles>
CHEMBL3820_lig158,457932

> <i_f3d_flags>
0

> <s_m_subgroup_title>
dock_pv

> <s_m_subgroupid>
dock_pv

> <b_m_subgroup_collapsed>
0

$$$$
CHEMBL3820_lig156
                    3D
 Schrodinger Suite 2021-1.
 37 39  0  0  1  0            999 V2000
  -10.1222    3.9637   20.5843 C   0  0  0  0  0  0
   -9.4575    4.8216   19.7087 C   0  0  0  0  0  0
   -8.4503    4.3024   18.8927 C   0  0  0  0  0  0
   -8.0786    2.9521   18.9809 C   0  0  0  0  0  0
   -8.6846    2.1046   19.9379 C   0  0  0  0  0  0
   -9.7418    2.6315   20.6820 C   0  0  0  0  0  0
   -8.2006    0.6921   20.2254 C   0  0  0  0  0  0
   -8.3932    0.2373   21.4801 N   0  0  0  0  0  0
   -7.5970    0.0442   19.3809 O   0  0  0  0  0  0
  -11.4889    4.4405   21.5816 S   0  0  0  0  0  0
   -7.0891    2.5049   18.1093 N   0  0  0  0  0  0
  -11.4296    6.1911   21.6625 C   0  0  0  0  0  0
  -12.1779    7.0371   20.8790 N   0  0  0  0  0  0
  -11.8890    8.2801   21.3811 C   0  0  0  0  0  0
  -11.0575    8.2135   22.3885 N   0  0  0  0  0  0
  -10.7688    6.8657   22.5727 N   0  0  0  0  0  0
  -13.0531    6.7014   19.7698 C   0  0  0  0  0  0
   -8.0612   -1.0228   22.0052 C   0  0  0  0  0  0
   -7.9605   -2.1999   21.2448 C   0  0  0  0  0  0
   -7.6419   -3.3939   21.8947 C   0  0  0  0  0  0
   -7.4258   -3.4708   23.2316 N   0  0  0  0  0  0
   -7.5260   -2.3267   23.9537 C   0  0  0  0  0  0
   -7.8414   -1.0930   23.3810 C   0  0  0  0  0  0
   -9.7335    5.8621   19.6214 H   0  0  0  0  0  0
   -7.9619    4.9557   18.1833 H   0  0  0  0  0  0
  -10.2803    2.0069   21.3810 H   0  0  0  0  0  0
   -8.7528    0.9067   22.1499 H   0  0  0  0  0  0
   -6.6947    3.1422   17.4231 H   0  0  0  0  0  0
   -6.8661    1.5164   18.1021 H   0  0  0  0  0  0
  -12.3247    9.1708   20.9510 H   0  0  0  0  0  0
  -13.0871    7.5269   19.0633 H   0  0  0  0  0  0
  -12.6888    5.8074   19.2638 H   0  0  0  0  0  0
  -14.0567    6.5139   20.1518 H   0  0  0  0  0  0
   -8.1288   -2.2057   20.1810 H   0  0  0  0  0  0
   -7.5554   -4.3186   21.3437 H   0  0  0  0  0  0
   -7.3377   -2.4118   25.0137 H   0  0  0  0  0  0
   -7.8888   -0.2034   23.9926 H   0  0  0  0  0  0
  1  6  1  0  0  0
  1  2  2  0  0  0
  1 10  1  0  0  0
  2  3  1  0  0  0
  2 24  1  0  0  0
  3  4  2  0  0  0
  3 25  1  0  0  0
  4  5  1  0  0  0
  4 11  1  0  0  0
  5  6  2  0  0  0
  5  7  1  0  0  0
  6 26  1  0  0  0
  7  8  1  0  0  0
  7  9  2  0  0  0
  8 18  1  0  0  0
  8 27  1  0  0  0
 10 12  1  0  0  0
 11 28  1  0  0  0
 11 29  1  0  0  0
 12 13  1  0  0  0
 12 16  2  0  0  0
 13 14  1  0  0  0
 13 17  1  0  0  0
 14 15  2  0  0  0
 14 30  1  0  0  0
 15 16  1  0  0  0
 17 31  1  0  0  0
 17 32  1  0  0  0
 17 33  1  0  0  0
 18 19  2  0  0  0
 18 23  1  0  0  0
 19 20  1  0  0  0
 19 34  1  0  0  0
 20 21  2  0  0  0
 20 35  1  0  0  0
 21 22  1  0  0  0
 22 23  2  0  0  0
 22 36  1  0  0  0
 23 37  1  0  0  0
M  END
> <s_m_entry_id>
5344

> <s_m_entry_name>
dock_pv.12

> <s_m_Source_Path>
/home/csk/Desktop/cluster/DUD-E-result/hxk4

> <s_m_Source_File>
dock_pv.maegz

> <i_m_Source_File_Index>
12

> <chembl_id>
CHEMBL489325

> <chembl_pref_name>
None

> <i_lp_mmshare_version>
53161

> <r_lp_tautomer_probability>
1

> <s_lp_Force_Field>
OPLS_2005

> <r_lp_Energy>
23.742535

> <b_lp_Chiralities_Consistent>
1

> <s_lp_Variant>
CHEMBL3820_lig156-1

> <s_i_glide_gridfile>
glide-grid_3f9m

> <i_i_glide_lignum>
173

> <i_i_glide_rotatable_bonds>
5

> <r_i_docking_score>
-10.7698444068189

> <r_i_glide_ligand_efficiency>
-0.468254104644299

> <r_i_glide_ligand_efficiency_sa>
-1.33165238498608

> <r_i_glide_ligand_efficiency_ln>
-2.60424603311871

> <r_i_glide_gscore>
-10.7698444068189

> <r_i_glide_lipo>
-3.44134709329183

> <r_i_glide_hbond>
-0.608

> <r_i_glide_metal>
0

> <r_i_glide_rewards>
-4.02583412512378

> <r_i_glide_evdw>
-46.0814208984375

> <r_i_glide_ecoul>
-8.47249889373779

> <r_i_glide_erotb>
0.880282690579291

> <r_i_glide_esite>
0

> <r_i_glide_emodel>
-81.2339689146531

> <r_i_glide_energy>
-54.5539197921753

> <r_i_glide_einternal>
1.79970514774323

> <i_i_glide_confnum>
122

> <i_i_glide_posenum>
382

> <r_i_glide_eff_state_penalty>
0

> <s_user_duplicate_titles>
CHEMBL3820_lig156

> <i_f3d_flags>
0

> <s_m_subgroup_title>
dock_pv

> <s_m_subgroupid>
dock_pv

> <b_m_subgroup_collapsed>
0

$$$$
CHEMBL3820_lig155
                    3D
 Schrodinger Suite 2021-1.
 37 39  0  0  1  0            999 V2000
  -10.0921    3.9981   20.5811 C   0  0  0  0  0  0
   -9.4189    4.8464   19.7034 C   0  0  0  0  0  0
   -8.4174    4.3144   18.8904 C   0  0  0  0  0  0
   -8.0615    2.9604   18.9808 C   0  0  0  0  0  0
   -8.6700    2.1184   19.9412 C   0  0  0  0  0  0
   -9.7207    2.6625   20.6862 C   0  0  0  0  0  0
   -8.2089    0.6973   20.2226 C   0  0  0  0  0  0
   -8.4403    0.2364   21.4690 N   0  0  0  0  0  0
   -7.6046    0.0445   19.3809 O   0  0  0  0  0  0
  -11.4889    4.4863   21.5282 S   0  0  0  0  0  0
   -7.0890    2.5050   18.0977 N   0  0  0  0  0  0
  -11.4246    6.2379   21.6229 C   0  0  0  0  0  0
  -12.1225    7.1056   20.8146 N   0  0  0  0  0  0
  -11.8891    8.3325   21.3815 C   0  0  0  0  0  0
  -11.1098    8.2431   22.4272 N   0  0  0  0  0  0
  -10.8147    6.8936   22.5806 N   0  0  0  0  0  0
  -12.9173    6.8149   19.6344 C   0  0  0  0  0  0
   -8.1324   -1.0289   21.9964 C   0  0  0  0  0  0
   -8.0945   -2.2119   21.2412 C   0  0  0  0  0  0
   -7.8337   -3.4294   21.7817 N   0  0  0  0  0  0
   -7.6005   -3.4910   23.1166 C   0  0  0  0  0  0
   -7.6139   -2.3647   23.9418 C   0  0  0  0  0  0
   -7.8841   -1.1201   23.3686 C   0  0  0  0  0  0
   -9.6921    5.8872   19.6057 H   0  0  0  0  0  0
   -7.9269    4.9599   18.1760 H   0  0  0  0  0  0
  -10.2736    2.0454   21.3802 H   0  0  0  0  0  0
   -8.8246    0.9007   22.1300 H   0  0  0  0  0  0
   -6.6923    3.1410   17.4111 H   0  0  0  0  0  0
   -6.8716    1.5151   18.0903 H   0  0  0  0  0  0
  -12.3088    9.2313   20.9528 H   0  0  0  0  0  0
  -12.6889    7.5391   18.8532 H   0  0  0  0  0  0
  -12.6923    5.8142   19.2663 H   0  0  0  0  0  0
  -13.9747    6.8669   19.8928 H   0  0  0  0  0  0
   -8.2863   -2.2105   20.1812 H   0  0  0  0  0  0
   -7.3956   -4.4714   23.5220 H   0  0  0  0  0  0
   -7.4152   -2.4539   24.9989 H   0  0  0  0  0  0
   -7.8882   -0.2323   23.9843 H   0  0  0  0  0  0
  1  6  1  0  0  0
  1  2  2  0  0  0
  1 10  1  0  0  0
  2  3  1  0  0  0
  2 24  1  0  0  0
  3  4  2  0  0  0
  3 25  1  0  0  0
  4  5  1  0  0  0
  4 11  1  0  0  0
  5  6  2  0  0  0
  5  7  1  0  0  0
  6 26  1  0  0  0
  7  8  1  0  0  0
  7  9  2  0  0  0
  8 18  1  0  0  0
  8 27  1  0  0  0
 10 12  1  0  0  0
 11 28  1  0  0  0
 11 29  1  0  0  0
 12 13  1  0  0  0
 12 16  2  0  0  0
 13 14  1  0  0  0
 13 17  1  0  0  0
 14 15  2  0  0  0
 14 30  1  0  0  0
 15 16  1  0  0  0
 17 31  1  0  0  0
 17 32  1  0  0  0
 17 33  1  0  0  0
 18 19  2  0  0  0
 18 23  1  0  0  0
 19 20  1  0  0  0
 19 34  1  0  0  0
 20 21  2  0  0  0
 21 22  1  0  0  0
 21 35  1  0  0  0
 22 23  2  0  0  0
 22 36  1  0  0  0
 23 37  1  0  0  0
M  END
> <s_m_entry_id>
5345

> <s_m_entry_name>
dock_pv.13

> <s_m_Source_Path>
/home/csk/Desktop/cluster/DUD-E-result/hxk4

> <s_m_Source_File>
dock_pv.maegz

> <i_m_Source_File_Index>
13

> <chembl_id>
CHEMBL489712

> <chembl_pref_name>
None

> <i_lp_mmshare_version>
53161

> <r_lp_tautomer_probability>
1

> <s_lp_Force_Field>
OPLS_2005

> <r_lp_Energy>
22.686843

> <b_lp_Chiralities_Consistent>
1

> <s_lp_Variant>
CHEMBL3820_lig155-1

> <s_i_glide_gridfile>
glide-grid_3f9m

> <i_i_glide_lignum>
172

> <i_i_glide_rotatable_bonds>
5

> <r_i_docking_score>
-10.6918820813769

> <r_i_glide_ligand_efficiency>
-0.464864438320736

> <r_i_glide_ligand_efficiency_sa>
-1.32201262486586

> <r_i_glide_ligand_efficiency_ln>
-2.58539403590357

> <r_i_glide_gscore>
-10.6918820813769

> <r_i_glide_lipo>
-3.32387328953458

> <r_i_glide_hbond>
-0.608

> <r_i_glide_metal>
0

> <r_i_glide_rewards>
-3.9990307154386

> <r_i_glide_evdw>
-47.0128173828125

> <r_i_glide_ecoul>
-8.60413265228271

> <r_i_glide_erotb>
0.880282690579291

> <r_i_glide_esite>
0

> <r_i_glide_emodel>
-80.4447562240418

> <r_i_glide_energy>
-55.6169500350952

> <r_i_glide_einternal>
5.8948974609375

> <i_i_glide_confnum>
71

> <i_i_glide_posenum>
292

> <r_i_glide_eff_state_penalty>
0

> <s_user_duplicate_titles>
CHEMBL3820_lig155

> <i_f3d_flags>
0

> <s_m_subgroup_title>
dock_pv

> <s_m_subgroupid>
dock_pv

> <b_m_subgroup_collapsed>
0

$$$$
CHEMBL3820_lig268
                    3D
 Schrodinger Suite 2021-1.
 43 45  0  0  1  0            999 V2000
   -9.9145    4.0753   20.5945 C   0  0  0  0  0  0
   -9.2539    4.8904   19.6683 C   0  0  0  0  0  0
   -8.3446    4.3287   18.7768 C   0  0  0  0  0  0
   -8.0142    2.9737   18.8530 C   0  0  0  0  0  0
   -8.5953    2.1538   19.8484 C   0  0  0  0  0  0
   -9.5957    2.7211   20.6521 C   0  0  0  0  0  0
   -9.4757    6.2187   19.6152 F   0  0  0  0  0  0
   -7.0897    2.5048   17.9241 N   0  0  0  0  0  0
  -11.0887    4.6974   21.7809 S   0  0  0  0  0  0
  -11.9183    5.9415   20.8702 C   0  0  0  0  0  0
  -11.9286    7.2790   21.1908 N   0  0  0  0  0  0
  -12.6888    7.8576   20.2123 C   0  0  0  0  0  0
  -13.0876    6.8343   19.3820 C   0  0  0  0  0  0
  -12.6021    5.6879   19.7837 N   0  0  0  0  0  0
   -8.1185    0.7407   20.1277 C   0  0  0  0  0  0
   -7.5199    0.1049   19.2702 O   0  0  0  0  0  0
   -8.3119    0.2765   21.3812 N   0  0  0  0  0  0
  -11.2738    7.9403   22.3042 C   0  0  0  0  0  0
   -8.0159   -0.9999   21.8963 C   0  0  0  0  0  0
   -7.8895   -1.0966   23.2809 C   0  0  0  0  0  0
   -7.6886   -2.3364   23.8840 C   0  0  0  0  0  0
   -7.5968   -3.4958   23.0987 C   0  0  0  0  0  0
   -7.6803   -3.3882   21.7132 C   0  0  0  0  0  0
   -7.8904   -2.1535   21.1092 C   0  0  0  0  0  0
   -7.4236   -4.7701   23.5988 O   0  0  0  0  0  0
   -7.4675   -4.9794   25.0049 C   0  0  0  0  0  0
   -7.8895    4.9674   18.0349 H   0  0  0  0  0  0
  -10.1165    2.1192   21.3809 H   0  0  0  0  0  0
   -6.6893    3.1486   17.2463 H   0  0  0  0  0  0
   -6.8522    1.5194   17.9305 H   0  0  0  0  0  0
  -12.8681    8.9233   20.1815 H   0  0  0  0  0  0
  -13.7041    6.9050   18.4986 H   0  0  0  0  0  0
   -8.6876    0.9340   22.0525 H   0  0  0  0  0  0
  -11.5330    8.9998   22.3100 H   0  0  0  0  0  0
  -11.6023    7.4863   23.2391 H   0  0  0  0  0  0
  -10.1937    7.8408   22.1920 H   0  0  0  0  0  0
   -7.9462   -0.2073   23.8912 H   0  0  0  0  0  0
   -7.6057   -2.3820   24.9583 H   0  0  0  0  0  0
   -7.5966   -4.2756   21.1043 H   0  0  0  0  0  0
   -7.9635   -2.1213   20.0346 H   0  0  0  0  0  0
   -7.3795   -6.0463   25.2118 H   0  0  0  0  0  0
   -8.4130   -4.6396   25.4302 H   0  0  0  0  0  0
   -6.6431   -4.4745   25.5104 H   0  0  0  0  0  0
  1  9  1  0  0  0
  1  6  1  0  0  0
  1  2  2  0  0  0
  2  7  1  0  0  0
  2  3  1  0  0  0
  3  4  2  0  0  0
  3 27  1  0  0  0
  4  8  1  0  0  0
  4  5  1  0  0  0
  5 15  1  0  0  0
  5  6  2  0  0  0
  6 28  1  0  0  0
  8 29  1  0  0  0
  8 30  1  0  0  0
  9 10  1  0  0  0
 10 14  2  0  0  0
 10 11  1  0  0  0
 11 12  1  0  0  0
 11 18  1  0  0  0
 12 13  2  0  0  0
 12 31  1  0  0  0
 13 14  1  0  0  0
 13 32  1  0  0  0
 15 16  2  0  0  0
 15 17  1  0  0  0
 17 19  1  0  0  0
 17 33  1  0  0  0
 18 34  1  0  0  0
 18 35  1  0  0  0
 18 36  1  0  0  0
 19 20  2  0  0  0
 19 24  1  0  0  0
 20 21  1  0  0  0
 20 37  1  0  0  0
 21 22  2  0  0  0
 21 38  1  0  0  0
 22 23  1  0  0  0
 22 25  1  0  0  0
 23 24  2  0  0  0
 23 39  1  0  0  0
 24 40  1  0  0  0
 25 26  1  0  0  0
 26 41  1  0  0  0
 26 42  1  0  0  0
 26 43  1  0  0  0
M  END
> <s_m_entry_id>
5346

> <s_m_entry_name>
dock_pv.14

> <s_m_Source_Path>
/home/csk/Desktop/cluster/DUD-E-result/hxk4

> <s_m_Source_File>
dock_pv.maegz

> <i_m_Source_File_Index>
14

> <chembl_id>
CHEMBL391800

> <chembl_pref_name>
None

> <i_lp_mmshare_version>
53161

> <r_lp_tautomer_probability>
1

> <s_lp_Force_Field>
OPLS_2005

> <r_lp_Energy>
29.272051

> <b_lp_Chiralities_Consistent>
1

> <s_lp_Variant>
CHEMBL3820_lig268-1

> <s_i_glide_gridfile>
glide-grid_3f9m

> <i_i_glide_lignum>
327

> <i_i_glide_rotatable_bonds>
6

> <r_i_docking_score>
-10.6852457051289

> <r_i_glide_ligand_efficiency>
-0.410970988658804

> <r_i_glide_ligand_efficiency_sa>
-1.21749993680895

> <r_i_glide_ligand_efficiency_ln>
-2.50939489269865

> <r_i_glide_gscore>
-10.6852457051289

> <r_i_glide_lipo>
-3.75434909047928

> <r_i_glide_hbond>
-0.608

> <r_i_glide_metal>
0

> <r_i_glide_rewards>
-3.63416190948237

> <r_i_glide_evdw>
-43.2697944641113

> <r_i_glide_ecoul>
-8.14345645904541

> <r_i_glide_erotb>
0.696273486895115

> <r_i_glide_esite>
0

> <r_i_glide_emodel>
-70.2011868577951

> <r_i_glide_energy>
-51.4132509231567

> <r_i_glide_einternal>
13.9831638336182

> <i_i_glide_confnum>
41

> <i_i_glide_posenum>
302

> <r_i_glide_eff_state_penalty>
0

> <s_user_duplicate_titles>
CHEMBL3820_lig268

> <i_f3d_flags>
0

> <s_m_subgroup_title>
dock_pv

> <s_m_subgroupid>
dock_pv

> <b_m_subgroup_collapsed>
0

$$$$
CHEMBL3820_lig159
                    3D
 Schrodinger Suite 2021-1.
 37 39  0  0  1  0            999 V2000
  -10.0994    3.9975   20.5813 C   0  0  0  0  0  0
   -9.4217    4.8461   19.7077 C   0  0  0  0  0  0
   -8.4193    4.3135   18.8956 C   0  0  0  0  0  0
   -8.0682    2.9578   18.9809 C   0  0  0  0  0  0
   -8.6878    2.1121   19.9341 C   0  0  0  0  0  0
   -9.7346    2.6594   20.6818 C   0  0  0  0  0  0
   -8.2444    0.6783   20.1928 C   0  0  0  0  0  0
   -8.5897    0.1289   21.3812 N   0  0  0  0  0  0
   -7.5404    0.0845   19.3809 O   0  0  0  0  0  0
  -11.4890    4.4917   21.5382 S   0  0  0  0  0  0
   -7.0887    2.5047   18.1016 N   0  0  0  0  0  0
  -11.3969    6.2408   21.6737 C   0  0  0  0  0  0
  -12.1631    7.1265   20.9530 N   0  0  0  0  0  0
  -11.8876    8.3396   21.5317 C   0  0  0  0  0  0
  -11.0027    8.2269   22.4883 N   0  0  0  0  0  0
  -10.6917    6.8744   22.5800 N   0  0  0  0  0  0
  -13.1291    6.8381   19.9091 C   0  0  0  0  0  0
   -8.2887   -1.1743   21.7555 C   0  0  0  0  0  0
   -8.2692   -2.2304   20.9806 N   0  0  0  0  0  0
   -7.9407   -3.3147   21.6521 C   0  0  0  0  0  0
   -7.6940   -3.1839   23.0178 C   0  0  0  0  0  0
   -7.8863   -1.4925   23.4012 S   0  0  0  0  0  0
   -7.3261   -4.2194   24.0512 C   0  0  0  0  0  0
   -9.6902    5.8885   19.6158 H   0  0  0  0  0  0
   -7.9234    4.9603   18.1857 H   0  0  0  0  0  0
  -10.2885    2.0437   21.3756 H   0  0  0  0  0  0
   -8.9026    0.7585   22.1102 H   0  0  0  0  0  0
   -6.6894    3.1413   17.4171 H   0  0  0  0  0  0
   -6.8663    1.5160   18.0981 H   0  0  0  0  0  0
  -12.3635    9.2454   21.1836 H   0  0  0  0  0  0
  -13.7961    7.6872   19.7815 H   0  0  0  0  0  0
  -12.6013    6.6605   18.9719 H   0  0  0  0  0  0
  -13.7159    5.9606   20.1808 H   0  0  0  0  0  0
   -7.8859   -4.2499   21.1161 H   0  0  0  0  0  0
   -7.2654   -5.2190   23.6202 H   0  0  0  0  0  0
   -8.0623   -4.2641   24.8536 H   0  0  0  0  0  0
   -6.3588   -4.0083   24.5067 H   0  0  0  0  0  0
  1  6  1  0  0  0
  1  2  2  0  0  0
  1 10  1  0  0  0
  2  3  1  0  0  0
  2 24  1  0  0  0
  3  4  2  0  0  0
  3 25  1  0  0  0
  4  5  1  0  0  0
  4 11  1  0  0  0
  5  6  2  0  0  0
  5  7  1  0  0  0
  6 26  1  0  0  0
  7  8  1  0  0  0
  7  9  2  0  0  0
  8 18  1  0  0  0
  8 27  1  0  0  0
 10 12  1  0  0  0
 11 28  1  0  0  0
 11 29  1  0  0  0
 12 13  1  0  0  0
 12 16  2  0  0  0
 13 14  1  0  0  0
 13 17  1  0  0  0
 14 15  2  0  0  0
 14 30  1  0  0  0
 15 16  1  0  0  0
 17 31  1  0  0  0
 17 32  1  0  0  0
 17 33  1  0  0  0
 18 19  2  0  0  0
 18 22  1  0  0  0
 19 20  1  0  0  0
 20 21  2  0  0  0
 20 34  1  0  0  0
 21 22  1  0  0  0
 21 23  1  0  0  0
 23 35  1  0  0  0
 23 36  1  0  0  0
 23 37  1  0  0  0
M  END
> <s_m_entry_id>
5347

> <s_m_entry_name>
dock_pv.15

> <s_m_Source_Path>
/home/csk/Desktop/cluster/DUD-E-result/hxk4

> <s_m_Source_File>
dock_pv.maegz

> <i_m_Source_File_Index>
15

> <chembl_id>
CHEMBL491148

> <chembl_pref_name>
None

> <i_lp_mmshare_version>
53161

> <r_lp_tautomer_probability>
0.999000488399163

> <s_lp_Force_Field>
OPLS_2005

> <r_lp_Energy>
15.819138

> <b_lp_Chiralities_Consistent>
1

> <s_lp_Variant>
CHEMBL3820_lig159-1

> <s_i_glide_gridfile>
glide-grid_3f9m

> <i_i_glide_lignum>
176

> <i_i_glide_rotatable_bonds>
5

> <r_i_docking_score>
-10.6019238654779

> <r_i_glide_ligand_efficiency>
-0.460953211542519

> <r_i_glide_ligand_efficiency_sa>
-1.31088961619221

> <r_i_glide_ligand_efficiency_ln>
-2.56364132360319

> <r_i_glide_gscore>
-10.6019238654779

> <r_i_glide_lipo>
-3.25693800922173

> <r_i_glide_hbond>
-0.608

> <r_i_glide_metal>
0

> <r_i_glide_rewards>
-3.91642736994462

> <r_i_glide_evdw>
-48.4870262145996

> <r_i_glide_ecoul>
-7.92182302474976

> <r_i_glide_erotb>
0.792066278130852

> <r_i_glide_esite>
0

> <r_i_glide_emodel>
-82.9418086841123

> <r_i_glide_energy>
-56.4088492393494

> <r_i_glide_einternal>
2.76095771789551

> <i_i_glide_confnum>
55

> <i_i_glide_posenum>
22

> <r_i_glide_eff_state_penalty>
0

> <s_user_duplicate_titles>
CHEMBL3820_lig159,457933

> <i_f3d_flags>
0

> <s_m_subgroup_title>
dock_pv

> <s_m_subgroupid>
dock_pv

> <b_m_subgroup_collapsed>
0

$$$$
CHEMBL3820_lig153
                    3D
 Schrodinger Suite 2021-1.
 36 38  0  0  1  0            999 V2000
  -10.1154    3.9067   20.6002 C   0  0  0  0  0  0
   -9.4590    4.7773   19.7315 C   0  0  0  0  0  0
   -8.4510    4.2748   18.9080 C   0  0  0  0  0  0
   -8.0684    2.9273   18.9810 C   0  0  0  0  0  0
   -8.6588    2.0639   19.9358 C   0  0  0  0  0  0
   -9.7218    2.5786   20.6848 C   0  0  0  0  0  0
   -8.1788    0.6421   20.2043 C   0  0  0  0  0  0
   -8.4810    0.1384   21.4257 N   0  0  0  0  0  0
   -7.4926    0.0441   19.3811 O   0  0  0  0  0  0
  -11.4881    4.3698   21.5986 S   0  0  0  0  0  0
   -7.0889    2.5050   18.0892 N   0  0  0  0  0  0
  -11.4192    6.1197   21.6638 C   0  0  0  0  0  0
  -12.1886    6.9569   20.8937 N   0  0  0  0  0  0
  -11.8891    8.2034   21.3808 C   0  0  0  0  0  0
  -10.9957    8.1479   22.3349 N   0  0  0  0  0  0
  -10.6935    6.8031   22.5160 N   0  0  0  0  0  0
  -13.1681    6.5913   19.8851 C   0  0  0  0  0  0
   -8.2159   -1.1330   21.9260 C   0  0  0  0  0  0
   -8.2891   -1.4049   23.1991 N   0  0  0  0  0  0
   -8.0771   -2.6957   23.3889 C   0  0  0  0  0  0
   -7.8364   -3.5177   22.3878 N   0  0  0  0  0  0
   -7.8871   -2.5530   20.9809 S   0  0  0  0  0  0
   -8.1244   -3.2573   24.7910 C   0  0  0  0  0  0
   -9.7433    5.8165   19.6501 H   0  0  0  0  0  0
   -7.9748    4.9392   18.2008 H   0  0  0  0  0  0
  -10.2591    1.9492   21.3810 H   0  0  0  0  0  0
   -8.8133    0.8075   22.1102 H   0  0  0  0  0  0
   -6.7045    3.1581   17.4120 H   0  0  0  0  0  0
   -6.8366    1.5236   18.0779 H   0  0  0  0  0  0
  -12.3607    9.0877   20.9768 H   0  0  0  0  0  0
  -13.9156    7.3698   19.7810 H   0  0  0  0  0  0
  -12.6634    6.4468   18.9301 H   0  0  0  0  0  0
  -13.6713    5.6730   20.1813 H   0  0  0  0  0  0
   -7.9361   -4.3306   24.8430 H   0  0  0  0  0  0
   -9.0881   -3.0595   25.2570 H   0  0  0  0  0  0
   -7.4021   -2.7556   25.4346 H   0  0  0  0  0  0
  1  6  1  0  0  0
  1  2  2  0  0  0
  1 10  1  0  0  0
  2  3  1  0  0  0
  2 24  1  0  0  0
  3  4  2  0  0  0
  3 25  1  0  0  0
  4  5  1  0  0  0
  4 11  1  0  0  0
  5  6  2  0  0  0
  5  7  1  0  0  0
  6 26  1  0  0  0
  7  8  1  0  0  0
  7  9  2  0  0  0
  8 18  1  0  0  0
  8 27  1  0  0  0
 10 12  1  0  0  0
 11 28  1  0  0  0
 11 29  1  0  0  0
 12 13  1  0  0  0
 12 16  2  0  0  0
 13 14  1  0  0  0
 13 17  1  0  0  0
 14 15  2  0  0  0
 14 30  1  0  0  0
 15 16  1  0  0  0
 17 31  1  0  0  0
 17 32  1  0  0  0
 17 33  1  0  0  0
 18 19  2  0  0  0
 18 22  1  0  0  0
 19 20  1  0  0  0
 20 21  2  0  0  0
 20 23  1  0  0  0
 21 22  1  0  0  0
 23 34  1  0  0  0
 23 35  1  0  0  0
 23 36  1  0  0  0
M  END
> <s_m_entry_id>
5348

> <s_m_entry_name>
dock_pv.16

> <s_m_Source_Path>
/home/csk/Desktop/cluster/DUD-E-result/hxk4

> <s_m_Source_File>
dock_pv.maegz

> <i_m_Source_File_Index>
16

> <chembl_id>
CHEMBL489711

> <chembl_pref_name>
None

> <i_lp_mmshare_version>
53161

> <r_lp_tautomer_probability>
1

> <s_lp_Force_Field>
OPLS_2005

> <r_lp_Energy>
20.372657

> <b_lp_Chiralities_Consistent>
1

> <s_lp_Variant>
CHEMBL3820_lig153-1

> <s_i_glide_gridfile>
glide-grid_3f9m

> <i_i_glide_lignum>
170

> <i_i_glide_rotatable_bonds>
5

> <r_i_docking_score>
-10.4335062847488

> <r_i_glide_ligand_efficiency>
-0.453630708032558

> <r_i_glide_ligand_efficiency_sa>
-1.29006539027215

> <r_i_glide_ligand_efficiency_ln>
-2.5229164254567

> <r_i_glide_gscore>
-10.4335062847488

> <r_i_glide_lipo>
-2.68782501398855

> <r_i_glide_hbond>
-0.788346813912827

> <r_i_glide_metal>
0

> <r_i_glide_rewards>
-4.05595266018643

> <r_i_glide_evdw>
-48.8249778747559

> <r_i_glide_ecoul>
-8.32134914398193

> <r_i_glide_erotb>
0.788069468674059

> <r_i_glide_esite>
0

> <r_i_glide_emodel>
-84.885304161811

> <r_i_glide_energy>
-57.1463270187378

> <r_i_glide_einternal>
1.00003933906555

> <i_i_glide_confnum>
12

> <i_i_glide_posenum>
133

> <r_i_glide_eff_state_penalty>
0

> <s_user_duplicate_titles>
CHEMBL3820_lig153,457868

> <i_f3d_flags>
0

> <s_m_subgroup_title>
dock_pv

> <s_m_subgroupid>
dock_pv

> <b_m_subgroup_collapsed>
0

$$$$
CHEMBL3820_lig242
                    3D
 Schrodinger Suite 2021-1.
 39 42  0  0  1  0            999 V2000
   -9.8635    4.5137   20.8861 C   0  0  0  0  0  0
   -9.3029    5.2461   19.8287 C   0  0  0  0  0  0
   -8.5333    4.6124   18.8632 C   0  0  0  0  0  0
   -8.2890    3.2254   18.9688 C   0  0  0  0  0  0
   -8.8163    2.4809   20.0716 C   0  0  0  0  0  0
   -9.6501    3.1530   20.9810 C   0  0  0  0  0  0
   -8.4378    1.1078   20.1555 C   0  0  0  0  0  0
   -8.6890    0.3557   21.3214 N   0  0  0  0  0  0
  -10.6455    5.0646   21.8713 O   0  0  0  0  0  0
   -7.7598    0.5159   19.1503 N   0  0  0  0  0  0
   -7.4175    1.3050   18.1102 C   0  0  0  0  0  0
   -7.5915    2.6265   17.9818 N   0  0  0  0  0  0
   -8.3827   -0.9544   21.6144 C   0  0  0  0  0  0
   -7.8889   -1.9926   20.8048 C   0  0  0  0  0  0
   -7.7888   -3.1048   21.6163 C   0  0  0  0  0  0
   -8.2363   -2.6840   22.8370 N   0  0  0  0  0  0
   -8.5719   -1.3875   22.8427 N   0  0  0  0  0  0
   -8.2890   -3.4433   24.0721 C   0  0  0  0  0  0
  -11.4420    6.1053   21.5211 C   0  0  0  0  0  0
  -11.8771    8.4573   21.4415 C   0  0  0  0  0  0
  -12.6890    8.2323   20.3375 C   0  0  0  0  0  0
  -13.0260    6.9475   19.9261 C   0  0  0  0  0  0
  -12.4144    5.8783   20.5527 C   0  0  0  0  0  0
  -11.2060    7.3881   22.0133 C   0  0  0  0  0  0
  -10.2903    7.6140   22.9810 F   0  0  0  0  0  0
  -12.6890    4.6139   20.1810 F   0  0  0  0  0  0
   -9.4636    6.3122   19.7548 H   0  0  0  0  0  0
   -8.1204    5.1680   18.0325 H   0  0  0  0  0  0
  -10.1400    2.6229   21.7797 H   0  0  0  0  0  0
   -9.0890    0.9242   22.0594 H   0  0  0  0  0  0
   -6.7652    0.8720   17.3810 H   0  0  0  0  0  0
   -7.6263   -1.9418   19.7597 H   0  0  0  0  0  0
   -7.4531   -4.1183   21.4496 H   0  0  0  0  0  0
   -8.4929   -4.4912   23.8483 H   0  0  0  0  0  0
   -9.0815   -3.0608   24.7165 H   0  0  0  0  0  0
   -7.3307   -3.3595   24.5847 H   0  0  0  0  0  0
  -11.6829    9.4645   21.7810 H   0  0  0  0  0  0
  -13.0890    9.0950   19.8312 H   0  0  0  0  0  0
  -13.7222    6.7941   19.1142 H   0  0  0  0  0  0
  1  6  1  0  0  0
  1  2  2  0  0  0
  1  9  1  0  0  0
  2  3  1  0  0  0
  2 27  1  0  0  0
  3  4  2  0  0  0
  3 28  1  0  0  0
  4 12  1  0  0  0
  4  5  1  0  0  0
  5  7  1  0  0  0
  5  6  2  0  0  0
  6 29  1  0  0  0
  7  8  1  0  0  0
  7 10  2  0  0  0
  8 13  1  0  0  0
  8 30  1  0  0  0
  9 19  1  0  0  0
 10 11  1  0  0  0
 11 12  2  0  0  0
 11 31  1  0  0  0
 13 14  1  0  0  0
 13 17  2  0  0  0
 14 15  2  0  0  0
 14 32  1  0  0  0
 15 16  1  0  0  0
 15 33  1  0  0  0
 16 17  1  0  0  0
 16 18  1  0  0  0
 18 34  1  0  0  0
 18 35  1  0  0  0
 18 36  1  0  0  0
 19 24  2  0  0  0
 19 23  1  0  0  0
 20 24  1  0  0  0
 20 21  2  0  0  0
 20 37  1  0  0  0
 21 22  1  0  0  0
 21 38  1  0  0  0
 22 23  2  0  0  0
 22 39  1  0  0  0
 23 26  1  0  0  0
 24 25  1  0  0  0
M  END
> <s_m_entry_id>
5349

> <s_m_entry_name>
dock_pv.17

> <s_m_Source_Path>
/home/csk/Desktop/cluster/DUD-E-result/hxk4

> <s_m_Source_File>
dock_pv.maegz

> <i_m_Source_File_Index>
17

> <chembl_id>
CHEMBL575087

> <chembl_pref_name>
None

> <i_lp_mmshare_version>
53161

> <r_lp_tautomer_probability>
1

> <s_lp_Force_Field>
OPLS_2005

> <r_lp_Energy>
14.940459

> <b_lp_Chiralities_Consistent>
1

> <s_lp_Variant>
CHEMBL3820_lig242-1

> <s_i_glide_gridfile>
glide-grid_3f9m

> <i_i_glide_lignum>
300

> <i_i_glide_rotatable_bonds>
4

> <r_i_docking_score>
-10.2105519124966

> <r_i_glide_ligand_efficiency>
-0.392713535096023

> <r_i_glide_ligand_efficiency_sa>
-1.16341230246883

> <r_i_glide_ligand_efficiency_ln>
-2.39791461309633

> <r_i_glide_gscore>
-10.2105519124966

> <r_i_glide_lipo>
-4.25527475241668

> <r_i_glide_hbond>
-0.608

> <r_i_glide_metal>
0

> <r_i_glide_rewards>
-3.05259394474975

> <r_i_glide_evdw>
-28.7850227355957

> <r_i_glide_ecoul>
-9.78184223175049

> <r_i_glide_erotb>
0.611844256212178

> <r_i_glide_esite>
0

> <r_i_glide_emodel>
-55.5215794956611

> <r_i_glide_energy>
-38.5668649673462

> <r_i_glide_einternal>
6.60441780090332

> <i_i_glide_confnum>
9

> <i_i_glide_posenum>
51

> <r_i_glide_eff_state_penalty>
0

> <s_user_duplicate_titles>
CHEMBL3820_lig242,572957

> <i_f3d_flags>
0

> <s_m_subgroup_title>
dock_pv

> <s_m_subgroupid>
dock_pv

> <b_m_subgroup_collapsed>
0

$$$$
CHEMBL3820_lig151
                    3D
 Schrodinger Suite 2021-1.
 34 36  0  0  1  0            999 V2000
  -10.0579    4.1194   20.5379 C   0  0  0  0  0  0
   -9.3889    4.9050   19.6023 C   0  0  0  0  0  0
   -8.3853    4.3345   18.8294 C   0  0  0  0  0  0
   -8.0517    2.9852   18.9809 C   0  0  0  0  0  0
   -8.6854    2.1772   19.9573 C   0  0  0  0  0  0
   -9.7154    2.7754   20.6948 C   0  0  0  0  0  0
   -8.2769    0.7317   20.2277 C   0  0  0  0  0  0
   -8.5661    0.2174   21.4482 N   0  0  0  0  0  0
   -7.6502    0.1052   19.3797 O   0  0  0  0  0  0
   -8.2712   -1.0660   21.9238 C   0  0  0  0  0  0
   -8.2837   -1.3388   23.2066 N   0  0  0  0  0  0
   -7.9605   -2.5985   23.4641 C   0  0  0  0  0  0
   -7.7140   -3.3960   22.3551 C   0  0  0  0  0  0
   -7.8892   -2.4473   20.9231 S   0  0  0  0  0  0
   -7.8923   -3.0211   24.9100 C   0  0  0  0  0  0
  -11.4892    4.6931   21.3813 S   0  0  0  0  0  0
   -7.0862    2.5046   18.1076 N   0  0  0  0  0  0
  -11.1535    6.3248   21.9607 C   0  0  0  0  0  0
  -10.1805    7.1983   21.5747 N   0  0  0  0  0  0
  -10.2888    8.3475   22.2370 N   0  0  0  0  0  0
  -11.3403    8.1120   22.9788 C   0  0  0  0  0  0
  -11.8890    6.9180   22.8623 N   0  0  0  0  0  0
   -9.6828    5.9236   19.4044 H   0  0  0  0  0  0
   -7.8937    4.9399   18.0810 H   0  0  0  0  0  0
  -10.2974    2.1820   21.3811 H   0  0  0  0  0  0
   -8.9162    0.8702   22.1402 H   0  0  0  0  0  0
   -7.4449   -4.4412   22.3130 H   0  0  0  0  0  0
   -7.4645   -4.0181   25.0187 H   0  0  0  0  0  0
   -8.8832   -3.0573   25.3628 H   0  0  0  0  0  0
   -7.2723   -2.3477   25.5026 H   0  0  0  0  0  0
   -6.6889    3.1214   17.4044 H   0  0  0  0  0  0
   -6.8889    1.5100   18.1123 H   0  0  0  0  0  0
  -11.7442    8.8585   23.6473 H   0  0  0  0  0  0
   -9.4290    7.0118   20.9258 H   0  0  0  0  0  0
  1  6  1  0  0  0
  1  2  2  0  0  0
  1 16  1  0  0  0
  2  3  1  0  0  0
  2 23  1  0  0  0
  3  4  2  0  0  0
  3 24  1  0  0  0
  4 17  1  0  0  0
  4  5  1  0  0  0
  5  6  2  0  0  0
  5  7  1  0  0  0
  6 25  1  0  0  0
  7  8  1  0  0  0
  7  9  2  0  0  0
  8 10  1  0  0  0
  8 26  1  0  0  0
 10 14  1  0  0  0
 10 11  2  0  0  0
 11 12  1  0  0  0
 12 13  2  0  0  0
 12 15  1  0  0  0
 13 14  1  0  0  0
 13 27  1  0  0  0
 15 28  1  0  0  0
 15 29  1  0  0  0
 15 30  1  0  0  0
 16 18  1  0  0  0
 17 31  1  0  0  0
 17 32  1  0  0  0
 18 19  1  0  0  0
 18 22  2  0  0  0
 19 20  1  0  0  0
 19 34  1  0  0  0
 20 21  2  0  0  0
 21 33  1  0  0  0
 21 22  1  0  0  0
M  END
> <s_m_entry_id>
5350

> <s_m_entry_name>
dock_pv.18

> <s_m_Source_Path>
/home/csk/Desktop/cluster/DUD-E-result/hxk4

> <s_m_Source_File>
dock_pv.maegz

> <i_m_Source_File_Index>
18

> <chembl_id>
CHEMBL446224

> <chembl_pref_name>
None

> <i_lp_mmshare_version>
53161

> <r_lp_tautomer_probability>
0.572028316986306

> <s_lp_Force_Field>
OPLS_2005

> <r_lp_Energy>
16.808398

> <b_lp_Chiralities_Consistent>
1

> <s_lp_Variant>
CHEMBL3820_lig151-1

> <s_i_glide_gridfile>
glide-grid_3f9m

> <i_i_glide_lignum>
167

> <i_i_glide_rotatable_bonds>
5

> <r_i_docking_score>
-10.1521793005779

> <r_i_glide_ligand_efficiency>
-0.461462695480812

> <r_i_glide_ligand_efficiency_sa>
-1.29303662103521

> <r_i_glide_ligand_efficiency_ln>
-2.48156293079872

> <r_i_glide_gscore>
-10.1521793005779

> <r_i_glide_lipo>
-2.95859883529548

> <r_i_glide_hbond>
-0.815617211299661

> <r_i_glide_metal>
0

> <r_i_glide_rewards>
-3.64921927973374

> <r_i_glide_evdw>
-42.4740562438965

> <r_i_glide_ecoul>
-9.71538639068604

> <r_i_glide_erotb>
0.852266796548741

> <r_i_glide_esite>
0

> <r_i_glide_emodel>
-76.0166171031918

> <r_i_glide_energy>
-52.1894426345825

> <r_i_glide_einternal>
0.89240550994873

> <i_i_glide_confnum>
55

> <i_i_glide_posenum>
11

> <r_i_glide_eff_state_penalty>
0

> <s_user_duplicate_titles>
CHEMBL3820_lig151,CHEMBL3820_lig151,457865

> <i_f3d_flags>
0

> <s_m_subgroup_title>
dock_pv

> <s_m_subgroupid>
dock_pv

> <b_m_subgroup_collapsed>
0

$$$$
CHEMBL3820_lig152
                    3D
 Schrodinger Suite 2021-1.
 33 35  0  0  1  0            999 V2000
  -10.0870    3.9820   20.5834 C   0  0  0  0  0  0
   -9.4136    4.8352   19.7114 C   0  0  0  0  0  0
   -8.4105    4.3090   18.8971 C   0  0  0  0  0  0
   -8.0536    2.9550   18.9802 C   0  0  0  0  0  0
   -8.6638    2.1056   19.9344 C   0  0  0  0  0  0
   -9.7143    2.6459   20.6833 C   0  0  0  0  0  0
   -8.2122    0.6756   20.1873 C   0  0  0  0  0  0
   -8.5601    0.1263   21.3740 N   0  0  0  0  0  0
   -7.4900    0.0962   19.3808 O   0  0  0  0  0  0
  -11.4886    4.4662   21.5259 S   0  0  0  0  0  0
   -7.0883    2.5049   18.0840 N   0  0  0  0  0  0
  -11.4091    6.2160   21.6522 C   0  0  0  0  0  0
  -12.1680    7.0964   20.9172 N   0  0  0  0  0  0
  -11.8882    8.3158   21.4789 C   0  0  0  0  0  0
  -11.0344    8.2078   22.4635 N   0  0  0  0  0  0
  -10.7300    6.8555   22.5735 N   0  0  0  0  0  0
  -13.0452    6.8210   19.7954 C   0  0  0  0  0  0
   -8.2633   -1.1758   21.7461 C   0  0  0  0  0  0
   -8.2024   -2.2358   20.9810 N   0  0  0  0  0  0
   -7.8769   -3.2800   21.7178 C   0  0  0  0  0  0
   -7.6627   -3.1722   23.0144 N   0  0  0  0  0  0
   -7.8888   -1.5180   23.3875 S   0  0  0  0  0  0
   -9.6889    5.8757   19.6174 H   0  0  0  0  0  0
   -7.9216    4.9581   18.1841 H   0  0  0  0  0  0
  -10.2675    2.0270   21.3759 H   0  0  0  0  0  0
   -8.8219    0.7669   22.1136 H   0  0  0  0  0  0
   -6.6944    3.1445   17.3998 H   0  0  0  0  0  0
   -6.8532    1.5186   18.0848 H   0  0  0  0  0  0
  -12.3352    9.2224   21.0961 H   0  0  0  0  0  0
  -13.0591    7.6838   19.1332 H   0  0  0  0  0  0
  -12.6909    5.9477   19.2481 H   0  0  0  0  0  0
  -14.0527    6.6312   20.1654 H   0  0  0  0  0  0
   -7.7819   -4.2482   21.2493 H   0  0  0  0  0  0
  1  6  1  0  0  0
  1  2  2  0  0  0
  1 10  1  0  0  0
  2  3  1  0  0  0
  2 23  1  0  0  0
  3  4  2  0  0  0
  3 24  1  0  0  0
  4 11  1  0  0  0
  4  5  1  0  0  0
  5  6  2  0  0  0
  5  7  1  0  0  0
  6 25  1  0  0  0
  7  8  1  0  0  0
  7  9  2  0  0  0
  8 18  1  0  0  0
  8 26  1  0  0  0
 10 12  1  0  0  0
 11 27  1  0  0  0
 11 28  1  0  0  0
 12 13  1  0  0  0
 12 16  2  0  0  0
 13 14  1  0  0  0
 13 17  1  0  0  0
 14 15  2  0  0  0
 14 29  1  0  0  0
 15 16  1  0  0  0
 17 30  1  0  0  0
 17 31  1  0  0  0
 17 32  1  0  0  0
 18 19  2  0  0  0
 18 22  1  0  0  0
 19 20  1  0  0  0
 20 21  2  0  0  0
 20 33  1  0  0  0
 21 22  1  0  0  0
M  END
> <s_m_entry_id>
5351

> <s_m_entry_name>
dock_pv.19

> <s_m_Source_Path>
/home/csk/Desktop/cluster/DUD-E-result/hxk4

> <s_m_Source_File>
dock_pv.maegz

> <i_m_Source_File_Index>
19

> <chembl_id>
CHEMBL489710

> <chembl_pref_name>
None

> <i_lp_mmshare_version>
53161

> <r_lp_tautomer_probability>
1

> <s_lp_Force_Field>
OPLS_2005

> <r_lp_Energy>
17.913472

> <b_lp_Chiralities_Consistent>
1

> <s_lp_Variant>
CHEMBL3820_lig152-1

> <s_i_glide_gridfile>
glide-grid_3f9m

> <i_i_glide_lignum>
169

> <i_i_glide_rotatable_bonds>
5

> <r_i_docking_score>
-10.0608189649995

> <r_i_glide_ligand_efficiency>
-0.457309952954523

> <r_i_glide_ligand_efficiency_sa>
-1.28140047315845

> <r_i_glide_ligand_efficiency_ln>
-2.45923113233416

> <r_i_glide_gscore>
-10.0608189649995

> <r_i_glide_lipo>
-2.57499207423423

> <r_i_glide_hbond>
-0.608

> <r_i_glide_metal>
0

> <r_i_glide_rewards>
-4.14327802885487

> <r_i_glide_evdw>
-47.6539497375488

> <r_i_glide_ecoul>
-7.99770069122314

> <r_i_glide_erotb>
0.847803728650509

> <r_i_glide_esite>
0

> <r_i_glide_emodel>
-81.4959662072469

> <r_i_glide_energy>
-55.651650428772

> <r_i_glide_einternal>
1.00278770923615

> <i_i_glide_confnum>
98

> <i_i_glide_posenum>
81

> <r_i_glide_eff_state_penalty>
0

> <s_user_duplicate_titles>
CHEMBL3820_lig152,457867

> <i_f3d_flags>
0

> <s_m_subgroup_title>
dock_pv

> <s_m_subgroupid>
dock_pv

> <b_m_subgroup_collapsed>
0

$$$$
CHEMBL3820_lig141
                    3D
 Schrodinger Suite 2021-1.
 38 40  0  0  1  0            999 V2000
  -10.0803    4.1355   20.5657 C   0  0  0  0  0  0
   -9.3716    4.9130   19.6427 C   0  0  0  0  0  0
   -8.3900    4.3363   18.8450 C   0  0  0  0  0  0
   -8.0628    2.9849   18.9810 C   0  0  0  0  0  0
   -8.7000    2.1816   19.9588 C   0  0  0  0  0  0
   -9.7427    2.7820   20.6927 C   0  0  0  0  0  0
   -8.2888    0.7353   20.2285 C   0  0  0  0  0  0
   -8.5823    0.2202   21.4469 N   0  0  0  0  0  0
   -7.6638    0.1052   19.3810 O   0  0  0  0  0  0
   -8.2797   -1.0609   21.9247 C   0  0  0  0  0  0
   -8.2868   -1.3309   23.2079 N   0  0  0  0  0  0
   -7.9580   -2.5884   23.4677 C   0  0  0  0  0  0
   -7.7079   -3.3870   22.3604 C   0  0  0  0  0  0
   -7.8888   -2.4423   20.9270 S   0  0  0  0  0  0
   -7.8867   -3.0081   24.9138 C   0  0  0  0  0  0
  -11.1374    4.6178   21.3173 O   0  0  0  0  0  0
   -7.0735    2.5050   18.1302 N   0  0  0  0  0  0
  -11.3877    5.9716   21.4184 C   0  0  0  0  0  0
  -12.0492    6.6958   20.4191 C   0  0  0  0  0  0
  -12.2896    8.0568   20.5957 C   0  0  0  0  0  0
  -11.8920    8.7109   21.7627 C   0  0  0  0  0  0
  -11.2531    7.9960   22.7640 C   0  0  0  0  0  0
  -11.0127    6.6382   22.5828 C   0  0  0  0  0  0
  -12.4513    6.1029   19.2745 F   0  0  0  0  0  0
   -9.5937    5.9604   19.5059 H   0  0  0  0  0  0
   -7.8893    4.9523   18.1130 H   0  0  0  0  0  0
  -10.3235    2.1920   21.3810 H   0  0  0  0  0  0
   -8.9334    0.8728   22.1386 H   0  0  0  0  0  0
   -7.4309   -4.4303   22.3210 H   0  0  0  0  0  0
   -7.4458   -3.9999   25.0236 H   0  0  0  0  0  0
   -8.8779   -3.0577   25.3646 H   0  0  0  0  0  0
   -7.2771   -2.3258   25.5074 H   0  0  0  0  0  0
   -6.6894    3.1179   17.4165 H   0  0  0  0  0  0
   -6.8832    1.5096   18.1305 H   0  0  0  0  0  0
  -12.7964    8.6089   19.8190 H   0  0  0  0  0  0
  -12.0915    9.7660   21.8864 H   0  0  0  0  0  0
  -10.9524    8.4902   23.6762 H   0  0  0  0  0  0
  -10.5423    6.1052   23.3810 H   0  0  0  0  0  0
  1  6  1  0  0  0
  1  2  2  0  0  0
  1 16  1  0  0  0
  2  3  1  0  0  0
  2 25  1  0  0  0
  3  4  2  0  0  0
  3 26  1  0  0  0
  4 17  1  0  0  0
  4  5  1  0  0  0
  5  7  1  0  0  0
  5  6  2  0  0  0
  6 27  1  0  0  0
  7  8  1  0  0  0
  7  9  2  0  0  0
  8 10  1  0  0  0
  8 28  1  0  0  0
 10 14  1  0  0  0
 10 11  2  0  0  0
 11 12  1  0  0  0
 12 13  2  0  0  0
 12 15  1  0  0  0
 13 14  1  0  0  0
 13 29  1  0  0  0
 15 30  1  0  0  0
 15 31  1  0  0  0
 15 32  1  0  0  0
 16 18  1  0  0  0
 17 33  1  0  0  0
 17 34  1  0  0  0
 18 19  2  0  0  0
 18 23  1  0  0  0
 19 20  1  0  0  0
 19 24  1  0  0  0
 20 21  2  0  0  0
 20 35  1  0  0  0
 21 22  1  0  0  0
 21 36  1  0  0  0
 22 23  2  0  0  0
 22 37  1  0  0  0
 23 38  1  0  0  0
M  END
> <s_m_entry_id>
5352

> <s_m_entry_name>
dock_pv.20

> <s_m_Source_Path>
/home/csk/Desktop/cluster/DUD-E-result/hxk4

> <s_m_Source_File>
dock_pv.maegz

> <i_m_Source_File_Index>
20

> <chembl_id>
CHEMBL474352

> <chembl_pref_name>
None

> <i_lp_mmshare_version>
53161

> <r_lp_tautomer_probability>
0.999000488399163

> <s_lp_Force_Field>
OPLS_2005

> <r_lp_Energy>
21.925125

> <b_lp_Chiralities_Consistent>
1

> <s_lp_Variant>
CHEMBL3820_lig141-1

> <s_i_glide_gridfile>
glide-grid_3f9m

> <i_i_glide_lignum>
157

> <i_i_glide_rotatable_bonds>
5

> <r_i_docking_score>
-9.94150802809345

> <r_i_glide_ligand_efficiency>
-0.41422950117056

> <r_i_glide_ligand_efficiency_sa>
-1.19484463887803

> <r_i_glide_ligand_efficiency_ln>
-2.37945905720069

> <r_i_glide_gscore>
-9.94150802809345

> <r_i_glide_lipo>
-4.14492164469667

> <r_i_glide_hbond>
-0.798154376690301

> <r_i_glide_metal>
0

> <r_i_glide_rewards>
-2.60579849930221

> <r_i_glide_evdw>
-42.4974937438965

> <r_i_glide_ecoul>
-7.14922094345093

> <r_i_glide_erotb>
0.804624321308192

> <r_i_glide_esite>
0

> <r_i_glide_emodel>
-75.1225805166127

> <r_i_glide_energy>
-49.6467146873474

> <r_i_glide_einternal>
1.52299499511719

> <i_i_glide_confnum>
19

> <i_i_glide_posenum>
303

> <r_i_glide_eff_state_penalty>
0

> <s_user_duplicate_titles>
CHEMBL3820_lig141,457733

> <i_f3d_flags>
0

> <s_m_subgroup_title>
dock_pv

> <s_m_subgroupid>
dock_pv

> <b_m_subgroup_collapsed>
0

$$$$
CHEMBL3820_lig149
                    3D
 Schrodinger Suite 2021-1.
 35 37  0  0  1  0            999 V2000
  -10.0650    4.0637   20.5669 C   0  0  0  0  0  0
   -9.3776    4.8845   19.6752 C   0  0  0  0  0  0
   -8.3865    4.3270   18.8728 C   0  0  0  0  0  0
   -8.0583    2.9700   18.9808 C   0  0  0  0  0  0
   -8.6852    2.1430   19.9480 C   0  0  0  0  0  0
   -9.7212    2.7193   20.6926 C   0  0  0  0  0  0
   -8.2566    0.7034   20.2175 C   0  0  0  0  0  0
   -8.5610    0.1821   21.4322 N   0  0  0  0  0  0
   -7.6004    0.0915   19.3810 O   0  0  0  0  0  0
   -8.2652   -1.0998   21.9081 C   0  0  0  0  0  0
   -8.2829   -1.3749   23.1905 N   0  0  0  0  0  0
   -7.9694   -2.6370   23.4464 C   0  0  0  0  0  0
   -7.7229   -3.4327   22.3359 C   0  0  0  0  0  0
   -7.8889   -2.4798   20.9052 S   0  0  0  0  0  0
   -7.9134   -3.0634   24.8919 C   0  0  0  0  0  0
  -11.4890    4.6097   21.4339 S   0  0  0  0  0  0
   -7.0885    2.5044   18.1028 N   0  0  0  0  0  0
  -11.3129    6.3476   21.6041 C   0  0  0  0  0  0
  -12.2941    7.2355   21.2528 N   0  0  0  0  0  0
  -11.8887    8.4639   21.6898 C   0  0  0  0  0  0
  -10.6419    8.2260   22.2427 C   0  0  0  0  0  0
  -10.3008    6.9504   22.1804 N   0  0  0  0  0  0
   -9.6408    5.9248   19.5513 H   0  0  0  0  0  0
   -7.8893    4.9563   18.1484 H   0  0  0  0  0  0
  -10.2926    2.1160   21.3810 H   0  0  0  0  0  0
   -8.9180    0.8321   22.1224 H   0  0  0  0  0  0
   -7.4602   -4.4797   22.2928 H   0  0  0  0  0  0
   -7.5027   -4.0681   25.0004 H   0  0  0  0  0  0
   -8.9064   -3.0839   25.3422 H   0  0  0  0  0  0
   -7.2859   -2.4001   25.4883 H   0  0  0  0  0  0
   -6.6895    3.1324   17.4109 H   0  0  0  0  0  0
   -6.8785    1.5127   18.1033 H   0  0  0  0  0  0
  -13.1680    7.0129   20.7978 H   0  0  0  0  0  0
  -12.4848    9.3556   21.5508 H   0  0  0  0  0  0
   -9.9825    8.9703   22.6646 H   0  0  0  0  0  0
  1  6  1  0  0  0
  1  2  2  0  0  0
  1 16  1  0  0  0
  2  3  1  0  0  0
  2 23  1  0  0  0
  3  4  2  0  0  0
  3 24  1  0  0  0
  4 17  1  0  0  0
  4  5  1  0  0  0
  5  6  2  0  0  0
  5  7  1  0  0  0
  6 25  1  0  0  0
  7  8  1  0  0  0
  7  9  2  0  0  0
  8 10  1  0  0  0
  8 26  1  0  0  0
 10 14  1  0  0  0
 10 11  2  0  0  0
 11 12  1  0  0  0
 12 13  2  0  0  0
 12 15  1  0  0  0
 13 14  1  0  0  0
 13 27  1  0  0  0
 15 28  1  0  0  0
 15 29  1  0  0  0
 15 30  1  0  0  0
 16 18  1  0  0  0
 17 31  1  0  0  0
 17 32  1  0  0  0
 18 19  1  0  0  0
 18 22  2  0  0  0
 19 20  1  0  0  0
 19 33  1  0  0  0
 20 21  2  0  0  0
 20 34  1  0  0  0
 21 22  1  0  0  0
 21 35  1  0  0  0
M  END
> <s_m_entry_id>
5353

> <s_m_entry_name>
dock_pv.21

> <s_m_Source_Path>
/home/csk/Desktop/cluster/DUD-E-result/hxk4

> <s_m_Source_File>
dock_pv.maegz

> <i_m_Source_File_Index>
21

> <chembl_id>
CHEMBL489334

> <chembl_pref_name>
None

> <i_lp_mmshare_version>
53161

> <r_lp_tautomer_probability>
0.99900048837556

> <s_lp_Force_Field>
OPLS_2005

> <r_lp_Energy>
16.456596

> <b_lp_Chiralities_Consistent>
1

> <s_lp_Variant>
CHEMBL3820_lig149-1

> <s_i_glide_gridfile>
glide-grid_3f9m

> <i_i_glide_lignum>
165

> <i_i_glide_rotatable_bonds>
5

> <r_i_docking_score>
-9.94027010072771

> <r_i_glide_ligand_efficiency>
-0.451830459123987

> <r_i_glide_ligand_efficiency_sa>
-1.26604671594902

> <r_i_glide_ligand_efficiency_ln>
-2.42976459277947

> <r_i_glide_gscore>
-9.94027010072771

> <r_i_glide_lipo>
-3.39030137794855

> <r_i_glide_hbond>
-0.787442210693199

> <r_i_glide_metal>
0

> <r_i_glide_rewards>
-3.26284011719322

> <r_i_glide_evdw>
-44.8839073181152

> <r_i_glide_ecoul>
-7.41504287719727

> <r_i_glide_erotb>
0.856765402592604

> <r_i_glide_esite>
0

> <r_i_glide_emodel>
-74.9059875994732

> <r_i_glide_energy>
-52.2989501953125

> <r_i_glide_einternal>
1.72828388214111

> <i_i_glide_confnum>
2

> <i_i_glide_posenum>
380

> <r_i_glide_eff_state_penalty>
0

> <s_user_duplicate_titles>
CHEMBL3820_lig149,457804

> <i_f3d_flags>
0

> <s_m_subgroup_title>
dock_pv

> <s_m_subgroupid>
dock_pv

> <b_m_subgroup_collapsed>
0

$$$$
CHEMBL3820_lig142
                    3D
 Schrodinger Suite 2021-1.
 38 40  0  0  1  0            999 V2000
   -9.8890    3.9571   20.5810 C   0  0  0  0  0  0
   -9.2257    4.7422   19.6285 C   0  0  0  0  0  0
   -8.3151    4.1532   18.7544 C   0  0  0  0  0  0
   -7.9891    2.7971   18.8680 C   0  0  0  0  0  0
   -8.5766    2.0056   19.8867 C   0  0  0  0  0  0
   -9.5784    2.6045   20.6625 C   0  0  0  0  0  0
   -8.1459    0.5771   20.1959 C   0  0  0  0  0  0
   -8.4462    0.0993   21.4300 N   0  0  0  0  0  0
   -7.4890   -0.0594   19.3810 O   0  0  0  0  0  0
   -8.1787   -1.1764   21.9361 C   0  0  0  0  0  0
   -8.1830   -1.4191   23.2249 N   0  0  0  0  0  0
   -7.9283   -2.6897   23.5039 C   0  0  0  0  0  0
   -7.7346   -3.5209   22.4096 C   0  0  0  0  0  0
   -7.8890   -2.5961   20.9603 S   0  0  0  0  0  0
   -7.8890   -3.0905   24.9555 C   0  0  0  0  0  0
  -10.8267    4.4295   21.4755 O   0  0  0  0  0  0
   -7.0890    2.3016   17.9278 N   0  0  0  0  0  0
  -11.3317    5.6954   21.3475 C   0  0  0  0  0  0
  -10.9596    6.6799   22.2607 C   0  0  0  0  0  0
  -11.4353    7.9796   22.1312 C   0  0  0  0  0  0
  -12.2890    8.2939   21.0790 C   0  0  0  0  0  0
  -12.6894    7.3050   20.1810 C   0  0  0  0  0  0
  -12.2150    6.0055   20.3146 C   0  0  0  0  0  0
  -11.0621    8.9300   23.0168 F   0  0  0  0  0  0
   -9.4347    5.7979   19.5333 H   0  0  0  0  0  0
   -7.8853    4.7672   17.9783 H   0  0  0  0  0  0
  -10.1308    2.0237   21.3810 H   0  0  0  0  0  0
   -8.7831    0.7752   22.1045 H   0  0  0  0  0  0
   -7.5264   -4.5807   22.3871 H   0  0  0  0  0  0
   -7.4893   -4.0965   25.0872 H   0  0  0  0  0  0
   -8.8919   -3.0950   25.3810 H   0  0  0  0  0  0
   -7.2665   -2.4223   25.5515 H   0  0  0  0  0  0
   -6.6890    2.9427   17.2496 H   0  0  0  0  0  0
   -6.8348    1.3211   17.9548 H   0  0  0  0  0  0
  -10.2890    6.4434   23.0630 H   0  0  0  0  0  0
  -12.6490    9.3067   20.9635 H   0  0  0  0  0  0
  -13.3692    7.5431   19.3810 H   0  0  0  0  0  0
  -12.5205    5.2433   19.6158 H   0  0  0  0  0  0
  1  6  1  0  0  0
  1  2  2  0  0  0
  1 16  1  0  0  0
  2  3  1  0  0  0
  2 25  1  0  0  0
  3  4  2  0  0  0
  3 26  1  0  0  0
  4 17  1  0  0  0
  4  5  1  0  0  0
  5  7  1  0  0  0
  5  6  2  0  0  0
  6 27  1  0  0  0
  7  8  1  0  0  0
  7  9  2  0  0  0
  8 10  1  0  0  0
  8 28  1  0  0  0
 10 14  1  0  0  0
 10 11  2  0  0  0
 11 12  1  0  0  0
 12 13  2  0  0  0
 12 15  1  0  0  0
 13 14  1  0  0  0
 13 29  1  0  0  0
 15 30  1  0  0  0
 15 31  1  0  0  0
 15 32  1  0  0  0
 16 18  1  0  0  0
 17 33  1  0  0  0
 17 34  1  0  0  0
 18 19  2  0  0  0
 18 23  1  0  0  0
 19 20  1  0  0  0
 19 35  1  0  0  0
 20 21  2  0  0  0
 20 24  1  0  0  0
 21 22  1  0  0  0
 21 36  1  0  0  0
 22 23  2  0  0  0
 22 37  1  0  0  0
 23 38  1  0  0  0
M  END
> <s_m_entry_id>
5354

> <s_m_entry_name>
dock_pv.22

> <s_m_Source_Path>
/home/csk/Desktop/cluster/DUD-E-result/hxk4

> <s_m_Source_File>
dock_pv.maegz

> <i_m_Source_File_Index>
22

> <chembl_id>
CHEMBL474353

> <chembl_pref_name>
None

> <i_lp_mmshare_version>
53161

> <r_lp_tautomer_probability>
0.999000488399163

> <s_lp_Force_Field>
OPLS_2005

> <r_lp_Energy>
22.724557

> <b_lp_Chiralities_Consistent>
1

> <s_lp_Variant>
CHEMBL3820_lig142-1

> <s_i_glide_gridfile>
glide-grid_3f9m

> <i_i_glide_lignum>
158

> <i_i_glide_rotatable_bonds>
5

> <r_i_docking_score>
-9.91890621596604

> <r_i_glide_ligand_efficiency>
-0.413287758998585

> <r_i_glide_ligand_efficiency_sa>
-1.19212818439516

> <r_i_glide_ligand_efficiency_ln>
-2.37404940642902

> <r_i_glide_gscore>
-9.91890621596604

> <r_i_glide_lipo>
-4.14538320473261

> <r_i_glide_hbond>
-0.726923368281623

> <r_i_glide_metal>
0

> <r_i_glide_rewards>
-2.61597113089361

> <r_i_glide_evdw>
-45.2775650024414

> <r_i_glide_ecoul>
-6.47583055496216

> <r_i_glide_erotb>
0.804624321308192

> <r_i_glide_esite>
0

> <r_i_glide_emodel>
-77.2808828079538

> <r_i_glide_energy>
-51.7533955574036

> <r_i_glide_einternal>
2.19037294387817

> <i_i_glide_confnum>
21

> <i_i_glide_posenum>
199

> <r_i_glide_eff_state_penalty>
0

> <s_user_duplicate_titles>
CHEMBL3820_lig142,457734

> <i_f3d_flags>
0

> <s_m_subgroup_title>
dock_pv

> <s_m_subgroupid>
dock_pv

> <b_m_subgroup_collapsed>
0

$$$$
CHEMBL3820_lig162
                    3D
 Schrodinger Suite 2021-1.
 37 39  0  0  1  0            999 V2000
   -9.9186    4.0517   20.6122 C   0  0  0  0  0  0
   -9.2821    4.8733   19.6817 C   0  0  0  0  0  0
   -8.3545    4.3162   18.8047 C   0  0  0  0  0  0
   -8.0201    2.9595   18.8864 C   0  0  0  0  0  0
   -8.6065    2.1291   19.8753 C   0  0  0  0  0  0
   -9.6061    2.6980   20.6717 C   0  0  0  0  0  0
   -8.1468    0.7065   20.1504 C   0  0  0  0  0  0
   -8.4057    0.1987   21.3812 N   0  0  0  0  0  0
   -7.4890    0.1049   19.3132 O   0  0  0  0  0  0
  -11.0890    4.6729   21.7808 S   0  0  0  0  0  0
   -7.0889    2.5048   17.9590 N   0  0  0  0  0  0
  -11.8781    5.9309   20.8693 C   0  0  0  0  0  0
  -11.9062    7.2639   21.1925 N   0  0  0  0  0  0
  -12.6890    7.8018   20.2066 C   0  0  0  0  0  0
  -13.0889    6.9050   19.3514 N   0  0  0  0  0  0
  -12.5632    5.7051   19.7814 N   0  0  0  0  0  0
  -11.2967    7.9424   22.3227 C   0  0  0  0  0  0
   -8.0614   -1.0715   21.8511 C   0  0  0  0  0  0
   -7.8787   -1.3164   23.1283 N   0  0  0  0  0  0
   -7.5121   -2.5722   23.3608 C   0  0  0  0  0  0
   -7.4784   -3.3965   22.2393 C   0  0  0  0  0  0
   -7.8890   -2.4795   20.8354 S   0  0  0  0  0  0
   -7.2033   -2.9846   24.7901 C   0  0  0  0  0  0
   -8.2856   -3.4949   25.3808 F   0  0  0  0  0  0
   -6.7556   -1.9655   25.5288 F   0  0  0  0  0  0
   -6.2630   -3.9306   24.8185 F   0  0  0  0  0  0
   -9.5013    5.9299   19.6264 H   0  0  0  0  0  0
   -7.8891    4.9534   18.0667 H   0  0  0  0  0  0
  -10.1430    2.0910   21.3810 H   0  0  0  0  0  0
   -8.7248    0.8559   22.0821 H   0  0  0  0  0  0
   -6.6886    3.1555   17.2879 H   0  0  0  0  0  0
   -6.8424    1.5219   17.9596 H   0  0  0  0  0  0
  -12.9070    8.8599   20.1810 H   0  0  0  0  0  0
  -11.6760    8.9635   22.3919 H   0  0  0  0  0  0
  -11.5351    7.4076   23.2426 H   0  0  0  0  0  0
  -10.2157    7.9752   22.1784 H   0  0  0  0  0  0
   -7.2329   -4.4472   22.1770 H   0  0  0  0  0  0
  1  6  1  0  0  0
  1  2  2  0  0  0
  1 10  1  0  0  0
  2  3  1  0  0  0
  2 27  1  0  0  0
  3  4  2  0  0  0
  3 28  1  0  0  0
  4  5  1  0  0  0
  4 11  1  0  0  0
  5  7  1  0  0  0
  5  6  2  0  0  0
  6 29  1  0  0  0
  7  8  1  0  0  0
  7  9  2  0  0  0
  8 18  1  0  0  0
  8 30  1  0  0  0
 10 12  1  0  0  0
 11 31  1  0  0  0
 11 32  1  0  0  0
 12 16  2  0  0  0
 12 13  1  0  0  0
 13 14  1  0  0  0
 13 17  1  0  0  0
 14 15  2  0  0  0
 14 33  1  0  0  0
 15 16  1  0  0  0
 17 34  1  0  0  0
 17 35  1  0  0  0
 17 36  1  0  0  0
 18 19  2  0  0  0
 18 22  1  0  0  0
 19 20  1  0  0  0
 20 21  2  0  0  0
 20 23  1  0  0  0
 21 22  1  0  0  0
 21 37  1  0  0  0
 23 24  1  0  0  0
 23 25  1  0  0  0
 23 26  1  0  0  0
M  END
> <s_m_entry_id>
5355

> <s_m_entry_name>
dock_pv.23

> <s_m_Source_Path>
/home/csk/Desktop/cluster/DUD-E-result/hxk4

> <s_m_Source_File>
dock_pv.maegz

> <i_m_Source_File_Index>
23

> <chembl_id>
CHEMBL491151

> <chembl_pref_name>
None

> <i_lp_mmshare_version>
53161

> <r_lp_tautomer_probability>
0.999000488399163

> <s_lp_Force_Field>
OPLS_2005

> <r_lp_Energy>
16.545607

> <b_lp_Chiralities_Consistent>
1

> <s_lp_Variant>
CHEMBL3820_lig162-1

> <s_i_glide_gridfile>
glide-grid_3f9m

> <i_i_glide_lignum>
179

> <i_i_glide_rotatable_bonds>
6

> <r_i_docking_score>
-9.89708878454395

> <r_i_glide_ligand_efficiency>
-0.380657260943998

> <r_i_glide_ligand_efficiency_sa>
-1.1276956377326

> <r_i_glide_ligand_efficiency_ln>
-2.32429882605306

> <r_i_glide_gscore>
-9.89708878454395

> <r_i_glide_lipo>
-3.1951147363704

> <r_i_glide_hbond>
-0.608

> <r_i_glide_metal>
0

> <r_i_glide_rewards>
-3.29727481260736

> <r_i_glide_evdw>
-44.1747398376465

> <r_i_glide_ecoul>
-7.84415006637573

> <r_i_glide_erotb>
0.611388137863273

> <r_i_glide_esite>
-0.022727871590776

> <r_i_glide_emodel>
-77.2940189853913

> <r_i_glide_energy>
-52.0188899040222

> <r_i_glide_einternal>
1.7029926776886

> <i_i_glide_confnum>
3

> <i_i_glide_posenum>
356

> <r_i_glide_eff_state_penalty>
0

> <s_user_duplicate_titles>
CHEMBL3820_lig162,458000

> <i_f3d_flags>
0

> <s_m_subgroup_title>
dock_pv

> <s_m_subgroupid>
dock_pv

> <b_m_subgroup_collapsed>
0

$$$$
CHEMBL3820_lig5
                    3D
 Schrodinger Suite 2021-1.
 37 39  0  0  1  0            999 V2000
   -8.3058    4.2062   18.8462 C   0  0  0  0  0  0
   -9.6139    2.6147   20.6903 C   0  0  0  0  0  0
   -7.8034   -3.5069   22.4413 C   0  0  0  0  0  0
  -12.6890    7.7375   20.1819 C   0  0  0  0  0  0
   -8.0491   -2.6725   23.5240 C   0  0  0  0  0  0
   -8.0002    2.8419   18.9258 C   0  0  0  0  0  0
  -11.8494    5.8802   20.8528 C   0  0  0  0  0  0
   -8.0764   -3.0587   24.9810 C   0  0  0  0  0  0
  -11.7712    7.7884   22.5451 C   0  0  0  0  0  0
   -9.2236    4.7828   19.7212 C   0  0  0  0  0  0
   -9.8972    3.9737   20.6364 C   0  0  0  0  0  0
   -8.6081    2.0277   19.9135 C   0  0  0  0  0  0
   -8.2343   -1.1679   21.9397 C   0  0  0  0  0  0
   -8.1848    0.5921   20.2010 C   0  0  0  0  0  0
   -7.0890    2.3608   17.9909 N   0  0  0  0  0  0
  -12.8145    6.9013   19.1915 N   0  0  0  0  0  0
   -8.2890   -1.4047   23.2275 N   0  0  0  0  0  0
  -12.2890    5.7050   19.6382 N   0  0  0  0  0  0
   -8.4935    0.1050   21.4286 N   0  0  0  0  0  0
  -12.1013    7.1619   21.2774 N   0  0  0  0  0  0
   -7.5276   -0.0377   19.3810 O   0  0  0  0  0  0
   -7.8890   -2.5858   20.9810 S   0  0  0  0  0  0
  -11.0890    4.6141   21.7810 S   0  0  0  0  0  0
   -7.8338    4.8371   18.1088 H   0  0  0  0  0  0
  -10.1830    2.0160   21.3810 H   0  0  0  0  0  0
   -7.5922   -4.5663   22.4323 H   0  0  0  0  0  0
  -12.9819    8.7774   20.1810 H   0  0  0  0  0  0
   -7.7130   -4.0753   25.1340 H   0  0  0  0  0  0
   -9.0890   -3.0283   25.3810 H   0  0  0  0  0  0
   -7.4471   -2.4060   25.5862 H   0  0  0  0  0  0
  -11.7628    8.8732   22.4313 H   0  0  0  0  0  0
  -12.5304    7.5203   23.2803 H   0  0  0  0  0  0
  -10.7920    7.4480   22.8830 H   0  0  0  0  0  0
   -9.4192    5.8441   19.6654 H   0  0  0  0  0  0
   -6.6890    3.0036   17.3141 H   0  0  0  0  0  0
   -6.8623    1.3733   17.9896 H   0  0  0  0  0  0
   -8.8347    0.7784   22.1035 H   0  0  0  0  0  0
  1  6  2  0  0  0
  1 10  1  0  0  0
  1 24  1  0  0  0
  2 11  1  0  0  0
  2 12  2  0  0  0
  2 25  1  0  0  0
  3  5  2  0  0  0
  3 22  1  0  0  0
  3 26  1  0  0  0
  4 16  2  0  0  0
  4 20  1  0  0  0
  4 27  1  0  0  0
  5  8  1  0  0  0
  5 17  1  0  0  0
  6 12  1  0  0  0
  6 15  1  0  0  0
  7 18  2  0  0  0
  7 20  1  0  0  0
  7 23  1  0  0  0
  8 28  1  0  0  0
  8 29  1  0  0  0
  8 30  1  0  0  0
  9 20  1  0  0  0
  9 31  1  0  0  0
  9 32  1  0  0  0
  9 33  1  0  0  0
 10 11  2  0  0  0
 10 34  1  0  0  0
 11 23  1  0  0  0
 12 14  1  0  0  0
 13 17  2  0  0  0
 13 19  1  0  0  0
 13 22  1  0  0  0
 14 19  1  0  0  0
 14 21  2  0  0  0
 15 35  1  0  0  0
 15 36  1  0  0  0
 16 18  1  0  0  0
 19 37  1  0  0  0
M  END
> <s_m_entry_id>
5356

> <s_m_entry_name>
dock_pv.24

> <s_m_Source_Path>
/home/csk/Desktop/cluster/DUD-E-result/hxk4

> <s_m_Source_File>
dock_pv.maegz

> <i_m_Source_File_Index>
24

> <chembl_id>
CHEMBL489514

> <chembl_pref_name>
None

> <i_lp_mmshare_version>
53161

> <r_lp_tautomer_probability>
0.999000488399163

> <s_lp_Force_Field>
OPLS_2005

> <r_lp_Energy>
15.04148

> <b_lp_Chiralities_Consistent>
1

> <s_lp_Variant>
CHEMBL3820_lig5-1

> <s_i_glide_gridfile>
glide-grid_3f9m

> <i_i_glide_lignum>
5

> <i_i_glide_rotatable_bonds>
5

> <r_i_docking_score>
-9.88528124941585

> <r_i_glide_ligand_efficiency>
-0.429794836931124

> <r_i_glide_ligand_efficiency_sa>
-1.22227934358163

> <r_i_glide_ligand_efficiency_ln>
-2.3903506408834

> <r_i_glide_gscore>
-9.88528124941585

> <r_i_glide_lipo>
-2.98316019915431

> <r_i_glide_hbond>
-0.792753990446967

> <r_i_glide_metal>
0

> <r_i_glide_rewards>
-3.5753810537047

> <r_i_glide_evdw>
-45.3295860290527

> <r_i_glide_ecoul>
-7.06381988525391

> <r_i_glide_erotb>
0.792066278130852

> <r_i_glide_esite>
0

> <r_i_glide_emodel>
-76.9054444107424

> <r_i_glide_energy>
-52.3934059143066

> <r_i_glide_einternal>
1.31083846092224

> <i_i_glide_confnum>
72

> <i_i_glide_posenum>
356

> <r_i_glide_eff_state_penalty>
0

> <s_user_duplicate_titles>
CHEMBL3820_lig5,457866

> <i_f3d_flags>
0

> <s_m_subgroup_title>
dock_pv

> <s_m_subgroupid>
dock_pv

> <b_m_subgroup_collapsed>
0

$$$$
CHEMBL3820_lig146
                    3D
 Schrodinger Suite 2021-1.
 34 35  0  0  1  0            999 V2000
   -9.8960    4.3635   20.4218 C   0  0  0  0  0  0
   -9.2478    5.0715   19.4107 C   0  0  0  0  0  0
   -8.3461    4.4173   18.5812 C   0  0  0  0  0  0
   -8.0608    3.0630   18.7660 C   0  0  0  0  0  0
   -8.6877    2.3312   19.8093 C   0  0  0  0  0  0
   -9.6252    3.0074   20.6039 C   0  0  0  0  0  0
   -8.3281    0.8835   20.1106 C   0  0  0  0  0  0
   -8.5057    0.4434   21.3806 N   0  0  0  0  0  0
   -7.8610    0.1798   19.2206 O   0  0  0  0  0  0
   -8.2486   -0.8379   21.8829 C   0  0  0  0  0  0
   -8.2889   -1.0784   23.1703 N   0  0  0  0  0  0
   -8.0509   -2.3469   23.4647 C   0  0  0  0  0  0
   -7.8009   -3.1798   22.3835 C   0  0  0  0  0  0
   -7.8888   -2.2574   20.9265 S   0  0  0  0  0  0
   -8.0773   -2.7336   24.9203 C   0  0  0  0  0  0
  -11.0890    5.1380   21.4723 S   0  0  0  0  0  0
   -7.1435    2.5038   17.8792 N   0  0  0  0  0  0
  -11.5481    6.7597   20.8023 C   0  0  0  0  0  0
  -12.4356    6.7000   19.5562 C   0  0  0  0  0  0
   -9.4383    6.1185   19.2419 H   0  0  0  0  0  0
   -7.8889    4.9790   17.7813 H   0  0  0  0  0  0
  -10.1622    2.4842   21.3809 H   0  0  0  0  0  0
   -8.8128    1.1268   22.0660 H   0  0  0  0  0  0
   -7.5852   -4.2381   22.3713 H   0  0  0  0  0  0
   -7.7249   -3.7549   25.0681 H   0  0  0  0  0  0
   -9.0887   -2.6965   25.3232 H   0  0  0  0  0  0
   -7.4384   -2.0891   25.5263 H   0  0  0  0  0  0
   -6.6945    3.1021   17.1905 H   0  0  0  0  0  0
   -6.9603    1.5079   17.9305 H   0  0  0  0  0  0
  -12.0814    7.2976   21.5873 H   0  0  0  0  0  0
  -10.6453    7.3377   20.6099 H   0  0  0  0  0  0
  -12.6929    7.7034   19.2201 H   0  0  0  0  0  0
  -11.9356    6.1923   18.7303 H   0  0  0  0  0  0
  -13.3641    6.1691   19.7623 H   0  0  0  0  0  0
  1  6  1  0  0  0
  1  2  2  0  0  0
  1 16  1  0  0  0
  2  3  1  0  0  0
  2 20  1  0  0  0
  3  4  2  0  0  0
  3 21  1  0  0  0
  4  5  1  0  0  0
  4 17  1  0  0  0
  5  6  2  0  0  0
  5  7  1  0  0  0
  6 22  1  0  0  0
  7  8  1  0  0  0
  7  9  2  0  0  0
  8 10  1  0  0  0
  8 23  1  0  0  0
 10 11  2  0  0  0
 10 14  1  0  0  0
 11 12  1  0  0  0
 12 13  2  0  0  0
 12 15  1  0  0  0
 13 14  1  0  0  0
 13 24  1  0  0  0
 15 25  1  0  0  0
 15 26  1  0  0  0
 15 27  1  0  0  0
 16 18  1  0  0  0
 17 28  1  0  0  0
 17 29  1  0  0  0
 18 19  1  0  0  0
 18 30  1  0  0  0
 18 31  1  0  0  0
 19 32  1  0  0  0
 19 33  1  0  0  0
 19 34  1  0  0  0
M  END
> <s_m_entry_id>
5358

> <s_m_entry_name>
dock_pv.26

> <s_m_Source_Path>
/home/csk/Desktop/cluster/DUD-E-result/hxk4

> <s_m_Source_File>
dock_pv.maegz

> <i_m_Source_File_Index>
26

> <chembl_id>
CHEMBL451084

> <chembl_pref_name>
None

> <i_lp_mmshare_version>
53161

> <r_lp_tautomer_probability>
0.999000488399163

> <s_lp_Force_Field>
OPLS_2005

> <r_lp_Energy>
15.431112

> <b_lp_Chiralities_Consistent>
1

> <s_lp_Variant>
CHEMBL3820_lig146-1

> <s_i_glide_gridfile>
glide-grid_3f9m

> <i_i_glide_lignum>
162

> <i_i_glide_rotatable_bonds>
5

> <r_i_docking_score>
-9.74946382490216

> <r_i_glide_ligand_efficiency>
-0.513129674994851

> <r_i_glide_ligand_efficiency_sa>
-1.36923606942054

> <r_i_glide_ligand_efficiency_ln>
-2.47169847889559

> <r_i_glide_gscore>
-9.74946382490216

> <r_i_glide_lipo>
-3.46989718830779

> <r_i_glide_hbond>
-0.813066475057461

> <r_i_glide_metal>
0

> <r_i_glide_rewards>
-3.06689190762978

> <r_i_glide_evdw>
-39.0418968200684

> <r_i_glide_ecoul>
-8.64340782165527

> <r_i_glide_erotb>
0.84899776034458

> <r_i_glide_esite>
0

> <r_i_glide_emodel>
-73.8829601593317

> <r_i_glide_energy>
-47.6853046417236

> <r_i_glide_einternal>
0.495096176862717

> <i_i_glide_confnum>
1

> <i_i_glide_posenum>
17

> <r_i_glide_eff_state_penalty>
0

> <s_user_duplicate_titles>
CHEMBL3820_lig146,457801

> <i_f3d_flags>
0

> <s_m_subgroup_title>
dock_pv

> <s_m_subgroupid>
dock_pv

> <b_m_subgroup_collapsed>
0

$$$$
CHEMBL3820_lig144
                    3D
 Schrodinger Suite 2021-1.
 42 44  0  0  1  0            999 V2000
   -9.8927    4.1588   20.7309 C   0  0  0  0  0  0
   -9.2107    4.9327   19.7824 C   0  0  0  0  0  0
   -8.3267    4.3373   18.8939 C   0  0  0  0  0  0
   -8.0485    2.9724   18.9808 C   0  0  0  0  0  0
   -8.6890    2.1663   19.9582 C   0  0  0  0  0  0
   -9.6650    2.7846   20.7597 C   0  0  0  0  0  0
   -8.2888    0.7183   20.2188 C   0  0  0  0  0  0
   -8.5708    0.2162   21.4429 N   0  0  0  0  0  0
   -7.6564    0.0892   19.3800 O   0  0  0  0  0  0
   -8.2729   -1.0545   21.9404 C   0  0  0  0  0  0
   -8.2883   -1.2935   23.2281 N   0  0  0  0  0  0
   -8.0037   -2.5528   23.5184 C   0  0  0  0  0  0
   -7.7493   -3.3783   22.4310 C   0  0  0  0  0  0
   -7.8890   -2.4583   20.9740 S   0  0  0  0  0  0
   -7.9962   -2.9374   24.9755 C   0  0  0  0  0  0
  -10.7652    4.7080   21.6572 O   0  0  0  0  0  0
   -7.0890    2.4988   18.0907 N   0  0  0  0  0  0
  -11.4994    5.8064   21.2765 C   0  0  0  0  0  0
  -11.4238    7.0275   21.9678 C   0  0  0  0  0  0
  -12.0060    8.1548   21.3810 C   0  0  0  0  0  0
  -12.6890    8.0563   20.1822 C   0  0  0  0  0  0
  -12.8795    6.8279   19.5694 C   0  0  0  0  0  0
  -12.2913    5.7050   20.1304 C   0  0  0  0  0  0
  -10.7890    7.0952   23.1900 O   0  0  0  0  0  0
  -11.0141    8.2620   23.9889 C   0  0  0  0  0  0
   -9.3608    6.0018   19.7328 H   0  0  0  0  0  0
   -7.8301    4.9580   18.1626 H   0  0  0  0  0  0
  -10.2544    2.2046   21.4474 H   0  0  0  0  0  0
   -8.9203    0.8774   22.1270 H   0  0  0  0  0  0
   -7.5033   -4.4301   22.4167 H   0  0  0  0  0  0
   -7.5705   -3.9296   25.1278 H   0  0  0  0  0  0
   -9.0075   -2.9678   25.3799 H   0  0  0  0  0  0
   -7.4052   -2.2451   25.5757 H   0  0  0  0  0  0
   -6.6892    3.1274   17.3997 H   0  0  0  0  0  0
   -6.8950    1.5041   18.0778 H   0  0  0  0  0  0
  -11.9375    9.1349   21.8270 H   0  0  0  0  0  0
  -13.0890    8.9701   19.7810 H   0  0  0  0  0  0
  -13.4551    6.7576   18.6576 H   0  0  0  0  0  0
  -12.4029    4.7460   19.6585 H   0  0  0  0  0  0
  -10.6864    8.1052   25.0098 H   0  0  0  0  0  0
  -10.4680    9.1206   23.5954 H   0  0  0  0  0  0
  -12.0747    8.5141   24.0554 H   0  0  0  0  0  0
  1  2  2  0  0  0
  1 16  1  0  0  0
  1  6  1  0  0  0
  2  3  1  0  0  0
  2 26  1  0  0  0
  3  4  2  0  0  0
  3 27  1  0  0  0
  4 17  1  0  0  0
  4  5  1  0  0  0
  5  7  1  0  0  0
  5  6  2  0  0  0
  6 28  1  0  0  0
  7  8  1  0  0  0
  7  9  2  0  0  0
  8 10  1  0  0  0
  8 29  1  0  0  0
 10 14  1  0  0  0
 10 11  2  0  0  0
 11 12  1  0  0  0
 12 13  2  0  0  0
 12 15  1  0  0  0
 13 14  1  0  0  0
 13 30  1  0  0  0
 15 31  1  0  0  0
 15 32  1  0  0  0
 15 33  1  0  0  0
 16 18  1  0  0  0
 17 34  1  0  0  0
 17 35  1  0  0  0
 18 19  2  0  0  0
 18 23  1  0  0  0
 19 20  1  0  0  0
 19 24  1  0  0  0
 20 21  2  0  0  0
 20 36  1  0  0  0
 21 22  1  0  0  0
 21 37  1  0  0  0
 22 23  2  0  0  0
 22 38  1  0  0  0
 23 39  1  0  0  0
 24 25  1  0  0  0
 25 40  1  0  0  0
 25 41  1  0  0  0
 25 42  1  0  0  0
M  END
> <s_m_entry_id>
5359

> <s_m_entry_name>
dock_pv.27

> <s_m_Source_Path>
/home/csk/Desktop/cluster/DUD-E-result/hxk4

> <s_m_Source_File>
dock_pv.maegz

> <i_m_Source_File_Index>
27

> <chembl_id>
CHEMBL474549

> <chembl_pref_name>
None

> <i_lp_mmshare_version>
53161

> <r_lp_tautomer_probability>
0.999000488399163

> <s_lp_Force_Field>
OPLS_2005

> <r_lp_Energy>
25.246364

> <b_lp_Chiralities_Consistent>
1

> <s_lp_Variant>
CHEMBL3820_lig144-1

> <s_i_glide_gridfile>
glide-grid_3f9m

> <i_i_glide_lignum>
160

> <i_i_glide_rotatable_bonds>
6

> <r_i_docking_score>
-9.74167275246915

> <r_i_glide_ligand_efficiency>
-0.389666910098766

> <r_i_glide_ligand_efficiency_sa>
-1.13939295590087

> <r_i_glide_ligand_efficiency_ln>
-2.30906837670992

> <r_i_glide_gscore>
-9.74167275246915

> <r_i_glide_lipo>
-4.15410520742404

> <r_i_glide_hbond>
-0.806522039554523

> <r_i_glide_metal>
0

> <r_i_glide_rewards>
-2.18578887262427

> <r_i_glide_evdw>
-39.6014633178711

> <r_i_glide_ecoul>
-9.14677333831787

> <r_i_glide_erotb>
0.75683253377492

> <r_i_glide_esite>
0

> <r_i_glide_emodel>
-66.7028872642856

> <r_i_glide_energy>
-48.748236656189

> <r_i_glide_einternal>
5.17748975753784

> <i_i_glide_confnum>
4

> <i_i_glide_posenum>
390

> <r_i_glide_eff_state_penalty>
0

> <s_user_duplicate_titles>
CHEMBL3820_lig144,457736

> <i_f3d_flags>
0

> <s_m_subgroup_title>
dock_pv

> <s_m_subgroupid>
dock_pv

> <b_m_subgroup_collapsed>
0

$$$$
CHEMBL3820_lig116
                    3D
 Schrodinger Suite 2021-1.
 38 40  0  0  1  0            999 V2000
   -9.7811    3.8853   20.5293 C   0  0  0  0  0  0
   -9.1478    4.6341   19.5285 C   0  0  0  0  0  0
   -8.2890    4.0034   18.6288 C   0  0  0  0  0  0
   -7.9637    2.6475   18.7741 C   0  0  0  0  0  0
   -8.5274    1.8966   19.8385 C   0  0  0  0  0  0
   -9.4909    2.5321   20.6293 C   0  0  0  0  0  0
   -8.1248    0.4688   20.1807 C   0  0  0  0  0  0
   -8.4296    0.0147   21.4215 N   0  0  0  0  0  0
   -7.4889   -0.1992   19.3810 O   0  0  0  0  0  0
   -8.1769   -1.2586   21.9388 C   0  0  0  0  0  0
   -8.1866   -1.4823   23.2290 N   0  0  0  0  0  0
   -7.9301   -2.7471   23.5248 C   0  0  0  0  0  0
   -7.7333   -3.5962   22.4446 C   0  0  0  0  0  0
   -7.8890   -2.6946   20.9810 S   0  0  0  0  0  0
   -7.9047   -3.1194   24.9810 C   0  0  0  0  0  0
  -10.6662    4.3859   21.4604 O   0  0  0  0  0  0
   -7.1029    2.1050   17.8186 N   0  0  0  0  0  0
  -11.2264    5.6237   21.3011 C   0  0  0  0  0  0
  -12.1553    5.8531   20.2892 C   0  0  0  0  0  0
  -12.6890    7.1235   20.1278 C   0  0  0  0  0  0
  -12.2890    8.1507   20.9811 C   0  0  0  0  0  0
  -11.4011    7.9159   22.0231 C   0  0  0  0  0  0
  -10.8734    6.6424   22.1811 C   0  0  0  0  0  0
   -9.3493    5.6897   19.4166 H   0  0  0  0  0  0
   -7.8890    4.5862   17.8139 H   0  0  0  0  0  0
  -10.0291    1.9819   21.3810 H   0  0  0  0  0  0
   -8.7534    0.7040   22.0880 H   0  0  0  0  0  0
   -7.5268   -4.6565   22.4395 H   0  0  0  0  0  0
   -7.5265   -4.1301   25.1377 H   0  0  0  0  0  0
   -8.9168   -3.0949   25.3810 H   0  0  0  0  0  0
   -7.2805   -2.4484   25.5719 H   0  0  0  0  0  0
   -6.6891    2.7107   17.1201 H   0  0  0  0  0  0
   -6.8432    1.1280   17.8940 H   0  0  0  0  0  0
  -12.4514    5.0486   19.6367 H   0  0  0  0  0  0
  -13.4053    7.3050   19.3408 H   0  0  0  0  0  0
  -12.6890    9.1445   20.8374 H   0  0  0  0  0  0
  -11.1173    8.7169   22.6897 H   0  0  0  0  0  0
  -10.1865    6.4457   22.9810 H   0  0  0  0  0  0
  1  6  1  0  0  0
  1  2  2  0  0  0
  1 16  1  0  0  0
  2  3  1  0  0  0
  2 24  1  0  0  0
  3  4  2  0  0  0
  3 25  1  0  0  0
  4 17  1  0  0  0
  4  5  1  0  0  0
  5  6  2  0  0  0
  5  7  1  0  0  0
  6 26  1  0  0  0
  7  8  1  0  0  0
  7  9  2  0  0  0
  8 10  1  0  0  0
  8 27  1  0  0  0
 10 14  1  0  0  0
 10 11  2  0  0  0
 11 12  1  0  0  0
 12 13  2  0  0  0
 12 15  1  0  0  0
 13 14  1  0  0  0
 13 28  1  0  0  0
 15 29  1  0  0  0
 15 30  1  0  0  0
 15 31  1  0  0  0
 16 18  1  0  0  0
 17 32  1  0  0  0
 17 33  1  0  0  0
 18 19  2  0  0  0
 18 23  1  0  0  0
 19 20  1  0  0  0
 19 34  1  0  0  0
 20 21  2  0  0  0
 20 35  1  0  0  0
 21 22  1  0  0  0
 21 36  1  0  0  0
 22 23  2  0  0  0
 22 37  1  0  0  0
 23 38  1  0  0  0
M  END
> <s_m_entry_id>
5360

> <s_m_entry_name>
dock_pv.28

> <s_m_Source_Path>
/home/csk/Desktop/cluster/DUD-E-result/hxk4

> <s_m_Source_File>
dock_pv.maegz

> <i_m_Source_File_Index>
28

> <chembl_id>
CHEMBL473760

> <chembl_pref_name>
None

> <i_lp_mmshare_version>
53161

> <r_lp_tautomer_probability>
0.999000488399163

> <s_lp_Force_Field>
OPLS_2005

> <r_lp_Energy>
22.135416

> <b_lp_Chiralities_Consistent>
1

> <s_lp_Variant>
CHEMBL3820_lig116-1

> <s_i_glide_gridfile>
glide-grid_3f9m

> <i_i_glide_lignum>
132

> <i_i_glide_rotatable_bonds>
5

> <r_i_docking_score>
-9.57368141350776

> <r_i_glide_ligand_efficiency>
-0.416247017978598

> <r_i_glide_ligand_efficiency_sa>
-1.1837511486538

> <r_i_glide_ligand_efficiency_ln>
-2.31500297512973

> <r_i_glide_gscore>
-9.57368141350776

> <r_i_glide_lipo>
-4.20572616200713

> <r_i_glide_hbond>
-0.679620337685211

> <r_i_glide_metal>
0

> <r_i_glide_rewards>
-2.39025016381973

> <r_i_glide_evdw>
-46.3399467468262

> <r_i_glide_ecoul>
-5.77406549453735

> <r_i_glide_erotb>
0.885022411526223

> <r_i_glide_esite>
0

> <r_i_glide_emodel>
-74.2684691883296

> <r_i_glide_energy>
-52.1140122413635

> <r_i_glide_einternal>
2.85615491867065

> <i_i_glide_confnum>
18

> <i_i_glide_posenum>
48

> <r_i_glide_eff_state_penalty>
0

> <s_user_duplicate_titles>
CHEMBL3820_lig116,457732

> <i_f3d_flags>
0

> <s_m_subgroup_title>
dock_pv

> <s_m_subgroupid>
dock_pv

> <b_m_subgroup_collapsed>
0

$$$$
CHEMBL3820_lig164
                    3D
 Schrodinger Suite 2021-1.
 40 42  0  0  1  0            999 V2000
   -7.4891    1.1681   18.7687 C   0  0  0  0  0  0
   -7.4896    2.5044   18.4111 C   0  0  0  0  0  0
   -9.0361    1.6248   20.5484 C   0  0  0  0  0  0
  -12.3242    7.9120   20.9578 C   0  0  0  0  0  0
   -7.1157   -2.1129   23.7028 C   0  0  0  0  0  0
   -8.2381    0.7210   19.8505 C   0  0  0  0  0  0
  -10.7999    6.1136   21.2950 C   0  0  0  0  0  0
  -10.1475    3.8310   20.8805 C   0  0  0  0  0  0
  -11.1752    9.3166   22.8336 C   0  0  0  0  0  0
   -9.3188    5.2850   17.8667 C   0  0  0  0  0  0
   -7.2126   -3.6847   21.7227 C   0  0  0  0  0  0
  -11.3768    8.1021   21.9573 C   0  0  0  0  0  0
   -8.2892    3.4253   19.0806 C   0  0  0  0  0  0
   -9.1071    2.9780   20.1738 C   0  0  0  0  0  0
   -7.8595   -1.2254   21.8718 C   0  0  0  0  0  0
   -7.3515   -0.8550   23.9576 N   0  0  0  0  0  0
  -10.5219    7.1075   22.1001 N   0  0  0  0  0  0
   -7.8628   -0.2950   22.7912 N   0  0  0  0  0  0
   -8.1851    4.7446   18.6008 N   0  0  0  0  0  0
   -9.8889    5.1427   20.9663 N   0  0  0  0  0  0
   -7.4247   -2.4200   22.4040 N   0  0  0  0  0  0
  -11.1503    3.3126   21.3806 O   0  0  0  0  0  0
  -12.1979    6.3285   20.2876 S   0  0  0  0  0  0
   -8.2889   -1.0187   20.1810 S   0  0  0  0  0  0
   -6.8845    0.4961   18.1821 H   0  0  0  0  0  0
   -6.8826    2.8071   17.5723 H   0  0  0  0  0  0
   -9.6497    1.2514   21.3584 H   0  0  0  0  0  0
  -13.0872    8.5796   20.5810 H   0  0  0  0  0  0
   -6.7036   -2.8558   24.3697 H   0  0  0  0  0  0
  -11.9389   10.0740   22.6550 H   0  0  0  0  0  0
  -10.2102    9.7915   22.6506 H   0  0  0  0  0  0
  -11.2214    9.0676   23.8937 H   0  0  0  0  0  0
   -8.9606    5.9277   17.0683 H   0  0  0  0  0  0
   -9.8889    4.5053   17.3810 H   0  0  0  0  0  0
   -9.9813    5.8714   18.4973 H   0  0  0  0  0  0
   -6.5015   -4.2962   22.2794 H   0  0  0  0  0  0
   -8.1625   -4.2154   21.6596 H   0  0  0  0  0  0
   -6.8239   -3.4957   20.7206 H   0  0  0  0  0  0
   -7.3444    4.8717   18.0482 H   0  0  0  0  0  0
   -8.9214    5.4350   20.9039 H   0  0  0  0  0  0
  1  2  2  0  0  0
  1  6  1  0  0  0
  1 25  1  0  0  0
  2 13  1  0  0  0
  2 26  1  0  0  0
  3  6  2  0  0  0
  3 14  1  0  0  0
  3 27  1  0  0  0
  4 12  2  0  0  0
  4 23  1  0  0  0
  4 28  1  0  0  0
  5 16  2  0  0  0
  5 21  1  0  0  0
  5 29  1  0  0  0
  6 24  1  0  0  0
  7 17  2  0  0  0
  7 20  1  0  0  0
  7 23  1  0  0  0
  8 14  1  0  0  0
  8 20  1  0  0  0
  8 22  2  0  0  0
  9 12  1  0  0  0
  9 30  1  0  0  0
  9 31  1  0  0  0
  9 32  1  0  0  0
 10 19  1  0  0  0
 10 33  1  0  0  0
 10 34  1  0  0  0
 10 35  1  0  0  0
 11 21  1  0  0  0
 11 36  1  0  0  0
 11 37  1  0  0  0
 11 38  1  0  0  0
 12 17  1  0  0  0
 13 14  2  0  0  0
 13 19  1  0  0  0
 15 18  2  0  0  0
 15 21  1  0  0  0
 15 24  1  0  0  0
 16 18  1  0  0  0
 19 39  1  0  0  0
 20 40  1  0  0  0
M  END
> <s_m_entry_id>
5361

> <s_m_entry_name>
dock_pv.29

> <s_m_Source_Path>
/home/csk/Desktop/cluster/DUD-E-result/hxk4

> <s_m_Source_File>
dock_pv.maegz

> <i_m_Source_File_Index>
29

> <chembl_id>
CHEMBL490961

> <chembl_pref_name>
None

> <i_lp_mmshare_version>
53161

> <r_lp_tautomer_probability>
0.999000488399163

> <s_lp_Force_Field>
OPLS_2005

> <r_lp_Energy>
18.184345

> <b_lp_Chiralities_Consistent>
1

> <s_lp_Variant>
CHEMBL3820_lig164-1

> <s_i_glide_gridfile>
glide-grid_3f9m

> <i_i_glide_lignum>
181

> <i_i_glide_rotatable_bonds>
6

> <r_i_docking_score>
-9.33019617380363

> <r_i_glide_ligand_efficiency>
-0.388758173908484

> <r_i_glide_ligand_efficiency_sa>
-1.12137261735808

> <r_i_glide_ligand_efficiency_ln>
-2.23314407919599

> <r_i_glide_gscore>
-9.33019617380363

> <r_i_glide_lipo>
-3.37311634481674

> <r_i_glide_hbond>
-0.555404956228907

> <r_i_glide_metal>
0

> <r_i_glide_rewards>
-3.2246481286706

> <r_i_glide_evdw>
-42.7675666809082

> <r_i_glide_ecoul>
-5.1780252456665

> <r_i_glide_erotb>
0.738055376808004

> <r_i_glide_esite>
0

> <r_i_glide_emodel>
-59.0496548782877

> <r_i_glide_energy>
-47.9455919265747

> <r_i_glide_einternal>
16.48850440979

> <i_i_glide_confnum>
21

> <i_i_glide_posenum>
15

> <r_i_glide_eff_state_penalty>
0

> <s_user_duplicate_titles>
CHEMBL3820_lig164

> <i_f3d_flags>
0

> <s_m_subgroup_title>
dock_pv

> <s_m_subgroupid>
dock_pv

> <b_m_subgroup_collapsed>
0

$$$$
CHEMBL3820_lig147
                    3D
 Schrodinger Suite 2021-1.
 38 40  0  0  1  0            999 V2000
   -9.8902    3.6561   20.6473 C   0  0  0  0  0  0
   -9.2305    4.5045   19.7576 C   0  0  0  0  0  0
   -8.2891    3.9556   18.8805 C   0  0  0  0  0  0
   -7.9578    2.5925   18.9399 C   0  0  0  0  0  0
   -8.5363    1.7656   19.9303 C   0  0  0  0  0  0
   -9.5592    2.3151   20.6941 C   0  0  0  0  0  0
   -8.1051    0.3413   20.2211 C   0  0  0  0  0  0
   -8.3658   -0.1336   21.4638 N   0  0  0  0  0  0
   -7.4952   -0.2963   19.3810 O   0  0  0  0  0  0
   -8.1005   -1.4092   21.9588 C   0  0  0  0  0  0
   -8.1619   -1.6575   23.2436 N   0  0  0  0  0  0
   -7.9003   -2.9231   23.5272 C   0  0  0  0  0  0
   -7.6294   -3.7417   22.4372 C   0  0  0  0  0  0
   -7.7329   -2.8127   20.9812 S   0  0  0  0  0  0
   -7.9421   -3.3218   24.9804 C   0  0  0  0  0  0
  -11.1418    4.1500   21.7808 S   0  0  0  0  0  0
   -7.0891    2.1079   17.9635 N   0  0  0  0  0  0
  -11.5120    5.8175   21.4322 C   0  0  0  0  0  0
  -12.2151    6.1179   20.2734 C   0  0  0  0  0  0
  -12.6011    7.4268   20.0519 C   0  0  0  0  0  0
  -12.2890    8.4155   20.9813 C   0  0  0  0  0  0
  -11.5915    8.1101   22.1463 C   0  0  0  0  0  0
  -11.1980    6.7979   22.3719 C   0  0  0  0  0  0
   -9.4601    5.5585   19.7080 H   0  0  0  0  0  0
   -7.8314    4.5992   18.1445 H   0  0  0  0  0  0
  -10.1116    1.6948   21.3810 H   0  0  0  0  0  0
   -8.6848    0.5440   22.1430 H   0  0  0  0  0  0
   -7.3962   -4.7958   22.4215 H   0  0  0  0  0  0
   -7.6563   -4.3651   25.1229 H   0  0  0  0  0  0
   -8.9492   -3.2109   25.3839 H   0  0  0  0  0  0
   -7.2652   -2.7210   25.5901 H   0  0  0  0  0  0
   -6.6904    2.7472   17.2862 H   0  0  0  0  0  0
   -6.8533    1.1218   17.9665 H   0  0  0  0  0  0
  -12.4611    5.3471   19.5586 H   0  0  0  0  0  0
  -13.0895    7.6954   19.1323 H   0  0  0  0  0  0
  -12.5812    9.4382   20.7852 H   0  0  0  0  0  0
  -11.3597    8.8850   22.8615 H   0  0  0  0  0  0
  -10.6817    6.5419   23.2830 H   0  0  0  0  0  0
  1  6  1  0  0  0
  1  2  2  0  0  0
  1 16  1  0  0  0
  2  3  1  0  0  0
  2 24  1  0  0  0
  3  4  2  0  0  0
  3 25  1  0  0  0
  4 17  1  0  0  0
  4  5  1  0  0  0
  5  6  2  0  0  0
  5  7  1  0  0  0
  6 26  1  0  0  0
  7  8  1  0  0  0
  7  9  2  0  0  0
  8 10  1  0  0  0
  8 27  1  0  0  0
 10 14  1  0  0  0
 10 11  2  0  0  0
 11 12  1  0  0  0
 12 13  2  0  0  0
 12 15  1  0  0  0
 13 14  1  0  0  0
 13 28  1  0  0  0
 15 29  1  0  0  0
 15 30  1  0  0  0
 15 31  1  0  0  0
 16 18  1  0  0  0
 17 32  1  0  0  0
 17 33  1  0  0  0
 18 19  2  0  0  0
 18 23  1  0  0  0
 19 20  1  0  0  0
 19 34  1  0  0  0
 20 21  2  0  0  0
 20 35  1  0  0  0
 21 22  1  0  0  0
 21 36  1  0  0  0
 22 23  2  0  0  0
 22 37  1  0  0  0
 23 38  1  0  0  0
M  END
> <s_m_entry_id>
5362

> <s_m_entry_name>
dock_pv.30

> <s_m_Source_Path>
/home/csk/Desktop/cluster/DUD-E-result/hxk4

> <s_m_Source_File>
dock_pv.maegz

> <i_m_Source_File_Index>
30

> <chembl_id>
CHEMBL489333

> <chembl_pref_name>
None

> <i_lp_mmshare_version>
53161

> <r_lp_tautomer_probability>
0.999000488399163

> <s_lp_Force_Field>
OPLS_2005

> <r_lp_Energy>
18.514345

> <b_lp_Chiralities_Consistent>
1

> <s_lp_Variant>
CHEMBL3820_lig147-1

> <s_i_glide_gridfile>
glide-grid_3f9m

> <i_i_glide_lignum>
163

> <i_i_glide_rotatable_bonds>
5

> <r_i_docking_score>
-9.31834869614546

> <r_i_glide_ligand_efficiency>
-0.405145595484585

> <r_i_glide_ligand_efficiency_sa>
-1.15218017982669

> <r_i_glide_ligand_efficiency_ln>
-2.25326120884245

> <r_i_glide_gscore>
-9.31834869614546

> <r_i_glide_lipo>
-4.22238880270072

> <r_i_glide_hbond>
-0.572813772919982

> <r_i_glide_metal>
0

> <r_i_glide_rewards>
-2.38493562134555

> <r_i_glide_evdw>
-42.7388877868652

> <r_i_glide_ecoul>
-5.42633533477783

> <r_i_glide_erotb>
0.812684190380736

> <r_i_glide_esite>
0

> <r_i_glide_emodel>
-62.4299621548796

> <r_i_glide_energy>
-48.1652231216431

> <r_i_glide_einternal>
0.747713267803192

> <i_i_glide_confnum>
10

> <i_i_glide_posenum>
184

> <r_i_glide_eff_state_penalty>
0

> <s_user_duplicate_titles>
CHEMBL3820_lig147,457802

> <i_f3d_flags>
0

> <s_m_subgroup_title>
dock_pv

> <s_m_subgroupid>
dock_pv

> <b_m_subgroup_collapsed>
0

$$$$
CHEMBL3820_lig134
                    3D
 Schrodinger Suite 2021-1.
 42 44  0  0  1  0            999 V2000
   -7.5890   -1.1958   22.9371 C   0  0  0  0  0  0
   -7.5660   -2.3732   22.1907 C   0  0  0  0  0  0
   -7.8091   -2.3304   20.8189 C   0  0  0  0  0  0
   -8.0993   -1.1142   20.1966 C   0  0  0  0  0  0
   -8.1636    0.0741   20.9293 C   0  0  0  0  0  0
   -7.8888    0.0124   22.3027 C   0  0  0  0  0  0
   -8.4998    1.3702   20.2245 C   0  0  0  0  0  0
   -9.0889    2.3265   20.9810 N   0  0  0  0  0  0
   -8.2889    1.4744   19.0143 O   0  0  0  0  0  0
   -9.4890    3.5933   20.5688 C   0  0  0  0  0  0
  -10.4337    4.2352   21.2098 N   0  0  0  0  0  0
  -10.6778    5.4221   20.6833 C   0  0  0  0  0  0
   -9.8893    5.7602   19.5876 C   0  0  0  0  0  0
   -8.7446    4.5050   19.2635 S   0  0  0  0  0  0
  -11.7671    6.2438   21.3296 C   0  0  0  0  0  0
   -7.3639   -1.2338   24.2926 O   0  0  0  0  0  0
   -6.1642   -0.7751   24.7903 C   0  0  0  0  0  0
   -6.1544    0.2402   25.7550 C   0  0  0  0  0  0
   -4.9458    0.6696   26.3201 C   0  0  0  0  0  0
   -3.7420    0.1028   25.8905 C   0  0  0  0  0  0
   -3.7468   -0.9086   24.9322 C   0  0  0  0  0  0
   -4.9544   -1.3586   24.4006 C   0  0  0  0  0  0
   -4.9107    1.9120   27.6150 S   0  0  0  0  0  0
   -6.3941    1.5211   28.7043 C   0  0  0  0  0  0
   -3.7008    1.6736   28.4082 O   0  0  0  0  0  0
   -5.1331    3.2136   26.9810 O   0  0  0  0  0  0
   -7.3507   -3.3151   22.6737 H   0  0  0  0  0  0
   -7.7741   -3.2388   20.2350 H   0  0  0  0  0  0
   -8.2890   -1.0950   19.1343 H   0  0  0  0  0  0
   -7.8890    0.9050   22.9047 H   0  0  0  0  0  0
   -9.3642    2.0785   21.9297 H   0  0  0  0  0  0
   -9.9076    6.6549   18.9864 H   0  0  0  0  0  0
  -11.9384    7.1812   20.7989 H   0  0  0  0  0  0
  -11.5239    6.5028   22.3606 H   0  0  0  0  0  0
  -12.7172    5.7106   21.3446 H   0  0  0  0  0  0
   -7.0890    0.6819   26.0647 H   0  0  0  0  0  0
   -2.8009    0.4339   26.3081 H   0  0  0  0  0  0
   -2.8153   -1.3535   24.6126 H   0  0  0  0  0  0
   -4.9521   -2.1683   23.6871 H   0  0  0  0  0  0
   -6.3588    2.1812   29.5694 H   0  0  0  0  0  0
   -7.3089    1.7049   28.1437 H   0  0  0  0  0  0
   -6.3316    0.4821   29.0231 H   0  0  0  0  0  0
  1 16  1  0  0  0
  1  6  1  0  0  0
  1  2  2  0  0  0
  2  3  1  0  0  0
  2 27  1  0  0  0
  3  4  2  0  0  0
  3 28  1  0  0  0
  4  5  1  0  0  0
  4 29  1  0  0  0
  5  7  1  0  0  0
  5  6  2  0  0  0
  6 30  1  0  0  0
  7  8  1  0  0  0
  7  9  2  0  0  0
  8 10  1  0  0  0
  8 31  1  0  0  0
 10 14  1  0  0  0
 10 11  2  0  0  0
 11 12  1  0  0  0
 12 13  2  0  0  0
 12 15  1  0  0  0
 13 14  1  0  0  0
 13 32  1  0  0  0
 15 33  1  0  0  0
 15 34  1  0  0  0
 15 35  1  0  0  0
 16 17  1  0  0  0
 17 18  2  0  0  0
 17 22  1  0  0  0
 18 19  1  0  0  0
 18 36  1  0  0  0
 19 20  2  0  0  0
 19 23  1  0  0  0
 20 21  1  0  0  0
 20 37  1  0  0  0
 21 22  2  0  0  0
 21 38  1  0  0  0
 22 39  1  0  0  0
 23 24  1  0  0  0
 23 25  2  0  0  0
 23 26  2  0  0  0
 24 40  1  0  0  0
 24 41  1  0  0  0
 24 42  1  0  0  0
M  END
> <s_m_entry_id>
5363

> <s_m_entry_name>
dock_pv.31

> <s_m_Source_Path>
/home/csk/Desktop/cluster/DUD-E-result/hxk4

> <s_m_Source_File>
dock_pv.maegz

> <i_m_Source_File_Index>
31

> <chembl_id>
CHEMBL474859

> <chembl_pref_name>
None

> <i_lp_mmshare_version>
53161

> <r_lp_tautomer_probability>
0.999000488399163

> <s_lp_Force_Field>
OPLS_2005

> <r_lp_Energy>
12.622915

> <b_lp_Chiralities_Consistent>
1

> <s_lp_Variant>
CHEMBL3820_lig134-1

> <s_i_glide_gridfile>
glide-grid_3f9m

> <i_i_glide_lignum>
150

> <i_i_glide_rotatable_bonds>
6

> <r_i_docking_score>
-9.30004183907471

> <r_i_glide_ligand_efficiency>
-0.357693916887489

> <r_i_glide_ligand_efficiency_sa>
-1.05966682132159

> <r_i_glide_ligand_efficiency_ln>
-2.18408430998043

> <r_i_glide_gscore>
-9.30004183907471

> <r_i_glide_lipo>
-3.99845101320277

> <r_i_glide_hbond>
-0.32

> <r_i_glide_metal>
0

> <r_i_glide_rewards>
-2.34961162773711

> <r_i_glide_evdw>
-39.5102386474609

> <r_i_glide_ecoul>
-8.51247215270996

> <r_i_glide_erotb>
0.64558804424762

> <r_i_glide_esite>
-0.0251844871029142

> <r_i_glide_emodel>
-71.6871610944653

> <r_i_glide_energy>
-48.0227108001709

> <r_i_glide_einternal>
4.98105382919312

> <i_i_glide_confnum>
1

> <i_i_glide_posenum>
171

> <r_i_glide_eff_state_penalty>
0

> <s_user_duplicate_titles>
CHEMBL3820_lig134

> <i_f3d_flags>
0

> <s_m_subgroup_title>
dock_pv

> <s_m_subgroupid>
dock_pv

> <b_m_subgroup_collapsed>
0

$$$$
CHEMBL3820_lig143
                    3D
 Schrodinger Suite 2021-1.
 38 40  0  0  1  0            999 V2000
   -9.8082    3.8789   20.5494 C   0  0  0  0  0  0
   -9.1575    4.6342   19.5635 C   0  0  0  0  0  0
   -8.2890    4.0109   18.6660 C   0  0  0  0  0  0
   -7.9755    2.6510   18.7950 C   0  0  0  0  0  0
   -8.5440    1.8948   19.8515 C   0  0  0  0  0  0
   -9.5148    2.5245   20.6415 C   0  0  0  0  0  0
   -8.1342    0.4666   20.1835 C   0  0  0  0  0  0
   -8.4400    0.0087   21.4225 N   0  0  0  0  0  0
   -7.4891   -0.1929   19.3810 O   0  0  0  0  0  0
   -8.1829   -1.2629   21.9396 C   0  0  0  0  0  0
   -8.1938   -1.4876   23.2297 N   0  0  0  0  0  0
   -7.9347   -2.7522   23.5243 C   0  0  0  0  0  0
   -7.7335   -3.5991   22.4432 C   0  0  0  0  0  0
   -7.8890   -2.6951   20.9809 S   0  0  0  0  0  0
   -7.9111   -3.1257   24.9802 C   0  0  0  0  0  0
  -10.7189    4.3756   21.4614 O   0  0  0  0  0  0
   -7.1254    2.1050   17.8306 N   0  0  0  0  0  0
  -11.2872    5.6095   21.2829 C   0  0  0  0  0  0
  -10.9563    6.6406   22.1595 C   0  0  0  0  0  0
  -11.4547    7.9191   21.9461 C   0  0  0  0  0  0
  -12.2890    8.1487   20.8587 C   0  0  0  0  0  0
  -12.6887    7.1065   20.0262 C   0  0  0  0  0  0
  -12.1857    5.8297   20.2396 C   0  0  0  0  0  0
  -12.6890    9.4103   20.5807 F   0  0  0  0  0  0
   -9.3574    5.6904   19.4557 H   0  0  0  0  0  0
   -7.8886    4.6003   17.8564 H   0  0  0  0  0  0
  -10.0602    1.9652   21.3810 H   0  0  0  0  0  0
   -8.7672    0.6959   22.0895 H   0  0  0  0  0  0
   -7.5238   -4.6588   22.4368 H   0  0  0  0  0  0
   -7.5377   -4.1382   25.1365 H   0  0  0  0  0  0
   -8.9229   -3.0961   25.3810 H   0  0  0  0  0  0
   -7.2836   -2.4578   25.5712 H   0  0  0  0  0  0
   -6.6891    2.7149   17.1493 H   0  0  0  0  0  0
   -6.8664    1.1281   17.9060 H   0  0  0  0  0  0
  -10.2890    6.4585   22.9813 H   0  0  0  0  0  0
  -11.1688    8.7374   22.5901 H   0  0  0  0  0  0
  -13.3529    7.3045   19.1983 H   0  0  0  0  0  0
  -12.4645    5.0182   19.5885 H   0  0  0  0  0  0
  1  6  1  0  0  0
  1  2  2  0  0  0
  1 16  1  0  0  0
  2  3  1  0  0  0
  2 25  1  0  0  0
  3  4  2  0  0  0
  3 26  1  0  0  0
  4 17  1  0  0  0
  4  5  1  0  0  0
  5  7  1  0  0  0
  5  6  2  0  0  0
  6 27  1  0  0  0
  7  8  1  0  0  0
  7  9  2  0  0  0
  8 10  1  0  0  0
  8 28  1  0  0  0
 10 14  1  0  0  0
 10 11  2  0  0  0
 11 12  1  0  0  0
 12 13  2  0  0  0
 12 15  1  0  0  0
 13 14  1  0  0  0
 13 29  1  0  0  0
 15 30  1  0  0  0
 15 31  1  0  0  0
 15 32  1  0  0  0
 16 18  1  0  0  0
 17 33  1  0  0  0
 17 34  1  0  0  0
 18 19  2  0  0  0
 18 23  1  0  0  0
 19 20  1  0  0  0
 19 35  1  0  0  0
 20 21  2  0  0  0
 20 36  1  0  0  0
 21 22  1  0  0  0
 21 24  1  0  0  0
 22 23  2  0  0  0
 22 37  1  0  0  0
 23 38  1  0  0  0
M  END
> <s_m_entry_id>
5364

> <s_m_entry_name>
dock_pv.32

> <s_m_Source_Path>
/home/csk/Desktop/cluster/DUD-E-result/hxk4

> <s_m_Source_File>
dock_pv.maegz

> <i_m_Source_File_Index>
32

> <chembl_id>
CHEMBL474354

> <chembl_pref_name>
None

> <i_lp_mmshare_version>
53161

> <r_lp_tautomer_probability>
0.999000488399163

> <s_lp_Force_Field>
OPLS_2005

> <r_lp_Energy>
21.333207

> <b_lp_Chiralities_Consistent>
1

> <s_lp_Variant>
CHEMBL3820_lig143-1

> <s_i_glide_gridfile>
glide-grid_3f9m

> <i_i_glide_lignum>
159

> <i_i_glide_rotatable_bonds>
5

> <r_i_docking_score>
-9.27152191293595

> <r_i_glide_ligand_efficiency>
-0.386313413038998

> <r_i_glide_ligand_efficiency_sa>
-1.11432070673851

> <r_i_glide_ligand_efficiency_ln>
-2.21910063618396

> <r_i_glide_gscore>
-9.27152191293595

> <r_i_glide_lipo>
-4.17467463758529

> <r_i_glide_hbond>
-0.690065633355849

> <r_i_glide_metal>
0

> <r_i_glide_rewards>
-2.26754339243579

> <r_i_glide_evdw>
-43.8884506225586

> <r_i_glide_ecoul>
-4.93499135971069

> <r_i_glide_erotb>
0.804624321308192

> <r_i_glide_esite>
-0.00919133578268295

> <r_i_glide_emodel>
-68.343718145747

> <r_i_glide_energy>
-48.8234419822693

> <r_i_glide_einternal>
3.75748705863953

> <i_i_glide_confnum>
16

> <i_i_glide_posenum>
55

> <r_i_glide_eff_state_penalty>
0

> <s_user_duplicate_titles>
CHEMBL3820_lig143,457735

> <i_f3d_flags>
0

> <s_m_subgroup_title>
dock_pv

> <s_m_subgroupid>
dock_pv

> <b_m_subgroup_collapsed>
0

$$$$
CHEMBL3820_lig148
                    3D
 Schrodinger Suite 2021-1.
 37 39  0  0  1  0            999 V2000
   -9.8826    3.6661   20.6136 C   0  0  0  0  0  0
   -9.2247    4.5050   19.7111 C   0  0  0  0  0  0
   -8.2890    3.9515   18.8314 C   0  0  0  0  0  0
   -7.9600    2.5892   18.8976 C   0  0  0  0  0  0
   -8.5338    1.7718   19.9023 C   0  0  0  0  0  0
   -9.5507    2.3271   20.6725 C   0  0  0  0  0  0
   -8.1022    0.3515   20.2099 C   0  0  0  0  0  0
   -8.3634   -0.1123   21.4567 N   0  0  0  0  0  0
   -7.4890   -0.2950   19.3810 O   0  0  0  0  0  0
   -8.1058   -1.3873   21.9578 C   0  0  0  0  0  0
   -8.1350   -1.6256   23.2452 N   0  0  0  0  0  0
   -7.8888   -2.8950   23.5280 C   0  0  0  0  0  0
   -7.6672   -3.7257   22.4375 C   0  0  0  0  0  0
   -7.8008   -2.8052   20.9810 S   0  0  0  0  0  0
   -7.8954   -3.2875   24.9810 C   0  0  0  0  0  0
  -11.0890    4.2006   21.7800 S   0  0  0  0  0  0
   -7.0890    2.1050   17.9245 N   0  0  0  0  0  0
  -11.6475    5.7338   21.1863 C   0  0  0  0  0  0
  -11.4889    6.8659   21.9846 C   0  0  0  0  0  0
  -12.0169    8.0666   21.5236 C   0  0  0  0  0  0
  -12.6890    8.0835   20.3016 C   0  0  0  0  0  0
  -12.8037    6.9050   19.5655 C   0  0  0  0  0  0
  -12.2890    5.7321   19.9933 N   0  0  0  0  0  0
   -9.4502    5.5601   19.6585 H   0  0  0  0  0  0
   -7.8438    4.5923   18.0862 H   0  0  0  0  0  0
  -10.0910    1.7185   21.3810 H   0  0  0  0  0  0
   -8.6769    0.5710   22.1334 H   0  0  0  0  0  0
   -7.4557   -4.7841   22.4219 H   0  0  0  0  0  0
   -7.5590   -4.3145   25.1270 H   0  0  0  0  0  0
   -8.9067   -3.2272   25.3810 H   0  0  0  0  0  0
   -7.2492   -2.6507   25.5861 H   0  0  0  0  0  0
   -6.6890    2.7428   17.2468 H   0  0  0  0  0  0
   -6.8440    1.1217   17.9345 H   0  0  0  0  0  0
  -10.9787    6.8162   22.9346 H   0  0  0  0  0  0
  -11.9176    8.9721   22.1044 H   0  0  0  0  0  0
  -13.0890    9.0142   19.9296 H   0  0  0  0  0  0
  -13.3134    6.8999   18.6126 H   0  0  0  0  0  0
  1  6  1  0  0  0
  1  2  2  0  0  0
  1 16  1  0  0  0
  2  3  1  0  0  0
  2 24  1  0  0  0
  3  4  2  0  0  0
  3 25  1  0  0  0
  4 17  1  0  0  0
  4  5  1  0  0  0
  5  6  2  0  0  0
  5  7  1  0  0  0
  6 26  1  0  0  0
  7  8  1  0  0  0
  7  9  2  0  0  0
  8 10  1  0  0  0
  8 27  1  0  0  0
 10 14  1  0  0  0
 10 11  2  0  0  0
 11 12  1  0  0  0
 12 13  2  0  0  0
 12 15  1  0  0  0
 13 14  1  0  0  0
 13 28  1  0  0  0
 15 29  1  0  0  0
 15 30  1  0  0  0
 15 31  1  0  0  0
 16 18  1  0  0  0
 17 32  1  0  0  0
 17 33  1  0  0  0
 18 19  2  0  0  0
 18 23  1  0  0  0
 19 20  1  0  0  0
 19 34  1  0  0  0
 20 21  2  0  0  0
 20 35  1  0  0  0
 21 22  1  0  0  0
 21 36  1  0  0  0
 22 23  2  0  0  0
 22 37  1  0  0  0
M  END
> <s_m_entry_id>
5365

> <s_m_entry_name>
dock_pv.33

> <s_m_Source_Path>
/home/csk/Desktop/cluster/DUD-E-result/hxk4

> <s_m_Source_File>
dock_pv.maegz

> <i_m_Source_File_Index>
33

> <chembl_id>
CHEMBL523602

> <chembl_pref_name>
None

> <i_lp_mmshare_version>
53161

> <r_lp_tautomer_probability>
0.999000488399163

> <s_lp_Force_Field>
OPLS_2005

> <r_lp_Energy>
14.548704

> <b_lp_Chiralities_Consistent>
1

> <s_lp_Variant>
CHEMBL3820_lig148-1

> <s_i_glide_gridfile>
glide-grid_3f9m

> <i_i_glide_lignum>
164

> <i_i_glide_rotatable_bonds>
5

> <r_i_docking_score>
-9.20890570989816

> <r_i_glide_ligand_efficiency>
-0.400387204778181

> <r_i_glide_ligand_efficiency_sa>
-1.13864794963366

> <r_i_glide_ligand_efficiency_ln>
-2.22679690239372

> <r_i_glide_gscore>
-9.20890570989816

> <r_i_glide_lipo>
-3.91717120874005

> <r_i_glide_hbond>
-0.573445282312231

> <r_i_glide_metal>
0

> <r_i_glide_rewards>
-2.41735859769066

> <r_i_glide_evdw>
-41.6301078796387

> <r_i_glide_ecoul>
-6.85303258895874

> <r_i_glide_erotb>
0.808529661170521

> <r_i_glide_esite>
0

> <r_i_glide_emodel>
-59.3671905066238

> <r_i_glide_energy>
-48.4831404685974

> <r_i_glide_einternal>
4.04907941818237

> <i_i_glide_confnum>
10

> <i_i_glide_posenum>
30

> <r_i_glide_eff_state_penalty>
0

> <s_user_duplicate_titles>
CHEMBL3820_lig148,457803

> <i_f3d_flags>
0

> <s_m_subgroup_title>
dock_pv

> <s_m_subgroupid>
dock_pv

> <b_m_subgroup_collapsed>
0

$$$$
CHEMBL3820_lig120
                    3D
 Schrodinger Suite 2021-1.
 39 41  0  0  1  0            999 V2000
   -7.6042   -1.2019   22.9175 C   0  0  0  0  0  0
   -7.5887   -2.3730   22.1635 C   0  0  0  0  0  0
   -7.8259   -2.3178   20.7928 C   0  0  0  0  0  0
   -8.1053   -1.0951   20.1809 C   0  0  0  0  0  0
   -8.1630    0.0914   20.9158 C   0  0  0  0  0  0
   -7.8889    0.0162   22.2900 C   0  0  0  0  0  0
   -8.4951    1.3972   20.2199 C   0  0  0  0  0  0
   -9.1295    2.3186   20.9788 N   0  0  0  0  0  0
   -8.2455    1.5376   19.0211 O   0  0  0  0  0  0
   -9.5427    3.6007   20.6310 C   0  0  0  0  0  0
  -10.4502    4.2157   21.3497 N   0  0  0  0  0  0
  -10.6633    5.4558   20.9447 C   0  0  0  0  0  0
   -9.8891    5.8711   19.8662 C   0  0  0  0  0  0
   -8.8439    4.5832   19.3625 S   0  0  0  0  0  0
  -11.6943    6.2568   21.7039 C   0  0  0  0  0  0
   -7.3788   -1.2670   24.2715 O   0  0  0  0  0  0
   -6.2213   -0.7197   24.7750 C   0  0  0  0  0  0
   -4.9726   -1.2552   24.4433 C   0  0  0  0  0  0
   -3.7981   -0.6949   24.9519 C   0  0  0  0  0  0
   -3.8764    0.3962   25.8207 C   0  0  0  0  0  0
   -5.1200    0.9164   26.1812 C   0  0  0  0  0  0
   -6.2890    0.3607   25.6600 C   0  0  0  0  0  0
   -2.4473   -1.2467   24.5341 C   0  0  0  0  0  0
   -7.3804   -3.3195   22.6411 H   0  0  0  0  0  0
   -7.7954   -3.2217   20.2017 H   0  0  0  0  0  0
   -8.2891   -1.0805   19.1171 H   0  0  0  0  0  0
   -7.8890    0.9043   22.8982 H   0  0  0  0  0  0
   -9.4019    2.0364   21.9197 H   0  0  0  0  0  0
   -9.8710    6.8352   19.3810 H   0  0  0  0  0  0
  -11.7602    7.2819   21.3373 H   0  0  0  0  0  0
  -11.4659    6.3165   22.7684 H   0  0  0  0  0  0
  -12.6891    5.8238   21.6040 H   0  0  0  0  0  0
   -4.9195   -2.1059   23.7810 H   0  0  0  0  0  0
   -2.9752    0.8428   26.2163 H   0  0  0  0  0  0
   -5.1776    1.7577   26.8567 H   0  0  0  0  0  0
   -7.2437    0.7849   25.9335 H   0  0  0  0  0  0
   -1.6755   -0.4768   24.5810 H   0  0  0  0  0  0
   -2.1565   -2.0802   25.1740 H   0  0  0  0  0  0
   -2.4736   -1.5951   23.5004 H   0  0  0  0  0  0
  1  6  1  0  0  0
  1  2  2  0  0  0
  1 16  1  0  0  0
  2  3  1  0  0  0
  2 24  1  0  0  0
  3  4  2  0  0  0
  3 25  1  0  0  0
  4  5  1  0  0  0
  4 26  1  0  0  0
  5  6  2  0  0  0
  5  7  1  0  0  0
  6 27  1  0  0  0
  7  8  1  0  0  0
  7  9  2  0  0  0
  8 10  1  0  0  0
  8 28  1  0  0  0
 10 14  1  0  0  0
 10 11  2  0  0  0
 11 12  1  0  0  0
 12 13  2  0  0  0
 12 15  1  0  0  0
 13 14  1  0  0  0
 13 29  1  0  0  0
 15 30  1  0  0  0
 15 31  1  0  0  0
 15 32  1  0  0  0
 16 17  1  0  0  0
 17 18  2  0  0  0
 17 22  1  0  0  0
 18 19  1  0  0  0
 18 33  1  0  0  0
 19 20  2  0  0  0
 19 23  1  0  0  0
 20 21  1  0  0  0
 20 34  1  0  0  0
 21 22  2  0  0  0
 21 35  1  0  0  0
 22 36  1  0  0  0
 23 37  1  0  0  0
 23 38  1  0  0  0
 23 39  1  0  0  0
M  END
> <s_m_entry_id>
5366

> <s_m_entry_name>
dock_pv.34

> <s_m_Source_Path>
/home/csk/Desktop/cluster/DUD-E-result/hxk4

> <s_m_Source_File>
dock_pv.maegz

> <i_m_Source_File_Index>
34

> <chembl_id>
CHEMBL516371

> <chembl_pref_name>
None

> <i_lp_mmshare_version>
53161

> <r_lp_tautomer_probability>
0.999000488399163

> <s_lp_Force_Field>
OPLS_2005

> <r_lp_Energy>
18.126893

> <b_lp_Chiralities_Consistent>
1

> <s_lp_Variant>
CHEMBL3820_lig120-1

> <s_i_glide_gridfile>
glide-grid_3f9m

> <i_i_glide_lignum>
136

> <i_i_glide_rotatable_bonds>
5

> <r_i_docking_score>
-9.04737469052811

> <r_i_glide_ligand_efficiency>
-0.393364116979483

> <r_i_glide_ligand_efficiency_sa>
-1.11867522216722

> <r_i_glide_ligand_efficiency_ln>
-2.18773723722773

> <r_i_glide_gscore>
-9.04737469052811

> <r_i_glide_lipo>
-4.16242681506707

> <r_i_glide_hbond>
-0.32

> <r_i_glide_metal>
0

> <r_i_glide_rewards>
-2.59707801572864

> <r_i_glide_evdw>
-36.626163482666

> <r_i_glide_ecoul>
-6.67504787445068

> <r_i_glide_erotb>
0.889784774420498

> <r_i_glide_esite>
-0.0250892788520009

> <r_i_glide_emodel>
-64.9485109111023

> <r_i_glide_energy>
-43.3012113571167

> <r_i_glide_einternal>
3.19092702865601

> <i_i_glide_confnum>
4

> <i_i_glide_posenum>
188

> <r_i_glide_eff_state_penalty>
0

> <s_user_duplicate_titles>
CHEMBL3820_lig120

> <i_f3d_flags>
0

> <s_m_subgroup_title>
dock_pv

> <s_m_subgroupid>
dock_pv

> <b_m_subgroup_collapsed>
0

$$$$
CHEMBL3820_lig138
                    3D
 Schrodinger Suite 2021-1.
 27 28  0  0  1  0            999 V2000
  -10.0387    4.0978   20.5817 C   0  0  0  0  0  0
   -9.3593    4.9037   19.6729 C   0  0  0  0  0  0
   -8.3878    4.3363   18.8521 C   0  0  0  0  0  0
   -8.0589    2.9789   18.9642 C   0  0  0  0  0  0
   -8.6901    2.1563   19.9311 C   0  0  0  0  0  0
   -9.7213    2.7427   20.6849 C   0  0  0  0  0  0
   -8.2693    0.7121   20.1928 C   0  0  0  0  0  0
   -8.6062    0.1805   21.3895 N   0  0  0  0  0  0
   -7.5796    0.1053   19.3807 O   0  0  0  0  0  0
   -8.2881   -1.0945   21.8715 C   0  0  0  0  0  0
   -8.2880   -1.3593   23.1559 N   0  0  0  0  0  0
   -7.9551   -2.6146   23.4186 C   0  0  0  0  0  0
   -7.6997   -3.4145   22.3128 C   0  0  0  0  0  0
   -7.8890   -2.4746   20.8766 S   0  0  0  0  0  0
  -11.2786    4.7661   21.5782 Cl  0  0  0  0  0  0
   -7.0891    2.5049   18.0861 N   0  0  0  0  0  0
   -7.8884   -3.0277   24.8676 C   0  0  0  0  0  0
   -9.5998    5.9546   19.5843 H   0  0  0  0  0  0
   -7.8892    4.9617   18.1265 H   0  0  0  0  0  0
  -10.2917    2.1504   21.3812 H   0  0  0  0  0  0
   -8.9770    0.8254   22.0778 H   0  0  0  0  0  0
   -7.4213   -4.4579   22.2755 H   0  0  0  0  0  0
   -6.8768    1.5137   18.0957 H   0  0  0  0  0  0
   -6.6881    3.1298   17.3930 H   0  0  0  0  0  0
   -7.4488   -4.0182   24.9849 H   0  0  0  0  0  0
   -7.2803   -2.3422   25.4602 H   0  0  0  0  0  0
   -8.8820   -3.0706   25.3154 H   0  0  0  0  0  0
  1  6  1  0  0  0
  1  2  2  0  0  0
  1 15  1  0  0  0
  2  3  1  0  0  0
  2 18  1  0  0  0
  3  4  2  0  0  0
  3 19  1  0  0  0
  4  5  1  0  0  0
  4 16  1  0  0  0
  5  6  2  0  0  0
  5  7  1  0  0  0
  6 20  1  0  0  0
  7  9  2  0  0  0
  7  8  1  0  0  0
  8 10  1  0  0  0
  8 21  1  0  0  0
 10 11  2  0  0  0
 10 14  1  0  0  0
 11 12  1  0  0  0
 12 13  2  0  0  0
 12 17  1  0  0  0
 13 14  1  0  0  0
 13 22  1  0  0  0
 16 23  1  0  0  0
 16 24  1  0  0  0
 17 25  1  0  0  0
 17 26  1  0  0  0
 17 27  1  0  0  0
M  END
> <s_m_entry_id>
5367

> <s_m_entry_name>
dock_pv.35

> <s_m_Source_Path>
/home/csk/Desktop/cluster/DUD-E-result/hxk4

> <s_m_Source_File>
dock_pv.maegz

> <i_m_Source_File_Index>
35

> <chembl_id>
CHEMBL474748

> <chembl_pref_name>
None

> <i_lp_mmshare_version>
53161

> <r_lp_tautomer_probability>
0.999000488399163

> <s_lp_Force_Field>
OPLS_2005

> <r_lp_Energy>
14.113058

> <b_lp_Chiralities_Consistent>
1

> <s_lp_Variant>
CHEMBL3820_lig138-1

> <s_i_glide_gridfile>
glide-grid_3f9m

> <i_i_glide_lignum>
154

> <i_i_glide_rotatable_bonds>
3

> <r_i_docking_score>
-8.94010814696274

> <r_i_glide_ligand_efficiency>
-0.52588871452722

> <r_i_glide_ligand_efficiency_sa>
-1.35220796912173

> <r_i_glide_ligand_efficiency_ln>
-2.33227512912248

> <r_i_glide_gscore>
-8.94010814696274

> <r_i_glide_lipo>
-2.93490468553326

> <r_i_glide_hbond>
-0.786666566375888

> <r_i_glide_metal>
0

> <r_i_glide_rewards>
-3.2321330971604

> <r_i_glide_evdw>
-33.7728691101074

> <r_i_glide_ecoul>
-6.9619255065918

> <r_i_glide_erotb>
0.746528483600944

> <r_i_glide_esite>
0

> <r_i_glide_emodel>
-60.6105343245179

> <r_i_glide_energy>
-40.7347946166992

> <r_i_glide_einternal>
0.369219750165939

> <i_i_glide_confnum>
6

> <i_i_glide_posenum>
378

> <r_i_glide_eff_state_penalty>
0

> <s_user_duplicate_titles>
CHEMBL3820_lig138

> <i_f3d_flags>
0

> <s_m_subgroup_title>
dock_pv

> <s_m_subgroupid>
dock_pv

> <b_m_subgroup_collapsed>
0

$$$$
CHEMBL3820_lig537
                    3D
 Schrodinger Suite 2021-1.
 36 38  0  0  1  0            999 V2000
   -8.6271    1.5885   20.2139 C   0  0  0  0  0  0
   -9.0890    2.9256   20.2643 C   0  0  0  0  0  0
   -8.6890    3.7951   19.2453 C   0  0  0  0  0  0
   -8.0429    3.2861   18.1278 C   0  0  0  0  0  0
   -7.7239    1.9311   18.0889 C   0  0  0  0  0  0
   -7.9850    1.0931   19.1209 N   0  0  0  0  0  0
   -8.6890    0.8074   21.3810 N   0  0  0  0  0  0
   -7.8890   -1.7151   20.5810 S   0  0  0  0  0  0
   -8.3090   -0.4766   21.7164 C   0  0  0  0  0  0
   -8.2890   -0.8836   22.9623 N   0  0  0  0  0  0
   -7.9404   -2.1509   23.0919 C   0  0  0  0  0  0
   -7.6698   -2.8142   21.9028 C   0  0  0  0  0  0
   -7.8890   -2.7024   24.4959 C   0  0  0  0  0  0
   -9.6613    3.4769   21.3810 O   0  0  0  0  0  0
  -11.0656    3.7051   21.3492 C   0  0  0  0  0  0
  -11.3771    5.1903   21.1911 C   0  0  0  0  0  0
  -10.6890    6.1505   21.9313 C   0  0  0  0  0  0
  -11.0299    7.4955   21.8354 C   0  0  0  0  0  0
  -12.0587    7.8805   20.9810 C   0  0  0  0  0  0
  -12.7355    6.9373   20.2146 C   0  0  0  0  0  0
  -12.3930    5.5957   20.3308 C   0  0  0  0  0  0
   -8.9502    4.8429   19.2930 H   0  0  0  0  0  0
   -7.8890    3.9306   17.2787 H   0  0  0  0  0  0
   -7.2402    1.4998   17.2238 H   0  0  0  0  0  0
   -9.0890    1.3618   22.1363 H   0  0  0  0  0  0
   -7.3706   -3.8401   21.7468 H   0  0  0  0  0  0
   -7.2156   -2.1296   25.1344 H   0  0  0  0  0  0
   -7.5405   -3.7354   24.5119 H   0  0  0  0  0  0
   -8.8728   -2.6950   24.9659 H   0  0  0  0  0  0
  -11.5592    3.1120   20.5810 H   0  0  0  0  0  0
  -11.4890    3.3705   22.2964 H   0  0  0  0  0  0
   -9.8873    5.8535   22.5810 H   0  0  0  0  0  0
  -10.4934    8.2370   22.4092 H   0  0  0  0  0  0
  -12.3189    8.9261   20.8962 H   0  0  0  0  0  0
  -13.5282    7.2467   19.5486 H   0  0  0  0  0  0
  -12.9384    4.8561   19.7810 H   0  0  0  0  0  0
  1  2  1  0  0  0
  1  6  2  0  0  0
  1  7  1  0  0  0
  2  3  2  0  0  0
  2 14  1  0  0  0
  3  4  1  0  0  0
  3 22  1  0  0  0
  4  5  2  0  0  0
  4 23  1  0  0  0
  5  6  1  0  0  0
  5 24  1  0  0  0
  7  9  1  0  0  0
  7 25  1  0  0  0
  8  9  1  0  0  0
  8 12  1  0  0  0
  9 10  2  0  0  0
 10 11  1  0  0  0
 11 12  2  0  0  0
 11 13  1  0  0  0
 12 26  1  0  0  0
 13 27  1  0  0  0
 13 28  1  0  0  0
 13 29  1  0  0  0
 14 15  1  0  0  0
 15 16  1  0  0  0
 15 30  1  0  0  0
 15 31  1  0  0  0
 16 17  1  0  0  0
 16 21  2  0  0  0
 17 18  2  0  0  0
 17 32  1  0  0  0
 18 19  1  0  0  0
 18 33  1  0  0  0
 19 20  2  0  0  0
 19 34  1  0  0  0
 20 21  1  0  0  0
 20 35  1  0  0  0
 21 36  1  0  0  0
M  END
> <s_m_entry_id>
5368

> <s_m_entry_name>
dock_pv.36

> <s_m_Source_Path>
/home/csk/Desktop/cluster/DUD-E-result/hxk4

> <s_m_Source_File>
dock_pv.maegz

> <i_m_Source_File_Index>
36

> <chembl_id>
CHEMBL2430868

> <chembl_pref_name>
None

> <i_lp_mmshare_version>
53161

> <r_lp_tautomer_probability>
0.999999404453161

> <s_lp_Force_Field>
OPLS_2005

> <r_lp_Energy>
15.464479

> <b_lp_Chiralities_Consistent>
1

> <s_lp_Variant>
CHEMBL3820_lig537-1

> <s_i_glide_gridfile>
glide-grid_3f9m

> <i_i_glide_lignum>
671

> <i_i_glide_rotatable_bonds>
5

> <r_i_docking_score>
-8.93652558384245

> <r_i_glide_ligand_efficiency>
-0.425548837325831

> <r_i_glide_ligand_efficiency_sa>
-1.17405697433763

> <r_i_glide_ligand_efficiency_ln>
-2.2095378926548

> <r_i_glide_gscore>
-8.93652558384245

> <r_i_glide_lipo>
-4.47374299657004

> <r_i_glide_hbond>
-0.488251302358696

> <r_i_glide_metal>
0

> <r_i_glide_rewards>
-2.4731953030303

> <r_i_glide_evdw>
-34.1020278930664

> <r_i_glide_ecoul>
-5.55251455307007

> <r_i_glide_erotb>
1.03664259573042

> <r_i_glide_esite>
0

> <r_i_glide_emodel>
-55.3571483086163

> <r_i_glide_energy>
-39.6545424461365

> <r_i_glide_einternal>
8.3207426071167

> <i_i_glide_confnum>
52

> <i_i_glide_posenum>
131

> <r_i_glide_eff_state_penalty>
0

> <s_user_duplicate_titles>
CHEMBL3820_lig537

> <i_f3d_flags>
0

> <s_m_subgroup_title>
dock_pv

> <s_m_subgroupid>
dock_pv

> <b_m_subgroup_collapsed>
0

$$$$
CHEMBL3820_lig137
                    3D
 Schrodinger Suite 2021-1.
 24 25  0  0  1  0            999 V2000
   -9.8900    4.3185   20.4803 C   0  0  0  0  0  0
   -9.2490    5.0491   19.4837 C   0  0  0  0  0  0
   -8.3531    4.4113   18.6305 C   0  0  0  0  0  0
   -8.0654    3.0504   18.7843 C   0  0  0  0  0  0
   -8.6836    2.2976   19.8164 C   0  0  0  0  0  0
   -9.6296    2.9563   20.6205 C   0  0  0  0  0  0
   -8.2955    0.8547   20.1167 C   0  0  0  0  0  0
   -8.5055    0.4186   21.3807 N   0  0  0  0  0  0
   -7.7702    0.1618   19.2521 O   0  0  0  0  0  0
   -8.2460   -0.8487   21.9067 C   0  0  0  0  0  0
   -8.2877   -1.0487   23.1996 N   0  0  0  0  0  0
   -8.0598   -2.3054   23.5235 C   0  0  0  0  0  0
   -7.8219   -3.1821   22.4707 C   0  0  0  0  0  0
   -7.8942   -2.2950   20.9811 S   0  0  0  0  0  0
  -11.0242    5.0908   21.5282 Cl  0  0  0  0  0  0
   -7.1516    2.5037   17.8850 N   0  0  0  0  0  0
   -9.4547    6.1034   19.3631 H   0  0  0  0  0  0
   -7.8894    4.9868   17.8437 H   0  0  0  0  0  0
  -10.1728    2.4189   21.3804 H   0  0  0  0  0  0
   -8.8197    1.1070   22.0570 H   0  0  0  0  0  0
   -8.0752   -2.5881   24.5652 H   0  0  0  0  0  0
   -7.6187   -4.2434   22.4924 H   0  0  0  0  0  0
   -6.6955    3.1089   17.2057 H   0  0  0  0  0  0
   -6.9577    1.5094   17.9348 H   0  0  0  0  0  0
  1  6  1  0  0  0
  1  2  2  0  0  0
  1 15  1  0  0  0
  2  3  1  0  0  0
  2 17  1  0  0  0
  3  4  2  0  0  0
  3 18  1  0  0  0
  4  5  1  0  0  0
  4 16  1  0  0  0
  5  6  2  0  0  0
  5  7  1  0  0  0
  6 19  1  0  0  0
  7  8  1  0  0  0
  7  9  2  0  0  0
  8 10  1  0  0  0
  8 20  1  0  0  0
 10 11  2  0  0  0
 10 14  1  0  0  0
 11 12  1  0  0  0
 12 13  2  0  0  0
 12 21  1  0  0  0
 13 14  1  0  0  0
 13 22  1  0  0  0
 16 23  1  0  0  0
 16 24  1  0  0  0
M  END
> <s_m_entry_id>
5369

> <s_m_entry_name>
dock_pv.37

> <s_m_Source_Path>
/home/csk/Desktop/cluster/DUD-E-result/hxk4

> <s_m_Source_File>
dock_pv.maegz

> <i_m_Source_File_Index>
37

> <chembl_id>
CHEMBL446928

> <chembl_pref_name>
None

> <i_lp_mmshare_version>
53161

> <r_lp_tautomer_probability>
0.999000488399163

> <s_lp_Force_Field>
OPLS_2005

> <r_lp_Energy>
14.850688

> <b_lp_Chiralities_Consistent>
1

> <s_lp_Variant>
CHEMBL3820_lig137-1

> <s_i_glide_gridfile>
glide-grid_3f9m

> <i_i_glide_lignum>
153

> <i_i_glide_rotatable_bonds>
3

> <r_i_docking_score>
-8.87596072005241

> <r_i_glide_ligand_efficiency>
-0.554747545003276

> <r_i_glide_ligand_efficiency_sa>
-1.39787621736235

> <r_i_glide_ligand_efficiency_ln>
-2.35275069018994

> <r_i_glide_gscore>
-8.87596072005241

> <r_i_glide_lipo>
-2.77052684597077

> <r_i_glide_hbond>
-0.815599147883157

> <r_i_glide_metal>
0

> <r_i_glide_rewards>
-3.32086942955222

> <r_i_glide_evdw>
-31.2871417999268

> <r_i_glide_ecoul>
-8.1576681137085

> <r_i_glide_erotb>
0.819042010406349

> <r_i_glide_esite>
0

> <r_i_glide_emodel>
-59.2439269822583

> <r_i_glide_energy>
-39.4448099136353

> <r_i_glide_einternal>
0.313003331422806

> <i_i_glide_confnum>
1

> <i_i_glide_posenum>
288

> <r_i_glide_eff_state_penalty>
0

> <s_user_duplicate_titles>
CHEMBL3820_lig137

> <i_f3d_flags>
0

> <s_m_subgroup_title>
dock_pv

> <s_m_subgroupid>
dock_pv

> <b_m_subgroup_collapsed>
0

$$$$
CHEMBL3820_lig140
                    3D
 Schrodinger Suite 2021-1.
 34 35  0  0  1  0            999 V2000
   -9.8893    4.3855   20.4570 C   0  0  0  0  0  0
   -9.2358    5.1004   19.4446 C   0  0  0  0  0  0
   -8.3575    4.4515   18.5812 C   0  0  0  0  0  0
   -8.0926    3.0863   18.7256 C   0  0  0  0  0  0
   -8.6877    2.3531   19.7821 C   0  0  0  0  0  0
   -9.6082    3.0271   20.6021 C   0  0  0  0  0  0
   -8.3288    0.9012   20.0658 C   0  0  0  0  0  0
   -8.4794    0.4517   21.3380 N   0  0  0  0  0  0
   -7.8816    0.2070   19.1613 O   0  0  0  0  0  0
   -8.2117   -0.8373   21.8165 C   0  0  0  0  0  0
   -8.2003   -1.0950   23.1000 N   0  0  0  0  0  0
   -7.9285   -2.3645   23.3650 C   0  0  0  0  0  0
   -7.7262   -3.1824   22.2629 C   0  0  0  0  0  0
   -7.8887   -2.2427   20.8254 S   0  0  0  0  0  0
   -7.8710   -2.7714   24.8115 C   0  0  0  0  0  0
  -10.7982    4.9269   21.3468 O   0  0  0  0  0  0
   -7.2407    2.5049   17.7847 N   0  0  0  0  0  0
  -11.2620    6.2683   21.1814 C   0  0  0  0  0  0
  -12.2896    6.3865   20.0430 C   0  0  0  0  0  0
   -9.4076    6.1564   19.3004 H   0  0  0  0  0  0
   -7.8929    5.0204   17.7883 H   0  0  0  0  0  0
  -10.1342    2.4984   21.3811 H   0  0  0  0  0  0
   -8.7600    1.1272   22.0403 H   0  0  0  0  0  0
   -7.5026   -4.2396   22.2306 H   0  0  0  0  0  0
   -7.4517   -3.7715   24.9311 H   0  0  0  0  0  0
   -8.8661   -2.7938   25.2520 H   0  0  0  0  0  0
   -7.2538   -2.0952   25.4043 H   0  0  0  0  0  0
   -6.7550    3.0994   17.1185 H   0  0  0  0  0  0
   -7.0566    1.5096   17.8492 H   0  0  0  0  0  0
  -11.7412    6.5573   22.1176 H   0  0  0  0  0  0
  -10.4328    6.9662   21.0479 H   0  0  0  0  0  0
  -12.6766    7.4035   19.9744 H   0  0  0  0  0  0
  -11.8554    6.1372   19.0759 H   0  0  0  0  0  0
  -13.1334    5.7184   20.2125 H   0  0  0  0  0  0
  1  6  1  0  0  0
  1  2  2  0  0  0
  1 16  1  0  0  0
  2  3  1  0  0  0
  2 20  1  0  0  0
  3  4  2  0  0  0
  3 21  1  0  0  0
  4  5  1  0  0  0
  4 17  1  0  0  0
  5  6  2  0  0  0
  5  7  1  0  0  0
  6 22  1  0  0  0
  7  8  1  0  0  0
  7  9  2  0  0  0
  8 10  1  0  0  0
  8 23  1  0  0  0
 10 11  2  0  0  0
 10 14  1  0  0  0
 11 12  1  0  0  0
 12 13  2  0  0  0
 12 15  1  0  0  0
 13 14  1  0  0  0
 13 24  1  0  0  0
 15 25  1  0  0  0
 15 26  1  0  0  0
 15 27  1  0  0  0
 16 18  1  0  0  0
 17 28  1  0  0  0
 17 29  1  0  0  0
 18 19  1  0  0  0
 18 30  1  0  0  0
 18 31  1  0  0  0
 19 32  1  0  0  0
 19 33  1  0  0  0
 19 34  1  0  0  0
M  END
> <s_m_entry_id>
5370

> <s_m_entry_name>
dock_pv.38

> <s_m_Source_Path>
/home/csk/Desktop/cluster/DUD-E-result/hxk4

> <s_m_Source_File>
dock_pv.maegz

> <i_m_Source_File_Index>
38

> <chembl_id>
CHEMBL474677

> <chembl_pref_name>
None

> <i_lp_mmshare_version>
53161

> <r_lp_tautomer_probability>
0.999000488399163

> <s_lp_Force_Field>
OPLS_2005

> <r_lp_Energy>
17.969776

> <b_lp_Chiralities_Consistent>
1

> <s_lp_Variant>
CHEMBL3820_lig140-1

> <s_i_glide_gridfile>
glide-grid_3f9m

> <i_i_glide_lignum>
156

> <i_i_glide_rotatable_bonds>
5

> <r_i_docking_score>
-8.82627479473274

> <r_i_glide_ligand_efficiency>
-0.464540778670144

> <r_i_glide_ligand_efficiency_sa>
-1.23958137848536

> <r_i_glide_ligand_efficiency_ln>
-2.23765023146535

> <r_i_glide_gscore>
-8.82627479473274

> <r_i_glide_lipo>
-3.22540971423501

> <r_i_glide_hbond>
-0.747551778232929

> <r_i_glide_metal>
0

> <r_i_glide_rewards>
-2.71751791634215

> <r_i_glide_evdw>
-37.9326782226562

> <r_i_glide_ecoul>
-7.83723306655884

> <r_i_glide_erotb>
0.936423485193995

> <r_i_glide_esite>
0

> <r_i_glide_emodel>
-66.3378308647406

> <r_i_glide_energy>
-45.7699112892151

> <r_i_glide_einternal>
4.77842140197754

> <i_i_glide_confnum>
8

> <i_i_glide_posenum>
67

> <r_i_glide_eff_state_penalty>
0

> <s_user_duplicate_titles>
CHEMBL3820_lig140

> <i_f3d_flags>
0

> <s_m_subgroup_title>
dock_pv

> <s_m_subgroupid>
dock_pv

> <b_m_subgroup_collapsed>
0

$$$$
CHEMBL3820_lig118
                    3D
 Schrodinger Suite 2021-1.
 36 38  0  0  1  0            999 V2000
   -7.5305   -1.8094   23.9606 C   0  0  0  0  0  0
   -7.8172   -3.1417   23.6731 C   0  0  0  0  0  0
   -8.2436   -3.5009   22.3990 C   0  0  0  0  0  0
   -8.3903   -2.5274   21.4119 C   0  0  0  0  0  0
   -8.1495   -1.1730   21.6894 C   0  0  0  0  0  0
   -7.7245   -0.8266   22.9818 C   0  0  0  0  0  0
   -8.2890   -0.1370   20.5967 C   0  0  0  0  0  0
   -8.6859    1.0978   20.9809 N   0  0  0  0  0  0
   -8.1127   -0.4639   19.4269 O   0  0  0  0  0  0
   -8.7964    2.2310   20.1810 C   0  0  0  0  0  0
   -9.4890    3.2762   20.5809 N   0  0  0  0  0  0
   -9.3130    4.3352   19.8024 C   0  0  0  0  0  0
   -8.4334    4.1540   18.7327 C   0  0  0  0  0  0
   -7.8830    2.5016   18.7078 S   0  0  0  0  0  0
  -10.0819    5.5846   20.1724 C   0  0  0  0  0  0
   -7.0782   -1.4867   25.2160 O   0  0  0  0  0  0
   -5.8612   -0.8571   25.3424 C   0  0  0  0  0  0
   -5.7683    0.2675   26.1651 C   0  0  0  0  0  0
   -4.5455    0.9189   26.3271 C   0  0  0  0  0  0
   -3.4074    0.4446   25.6761 C   0  0  0  0  0  0
   -3.4901   -0.6817   24.8554 C   0  0  0  0  0  0
   -4.7134   -1.3323   24.6918 C   0  0  0  0  0  0
   -4.4662    2.0212   27.1061 F   0  0  0  0  0  0
   -7.6919   -3.8976   24.4331 H   0  0  0  0  0  0
   -8.4505   -4.5391   22.1771 H   0  0  0  0  0  0
   -8.6908   -2.8439   20.4277 H   0  0  0  0  0  0
   -7.5062    0.1997   23.2368 H   0  0  0  0  0  0
   -9.0293    1.2064   21.9294 H   0  0  0  0  0  0
   -8.1262    4.8596   17.9758 H   0  0  0  0  0  0
   -9.8210    6.4265   19.5274 H   0  0  0  0  0  0
   -9.8880    5.9013   21.1986 H   0  0  0  0  0  0
  -11.1585    5.4374   20.0805 H   0  0  0  0  0  0
   -6.6448    0.6403   26.6736 H   0  0  0  0  0  0
   -2.4609    0.9531   25.7982 H   0  0  0  0  0  0
   -2.6073   -1.0440   24.3469 H   0  0  0  0  0  0
   -4.7722   -2.2085   24.0617 H   0  0  0  0  0  0
  1  6  1  0  0  0
  1  2  2  0  0  0
  1 16  1  0  0  0
  2  3  1  0  0  0
  2 24  1  0  0  0
  3  4  2  0  0  0
  3 25  1  0  0  0
  4  5  1  0  0  0
  4 26  1  0  0  0
  5  6  2  0  0  0
  5  7  1  0  0  0
  6 27  1  0  0  0
  7  8  1  0  0  0
  7  9  2  0  0  0
  8 10  1  0  0  0
  8 28  1  0  0  0
 10 14  1  0  0  0
 10 11  2  0  0  0
 11 12  1  0  0  0
 12 13  2  0  0  0
 12 15  1  0  0  0
 13 14  1  0  0  0
 13 29  1  0  0  0
 15 30  1  0  0  0
 15 31  1  0  0  0
 15 32  1  0  0  0
 16 17  1  0  0  0
 17 18  2  0  0  0
 17 22  1  0  0  0
 18 19  1  0  0  0
 18 33  1  0  0  0
 19 20  2  0  0  0
 19 23  1  0  0  0
 20 21  1  0  0  0
 20 34  1  0  0  0
 21 22  2  0  0  0
 21 35  1  0  0  0
 22 36  1  0  0  0
M  END
> <s_m_entry_id>
5371

> <s_m_entry_name>
dock_pv.39

> <s_m_Source_Path>
/home/csk/Desktop/cluster/DUD-E-result/hxk4

> <s_m_Source_File>
dock_pv.maegz

> <i_m_Source_File_Index>
39

> <chembl_id>
CHEMBL514512

> <chembl_pref_name>
None

> <i_lp_mmshare_version>
53161

> <r_lp_tautomer_probability>
0.999000488399163

> <s_lp_Force_Field>
OPLS_2005

> <r_lp_Energy>
16.254697

> <b_lp_Chiralities_Consistent>
1

> <s_lp_Variant>
CHEMBL3820_lig118-1

> <s_i_glide_gridfile>
glide-grid_3f9m

> <i_i_glide_lignum>
134

> <i_i_glide_rotatable_bonds>
5

> <r_i_docking_score>
-8.55722184919573

> <r_i_glide_ligand_efficiency>
-0.372053123878075

> <r_i_glide_ligand_efficiency_sa>
-1.05806959264163

> <r_i_glide_ligand_efficiency_ln>
-2.06921383573332

> <r_i_glide_gscore>
-8.55722184919573

> <r_i_glide_lipo>
-3.3787116607839

> <r_i_glide_hbond>
-0.32

> <r_i_glide_metal>
0

> <r_i_glide_rewards>
-3.00198569106974

> <r_i_glide_evdw>
-38.7483711242676

> <r_i_glide_ecoul>
-5.26676797866821

> <r_i_glide_erotb>
0.87090925567152

> <r_i_glide_esite>
0

> <r_i_glide_emodel>
-63.8226525257325

> <r_i_glide_energy>
-44.0151391029358

> <r_i_glide_einternal>
3.18528699874878

> <i_i_glide_confnum>
4

> <i_i_glide_posenum>
190

> <r_i_glide_eff_state_penalty>
0

> <s_user_duplicate_titles>
CHEMBL3820_lig118

> <i_f3d_flags>
0

> <s_m_subgroup_title>
dock_pv

> <s_m_subgroupid>
dock_pv

> <b_m_subgroup_collapsed>
0

$$$$
CHEMBL3820_lig119
                    3D
 Schrodinger Suite 2021-1.
 39 41  0  0  1  0            999 V2000
   -7.4640   -1.8132   23.9507 C   0  0  0  0  0  0
   -7.7349   -3.1514   23.6687 C   0  0  0  0  0  0
   -8.1846   -3.5186   22.4043 C   0  0  0  0  0  0
   -8.3642   -2.5488   21.4195 C   0  0  0  0  0  0
   -8.1326   -1.1918   21.6895 C   0  0  0  0  0  0
   -7.6943   -0.8365   22.9749 C   0  0  0  0  0  0
   -8.2891   -0.1616   20.5936 C   0  0  0  0  0  0
   -8.6817    1.0730   20.9809 N   0  0  0  0  0  0
   -8.1339   -0.4924   19.4185 O   0  0  0  0  0  0
   -8.7988    2.2034   20.1793 C   0  0  0  0  0  0
   -9.4890    3.2497   20.5738 N   0  0  0  0  0  0
   -9.3065    4.3008   19.7822 C   0  0  0  0  0  0
   -8.4271    4.1070   18.7154 C   0  0  0  0  0  0
   -7.8863    2.4571   18.7021 S   0  0  0  0  0  0
  -10.0650    5.5576   20.1425 C   0  0  0  0  0  0
   -6.9679   -1.4766   25.1872 O   0  0  0  0  0  0
   -5.7412   -0.8489   25.2657 C   0  0  0  0  0  0
   -5.5915    0.2963   26.0642 C   0  0  0  0  0  0
   -4.3369    0.9054   26.1811 C   0  0  0  0  0  0
   -3.2377    0.3911   25.4938 C   0  0  0  0  0  0
   -3.3830   -0.7376   24.6909 C   0  0  0  0  0  0
   -4.6263   -1.3611   24.5866 C   0  0  0  0  0  0
   -6.7823    0.8933   26.7952 C   0  0  0  0  0  0
   -7.5749   -3.9079   24.4222 H   0  0  0  0  0  0
   -8.3795   -4.5568   22.1820 H   0  0  0  0  0  0
   -8.6883   -2.8699   20.4433 H   0  0  0  0  0  0
   -7.4890    0.1922   23.2259 H   0  0  0  0  0  0
   -9.0169    1.1849   21.9321 H   0  0  0  0  0  0
   -8.1202    4.8074   17.9510 H   0  0  0  0  0  0
   -9.7879    6.3976   19.5036 H   0  0  0  0  0  0
   -9.8854    5.8706   21.1724 H   0  0  0  0  0  0
  -11.1430    5.4229   20.0327 H   0  0  0  0  0  0
   -4.2103    1.7853   26.7947 H   0  0  0  0  0  0
   -2.2730    0.8744   25.5740 H   0  0  0  0  0  0
   -2.5317   -1.1299   24.1530 H   0  0  0  0  0  0
   -4.7272   -2.2450   23.9731 H   0  0  0  0  0  0
   -6.4894    1.6861   27.4857 H   0  0  0  0  0  0
   -7.4881    1.3043   26.0735 H   0  0  0  0  0  0
   -7.3008    0.1246   27.3683 H   0  0  0  0  0  0
  1  6  1  0  0  0
  1  2  2  0  0  0
  1 16  1  0  0  0
  2  3  1  0  0  0
  2 24  1  0  0  0
  3  4  2  0  0  0
  3 25  1  0  0  0
  4  5  1  0  0  0
  4 26  1  0  0  0
  5  6  2  0  0  0
  5  7  1  0  0  0
  6 27  1  0  0  0
  7  8  1  0  0  0
  7  9  2  0  0  0
  8 10  1  0  0  0
  8 28  1  0  0  0
 10 14  1  0  0  0
 10 11  2  0  0  0
 11 12  1  0  0  0
 12 13  2  0  0  0
 12 15  1  0  0  0
 13 14  1  0  0  0
 13 29  1  0  0  0
 15 30  1  0  0  0
 15 31  1  0  0  0
 15 32  1  0  0  0
 16 17  1  0  0  0
 17 18  2  0  0  0
 17 22  1  0  0  0
 18 19  1  0  0  0
 18 23  1  0  0  0
 19 20  2  0  0  0
 19 33  1  0  0  0
 20 21  1  0  0  0
 20 34  1  0  0  0
 21 22  2  0  0  0
 21 35  1  0  0  0
 22 36  1  0  0  0
 23 37  1  0  0  0
 23 38  1  0  0  0
 23 39  1  0  0  0
M  END
> <s_m_entry_id>
5372

> <s_m_entry_name>
dock_pv.40

> <s_m_Source_Path>
/home/csk/Desktop/cluster/DUD-E-result/hxk4

> <s_m_Source_File>
dock_pv.maegz

> <i_m_Source_File_Index>
40

> <chembl_id>
CHEMBL474012

> <chembl_pref_name>
None

> <i_lp_mmshare_version>
53161

> <r_lp_tautomer_probability>
0.999000488399163

> <s_lp_Force_Field>
OPLS_2005

> <r_lp_Energy>
17.39564

> <b_lp_Chiralities_Consistent>
1

> <s_lp_Variant>
CHEMBL3820_lig119-1

> <s_i_glide_gridfile>
glide-grid_3f9m

> <i_i_glide_lignum>
135

> <i_i_glide_rotatable_bonds>
5

> <r_i_docking_score>
-8.45991446615703

> <r_i_glide_ligand_efficiency>
-0.367822368093784

> <r_i_glide_ligand_efficiency_sa>
-1.04603788597944

> <r_i_glide_ligand_efficiency_ln>
-2.04568402818

> <r_i_glide_gscore>
-8.45991446615703

> <r_i_glide_lipo>
-3.48386915531695

> <r_i_glide_hbond>
-0.32

> <r_i_glide_metal>
0

> <r_i_glide_rewards>
-2.76055612800807

> <r_i_glide_evdw>
-39.1209831237793

> <r_i_glide_ecoul>
-5.52816534042358

> <r_i_glide_erotb>
0.889784774420498

> <r_i_glide_esite>
0

> <r_i_glide_emodel>
-64.5273912612451

> <r_i_glide_energy>
-44.6491484642029

> <r_i_glide_einternal>
3.27023100852966

> <i_i_glide_confnum>
9

> <i_i_glide_posenum>
92

> <r_i_glide_eff_state_penalty>
0

> <s_user_duplicate_titles>
CHEMBL3820_lig119,476303

> <i_f3d_flags>
0

> <s_m_subgroup_title>
dock_pv

> <s_m_subgroupid>
dock_pv

> <b_m_subgroup_collapsed>
0

$$$$
CHEMBL3820_lig117
                    3D
 Schrodinger Suite 2021-1.
 36 38  0  0  1  0            999 V2000
   -7.4893   -1.8172   23.9579 C   0  0  0  0  0  0
   -7.7726   -3.1512   23.6726 C   0  0  0  0  0  0
   -8.2132   -3.5137   22.4044 C   0  0  0  0  0  0
   -8.3776   -2.5405   21.4196 C   0  0  0  0  0  0
   -8.1400   -1.1854   21.6951 C   0  0  0  0  0  0
   -7.7029   -0.8353   22.9822 C   0  0  0  0  0  0
   -8.2891   -0.1527   20.6006 C   0  0  0  0  0  0
   -8.6884    1.0806   20.9810 N   0  0  0  0  0  0
   -8.1187   -0.4823   19.4289 O   0  0  0  0  0  0
   -8.8018    2.2140   20.1810 C   0  0  0  0  0  0
   -9.4890    3.2596   20.5812 N   0  0  0  0  0  0
   -9.3105    4.3154   19.8004 C   0  0  0  0  0  0
   -8.4346    4.1293   18.7293 C   0  0  0  0  0  0
   -7.8871    2.4791   18.7096 S   0  0  0  0  0  0
  -10.0757    5.5655   20.1701 C   0  0  0  0  0  0
   -7.0079   -1.4950   25.2030 O   0  0  0  0  0  0
   -5.7767   -0.8816   25.3098 C   0  0  0  0  0  0
   -5.6319    0.2069   26.1766 C   0  0  0  0  0  0
   -4.3960    0.8460   26.3028 C   0  0  0  0  0  0
   -3.2981    0.3978   25.5675 C   0  0  0  0  0  0
   -3.4331   -0.6911   24.7041 C   0  0  0  0  0  0
   -4.6663   -1.3300   24.5804 C   0  0  0  0  0  0
   -6.6884    0.6506   26.8956 F   0  0  0  0  0  0
   -7.6269   -3.9073   24.4302 H   0  0  0  0  0  0
   -8.4110   -4.5528   22.1811 H   0  0  0  0  0  0
   -8.6899   -2.8591   20.4389 H   0  0  0  0  0  0
   -7.4892    0.1912   23.2342 H   0  0  0  0  0  0
   -9.0310    1.1918   21.9300 H   0  0  0  0  0  0
   -8.1303    4.8325   17.9670 H   0  0  0  0  0  0
   -9.8068    6.4108   19.5340 H   0  0  0  0  0  0
   -9.8885    5.8748   21.1996 H   0  0  0  0  0  0
  -11.1525    5.4265   20.0702 H   0  0  0  0  0  0
   -4.2885    1.6877   26.9703 H   0  0  0  0  0  0
   -2.3420    0.8945   25.6566 H   0  0  0  0  0  0
   -2.5837   -1.0306   24.1290 H   0  0  0  0  0  0
   -4.7585   -2.1730   23.9121 H   0  0  0  0  0  0
  1  6  1  0  0  0
  1  2  2  0  0  0
  1 16  1  0  0  0
  2  3  1  0  0  0
  2 24  1  0  0  0
  3  4  2  0  0  0
  3 25  1  0  0  0
  4  5  1  0  0  0
  4 26  1  0  0  0
  5  6  2  0  0  0
  5  7  1  0  0  0
  6 27  1  0  0  0
  7  8  1  0  0  0
  7  9  2  0  0  0
  8 10  1  0  0  0
  8 28  1  0  0  0
 10 14  1  0  0  0
 10 11  2  0  0  0
 11 12  1  0  0  0
 12 13  2  0  0  0
 12 15  1  0  0  0
 13 14  1  0  0  0
 13 29  1  0  0  0
 15 30  1  0  0  0
 15 31  1  0  0  0
 15 32  1  0  0  0
 16 17  1  0  0  0
 17 18  2  0  0  0
 17 22  1  0  0  0
 18 19  1  0  0  0
 18 23  1  0  0  0
 19 20  2  0  0  0
 19 33  1  0  0  0
 20 21  1  0  0  0
 20 34  1  0  0  0
 21 22  2  0  0  0
 21 35  1  0  0  0
 22 36  1  0  0  0
M  END
> <s_m_entry_id>
5373

> <s_m_entry_name>
dock_pv.41

> <s_m_Source_Path>
/home/csk/Desktop/cluster/DUD-E-result/hxk4

> <s_m_Source_File>
dock_pv.maegz

> <i_m_Source_File_Index>
41

> <chembl_id>
CHEMBL474632

> <chembl_pref_name>
None

> <i_lp_mmshare_version>
53161

> <r_lp_tautomer_probability>
0.999000488399163

> <s_lp_Force_Field>
OPLS_2005

> <r_lp_Energy>
17.887957

> <b_lp_Chiralities_Consistent>
1

> <s_lp_Variant>
CHEMBL3820_lig117-1

> <s_i_glide_gridfile>
glide-grid_3f9m

> <i_i_glide_lignum>
133

> <i_i_glide_rotatable_bonds>
5

> <r_i_docking_score>
-8.42417125032392

> <r_i_glide_ligand_efficiency>
-0.366268315231475

> <r_i_glide_ligand_efficiency_sa>
-1.04161836636399

> <r_i_glide_ligand_efficiency_ln>
-2.03704099448999

> <r_i_glide_gscore>
-8.42417125032392

> <r_i_glide_lipo>
-3.32438883969796

> <r_i_glide_hbond>
-0.32

> <r_i_glide_metal>
0

> <r_i_glide_rewards>
-2.92242232768968

> <r_i_glide_evdw>
-38.8626251220703

> <r_i_glide_ecoul>
-5.23425388336182

> <r_i_glide_erotb>
0.87090925567152

> <r_i_glide_esite>
0

> <r_i_glide_emodel>
-63.9454598807679

> <r_i_glide_energy>
-44.0968790054321

> <r_i_glide_einternal>
2.78441262245178

> <i_i_glide_confnum>
16

> <i_i_glide_posenum>
125

> <r_i_glide_eff_state_penalty>
0

> <s_user_duplicate_titles>
CHEMBL3820_lig117,476085

> <i_f3d_flags>
0

> <s_m_subgroup_title>
dock_pv

> <s_m_subgroupid>
dock_pv

> <b_m_subgroup_collapsed>
0

$$$$
CHEMBL3820_lig247
                    3D
 Schrodinger Suite 2021-1.
 43 46  0  0  1  0            999 V2000
   -8.4980    0.1389   21.0742 C   0  0  0  0  0  0
   -7.6464   -0.1570   20.0112 C   0  0  0  0  0  0
   -7.4889    0.7474   18.9639 C   0  0  0  0  0  0
   -8.0840    2.0248   19.0179 C   0  0  0  0  0  0
   -8.9633    2.3288   20.0880 C   0  0  0  0  0  0
   -9.2563    1.3030   20.9811 C   0  0  0  0  0  0
   -9.4468    3.6687   20.1811 C   0  0  0  0  0  0
  -10.2492    4.0775   21.2612 N   0  0  0  0  0  0
   -8.6548   -0.6309   22.2243 O   0  0  0  0  0  0
   -9.0877    4.6084   19.2645 N   0  0  0  0  0  0
   -8.2894    4.1945   18.2546 C   0  0  0  0  0  0
   -7.7880    2.9458   18.0713 N   0  0  0  0  0  0
  -11.0441    5.1857   21.2133 C   0  0  0  0  0  0
  -10.7920    6.4707   21.7107 C   0  0  0  0  0  0
  -11.8594    7.2447   21.2925 C   0  0  0  0  0  0
  -12.6526    6.3831   20.5814 N   0  0  0  0  0  0
  -12.1810    5.1365   20.5634 N   0  0  0  0  0  0
  -13.8508    6.6684   19.8296 C   0  0  0  0  0  0
   -7.8047   -1.6769   22.5505 C   0  0  0  0  0  0
   -6.0049   -2.6700   23.8646 C   0  0  0  0  0  0
   -6.1218   -3.8559   23.1499 C   0  0  0  0  0  0
   -7.1051   -3.9764   22.1776 C   0  0  0  0  0  0
   -7.9588   -2.9067   21.8980 C   0  0  0  0  0  0
   -6.8476   -1.5870   23.5868 C   0  0  0  0  0  0
   -6.7287   -0.4277   24.4572 C   0  0  0  0  0  0
   -6.6399    0.4811   25.1681 N   0  0  0  0  0  0
   -9.0698   -3.1139   20.8994 C   0  0  0  0  0  0
   -7.0913   -1.0820   19.9808 H   0  0  0  0  0  0
   -6.8272    0.5048   18.1438 H   0  0  0  0  0  0
  -10.0327    1.4478   21.7118 H   0  0  0  0  0  0
  -10.4231    3.3481   21.9359 H   0  0  0  0  0  0
   -8.0318    4.9373   17.5138 H   0  0  0  0  0  0
   -9.9119    6.7962   22.2451 H   0  0  0  0  0  0
  -12.0992    8.2950   21.3878 H   0  0  0  0  0  0
  -14.1194    7.7042   19.9739 H   0  0  0  0  0  0
  -13.6677    6.4996   18.7684 H   0  0  0  0  0  0
  -14.6632    6.0350   20.1816 H   0  0  0  0  0  0
   -5.2603   -2.6113   24.6477 H   0  0  0  0  0  0
   -5.4709   -4.6895   23.3695 H   0  0  0  0  0  0
   -7.2120   -4.9137   21.6526 H   0  0  0  0  0  0
   -9.3785   -2.2050   20.3850 H   0  0  0  0  0  0
   -8.6893   -3.7906   20.1371 H   0  0  0  0  0  0
   -9.9423   -3.5531   21.3828 H   0  0  0  0  0  0
  1  2  2  0  0  0
  1  9  1  0  0  0
  1  6  1  0  0  0
  2  3  1  0  0  0
  2 28  1  0  0  0
  3  4  2  0  0  0
  3 29  1  0  0  0
  4 12  1  0  0  0
  4  5  1  0  0  0
  5  7  1  0  0  0
  5  6  2  0  0  0
  6 30  1  0  0  0
  7  8  1  0  0  0
  7 10  2  0  0  0
  8 13  1  0  0  0
  8 31  1  0  0  0
  9 19  1  0  0  0
 10 11  1  0  0  0
 11 12  2  0  0  0
 11 32  1  0  0  0
 13 14  1  0  0  0
 13 17  2  0  0  0
 14 15  2  0  0  0
 14 33  1  0  0  0
 15 16  1  0  0  0
 15 34  1  0  0  0
 16 17  1  0  0  0
 16 18  1  0  0  0
 18 35  1  0  0  0
 18 36  1  0  0  0
 18 37  1  0  0  0
 19 24  2  0  0  0
 19 23  1  0  0  0
 20 24  1  0  0  0
 20 21  2  0  0  0
 20 38  1  0  0  0
 21 22  1  0  0  0
 21 39  1  0  0  0
 22 23  2  0  0  0
 22 40  1  0  0  0
 23 27  1  0  0  0
 24 25  1  0  0  0
 25 26  3  0  0  0
 27 41  1  0  0  0
 27 42  1  0  0  0
 27 43  1  0  0  0
M  END
> <s_m_entry_id>
5374

> <s_m_entry_name>
dock_pv.42

> <s_m_Source_Path>
/home/csk/Desktop/cluster/DUD-E-result/hxk4

> <s_m_Source_File>
dock_pv.maegz

> <i_m_Source_File_Index>
42

> <chembl_id>
CHEMBL572840

> <chembl_pref_name>
None

> <i_lp_mmshare_version>
53161

> <r_lp_tautomer_probability>
1

> <s_lp_Force_Field>
OPLS_2005

> <r_lp_Energy>
14.385651

> <b_lp_Chiralities_Consistent>
1

> <s_lp_Variant>
CHEMBL3820_lig247-1

> <s_i_glide_gridfile>
glide-grid_3f9m

> <i_i_glide_lignum>
305

> <i_i_glide_rotatable_bonds>
4

> <r_i_docking_score>
-8.34982625489485

> <r_i_glide_ligand_efficiency>
-0.309252824255365

> <r_i_glide_ligand_efficiency_sa>
-0.927758471746847

> <r_i_glide_ligand_efficiency_ln>
-1.94370189449518

> <r_i_glide_gscore>
-8.34982625489485

> <r_i_glide_lipo>
-4.58032013275246

> <r_i_glide_hbond>
-0.234677777838939

> <r_i_glide_metal>
0

> <r_i_glide_rewards>
-1.99516247650722

> <r_i_glide_evdw>
-32.5859298706055

> <r_i_glide_ecoul>
-3.41938543319702

> <r_i_glide_erotb>
0.602538440713607

> <r_i_glide_esite>
0

> <r_i_glide_emodel>
-36.2986246737139

> <r_i_glide_energy>
-36.0053153038025

> <r_i_glide_einternal>
6.80107975006104

> <i_i_glide_confnum>
1

> <i_i_glide_posenum>
15

> <r_i_glide_eff_state_penalty>
0

> <s_user_duplicate_titles>
CHEMBL3820_lig247,573018

> <i_f3d_flags>
0

> <s_m_subgroup_title>
dock_pv

> <s_m_subgroupid>
dock_pv

> <b_m_subgroup_collapsed>
0

$$$$
CHEMBL3820_lig132
                    3D
 Schrodinger Suite 2021-1.
 36 38  0  0  1  0            999 V2000
   -7.4927   -1.8665   24.1085 C   0  0  0  0  0  0
   -7.8021   -3.2045   23.8650 C   0  0  0  0  0  0
   -8.2480   -3.6088   22.6086 C   0  0  0  0  0  0
   -8.3942   -2.6726   21.5871 C   0  0  0  0  0  0
   -8.1262   -1.3148   21.8167 C   0  0  0  0  0  0
   -7.6780   -0.9227   23.0892 C   0  0  0  0  0  0
   -8.2442   -0.3261   20.6828 C   0  0  0  0  0  0
   -8.6787    0.9124   21.0017 N   0  0  0  0  0  0
   -7.9805   -0.6936   19.5428 O   0  0  0  0  0  0
   -8.7525    2.0307   20.1807 C   0  0  0  0  0  0
   -9.4176    3.0971   20.5610 N   0  0  0  0  0  0
   -9.1729    4.1418   19.7822 C   0  0  0  0  0  0
   -8.2890    3.9133   18.7238 C   0  0  0  0  0  0
   -7.8252    2.2392   18.7101 S   0  0  0  0  0  0
   -9.8880    5.4265   20.1332 C   0  0  0  0  0  0
   -7.0892   -1.5130   25.3770 O   0  0  0  0  0  0
   -6.0454   -0.6389   25.5721 C   0  0  0  0  0  0
   -6.2614    0.4974   26.3534 C   0  0  0  0  0  0
   -5.2009    1.3485   26.6536 C   0  0  0  0  0  0
   -3.9253    1.0542   26.1768 C   0  0  0  0  0  0
   -3.7057   -0.0694   25.3815 C   0  0  0  0  0  0
   -4.7687   -0.9170   25.0757 C   0  0  0  0  0  0
   -7.6897   -3.9344   24.6532 H   0  0  0  0  0  0
   -8.4763   -4.6489   22.4265 H   0  0  0  0  0  0
   -8.7238   -3.0126   20.6144 H   0  0  0  0  0  0
   -7.4546    0.1117   23.2994 H   0  0  0  0  0  0
   -9.0495    1.0507   21.9353 H   0  0  0  0  0  0
   -7.9427    4.5996   17.9642 H   0  0  0  0  0  0
   -9.5319    6.2657   19.5346 H   0  0  0  0  0  0
   -9.7468    5.7046   21.1777 H   0  0  0  0  0  0
  -10.9625    5.3496   19.9636 H   0  0  0  0  0  0
   -7.2473    0.7116   26.7396 H   0  0  0  0  0  0
   -5.3657    2.2275   27.2606 H   0  0  0  0  0  0
   -3.0978    1.7072   26.4126 H   0  0  0  0  0  0
   -2.7140   -0.2829   25.0090 H   0  0  0  0  0  0
   -4.6006   -1.8000   24.4770 H   0  0  0  0  0  0
  1  6  1  0  0  0
  1  2  2  0  0  0
  1 16  1  0  0  0
  2  3  1  0  0  0
  2 23  1  0  0  0
  3  4  2  0  0  0
  3 24  1  0  0  0
  4  5  1  0  0  0
  4 25  1  0  0  0
  5  6  2  0  0  0
  5  7  1  0  0  0
  6 26  1  0  0  0
  7  8  1  0  0  0
  7  9  2  0  0  0
  8 10  1  0  0  0
  8 27  1  0  0  0
 10 14  1  0  0  0
 10 11  2  0  0  0
 11 12  1  0  0  0
 12 13  2  0  0  0
 12 15  1  0  0  0
 13 14  1  0  0  0
 13 28  1  0  0  0
 15 29  1  0  0  0
 15 30  1  0  0  0
 15 31  1  0  0  0
 16 17  1  0  0  0
 17 18  2  0  0  0
 17 22  1  0  0  0
 18 19  1  0  0  0
 18 32  1  0  0  0
 19 20  2  0  0  0
 19 33  1  0  0  0
 20 21  1  0  0  0
 20 34  1  0  0  0
 21 22  2  0  0  0
 21 35  1  0  0  0
 22 36  1  0  0  0
M  END
> <s_m_entry_id>
5375

> <s_m_entry_name>
dock_pv.43

> <s_m_Source_Path>
/home/csk/Desktop/cluster/DUD-E-result/hxk4

> <s_m_Source_File>
dock_pv.maegz

> <i_m_Source_File_Index>
43

> <chembl_id>
CHEMBL474626

> <chembl_pref_name>
None

> <i_lp_mmshare_version>
53161

> <r_lp_tautomer_probability>
0.999000488399163

> <s_lp_Force_Field>
OPLS_2005

> <r_lp_Energy>
17.434717

> <b_lp_Chiralities_Consistent>
1

> <s_lp_Variant>
CHEMBL3820_lig132-1

> <s_i_glide_gridfile>
glide-grid_3f9m

> <i_i_glide_lignum>
148

> <i_i_glide_rotatable_bonds>
5

> <r_i_docking_score>
-8.34818366849637

> <r_i_glide_ligand_efficiency>
-0.379462894022562

> <r_i_glide_ligand_efficiency_sa>
-1.06326995248

> <r_i_glide_ligand_efficiency_ln>
-2.04060059597851

> <r_i_glide_gscore>
-8.34818366849637

> <r_i_glide_lipo>
-3.43181506124495

> <r_i_glide_hbond>
-0.32

> <r_i_glide_metal>
0

> <r_i_glide_rewards>
-2.85700194270103

> <r_i_glide_evdw>
-38.7427291870117

> <r_i_glide_ecoul>
-5.09342956542969

> <r_i_glide_erotb>
0.961784229614649

> <r_i_glide_esite>
0

> <r_i_glide_emodel>
-60.379059064433

> <r_i_glide_energy>
-43.8361587524414

> <r_i_glide_einternal>
4.54019498825073

> <i_i_glide_confnum>
1

> <i_i_glide_posenum>
222

> <r_i_glide_eff_state_penalty>
0

> <s_user_duplicate_titles>
CHEMBL3820_lig132,476084

> <i_f3d_flags>
0

> <s_m_subgroup_title>
dock_pv

> <s_m_subgroupid>
dock_pv

> <b_m_subgroup_collapsed>
0

$$$$
CHEMBL3820_lig139
                    3D
 Schrodinger Suite 2021-1.
 25 26  0  0  1  0            999 V2000
   -9.9426    4.5285   20.4866 C   0  0  0  0  0  0
   -9.3324    5.2880   19.4883 C   0  0  0  0  0  0
   -8.4155    4.6898   18.6248 C   0  0  0  0  0  0
   -8.0973    3.3372   18.7672 C   0  0  0  0  0  0
   -8.6890    2.5606   19.7810 C   0  0  0  0  0  0
   -9.6352    3.1738   20.6186 C   0  0  0  0  0  0
   -8.2983    1.1106   19.9462 C   0  0  0  0  0  0
   -8.4691    0.5888   21.1848 N   0  0  0  0  0  0
   -7.8260    0.5050   18.9865 O   0  0  0  0  0  0
   -8.2317   -0.7120   21.6173 C   0  0  0  0  0  0
   -8.2884   -1.0140   22.8909 N   0  0  0  0  0  0
   -8.0554   -2.2948   23.1226 C   0  0  0  0  0  0
   -7.8132   -3.0716   21.9950 C   0  0  0  0  0  0
   -7.8890   -2.0718   20.5815 S   0  0  0  0  0  0
  -11.0882    5.2560   21.5547 Cl  0  0  0  0  0  0
   -8.0828   -2.7447   24.5634 C   0  0  0  0  0  0
   -9.5671    6.3375   19.3818 H   0  0  0  0  0  0
   -7.9432    5.2755   17.8490 H   0  0  0  0  0  0
   -7.3733    2.9037   18.0901 H   0  0  0  0  0  0
  -10.1470    2.6073   21.3811 H   0  0  0  0  0  0
   -8.7566    1.2308   21.9148 H   0  0  0  0  0  0
   -7.6039   -4.1293   21.9306 H   0  0  0  0  0  0
   -7.7530   -3.7784   24.6685 H   0  0  0  0  0  0
   -7.4325   -2.1389   25.1954 H   0  0  0  0  0  0
   -9.0886   -2.6945   24.9800 H   0  0  0  0  0  0
  1  6  1  0  0  0
  1  2  2  0  0  0
  1 15  1  0  0  0
  2  3  1  0  0  0
  2 17  1  0  0  0
  3  4  2  0  0  0
  3 18  1  0  0  0
  4  5  1  0  0  0
  4 19  1  0  0  0
  5  6  2  0  0  0
  5  7  1  0  0  0
  6 20  1  0  0  0
  7  8  1  0  0  0
  7  9  2  0  0  0
  8 10  1  0  0  0
  8 21  1  0  0  0
 10 11  2  0  0  0
 10 14  1  0  0  0
 11 12  1  0  0  0
 12 13  2  0  0  0
 12 16  1  0  0  0
 13 14  1  0  0  0
 13 22  1  0  0  0
 16 23  1  0  0  0
 16 24  1  0  0  0
 16 25  1  0  0  0
M  END
> <s_m_entry_id>
5376

> <s_m_entry_name>
dock_pv.44

> <s_m_Source_Path>
/home/csk/Desktop/cluster/DUD-E-result/hxk4

> <s_m_Source_File>
dock_pv.maegz

> <i_m_Source_File_Index>
44

> <chembl_id>
CHEMBL212529

> <chembl_pref_name>
None

> <i_lp_mmshare_version>
53161

> <r_lp_tautomer_probability>
0.999000488399163

> <s_lp_Force_Field>
OPLS_2005

> <r_lp_Energy>
8.733387

> <b_lp_Chiralities_Consistent>
1

> <s_lp_Variant>
CHEMBL3820_lig139-1

> <s_i_glide_gridfile>
glide-grid_3f9m

> <i_i_glide_lignum>
155

> <i_i_glide_rotatable_bonds>
3

> <r_i_docking_score>
-8.33188695421279

> <r_i_glide_ligand_efficiency>
-0.520742934638299

> <r_i_glide_ligand_efficiency_sa>
-1.31218996865693

> <r_i_glide_ligand_efficiency_ln>
-2.20853307043397

> <r_i_glide_gscore>
-8.33188695421279

> <r_i_glide_lipo>
-2.9222225032279

> <r_i_glide_hbond>
-0.478832787551732

> <r_i_glide_metal>
0

> <r_i_glide_rewards>
-3.41245199689669

> <r_i_glide_evdw>
-32.4573059082031

> <r_i_glide_ecoul>
-4.80041265487671

> <r_i_glide_erotb>
0.824547527105194

> <r_i_glide_esite>
0

> <r_i_glide_emodel>
-55.4151417013476

> <r_i_glide_energy>
-37.2577185630798

> <r_i_glide_einternal>
0.573319494724274

> <i_i_glide_confnum>
2

> <i_i_glide_posenum>
135

> <r_i_glide_eff_state_penalty>
0

> <s_user_duplicate_titles>
CHEMBL3820_lig139

> <i_f3d_flags>
0

> <s_m_subgroup_title>
dock_pv

> <s_m_subgroupid>
dock_pv

> <b_m_subgroup_collapsed>
0

$$$$
CHEMBL3820_lig124
                    3D
 Schrodinger Suite 2021-1.
 43 45  0  0  1  0            999 V2000
   -7.5741   -1.1977   22.7561 C   0  0  0  0  0  0
   -7.5638   -2.3330   21.9370 C   0  0  0  0  0  0
   -7.8368   -2.2181   20.5810 C   0  0  0  0  0  0
   -8.1477   -0.9740   20.0368 C   0  0  0  0  0  0
   -8.1989    0.1754   20.8287 C   0  0  0  0  0  0
   -7.8890    0.0424   22.1908 C   0  0  0  0  0  0
   -8.5469    1.5054   20.1919 C   0  0  0  0  0  0
   -9.1890    2.3992   20.9810 N   0  0  0  0  0  0
   -8.2890    1.6896   19.0008 O   0  0  0  0  0  0
   -9.6035    3.6884   20.6522 C   0  0  0  0  0  0
  -10.4996    4.3074   21.3810 N   0  0  0  0  0  0
  -10.7051    5.5522   20.9852 C   0  0  0  0  0  0
   -9.9668    5.9515   19.8801 C   0  0  0  0  0  0
   -8.9249    4.6700   19.3737 S   0  0  0  0  0  0
  -11.6858    6.3812   21.7787 C   0  0  0  0  0  0
   -7.2954   -1.2562   24.1057 O   0  0  0  0  0  0
   -6.2469   -2.0430   24.5261 C   0  0  0  0  0  0
   -6.4359   -3.3963   24.8583 C   0  0  0  0  0  0
   -5.3097   -4.1679   25.1953 C   0  0  0  0  0  0
   -4.0380   -3.5960   25.2314 C   0  0  0  0  0  0
   -3.8696   -2.2466   24.9310 C   0  0  0  0  0  0
   -4.9729   -1.4725   24.5810 C   0  0  0  0  0  0
   -7.7294   -3.8913   24.8024 O   0  0  0  0  0  0
   -7.9900   -5.2850   24.9810 C   0  0  0  0  0  0
   -7.9888   -5.6929   26.4631 C   0  0  0  0  0  0
   -7.3331   -3.3073   22.3385 H   0  0  0  0  0  0
   -7.8024   -3.0950   19.9508 H   0  0  0  0  0  0
   -8.3599   -0.9080   18.9810 H   0  0  0  0  0  0
   -7.8890    0.9050   22.8363 H   0  0  0  0  0  0
   -9.4534    2.0990   21.9181 H   0  0  0  0  0  0
   -9.9553    6.9050   19.3810 H   0  0  0  0  0  0
  -11.7602    7.3992   21.3943 H   0  0  0  0  0  0
  -11.3995    6.4608   22.8277 H   0  0  0  0  0  0
  -12.6890    5.9593   21.7442 H   0  0  0  0  0  0
   -5.3959   -5.2174   25.4276 H   0  0  0  0  0  0
   -3.1815   -4.2010   25.4912 H   0  0  0  0  0  0
   -2.8844   -1.8036   24.9559 H   0  0  0  0  0  0
   -4.8397   -0.4318   24.3250 H   0  0  0  0  0  0
   -8.9806   -5.4789   24.5671 H   0  0  0  0  0  0
   -7.3058   -5.9010   24.3948 H   0  0  0  0  0  0
   -8.2777   -6.7393   26.5719 H   0  0  0  0  0  0
   -7.0115   -5.5740   26.9277 H   0  0  0  0  0  0
   -8.6943   -5.0950   27.0339 H   0  0  0  0  0  0
  1  2  2  0  0  0
  1 16  1  0  0  0
  1  6  1  0  0  0
  2  3  1  0  0  0
  2 26  1  0  0  0
  3  4  2  0  0  0
  3 27  1  0  0  0
  4  5  1  0  0  0
  4 28  1  0  0  0
  5  7  1  0  0  0
  5  6  2  0  0  0
  6 29  1  0  0  0
  7  8  1  0  0  0
  7  9  2  0  0  0
  8 10  1  0  0  0
  8 30  1  0  0  0
 10 14  1  0  0  0
 10 11  2  0  0  0
 11 12  1  0  0  0
 12 13  2  0  0  0
 12 15  1  0  0  0
 13 14  1  0  0  0
 13 31  1  0  0  0
 15 32  1  0  0  0
 15 33  1  0  0  0
 15 34  1  0  0  0
 16 17  1  0  0  0
 17 18  2  0  0  0
 17 22  1  0  0  0
 18 19  1  0  0  0
 18 23  1  0  0  0
 19 20  2  0  0  0
 19 35  1  0  0  0
 20 21  1  0  0  0
 20 36  1  0  0  0
 21 22  2  0  0  0
 21 37  1  0  0  0
 22 38  1  0  0  0
 23 24  1  0  0  0
 24 25  1  0  0  0
 24 39  1  0  0  0
 24 40  1  0  0  0
 25 41  1  0  0  0
 25 42  1  0  0  0
 25 43  1  0  0  0
M  END
> <s_m_entry_id>
5377

> <s_m_entry_name>
dock_pv.45

> <s_m_Source_Path>
/home/csk/Desktop/cluster/DUD-E-result/hxk4

> <s_m_Source_File>
dock_pv.maegz

> <i_m_Source_File_Index>
45

> <chembl_id>
CHEMBL475033

> <chembl_pref_name>
None

> <i_lp_mmshare_version>
53161

> <r_lp_tautomer_probability>
0.999000488399163

> <s_lp_Force_Field>
OPLS_2005

> <r_lp_Energy>
19.600871

> <b_lp_Chiralities_Consistent>
1

> <s_lp_Variant>
CHEMBL3820_lig124-1

> <s_i_glide_gridfile>
glide-grid_3f9m

> <i_i_glide_lignum>
140

> <i_i_glide_rotatable_bonds>
7

> <r_i_docking_score>
-8.21214840448596

> <r_i_glide_ligand_efficiency>
-0.328485936179438

> <r_i_glide_ligand_efficiency_sa>
-0.960498703111562

> <r_i_glide_ligand_efficiency_ln>
-1.94652527009195

> <r_i_glide_gscore>
-8.21214840448596

> <r_i_glide_lipo>
-3.55974489960221

> <r_i_glide_hbond>
-0.32

> <r_i_glide_metal>
0

> <r_i_glide_rewards>
-2.43305817461933

> <r_i_glide_evdw>
-38.5242767333984

> <r_i_glide_ecoul>
-5.79407119750977

> <r_i_glide_erotb>
0.912711125653187

> <r_i_glide_esite>
-0.0167319396212182

> <r_i_glide_emodel>
-63.7461492562654

> <r_i_glide_energy>
-44.3183479309082

> <r_i_glide_einternal>
5.26167488098145

> <i_i_glide_confnum>
20

> <i_i_glide_posenum>
112

> <r_i_glide_eff_state_penalty>
0

> <s_user_duplicate_titles>
CHEMBL3820_lig124

> <i_f3d_flags>
0

> <s_m_subgroup_title>
dock_pv

> <s_m_subgroupid>
dock_pv

> <b_m_subgroup_collapsed>
0

$$$$
CHEMBL3820_lig123
                    3D
 Schrodinger Suite 2021-1.
 40 42  0  0  1  0            999 V2000
   -9.3756    4.3013   20.4541 C   0  0  0  0  0  0
   -8.9825    4.8787   19.2445 C   0  0  0  0  0  0
   -8.2888    4.1065   18.3134 C   0  0  0  0  0  0
   -7.9833    2.7657   18.5809 C   0  0  0  0  0  0
   -8.4064    2.1688   19.7833 C   0  0  0  0  0  0
   -9.0896    2.9672   20.6974 C   0  0  0  0  0  0
   -8.0658    0.7419   20.1249 C   0  0  0  0  0  0
   -8.3766    0.2880   21.3658 N   0  0  0  0  0  0
   -7.4891    0.0821   19.2824 O   0  0  0  0  0  0
   -8.1752   -0.9905   21.8839 C   0  0  0  0  0  0
   -8.2394   -1.2118   23.1725 N   0  0  0  0  0  0
   -8.0435   -2.4834   23.4817 C   0  0  0  0  0  0
   -7.8336   -3.3382   22.4073 C   0  0  0  0  0  0
   -7.8872   -2.4292   20.9374 S   0  0  0  0  0  0
   -8.0719   -2.8486   24.9430 C   0  0  0  0  0  0
   -9.9304    5.0083   21.4891 O   0  0  0  0  0  0
  -10.9851    5.8172   21.1957 C   0  0  0  0  0  0
  -12.1709    5.2859   20.6654 C   0  0  0  0  0  0
  -13.1358    6.1384   20.1808 C   0  0  0  0  0  0
  -12.9696    7.4962   20.2926 C   0  0  0  0  0  0
  -11.8887    8.0333   20.9813 C   0  0  0  0  0  0
  -10.8656    7.1899   21.4059 C   0  0  0  0  0  0
  -12.4609    3.9534   20.5810 O   0  0  0  0  0  0
  -12.1966    3.1526   21.7117 C   0  0  0  0  0  0
   -9.1781    5.9235   19.0478 H   0  0  0  0  0  0
   -7.9763    4.5556   17.3839 H   0  0  0  0  0  0
   -7.4270    2.2007   17.8446 H   0  0  0  0  0  0
   -9.3198    2.6096   21.6786 H   0  0  0  0  0  0
   -8.7114    0.9707   22.0334 H   0  0  0  0  0  0
   -7.6597   -4.4043   22.4089 H   0  0  0  0  0  0
   -7.6726   -3.8480   25.1146 H   0  0  0  0  0  0
   -9.0889   -2.8491   25.3300 H   0  0  0  0  0  0
   -7.4754   -2.1628   25.5445 H   0  0  0  0  0  0
  -14.0567    5.7533   19.7811 H   0  0  0  0  0  0
  -13.7418    8.1050   19.8865 H   0  0  0  0  0  0
  -11.8275    9.1019   21.1203 H   0  0  0  0  0  0
   -9.9698    7.5967   21.8526 H   0  0  0  0  0  0
  -11.3758    2.5050   21.4823 H   0  0  0  0  0  0
  -11.8890    3.7191   22.5825 H   0  0  0  0  0  0
  -13.0472    2.5072   21.9430 H   0  0  0  0  0  0
  1  6  1  0  0  0
  1  2  2  0  0  0
  1 16  1  0  0  0
  2  3  1  0  0  0
  2 25  1  0  0  0
  3  4  2  0  0  0
  3 26  1  0  0  0
  4  5  1  0  0  0
  4 27  1  0  0  0
  5  7  1  0  0  0
  5  6  2  0  0  0
  6 28  1  0  0  0
  7  8  1  0  0  0
  7  9  2  0  0  0
  8 10  1  0  0  0
  8 29  1  0  0  0
 10 14  1  0  0  0
 10 11  2  0  0  0
 11 12  1  0  0  0
 12 13  2  0  0  0
 12 15  1  0  0  0
 13 14  1  0  0  0
 13 30  1  0  0  0
 15 31  1  0  0  0
 15 32  1  0  0  0
 15 33  1  0  0  0
 16 17  1  0  0  0
 17 18  2  0  0  0
 17 22  1  0  0  0
 18 19  1  0  0  0
 18 23  1  0  0  0
 19 20  2  0  0  0
 19 34  1  0  0  0
 20 21  1  0  0  0
 20 35  1  0  0  0
 21 22  2  0  0  0
 21 36  1  0  0  0
 22 37  1  0  0  0
 23 24  1  0  0  0
 24 38  1  0  0  0
 24 39  1  0  0  0
 24 40  1  0  0  0
M  END
> <s_m_entry_id>
5378

> <s_m_entry_name>
dock_pv.46

> <s_m_Source_Path>
/home/csk/Desktop/cluster/DUD-E-result/hxk4

> <s_m_Source_File>
dock_pv.maegz

> <i_m_Source_File_Index>
46

> <chembl_id>
CHEMBL475032

> <chembl_pref_name>
None

> <i_lp_mmshare_version>
53161

> <r_lp_tautomer_probability>
0.999000488399163

> <s_lp_Force_Field>
OPLS_2005

> <r_lp_Energy>
21.033814

> <b_lp_Chiralities_Consistent>
1

> <s_lp_Variant>
CHEMBL3820_lig123-1

> <s_i_glide_gridfile>
glide-grid_3f9m

> <i_i_glide_lignum>
139

> <i_i_glide_rotatable_bonds>
6

> <r_i_docking_score>
-8.17518879952119

> <r_i_glide_ligand_efficiency>
-0.340632866646716

> <r_i_glide_ligand_efficiency_sa>
-0.982555210066743

> <r_i_glide_ligand_efficiency_ln>
-1.95669781469531

> <r_i_glide_gscore>
-8.17518879952119

> <r_i_glide_lipo>
-3.91501594188905

> <r_i_glide_hbond>
-0.189297893253309

> <r_i_glide_metal>
0

> <r_i_glide_rewards>
-2.71311870617382

> <r_i_glide_evdw>
-24.5797595977783

> <r_i_glide_ecoul>
-6.30616807937622

> <r_i_glide_erotb>
0.817156933590339

> <r_i_glide_esite>
0

> <r_i_glide_emodel>
-43.7646705038691

> <r_i_glide_energy>
-30.8859276771545

> <r_i_glide_einternal>
12.2956352233887

> <i_i_glide_confnum>
2

> <i_i_glide_posenum>
81

> <r_i_glide_eff_state_penalty>
0

> <s_user_duplicate_titles>
CHEMBL3820_lig123,476379

> <i_f3d_flags>
0

> <s_m_subgroup_title>
dock_pv

> <s_m_subgroupid>
dock_pv

> <b_m_subgroup_collapsed>
0

$$$$
CHEMBL3820_lig94
                    3D
 Schrodinger Suite 2021-1.
 42 44  0  0  1  0            999 V2000
   -8.5319    1.4152   19.7138 C   0  0  0  0  0  0
   -8.6888    2.9042   19.5520 C   0  0  0  0  0  0
   -8.5525    0.9526   20.9807 N   0  0  0  0  0  0
   -7.9081   -2.8760   22.4926 C   0  0  0  0  0  0
   -7.6935   -4.2495   23.0346 C   0  0  0  0  0  0
   -8.3595   -1.4320   20.6071 N   0  0  0  0  0  0
   -8.2893   -0.3508   21.4351 C   0  0  0  0  0  0
   -9.5048    3.6930   20.3867 C   0  0  0  0  0  0
   -8.1568   -2.6668   21.1337 C   0  0  0  0  0  0
   -8.2889    0.7275   18.7276 O   0  0  0  0  0  0
  -10.4306    3.1033   21.2139 O   0  0  0  0  0  0
   -6.6889   -4.8950   22.7567 O   0  0  0  0  0  0
   -7.8077   -1.7618   23.3285 C   0  0  0  0  0  0
   -7.9804   -0.4871   22.7920 C   0  0  0  0  0  0
   -8.6891   -4.6948   23.8545 O   0  0  0  0  0  0
  -11.5650    3.7892   21.7810 C   0  0  0  0  0  0
   -7.9013    3.5514   18.5810 C   0  0  0  0  0  0
  -11.8914    5.2389   21.3810 C   0  0  0  0  0  0
   -9.3310    5.0702   20.3461 C   0  0  0  0  0  0
  -12.4771    5.4838   20.1487 C   0  0  0  0  0  0
  -11.6007    6.3229   22.2240 C   0  0  0  0  0  0
   -7.9211    4.9441   18.4962 C   0  0  0  0  0  0
   -8.6170    5.7050   19.3810 C   0  0  0  0  0  0
  -11.8864    7.6237   21.8275 C   0  0  0  0  0  0
  -12.7630    6.7778   19.7378 C   0  0  0  0  0  0
  -12.4610    7.8394   20.5810 C   0  0  0  0  0  0
   -8.7731    1.6292   21.7005 H   0  0  0  0  0  0
   -8.2066   -3.4928   20.4380 H   0  0  0  0  0  0
   -7.5800   -1.8738   24.3793 H   0  0  0  0  0  0
   -7.8886    0.3782   23.4332 H   0  0  0  0  0  0
   -9.5384   -4.2313   23.7811 H   0  0  0  0  0  0
  -12.4394    3.1815   21.5483 H   0  0  0  0  0  0
  -11.4885    3.7321   22.8648 H   0  0  0  0  0  0
   -7.2794    2.9889   17.8969 H   0  0  0  0  0  0
   -9.6387    5.7304   21.1184 H   0  0  0  0  0  0
  -12.6889    4.6570   19.4980 H   0  0  0  0  0  0
  -11.1400    6.1571   23.1852 H   0  0  0  0  0  0
   -7.3975    5.5297   17.7810 H   0  0  0  0  0  0
   -8.5666    6.7796   19.3809 H   0  0  0  0  0  0
  -11.6618    8.4590   22.4742 H   0  0  0  0  0  0
  -13.2119    6.9563   18.7715 H   0  0  0  0  0  0
  -12.6880    8.8476   20.2635 H   0  0  0  0  0  0
  1  2  1  0  0  0
  1  3  1  0  0  0
  1 10  2  0  0  0
  2  8  1  0  0  0
  2 17  2  0  0  0
  3  7  1  0  0  0
  3 27  1  0  0  0
  4 13  1  0  0  0
  4  5  1  0  0  0
  4  9  2  0  0  0
  5 12  2  0  0  0
  5 15  1  0  0  0
  6  7  2  0  0  0
  6  9  1  0  0  0
  7 14  1  0  0  0
  8 11  1  0  0  0
  8 19  2  0  0  0
  9 28  1  0  0  0
 11 16  1  0  0  0
 13 14  2  0  0  0
 13 29  1  0  0  0
 14 30  1  0  0  0
 15 31  1  0  0  0
 16 18  1  0  0  0
 16 32  1  0  0  0
 16 33  1  0  0  0
 17 22  1  0  0  0
 17 34  1  0  0  0
 18 20  1  0  0  0
 18 21  2  0  0  0
 19 23  1  0  0  0
 19 35  1  0  0  0
 20 25  2  0  0  0
 20 36  1  0  0  0
 21 24  1  0  0  0
 21 37  1  0  0  0
 22 23  2  0  0  0
 22 38  1  0  0  0
 23 39  1  0  0  0
 24 26  2  0  0  0
 24 40  1  0  0  0
 25 26  1  0  0  0
 25 41  1  0  0  0
 26 42  1  0  0  0
M  END
> <s_m_entry_id>
5379

> <s_m_entry_name>
dock_pv.47

> <s_m_Source_Path>
/home/csk/Desktop/cluster/DUD-E-result/hxk4

> <s_m_Source_File>
dock_pv.maegz

> <i_m_Source_File_Index>
47

> <chembl_id>
CHEMBL195299

> <chembl_pref_name>
None

> <i_lp_mmshare_version>
53161

> <r_lp_tautomer_probability>
1

> <s_lp_Force_Field>
OPLS_2005

> <r_lp_Energy>
26.705253

> <b_lp_Chiralities_Consistent>
1

> <s_lp_Variant>
CHEMBL3820_lig94-1

> <s_i_glide_gridfile>
glide-grid_3f9m

> <i_i_glide_lignum>
110

> <i_i_glide_rotatable_bonds>
8

> <r_i_docking_score>
-8.06522921033929

> <r_i_glide_ligand_efficiency>
-0.310201123474588

> <r_i_glide_ligand_efficiency_sa>
-0.918969607710987

> <r_i_glide_ligand_efficiency_ln>
-1.89409261587263

> <r_i_glide_gscore>
-8.06522921033929

> <r_i_glide_lipo>
-4.03294709885587

> <r_i_glide_hbond>
-0.278457171050752

> <r_i_glide_metal>
0

> <r_i_glide_rewards>
-2.20895743114365

> <r_i_glide_evdw>
-28.58371925354

> <r_i_glide_ecoul>
-8.09161949157715

> <r_i_glide_erotb>
1.09806137712455

> <r_i_glide_esite>
0

> <r_i_glide_emodel>
-60.3875302361478

> <r_i_glide_energy>
-36.6753387451172

> <r_i_glide_einternal>
11.7383670806885

> <i_i_glide_confnum>
8

> <i_i_glide_posenum>
106

> <r_i_glide_eff_state_penalty>
0

> <s_user_duplicate_titles>
CHEMBL3820_lig94

> <i_f3d_flags>
0

> <s_m_subgroup_title>
dock_pv

> <s_m_subgroupid>
dock_pv

> <b_m_subgroup_collapsed>
0

$$$$
CHEMBL3820_lig257
                    3D
 Schrodinger Suite 2021-1.
 44 47  0  0  1  0            999 V2000
   -8.4531    0.0872   21.1121 C   0  0  0  0  0  0
   -7.6367   -0.2107   20.0261 C   0  0  0  0  0  0
   -7.4890    0.7051   18.9810 C   0  0  0  0  0  0
   -8.0891    1.9803   19.0414 C   0  0  0  0  0  0
   -8.9804    2.2759   20.1052 C   0  0  0  0  0  0
   -9.2397    1.2365   21.0007 C   0  0  0  0  0  0
   -9.4890    3.6201   20.1810 C   0  0  0  0  0  0
  -10.3538    4.0656   21.2034 N   0  0  0  0  0  0
   -8.4992   -0.6291   22.3173 O   0  0  0  0  0  0
   -9.0965    4.5588   19.2777 N   0  0  0  0  0  0
   -8.2890    4.1494   18.2774 C   0  0  0  0  0  0
   -7.7801    2.9054   18.1008 N   0  0  0  0  0  0
   -7.7916   -1.8019   22.5590 C   0  0  0  0  0  0
   -6.2272   -3.2164   23.7959 C   0  0  0  0  0  0
   -6.5253   -4.2951   22.9776 C   0  0  0  0  0  0
   -7.4886   -4.1528   21.9913 C   0  0  0  0  0  0
   -8.1343   -2.9345   21.8103 C   0  0  0  0  0  0
   -6.4400   -0.7740   24.8883 S   0  0  0  0  0  0
   -6.8562   -1.9774   23.6172 C   0  0  0  0  0  0
   -4.5700   -0.5750   24.7850 C   0  0  0  0  0  0
   -6.6890   -1.4280   26.1752 O   0  0  0  0  0  0
   -9.1425   -2.8686   20.9264 F   0  0  0  0  0  0
   -7.0890    0.5002   24.5810 O   0  0  0  0  0  0
  -11.0859    5.2678   21.2115 C   0  0  0  0  0  0
  -11.9455    5.4907   20.1812 N   0  0  0  0  0  0
  -12.5338    6.7094   20.0751 C   0  0  0  0  0  0
  -12.2881    7.7402   20.9801 C   0  0  0  0  0  0
  -11.4483    7.4946   22.0612 C   0  0  0  0  0  0
  -10.8412    6.2468   22.1810 C   0  0  0  0  0  0
   -7.0890   -1.1374   20.0096 H   0  0  0  0  0  0
   -6.8190    0.5047   18.1578 H   0  0  0  0  0  0
   -9.9761    1.3786   21.7792 H   0  0  0  0  0  0
  -10.4293    3.4696   22.0151 H   0  0  0  0  0  0
   -8.0145    4.8967   17.5476 H   0  0  0  0  0  0
   -5.5204   -3.3640   24.6001 H   0  0  0  0  0  0
   -6.0390   -5.2479   23.1306 H   0  0  0  0  0  0
   -7.7529   -4.9997   21.3814 H   0  0  0  0  0  0
   -4.2706    0.1993   25.4895 H   0  0  0  0  0  0
   -4.2794   -0.2954   23.7810 H   0  0  0  0  0  0
   -4.0959   -1.5156   25.0573 H   0  0  0  0  0  0
  -13.1786    6.8676   19.2220 H   0  0  0  0  0  0
  -12.6891    8.7292   20.8291 H   0  0  0  0  0  0
  -11.2323    8.2794   22.7715 H   0  0  0  0  0  0
  -10.1438    6.1049   22.9809 H   0  0  0  0  0  0
  1  6  1  0  0  0
  1  9  1  0  0  0
  1  2  2  0  0  0
  2  3  1  0  0  0
  2 30  1  0  0  0
  3  4  2  0  0  0
  3 31  1  0  0  0
  4 12  1  0  0  0
  4  5  1  0  0  0
  5  7  1  0  0  0
  5  6  2  0  0  0
  6 32  1  0  0  0
  7  8  1  0  0  0
  7 10  2  0  0  0
  8 24  1  0  0  0
  8 33  1  0  0  0
  9 13  1  0  0  0
 10 11  1  0  0  0
 11 12  2  0  0  0
 11 34  1  0  0  0
 13 19  2  0  0  0
 13 17  1  0  0  0
 14 19  1  0  0  0
 14 15  2  0  0  0
 14 35  1  0  0  0
 15 16  1  0  0  0
 15 36  1  0  0  0
 16 17  2  0  0  0
 16 37  1  0  0  0
 17 22  1  0  0  0
 18 19  1  0  0  0
 18 20  1  0  0  0
 18 21  2  0  0  0
 18 23  2  0  0  0
 20 38  1  0  0  0
 20 39  1  0  0  0
 20 40  1  0  0  0
 24 25  2  0  0  0
 24 29  1  0  0  0
 25 26  1  0  0  0
 26 27  2  0  0  0
 26 41  1  0  0  0
 27 28  1  0  0  0
 27 42  1  0  0  0
 28 29  2  0  0  0
 28 43  1  0  0  0
 29 44  1  0  0  0
M  END
> <s_m_entry_id>
5380

> <s_m_entry_name>
dock_pv.48

> <s_m_Source_Path>
/home/csk/Desktop/cluster/DUD-E-result/hxk4

> <s_m_Source_File>
dock_pv.maegz

> <i_m_Source_File_Index>
48

> <chembl_id>
CHEMBL575905

> <chembl_pref_name>
None

> <i_lp_mmshare_version>
53161

> <r_lp_tautomer_probability>
0.999999772200052

> <s_lp_Force_Field>
OPLS_2005

> <r_lp_Energy>
18.90526

> <b_lp_Chiralities_Consistent>
1

> <s_lp_Variant>
CHEMBL3820_lig257-1

> <s_i_glide_gridfile>
glide-grid_3f9m

> <i_i_glide_lignum>
316

> <i_i_glide_rotatable_bonds>
5

> <r_i_docking_score>
-8.05928342120044

> <r_i_glide_ligand_efficiency>
-0.277906324868981

> <r_i_glide_ligand_efficiency_sa>
-0.853816276901136

> <r_i_glide_ligand_efficiency_ln>
-1.8453715376605

> <r_i_glide_gscore>
-8.05928342120044

> <r_i_glide_lipo>
-4.77698695621216

> <r_i_glide_hbond>
-0.190652224235199

> <r_i_glide_metal>
0

> <r_i_glide_rewards>
-1.48001801190693

> <r_i_glide_evdw>
-32.2229423522949

> <r_i_glide_ecoul>
-3.1218957901001

> <r_i_glide_erotb>
0.467805257283612

> <r_i_glide_esite>
0

> <r_i_glide_emodel>
-49.7220999712684

> <r_i_glide_energy>
-35.344838142395

> <r_i_glide_einternal>
6.03786993026733

> <i_i_glide_confnum>
2

> <i_i_glide_posenum>
5

> <r_i_glide_eff_state_penalty>
0

> <s_user_duplicate_titles>
CHEMBL3820_lig257,573070

> <i_f3d_flags>
0

> <s_m_subgroup_title>
dock_pv

> <s_m_subgroupid>
dock_pv

> <b_m_subgroup_collapsed>
0

$$$$
CHEMBL3820_lig501
                    3D
 Schrodinger Suite 2021-1.
 33 35  0  0  1  0            999 V2000
   -7.8694   -2.3701   20.5810 C   0  0  0  0  0  0
   -7.5912   -2.5504   21.9236 C   0  0  0  0  0  0
   -7.5763   -1.4502   22.7830 C   0  0  0  0  0  0
   -7.8890   -0.1807   22.2747 C   0  0  0  0  0  0
   -8.1446    0.0237   20.9070 C   0  0  0  0  0  0
   -8.1223   -1.0950   20.0793 C   0  0  0  0  0  0
   -7.0890   -1.6161   24.4871 S   0  0  0  0  0  0
   -7.1740   -3.3635   24.7436 C   0  0  0  0  0  0
   -6.1251   -4.2374   24.5408 N   0  0  0  0  0  0
   -6.6398   -5.4817   24.7967 C   0  0  0  0  0  0
   -7.9658   -5.2707   25.1316 C   0  0  0  0  0  0
   -8.2764   -3.9871   25.1011 N   0  0  0  0  0  0
   -4.7706   -3.9220   24.1199 C   0  0  0  0  0  0
   -8.3480    1.3682   20.2983 C   0  0  0  0  0  0
   -9.1622    2.2428   20.9810 N   0  0  0  0  0  0
   -9.4890    3.5010   20.5755 C   0  0  0  0  0  0
   -8.7574    3.9350   19.3810 C   0  0  0  0  0  0
   -7.9894    3.0914   18.6464 C   0  0  0  0  0  0
   -7.7958    1.7261   19.1123 C   0  0  0  0  0  0
  -10.3236    4.1777   21.1681 O   0  0  0  0  0  0
   -7.8580   -3.2209   19.9154 H   0  0  0  0  0  0
   -7.3642   -3.5501   22.2569 H   0  0  0  0  0  0
   -7.8890    0.6621   22.9466 H   0  0  0  0  0  0
   -8.3090   -0.9827   19.0231 H   0  0  0  0  0  0
   -6.0406   -6.3769   24.7077 H   0  0  0  0  0  0
   -8.6890   -6.0366   25.3810 H   0  0  0  0  0  0
   -4.3286   -3.2126   24.8196 H   0  0  0  0  0  0
   -4.1652   -4.8287   24.0996 H   0  0  0  0  0  0
   -4.7933   -3.4950   23.1169 H   0  0  0  0  0  0
   -9.5609    1.9939   21.8830 H   0  0  0  0  0  0
   -8.8862    4.9599   19.0667 H   0  0  0  0  0  0
   -7.4890    3.4395   17.7570 H   0  0  0  0  0  0
   -7.1610    1.0523   18.5543 H   0  0  0  0  0  0
  1  2  2  0  0  0
  1  6  1  0  0  0
  1 21  1  0  0  0
  2  3  1  0  0  0
  2 22  1  0  0  0
  3  4  2  0  0  0
  3  7  1  0  0  0
  4  5  1  0  0  0
  4 23  1  0  0  0
  5  6  2  0  0  0
  5 14  1  0  0  0
  6 24  1  0  0  0
  7  8  1  0  0  0
  8  9  1  0  0  0
  8 12  2  0  0  0
  9 10  1  0  0  0
  9 13  1  0  0  0
 10 11  2  0  0  0
 10 25  1  0  0  0
 11 12  1  0  0  0
 11 26  1  0  0  0
 13 27  1  0  0  0
 13 28  1  0  0  0
 13 29  1  0  0  0
 14 15  1  0  0  0
 14 19  2  0  0  0
 15 16  1  0  0  0
 15 30  1  0  0  0
 16 17  1  0  0  0
 16 20  2  0  0  0
 17 18  2  0  0  0
 17 31  1  0  0  0
 18 19  1  0  0  0
 18 32  1  0  0  0
 19 33  1  0  0  0
M  END
> <s_m_entry_id>
5381

> <s_m_entry_name>
dock_pv.49

> <s_m_Source_Path>
/home/csk/Desktop/cluster/DUD-E-result/hxk4

> <s_m_Source_File>
dock_pv.maegz

> <i_m_Source_File_Index>
49

> <chembl_id>
CHEMBL2408108

> <chembl_pref_name>
None

> <i_lp_mmshare_version>
53161

> <r_lp_tautomer_probability>
0.999

> <s_lp_Force_Field>
OPLS_2005

> <r_lp_Energy>
17.399089

> <b_lp_Chiralities_Consistent>
1

> <s_lp_Variant>
CHEMBL3820_lig501-1

> <s_i_glide_gridfile>
glide-grid_3f9m

> <i_i_glide_lignum>
610

> <i_i_glide_rotatable_bonds>
3

> <r_i_docking_score>
-8.03191461241461

> <r_i_glide_ligand_efficiency>
-0.401595730620731

> <r_i_glide_ligand_efficiency_sa>
-1.09009852485767

> <r_i_glide_ligand_efficiency_ln>
-2.01012331721381

> <r_i_glide_gscore>
-8.03191461241461

> <r_i_glide_lipo>
-3.26564729442931

> <r_i_glide_hbond>
-0.32

> <r_i_glide_metal>
0

> <r_i_glide_rewards>
-2.69103003897851

> <r_i_glide_evdw>
-28.4898338317871

> <r_i_glide_ecoul>
-6.50350475311279

> <r_i_glide_erotb>
0.67666035723553

> <r_i_glide_esite>
-0.0318802316860473

> <r_i_glide_emodel>
-49.186671340667

> <r_i_glide_energy>
-34.9933385848999

> <r_i_glide_einternal>
2.15939784049988

> <i_i_glide_confnum>
9

> <i_i_glide_posenum>
63

> <r_i_glide_eff_state_penalty>
0

> <s_user_duplicate_titles>
CHEMBL3820_lig501

> <i_f3d_flags>
0

> <s_m_subgroup_title>
dock_pv

> <s_m_subgroupid>
dock_pv

> <b_m_subgroup_collapsed>
0

$$$$
CHEMBL3820_lig133
                    3D
 Schrodinger Suite 2021-1.
 36 38  0  0  1  0            999 V2000
   -7.1692   -2.1685   24.4718 C   0  0  0  0  0  0
   -7.5006   -3.5082   24.2696 C   0  0  0  0  0  0
   -8.0094   -3.9375   23.0466 C   0  0  0  0  0  0
   -8.1984   -3.0247   22.0124 C   0  0  0  0  0  0
   -7.8997   -1.6671   22.1952 C   0  0  0  0  0  0
   -7.3859   -1.2466   23.4352 C   0  0  0  0  0  0
   -8.0769   -0.7059   21.0471 C   0  0  0  0  0  0
   -8.4789    0.5401   21.3810 N   0  0  0  0  0  0
   -7.8898   -1.0950   19.8946 O   0  0  0  0  0  0
   -8.6207    1.6404   20.5420 C   0  0  0  0  0  0
   -9.2242    2.7299   20.9541 N   0  0  0  0  0  0
   -9.0929    3.7269   20.0884 C   0  0  0  0  0  0
   -8.2888    3.4646   18.9772 C   0  0  0  0  0  0
   -7.8883    1.7806   18.9616 S   0  0  0  0  0  0
   -9.8389    4.9999   20.4175 C   0  0  0  0  0  0
   -6.6887   -1.8288   25.7185 O   0  0  0  0  0  0
   -5.9191   -0.7096   25.9258 C   0  0  0  0  0  0
   -4.6077   -0.6446   25.4479 C   0  0  0  0  0  0
   -3.8045    0.4460   25.7780 C   0  0  0  0  0  0
   -4.3185    1.4648   26.5813 C   0  0  0  0  0  0
   -5.6347    1.4153   27.0321 C   0  0  0  0  0  0
   -6.4345    0.3237   26.7085 C   0  0  0  0  0  0
   -3.5331    2.5072   26.9320 F   0  0  0  0  0  0
   -7.3546   -4.2230   25.0662 H   0  0  0  0  0  0
   -8.2572   -4.9783   22.9016 H   0  0  0  0  0  0
   -8.5816   -3.3825   21.0666 H   0  0  0  0  0  0
   -7.1321   -0.2091   23.5972 H   0  0  0  0  0  0
   -8.7886    0.7036   22.3310 H   0  0  0  0  0  0
   -8.0276    4.1147   18.1541 H   0  0  0  0  0  0
   -9.5961    5.8044   19.7225 H   0  0  0  0  0  0
   -9.5992    5.3650   21.4158 H   0  0  0  0  0  0
  -10.9190    4.8583   20.3756 H   0  0  0  0  0  0
   -4.2077   -1.4512   24.8513 H   0  0  0  0  0  0
   -2.7835    0.4980   25.4281 H   0  0  0  0  0  0
   -6.0287    2.2149   27.6417 H   0  0  0  0  0  0
   -7.4457    0.2709   27.0827 H   0  0  0  0  0  0
  1  6  1  0  0  0
  1  2  2  0  0  0
  1 16  1  0  0  0
  2  3  1  0  0  0
  2 24  1  0  0  0
  3  4  2  0  0  0
  3 25  1  0  0  0
  4  5  1  0  0  0
  4 26  1  0  0  0
  5  6  2  0  0  0
  5  7  1  0  0  0
  6 27  1  0  0  0
  7  8  1  0  0  0
  7  9  2  0  0  0
  8 10  1  0  0  0
  8 28  1  0  0  0
 10 14  1  0  0  0
 10 11  2  0  0  0
 11 12  1  0  0  0
 12 13  2  0  0  0
 12 15  1  0  0  0
 13 14  1  0  0  0
 13 29  1  0  0  0
 15 30  1  0  0  0
 15 31  1  0  0  0
 15 32  1  0  0  0
 16 17  1  0  0  0
 17 18  2  0  0  0
 17 22  1  0  0  0
 18 19  1  0  0  0
 18 33  1  0  0  0
 19 20  2  0  0  0
 19 34  1  0  0  0
 20 21  1  0  0  0
 20 23  1  0  0  0
 21 22  2  0  0  0
 21 35  1  0  0  0
 22 36  1  0  0  0
M  END
> <s_m_entry_id>
5382

> <s_m_entry_name>
dock_pv.50

> <s_m_Source_Path>
/home/csk/Desktop/cluster/DUD-E-result/hxk4

> <s_m_Source_File>
dock_pv.maegz

> <i_m_Source_File_Index>
50

> <chembl_id>
CHEMBL474011

> <chembl_pref_name>
None

> <i_lp_mmshare_version>
53161

> <r_lp_tautomer_probability>
0.999000488399163

> <s_lp_Force_Field>
OPLS_2005

> <r_lp_Energy>
16.815304

> <b_lp_Chiralities_Consistent>
1

> <s_lp_Variant>
CHEMBL3820_lig133-1

> <s_i_glide_gridfile>
glide-grid_3f9m

> <i_i_glide_lignum>
149

> <i_i_glide_rotatable_bonds>
5

> <r_i_docking_score>
-7.78253071339605

> <r_i_glide_ligand_efficiency>
-0.338370900582437

> <r_i_glide_ligand_efficiency_sa>
-0.962281830103286

> <r_i_glide_ligand_efficiency_ln>
-1.88188649458611

> <r_i_glide_gscore>
-7.78253071339605

> <r_i_glide_lipo>
-3.08061573036937

> <r_i_glide_hbond>
-0.299678761110936

> <r_i_glide_metal>
0

> <r_i_glide_rewards>
-2.85874568682341

> <r_i_glide_evdw>
-35.5590744018555

> <r_i_glide_ecoul>
-4.24297380447388

> <r_i_glide_erotb>
0.87090925567152

> <r_i_glide_esite>
0

> <r_i_glide_emodel>
-54.1437875626782

> <r_i_glide_energy>
-39.8020482063293

> <r_i_glide_einternal>
3.2999587059021

> <i_i_glide_confnum>
5

> <i_i_glide_posenum>
323

> <r_i_glide_eff_state_penalty>
0

> <s_user_duplicate_titles>
CHEMBL3820_lig133

> <i_f3d_flags>
0

> <s_m_subgroup_title>
dock_pv

> <s_m_subgroupid>
dock_pv

> <b_m_subgroup_collapsed>
0

$$$$
CHEMBL3820_lig251
                    3D
 Schrodinger Suite 2021-1.
 38 41  0  0  1  0            999 V2000
   -8.6891    0.2772   20.8656 C   0  0  0  0  0  0
   -7.8519    0.0361   19.7828 C   0  0  0  0  0  0
   -7.6200    1.0322   18.8402 C   0  0  0  0  0  0
   -8.1796    2.3140   19.0142 C   0  0  0  0  0  0
   -9.0317    2.5802   20.1255 C   0  0  0  0  0  0
   -9.3379    1.5037   20.9810 C   0  0  0  0  0  0
   -9.4896    3.9328   20.2509 C   0  0  0  0  0  0
  -10.3180    4.3286   21.3177 N   0  0  0  0  0  0
   -9.0141   -0.7027   21.7688 O   0  0  0  0  0  0
   -9.1319    4.8981   19.3623 N   0  0  0  0  0  0
   -8.3547    4.5154   18.3328 C   0  0  0  0  0  0
   -7.8890    3.2691   18.1008 N   0  0  0  0  0  0
  -10.9905    5.5260   21.4056 C   0  0  0  0  0  0
  -11.6574    6.2388   20.3963 C   0  0  0  0  0  0
  -12.1416    7.3861   20.9903 C   0  0  0  0  0  0
  -11.7632    7.2831   22.3005 N   0  0  0  0  0  0
  -11.0890    6.1538   22.5564 N   0  0  0  0  0  0
  -12.0498    8.1970   23.3885 C   0  0  0  0  0  0
   -8.0130   -1.3220   22.4777 C   0  0  0  0  0  0
   -6.6529   -3.2322   23.0053 C   0  0  0  0  0  0
   -6.1090   -2.5113   24.0711 C   0  0  0  0  0  0
   -6.5465   -1.2021   24.2835 C   0  0  0  0  0  0
   -7.4886   -0.6078   23.5079 N   0  0  0  0  0  0
   -7.6144   -2.6310   22.1913 C   0  0  0  0  0  0
   -8.2892   -3.4945   20.8640 Cl  0  0  0  0  0  0
   -7.4086   -0.9391   19.6565 H   0  0  0  0  0  0
   -6.9873    0.8487   17.9825 H   0  0  0  0  0  0
  -10.1220    1.6104   21.7125 H   0  0  0  0  0  0
  -10.4403    3.6208   22.0265 H   0  0  0  0  0  0
   -8.0856    5.2786   17.6169 H   0  0  0  0  0  0
  -11.7429    5.9553   19.3587 H   0  0  0  0  0  0
  -12.6896    8.2391   20.6172 H   0  0  0  0  0  0
  -12.4201    9.1423   22.9907 H   0  0  0  0  0  0
  -11.1402    8.3828   23.9603 H   0  0  0  0  0  0
  -12.8086    7.7569   24.0366 H   0  0  0  0  0  0
   -6.3272   -4.2444   22.8114 H   0  0  0  0  0  0
   -5.3607   -2.9551   24.7102 H   0  0  0  0  0  0
   -6.1464   -0.6089   25.0940 H   0  0  0  0  0  0
  1  6  1  0  0  0
  1  2  2  0  0  0
  1  9  1  0  0  0
  2  3  1  0  0  0
  2 26  1  0  0  0
  3  4  2  0  0  0
  3 27  1  0  0  0
  4 12  1  0  0  0
  4  5  1  0  0  0
  5  7  1  0  0  0
  5  6  2  0  0  0
  6 28  1  0  0  0
  7  8  1  0  0  0
  7 10  2  0  0  0
  8 13  1  0  0  0
  8 29  1  0  0  0
  9 19  1  0  0  0
 10 11  1  0  0  0
 11 12  2  0  0  0
 11 30  1  0  0  0
 13 14  1  0  0  0
 13 17  2  0  0  0
 14 15  2  0  0  0
 14 31  1  0  0  0
 15 16  1  0  0  0
 15 32  1  0  0  0
 16 17  1  0  0  0
 16 18  1  0  0  0
 18 33  1  0  0  0
 18 34  1  0  0  0
 18 35  1  0  0  0
 19 24  2  0  0  0
 19 23  1  0  0  0
 20 24  1  0  0  0
 20 21  2  0  0  0
 20 36  1  0  0  0
 21 22  1  0  0  0
 21 37  1  0  0  0
 22 23  2  0  0  0
 22 38  1  0  0  0
 24 25  1  0  0  0
M  END
> <s_m_entry_id>
5383

> <s_m_entry_name>
dock_pv.51

> <s_m_Source_Path>
/home/csk/Desktop/cluster/DUD-E-result/hxk4

> <s_m_Source_File>
dock_pv.maegz

> <i_m_Source_File_Index>
51

> <chembl_id>
CHEMBL573064

> <chembl_pref_name>
None

> <i_lp_mmshare_version>
53161

> <r_lp_tautomer_probability>
1

> <s_lp_Force_Field>
OPLS_2005

> <r_lp_Energy>
14.030551

> <b_lp_Chiralities_Consistent>
1

> <s_lp_Variant>
CHEMBL3820_lig251-1

> <s_i_glide_gridfile>
glide-grid_3f9m

> <i_i_glide_lignum>
309

> <i_i_glide_rotatable_bonds>
4

> <r_i_docking_score>
-7.62018007206156

> <r_i_glide_ligand_efficiency>
-0.304807202882462

> <r_i_glide_ligand_efficiency_sa>
-0.891261667007081

> <r_i_glide_ligand_efficiency_ln>
-1.80621103544796

> <r_i_glide_gscore>
-7.62018007206156

> <r_i_glide_lipo>
-4.08881702536225

> <r_i_glide_hbond>
-0.08094253624388

> <r_i_glide_metal>
0

> <r_i_glide_rewards>
-1.72970835467686

> <r_i_glide_evdw>
-36.385555267334

> <r_i_glide_ecoul>
-3.43314051628113

> <r_i_glide_erotb>
0.613536685030292

> <r_i_glide_esite>
0

> <r_i_glide_emodel>
-49.4869522010406

> <r_i_glide_energy>
-39.8186957836151

> <r_i_glide_einternal>
7.35880661010742

> <i_i_glide_confnum>
1

> <i_i_glide_posenum>
6

> <r_i_glide_eff_state_penalty>
0

> <s_user_duplicate_titles>
CHEMBL3820_lig251,573090

> <i_f3d_flags>
0

> <s_m_subgroup_title>
dock_pv

> <s_m_subgroupid>
dock_pv

> <b_m_subgroup_collapsed>
0

$$$$
CHEMBL3820_lig239
                    3D
 Schrodinger Suite 2021-1.
 38 41  0  0  1  0            999 V2000
   -8.6892    0.1916   20.8537 C   0  0  0  0  0  0
   -7.8407   -0.0413   19.7809 C   0  0  0  0  0  0
   -7.6024    0.9608   18.8456 C   0  0  0  0  0  0
   -8.1706    2.2417   19.0141 C   0  0  0  0  0  0
   -9.0216    2.5057   20.1269 C   0  0  0  0  0  0
   -9.3242    1.4248   20.9810 C   0  0  0  0  0  0
   -9.4890    3.8590   20.2499 C   0  0  0  0  0  0
  -10.3377    4.2575   21.3031 N   0  0  0  0  0  0
   -9.0642   -0.8093   21.7142 O   0  0  0  0  0  0
   -9.0991    4.8309   19.3816 N   0  0  0  0  0  0
   -8.3279    4.4521   18.3490 C   0  0  0  0  0  0
   -7.8879    3.1993   18.1004 N   0  0  0  0  0  0
  -11.0379    5.4493   21.3808 C   0  0  0  0  0  0
  -11.9196    6.1044   20.0252 S   0  0  0  0  0  0
  -12.2888    7.4901   20.9920 C   0  0  0  0  0  0
  -11.7676    7.3149   22.2698 C   0  0  0  0  0  0
  -11.0889    6.1958   22.4554 N   0  0  0  0  0  0
  -11.8745    8.2493   23.4520 C   0  0  0  0  0  0
   -8.1043   -1.5338   22.3715 C   0  0  0  0  0  0
   -6.9657   -3.6296   22.7265 C   0  0  0  0  0  0
   -6.2552   -3.0503   23.7767 C   0  0  0  0  0  0
   -6.4665   -1.7182   24.1317 C   0  0  0  0  0  0
   -7.3908   -0.9558   23.4224 C   0  0  0  0  0  0
   -7.8993   -2.8701   22.0260 C   0  0  0  0  0  0
   -5.3518   -3.7862   24.4601 F   0  0  0  0  0  0
   -7.4066   -1.0201   19.6480 H   0  0  0  0  0  0
   -6.9651    0.7792   17.9909 H   0  0  0  0  0  0
  -10.1057    1.5258   21.7155 H   0  0  0  0  0  0
  -10.4862    3.5343   21.9921 H   0  0  0  0  0  0
   -8.0499    5.2205   17.6409 H   0  0  0  0  0  0
  -12.8425    8.3207   20.5811 H   0  0  0  0  0  0
  -12.3235    9.2033   23.1715 H   0  0  0  0  0  0
  -10.9000    8.4783   23.8836 H   0  0  0  0  0  0
  -12.4932    7.8310   24.2458 H   0  0  0  0  0  0
   -6.7986   -4.6656   22.4687 H   0  0  0  0  0  0
   -5.9111   -1.2812   24.9474 H   0  0  0  0  0  0
   -7.5695    0.0761   23.6943 H   0  0  0  0  0  0
   -8.4699   -3.3142   21.2247 H   0  0  0  0  0  0
  1  6  1  0  0  0
  1  2  2  0  0  0
  1  9  1  0  0  0
  2  3  1  0  0  0
  2 26  1  0  0  0
  3  4  2  0  0  0
  3 27  1  0  0  0
  4 12  1  0  0  0
  4  5  1  0  0  0
  5  7  1  0  0  0
  5  6  2  0  0  0
  6 28  1  0  0  0
  7  8  1  0  0  0
  7 10  2  0  0  0
  8 13  1  0  0  0
  8 29  1  0  0  0
  9 19  1  0  0  0
 10 11  1  0  0  0
 11 12  2  0  0  0
 11 30  1  0  0  0
 13 14  1  0  0  0
 13 17  2  0  0  0
 14 15  1  0  0  0
 15 16  2  0  0  0
 15 31  1  0  0  0
 16 17  1  0  0  0
 16 18  1  0  0  0
 18 32  1  0  0  0
 18 33  1  0  0  0
 18 34  1  0  0  0
 19 24  2  0  0  0
 19 23  1  0  0  0
 20 24  1  0  0  0
 20 21  2  0  0  0
 20 35  1  0  0  0
 21 22  1  0  0  0
 21 25  1  0  0  0
 22 23  2  0  0  0
 22 36  1  0  0  0
 23 37  1  0  0  0
 24 38  1  0  0  0
M  END
> <s_m_entry_id>
5384

> <s_m_entry_name>
dock_pv.52

> <s_m_Source_Path>
/home/csk/Desktop/cluster/DUD-E-result/hxk4

> <s_m_Source_File>
dock_pv.maegz

> <i_m_Source_File_Index>
52

> <chembl_id>
CHEMBL573751

> <chembl_pref_name>
None

> <i_lp_mmshare_version>
53161

> <r_lp_tautomer_probability>
1

> <s_lp_Force_Field>
OPLS_2005

> <r_lp_Energy>
11.680787

> <b_lp_Chiralities_Consistent>
1

> <s_lp_Variant>
CHEMBL3820_lig239-1

> <s_i_glide_gridfile>
glide-grid_3f9m

> <i_i_glide_lignum>
297

> <i_i_glide_rotatable_bonds>
4

> <r_i_docking_score>
-7.59957619155091

> <r_i_glide_ligand_efficiency>
-0.303983047662036

> <r_i_glide_ligand_efficiency_sa>
-0.8888518225261

> <r_i_glide_ligand_efficiency_ln>
-1.80132729831846

> <r_i_glide_gscore>
-7.59957619155091

> <r_i_glide_lipo>
-4.47976405740027

> <r_i_glide_hbond>
-0.0939693289423593

> <r_i_glide_metal>
0

> <r_i_glide_rewards>
-1.35312402054375

> <r_i_glide_evdw>
-37.7594947814941

> <r_i_glide_ecoul>
-2.66328239440918

> <r_i_glide_erotb>
0.614748313571563

> <r_i_glide_esite>
0

> <r_i_glide_emodel>
-49.2230470153844

> <r_i_glide_energy>
-40.4227771759033

> <r_i_glide_einternal>
9.06955814361572

> <i_i_glide_confnum>
2

> <i_i_glide_posenum>
14

> <r_i_glide_eff_state_penalty>
0

> <s_user_duplicate_titles>
CHEMBL3820_lig239,573088

> <i_f3d_flags>
0

> <s_m_subgroup_title>
dock_pv

> <s_m_subgroupid>
dock_pv

> <b_m_subgroup_collapsed>
0

$$$$
CHEMBL3820_lig536
                    3D
 Schrodinger Suite 2021-1.
 35 37  0  0  1  0            999 V2000
   -8.6894    2.1920   19.9607 C   0  0  0  0  0  0
   -9.1623    3.4853   20.2511 C   0  0  0  0  0  0
   -8.9416    4.5137   19.3396 C   0  0  0  0  0  0
   -8.2891    4.2213   18.1515 C   0  0  0  0  0  0
   -7.8888    2.9050   17.9011 C   0  0  0  0  0  0
   -8.0738    1.8963   18.7866 N   0  0  0  0  0  0
   -8.7864    1.2405   20.9812 N   0  0  0  0  0  0
   -9.7017    3.7909   21.4744 O   0  0  0  0  0  0
  -11.1142    3.9172   21.5151 C   0  0  0  0  0  0
  -11.0885    6.3801   22.1553 C   0  0  0  0  0  0
  -11.5140    5.3632   21.2933 C   0  0  0  0  0  0
  -12.3425    5.7083   20.2262 C   0  0  0  0  0  0
  -12.7451    7.0304   20.0668 C   0  0  0  0  0  0
  -12.2885    7.9810   20.9810 C   0  0  0  0  0  0
  -11.4654    7.6752   22.0154 N   0  0  0  0  0  0
   -7.8890   -1.0684   19.8230 S   0  0  0  0  0  0
   -8.4189   -0.0749   21.1222 C   0  0  0  0  0  0
   -8.4791   -0.6946   22.2748 N   0  0  0  0  0  0
   -8.0961   -1.9550   22.2081 C   0  0  0  0  0  0
   -7.7276   -2.3876   20.9418 C   0  0  0  0  0  0
   -8.1095   -2.7379   23.4987 C   0  0  0  0  0  0
   -9.2475    5.5261   19.5624 H   0  0  0  0  0  0
   -8.1107    5.0043   17.4303 H   0  0  0  0  0  0
   -7.3905    2.6471   16.9775 H   0  0  0  0  0  0
   -9.1475    1.6836   21.8257 H   0  0  0  0  0  0
  -11.6139    3.2445   20.8165 H   0  0  0  0  0  0
  -11.4560    3.6189   22.5063 H   0  0  0  0  0  0
  -10.4283    6.1708   22.9798 H   0  0  0  0  0  0
  -12.6886    4.9558   19.5379 H   0  0  0  0  0  0
  -13.3985    7.3048   19.2526 H   0  0  0  0  0  0
  -12.5701    9.0200   20.8803 H   0  0  0  0  0  0
   -7.3815   -3.3603   20.6254 H   0  0  0  0  0  0
   -7.8631   -3.7878   23.3387 H   0  0  0  0  0  0
   -9.0887   -2.7147   23.9789 H   0  0  0  0  0  0
   -7.3884   -2.3459   24.2157 H   0  0  0  0  0  0
  1  2  1  0  0  0
  1  6  2  0  0  0
  1  7  1  0  0  0
  2  3  2  0  0  0
  2  8  1  0  0  0
  3  4  1  0  0  0
  3 22  1  0  0  0
  4  5  2  0  0  0
  4 23  1  0  0  0
  5  6  1  0  0  0
  5 24  1  0  0  0
  7 17  1  0  0  0
  7 25  1  0  0  0
  8  9  1  0  0  0
  9 11  1  0  0  0
  9 26  1  0  0  0
  9 27  1  0  0  0
 10 11  1  0  0  0
 10 15  2  0  0  0
 10 28  1  0  0  0
 11 12  2  0  0  0
 12 13  1  0  0  0
 12 29  1  0  0  0
 13 14  2  0  0  0
 13 30  1  0  0  0
 14 15  1  0  0  0
 14 31  1  0  0  0
 16 17  1  0  0  0
 16 20  1  0  0  0
 17 18  2  0  0  0
 18 19  1  0  0  0
 19 20  2  0  0  0
 19 21  1  0  0  0
 20 32  1  0  0  0
 21 33  1  0  0  0
 21 34  1  0  0  0
 21 35  1  0  0  0
M  END
> <s_m_entry_id>
5385

> <s_m_entry_name>
dock_pv.53

> <s_m_Source_Path>
/home/csk/Desktop/cluster/DUD-E-result/hxk4

> <s_m_Source_File>
dock_pv.maegz

> <i_m_Source_File_Index>
53

> <chembl_id>
CHEMBL2430865

> <chembl_pref_name>
None

> <i_lp_mmshare_version>
53161

> <r_lp_tautomer_probability>
0.999999404453161

> <s_lp_Force_Field>
OPLS_2005

> <r_lp_Energy>
10.336532

> <b_lp_Chiralities_Consistent>
1

> <s_lp_Variant>
CHEMBL3820_lig536-1

> <s_i_glide_gridfile>
glide-grid_3f9m

> <i_i_glide_lignum>
670

> <i_i_glide_rotatable_bonds>
5

> <r_i_docking_score>
-7.49108627390356

> <r_i_glide_ligand_efficiency>
-0.356718393995408

> <r_i_glide_ligand_efficiency_sa>
-0.984159000355011

> <r_i_glide_ligand_efficiency_ln>
-1.85215594405755

> <r_i_glide_gscore>
-7.49108627390356

> <r_i_glide_lipo>
-4.15865494229911

> <r_i_glide_hbond>
-0.360269407145328

> <r_i_glide_metal>
0

> <r_i_glide_rewards>
-1.7581251969697

> <r_i_glide_evdw>
-33.0068206787109

> <r_i_glide_ecoul>
-3.96228456497192

> <r_i_glide_erotb>
1.03064699119191

> <r_i_glide_esite>
0

> <r_i_glide_emodel>
-49.0283781738503

> <r_i_glide_energy>
-36.9691052436829

> <r_i_glide_einternal>
7.18551445007324

> <i_i_glide_confnum>
35

> <i_i_glide_posenum>
345

> <r_i_glide_eff_state_penalty>
0

> <s_user_duplicate_titles>
CHEMBL3820_lig536

> <i_f3d_flags>
0

> <s_m_subgroup_title>
dock_pv

> <s_m_subgroupid>
dock_pv

> <b_m_subgroup_collapsed>
0

$$$$
CHEMBL3820_lig243
                    3D
 Schrodinger Suite 2021-1.
 45 48  0  0  1  0            999 V2000
   -8.2236    0.8693   20.9810 C   0  0  0  0  0  0
   -7.4889    0.5929   19.8177 C   0  0  0  0  0  0
   -7.5474    1.4305   18.7009 C   0  0  0  0  0  0
   -8.2343    2.6578   18.7939 C   0  0  0  0  0  0
   -8.9595    2.9552   19.9735 C   0  0  0  0  0  0
   -9.0297    1.9966   20.9810 C   0  0  0  0  0  0
   -9.4698    4.2731   20.0987 C   0  0  0  0  0  0
  -10.0568    4.6742   21.3087 N   0  0  0  0  0  0
   -8.1867    0.1049   22.1453 O   0  0  0  0  0  0
   -9.3277    5.1999   19.1127 N   0  0  0  0  0  0
   -8.6890    4.7880   17.9992 C   0  0  0  0  0  0
   -8.1653    3.5557   17.7814 N   0  0  0  0  0  0
  -11.0045    5.6380   21.3303 C   0  0  0  0  0  0
  -10.9802    6.8896   21.9515 C   0  0  0  0  0  0
  -12.1136    7.5295   21.4926 C   0  0  0  0  0  0
  -12.7073    6.6150   20.6615 N   0  0  0  0  0  0
  -12.0728    5.4621   20.6011 N   0  0  0  0  0  0
  -13.8892    6.7371   19.8727 C   0  0  0  0  0  0
   -7.8660   -1.2342   22.1419 C   0  0  0  0  0  0
   -6.7379   -3.1880   23.0437 C   0  0  0  0  0  0
   -7.1459   -3.9346   21.9439 C   0  0  0  0  0  0
   -7.9601   -3.3498   20.9809 C   0  0  0  0  0  0
   -8.3688   -2.0333   21.1186 C   0  0  0  0  0  0
   -6.5003   -0.9812   24.6138 S   0  0  0  0  0  0
   -7.0890   -1.8375   23.1530 C   0  0  0  0  0  0
   -4.6530   -0.8160   24.3207 C   0  0  0  0  0  0
   -7.0891    0.3576   24.6511 O   0  0  0  0  0  0
   -6.6887   -1.8958   25.7445 O   0  0  0  0  0  0
   -9.2440   -1.4950   20.2428 F   0  0  0  0  0  0
   -6.8774   -0.2925   19.7763 H   0  0  0  0  0  0
   -6.9918    1.1999   17.8016 H   0  0  0  0  0  0
   -9.6855    2.2403   21.7807 H   0  0  0  0  0  0
  -10.0678    3.9477   22.0071 H   0  0  0  0  0  0
   -8.5914    5.5053   17.1977 H   0  0  0  0  0  0
  -10.2010    7.2912   22.5814 H   0  0  0  0  0  0
  -12.5204    8.5190   21.6433 H   0  0  0  0  0  0
  -14.2890    7.7051   20.0769 H   0  0  0  0  0  0
  -14.6138    5.9853   20.1812 H   0  0  0  0  0  0
  -13.6500    6.6435   18.8127 H   0  0  0  0  0  0
   -6.1342   -3.6606   23.8062 H   0  0  0  0  0  0
   -6.8461   -4.9679   21.8479 H   0  0  0  0  0  0
   -8.2887   -3.8954   20.1150 H   0  0  0  0  0  0
   -4.2206   -0.2532   25.1463 H   0  0  0  0  0  0
   -4.2128   -1.8105   24.2745 H   0  0  0  0  0  0
   -4.4935   -0.2951   23.3829 H   0  0  0  0  0  0
  1  2  2  0  0  0
  1  6  1  0  0  0
  1  9  1  0  0  0
  2  3  1  0  0  0
  2 30  1  0  0  0
  3  4  2  0  0  0
  3 31  1  0  0  0
  4  5  1  0  0  0
  4 12  1  0  0  0
  5  6  2  0  0  0
  5  7  1  0  0  0
  6 32  1  0  0  0
  7  8  1  0  0  0
  7 10  2  0  0  0
  8 13  1  0  0  0
  8 33  1  0  0  0
  9 19  1  0  0  0
 10 11  1  0  0  0
 11 12  2  0  0  0
 11 34  1  0  0  0
 13 14  1  0  0  0
 13 17  2  0  0  0
 14 15  2  0  0  0
 14 35  1  0  0  0
 15 16  1  0  0  0
 15 36  1  0  0  0
 16 17  1  0  0  0
 16 18  1  0  0  0
 18 37  1  0  0  0
 18 38  1  0  0  0
 18 39  1  0  0  0
 19 25  2  0  0  0
 19 23  1  0  0  0
 20 25  1  0  0  0
 20 21  2  0  0  0
 20 40  1  0  0  0
 21 22  1  0  0  0
 21 41  1  0  0  0
 22 23  2  0  0  0
 22 42  1  0  0  0
 23 29  1  0  0  0
 24 25  1  0  0  0
 24 26  1  0  0  0
 24 27  2  0  0  0
 24 28  2  0  0  0
 26 43  1  0  0  0
 26 44  1  0  0  0
 26 45  1  0  0  0
M  END
> <s_m_entry_id>
5386

> <s_m_entry_name>
dock_pv.54

> <s_m_Source_Path>
/home/csk/Desktop/cluster/DUD-E-result/hxk4

> <s_m_Source_File>
dock_pv.maegz

> <i_m_Source_File_Index>
54

> <chembl_id>
CHEMBL575298

> <chembl_pref_name>
None

> <i_lp_mmshare_version>
53161

> <r_lp_tautomer_probability>
1

> <s_lp_Force_Field>
OPLS_2005

> <r_lp_Energy>
14.556161

> <b_lp_Chiralities_Consistent>
1

> <s_lp_Variant>
CHEMBL3820_lig243-1

> <s_i_glide_gridfile>
glide-grid_3f9m

> <i_i_glide_lignum>
301

> <i_i_glide_rotatable_bonds>
5

> <r_i_docking_score>
-7.42972046242212

> <r_i_glide_ligand_efficiency>
-0.256197257324901

> <r_i_glide_ligand_efficiency_sa>
-0.787119143490371

> <r_i_glide_ligand_efficiency_ln>
-1.70121758443946

> <r_i_glide_gscore>
-7.42972046242212

> <r_i_glide_lipo>
-4.43928020944894

> <r_i_glide_hbond>
0

> <r_i_glide_metal>
0

> <r_i_glide_rewards>
-2.02617601734622

> <r_i_glide_evdw>
-24.1308212280273

> <r_i_glide_ecoul>
-1.46274828910828

> <r_i_glide_erotb>
0.461689069140652

> <r_i_glide_esite>
0

> <r_i_glide_emodel>
-33.5391191834643

> <r_i_glide_energy>
-25.5935695171356

> <r_i_glide_einternal>
6.83870458602905

> <i_i_glide_confnum>
4

> <i_i_glide_posenum>
2

> <r_i_glide_eff_state_penalty>
0

> <s_user_duplicate_titles>
CHEMBL3820_lig243

> <i_f3d_flags>
0

> <s_m_subgroup_title>
dock_pv

> <s_m_subgroupid>
dock_pv

> <b_m_subgroup_collapsed>
0

$$$$
CHEMBL3820_lig252
                    3D
 Schrodinger Suite 2021-1.
 38 41  0  0  1  0            999 V2000
   -8.6890    0.3096   20.8665 C   0  0  0  0  0  0
   -7.8531    0.0730   19.7820 C   0  0  0  0  0  0
   -7.6317    1.0685   18.8382 C   0  0  0  0  0  0
   -8.2028    2.3436   19.0142 C   0  0  0  0  0  0
   -9.0717    2.5999   20.1200 C   0  0  0  0  0  0
   -9.3603    1.5233   20.9810 C   0  0  0  0  0  0
   -9.5521    3.9443   20.2430 C   0  0  0  0  0  0
  -10.3846    4.3339   21.3106 N   0  0  0  0  0  0
   -8.9707   -0.6713   21.7782 O   0  0  0  0  0  0
   -9.1918    4.9105   19.3587 N   0  0  0  0  0  0
   -8.3821    4.5434   18.3454 C   0  0  0  0  0  0
   -7.8890    3.3051   18.1194 N   0  0  0  0  0  0
  -11.0376    5.5419   21.4129 C   0  0  0  0  0  0
  -11.7190    6.2564   20.4153 C   0  0  0  0  0  0
  -12.1548    7.4232   21.0073 C   0  0  0  0  0  0
  -11.7363    7.3298   22.3071 N   0  0  0  0  0  0
  -11.0891    6.1839   22.5592 N   0  0  0  0  0  0
  -11.9598    8.2698   23.3895 C   0  0  0  0  0  0
   -7.9573   -1.1362   22.5795 C   0  0  0  0  0  0
   -6.5290   -2.9201   23.3163 C   0  0  0  0  0  0
   -6.0486   -2.0765   24.3215 C   0  0  0  0  0  0
   -6.5451   -0.7726   24.3925 C   0  0  0  0  0  0
   -7.4890   -0.2955   23.5410 N   0  0  0  0  0  0
   -7.4867   -2.4367   22.4227 C   0  0  0  0  0  0
   -8.1090   -3.4949   20.9806 Br  0  0  0  0  0  0
   -7.3920   -0.8957   19.6629 H   0  0  0  0  0  0
   -6.9918    0.8946   17.9841 H   0  0  0  0  0  0
  -10.1420    1.6204   21.7172 H   0  0  0  0  0  0
  -10.5033    3.6248   22.0175 H   0  0  0  0  0  0
   -8.1038    5.3139   17.6419 H   0  0  0  0  0  0
  -11.8409    5.9639   19.3836 H   0  0  0  0  0  0
  -12.6879    8.2876   20.6393 H   0  0  0  0  0  0
  -12.3168    9.2204   22.9937 H   0  0  0  0  0  0
  -11.0262    8.4373   23.9257 H   0  0  0  0  0  0
  -12.7065    7.8596   24.0701 H   0  0  0  0  0  0
   -6.1480   -3.9264   23.2175 H   0  0  0  0  0  0
   -5.2964   -2.4207   25.0161 H   0  0  0  0  0  0
   -6.1898   -0.0855   25.1480 H   0  0  0  0  0  0
  1  6  1  0  0  0
  1  2  2  0  0  0
  1  9  1  0  0  0
  2  3  1  0  0  0
  2 26  1  0  0  0
  3  4  2  0  0  0
  3 27  1  0  0  0
  4 12  1  0  0  0
  4  5  1  0  0  0
  5  7  1  0  0  0
  5  6  2  0  0  0
  6 28  1  0  0  0
  7  8  1  0  0  0
  7 10  2  0  0  0
  8 13  1  0  0  0
  8 29  1  0  0  0
  9 19  1  0  0  0
 10 11  1  0  0  0
 11 12  2  0  0  0
 11 30  1  0  0  0
 13 14  1  0  0  0
 13 17  2  0  0  0
 14 15  2  0  0  0
 14 31  1  0  0  0
 15 16  1  0  0  0
 15 32  1  0  0  0
 16 17  1  0  0  0
 16 18  1  0  0  0
 18 33  1  0  0  0
 18 34  1  0  0  0
 18 35  1  0  0  0
 19 24  2  0  0  0
 19 23  1  0  0  0
 20 24  1  0  0  0
 20 21  2  0  0  0
 20 36  1  0  0  0
 21 22  1  0  0  0
 21 37  1  0  0  0
 22 23  2  0  0  0
 22 38  1  0  0  0
 24 25  1  0  0  0
M  END
> <s_m_entry_id>
5387

> <s_m_entry_name>
dock_pv.55

> <s_m_Source_Path>
/home/csk/Desktop/cluster/DUD-E-result/hxk4

> <s_m_Source_File>
dock_pv.maegz

> <i_m_Source_File_Index>
55

> <chembl_id>
CHEMBL584378

> <chembl_pref_name>
None

> <i_lp_mmshare_version>
53161

> <r_lp_tautomer_probability>
1

> <s_lp_Force_Field>
OPLS_2005

> <r_lp_Energy>
13.700535

> <b_lp_Chiralities_Consistent>
1

> <s_lp_Variant>
CHEMBL3820_lig252-1

> <s_i_glide_gridfile>
glide-grid_3f9m

> <i_i_glide_lignum>
310

> <i_i_glide_rotatable_bonds>
4

> <r_i_docking_score>
-7.39306581223541

> <r_i_glide_ligand_efficiency>
-0.295722632489416

> <r_i_glide_ligand_efficiency_sa>
-0.864698222062272

> <r_i_glide_ligand_efficiency_ln>
-1.75237814980401

> <r_i_glide_gscore>
-7.39306581223541

> <r_i_glide_lipo>
-4.05676307487056

> <r_i_glide_hbond>
-0.0493157628185225

> <r_i_glide_metal>
0

> <r_i_glide_rewards>
-1.46340947925076

> <r_i_glide_evdw>
-36.7458419799805

> <r_i_glide_ecoul>
-3.21635961532593

> <r_i_glide_erotb>
0.496168546002344

> <r_i_glide_esite>
0

> <r_i_glide_emodel>
-48.8523699794983

> <r_i_glide_energy>
-39.9622015953064

> <r_i_glide_einternal>
7.56796360015869

> <i_i_glide_confnum>
5

> <i_i_glide_posenum>
8

> <r_i_glide_eff_state_penalty>
0

> <s_user_duplicate_titles>
CHEMBL3820_lig252,572926

> <i_f3d_flags>
0

> <s_m_subgroup_title>
dock_pv

> <s_m_subgroupid>
dock_pv

> <b_m_subgroup_collapsed>
0

$$$$
CHEMBL3820_lig953 
                    3D
 Schrodinger Suite 2021-1.
 44 46  0  0  1  0            999 V2000
   -7.5350   -2.9961   23.0105 C   0  0  0  0  0  0
   -7.4662   -1.7761   23.7062 C   0  0  0  0  0  0
   -7.8213   -0.6021   23.0455 C   0  0  0  0  0  0
   -8.1548   -0.6291   21.6958 C   0  0  0  0  0  0
   -8.1676   -1.7893   20.9851 N   0  0  0  0  0  0
   -7.8699   -2.9409   21.6471 C   0  0  0  0  0  0
   -7.0852   -1.6868   25.0223 O   0  0  0  0  0  0
   -5.9603   -0.9495   25.3133 C   0  0  0  0  0  0
   -4.7078   -1.2790   24.7808 C   0  0  0  0  0  0
   -3.5911   -0.5011   25.1006 C   0  0  0  0  0  0
   -3.7704    0.5899   25.9565 C   0  0  0  0  0  0
   -4.9765    0.9281   26.4820 N   0  0  0  0  0  0
   -6.0465    0.1558   26.1625 C   0  0  0  0  0  0
   -2.2236   -0.8422   24.5387 C   0  0  0  0  0  0
   -8.5269    0.6031   21.1459 N   0  0  0  0  0  0
   -8.2688    1.0804   19.9160 C   0  0  0  0  0  0
   -7.6717    0.4857   19.0245 O   0  0  0  0  0  0
   -8.6887    2.3457   19.7942 N   0  0  0  0  0  0
   -8.1945    3.2633   18.7722 C   0  0  0  0  0  0
   -7.3388   -4.3749   23.6621 C   0  0  1  0  0  0
   -7.0706   -4.6028   25.1787 C   0  0  0  0  0  0
   -8.5789   -4.7319   25.3668 C   0  0  1  0  0  0
   -8.6140   -5.2072   23.9212 C   0  0  0  0  0  0
   -9.0981   -5.5739   26.3751 O   0  0  0  0  0  0
   -7.8218    0.3312   23.5917 H   0  0  0  0  0  0
   -7.9281   -3.8461   21.0593 H   0  0  0  0  0  0
   -4.6083   -2.1304   24.1236 H   0  0  0  0  0  0
   -2.9371    1.2210   26.2312 H   0  0  0  0  0  0
   -6.9945    0.4473   26.5879 H   0  0  0  0  0  0
   -1.4355   -0.2330   24.9863 H   0  0  0  0  0  0
   -1.9845   -1.8898   24.7299 H   0  0  0  0  0  0
   -2.2077   -0.6950   23.4584 H   0  0  0  0  0  0
   -8.8432    1.2751   21.8318 H   0  0  0  0  0  0
   -9.3456    2.7156   20.4643 H   0  0  0  0  0  0
   -8.7571    4.1972   18.7925 H   0  0  0  0  0  0
   -8.2859    2.8294   17.7752 H   0  0  0  0  0  0
   -7.1418    3.4969   18.9429 H   0  0  0  0  0  0
   -6.6102   -4.9535   23.0912 H   0  0  0  0  0  0
   -6.5324   -5.5266   25.4009 H   0  0  0  0  0  0
   -6.5574   -3.8269   25.7362 H   0  0  0  0  0  0
   -9.0852   -3.7771   25.5220 H   0  0  0  0  0  0
   -9.4887   -4.9054   23.3544 H   0  0  0  0  0  0
   -8.4932   -6.2868   23.8111 H   0  0  0  0  0  0
   -8.9958   -6.4927   26.0927 H   0  0  0  0  0  0
  1  2  2  0  0  0
  1  6  1  0  0  0
  1 20  1  0  0  0
  2  3  1  0  0  0
  2  7  1  0  0  0
  3  4  2  0  0  0
  3 25  1  0  0  0
  4  5  1  0  0  0
  4 15  1  0  0  0
  5  6  2  0  0  0
  6 26  1  0  0  0
  7  8  1  0  0  0
  8  9  2  0  0  0
  8 13  1  0  0  0
  9 10  1  0  0  0
  9 27  1  0  0  0
 10 11  2  0  0  0
 10 14  1  0  0  0
 11 12  1  0  0  0
 11 28  1  0  0  0
 12 13  2  0  0  0
 13 29  1  0  0  0
 14 30  1  0  0  0
 14 31  1  0  0  0
 14 32  1  0  0  0
 15 16  1  0  0  0
 15 33  1  0  0  0
 16 17  2  0  0  0
 16 18  1  0  0  0
 18 19  1  0  0  0
 18 34  1  0  0  0
 19 35  1  0  0  0
 19 36  1  0  0  0
 19 37  1  0  0  0
 20 21  1  0  0  0
 20 23  1  0  0  0
 20 38  1  0  0  0
 21 22  1  0  0  0
 21 39  1  0  0  0
 21 40  1  0  0  0
 22 23  1  0  0  0
 22 24  1  0  0  0
 22 41  1  0  0  0
 23 42  1  0  0  0
 23 43  1  0  0  0
 24 44  1  0  0  0
M  END
> <s_m_entry_id>
5388

> <s_m_entry_name>
dock_pv.56

> <s_m_Source_Path>
/home/csk/Desktop/cluster/DUD-E-result/hxk4

> <s_m_Source_File>
dock_pv.maegz

> <i_m_Source_File_Index>
56

> <chembl_id>
CHEMBL4469251

> <chembl_pref_name>
None

> <i_lp_mmshare_version>
53161

> <r_lp_tautomer_probability>
1

> <s_lp_Force_Field>
OPLS_2005

> <r_lp_Energy>
16.276352

> <b_lp_Chiralities_Consistent>
1

> <s_lp_Variant>
CHEMBL3820_lig953 -1

> <s_i_glide_gridfile>
glide-grid_3f9m

> <i_i_glide_lignum>
1264

> <i_i_glide_rotatable_bonds>
7

> <r_i_docking_score>
-7.32957833942233

> <r_i_glide_ligand_efficiency>
-0.305399097475931

> <r_i_glide_ligand_efficiency_sa>
-0.880923433280655

> <r_i_glide_ligand_efficiency_ln>
-1.75430442905805

> <r_i_glide_gscore>
-7.32957833942233

> <r_i_glide_lipo>
-2.33683211734102

> <r_i_glide_hbond>
-0.467727299015953

> <r_i_glide_metal>
0

> <r_i_glide_rewards>
-2.23294009900926

> <r_i_glide_evdw>
-39.0260238647461

> <r_i_glide_ecoul>
-8.07778835296631

> <r_i_glide_erotb>
0.870890622126155

> <r_i_glide_esite>
0

> <r_i_glide_emodel>
-66.1167132509912

> <r_i_glide_energy>
-47.1038122177124

> <r_i_glide_einternal>
6.52695035934448

> <i_i_glide_confnum>
37

> <i_i_glide_posenum>
373

> <r_i_glide_eff_state_penalty>
0

> <s_user_duplicate_titles>
CHEMBL3820_lig953 

> <i_f3d_flags>
0

> <s_m_subgroup_title>
dock_pv

> <s_m_subgroupid>
dock_pv

> <b_m_subgroup_collapsed>
0

$$$$
CHEMBL3820_lig163
                    3D
 Schrodinger Suite 2021-1.
 37 39  0  0  1  0            999 V2000
   -6.6890   -1.0330   24.9653 C   0  0  0  0  0  0
   -6.5366   -2.4039   25.1289 C   0  0  0  0  0  0
   -7.0097   -3.2601   24.1420 C   0  0  0  0  0  0
   -7.6009   -2.7565   22.9709 C   0  0  0  0  0  0
   -7.7095   -1.3644   22.7669 C   0  0  0  0  0  0
   -7.3157   -0.5418   23.8235 C   0  0  0  0  0  0
   -8.0402   -0.7411   21.4131 C   0  0  0  0  0  0
   -8.5612    0.5050   21.4312 N   0  0  0  0  0  0
   -7.7895   -1.3459   20.3693 O   0  0  0  0  0  0
   -6.1130    0.1019   26.1935 S   0  0  0  0  0  0
   -4.3600    0.0017   25.9646 C   0  0  0  0  0  0
   -3.4483    0.9131   26.4529 N   0  0  0  0  0  0
   -2.2326    0.4031   26.0703 C   0  0  0  0  0  0
   -2.3678   -0.6991   25.3815 N   0  0  0  0  0  0
   -3.7332   -0.9497   25.3082 N   0  0  0  0  0  0
   -3.6968    2.1106   27.2371 C   0  0  0  0  0  0
   -8.6382    1.3833   20.3646 C   0  0  0  0  0  0
   -7.9637    1.2890   19.2461 N   0  0  0  0  0  0
   -8.0050    2.4048   18.5518 C   0  0  0  0  0  0
   -8.6780    3.4743   19.1619 C   0  0  0  0  0  0
   -9.4890    2.8839   20.5810 S   0  0  0  0  0  0
   -7.3701    2.3249   17.1883 C   0  0  0  0  0  0
   -8.0918   -3.7166   21.9827 N   0  3  0  0  0  0
   -7.3917   -4.6950   21.7809 O   0  0  0  0  0  0
   -9.1749   -3.4950   21.4518 O   0  5  0  0  0  0
   -6.0625   -2.8027   26.0141 H   0  0  0  0  0  0
   -6.9100   -4.3274   24.2863 H   0  0  0  0  0  0
   -7.4889    0.5050   23.7743 H   0  0  0  0  0  0
   -8.9519    0.8547   22.3011 H   0  0  0  0  0  0
   -1.3084    0.9041   26.3206 H   0  0  0  0  0  0
   -2.7677    2.4591   27.6896 H   0  0  0  0  0  0
   -4.0798    2.8927   26.5815 H   0  0  0  0  0  0
   -4.4244    1.8954   28.0203 H   0  0  0  0  0  0
   -8.8321    4.4791   18.7939 H   0  0  0  0  0  0
   -7.5570    3.2188   16.5998 H   0  0  0  0  0  0
   -7.7743    1.4943   16.6085 H   0  0  0  0  0  0
   -6.2903    2.1801   17.2422 H   0  0  0  0  0  0
  1  6  1  0  0  0
  1  2  2  0  0  0
  1 10  1  0  0  0
  2  3  1  0  0  0
  2 26  1  0  0  0
  3  4  2  0  0  0
  3 27  1  0  0  0
  4  5  1  0  0  0
  4 23  1  0  0  0
  5  7  1  0  0  0
  5  6  2  0  0  0
  6 28  1  0  0  0
  7  8  1  0  0  0
  7  9  2  0  0  0
  8 17  1  0  0  0
  8 29  1  0  0  0
 10 11  1  0  0  0
 11 15  2  0  0  0
 11 12  1  0  0  0
 12 13  1  0  0  0
 12 16  1  0  0  0
 13 14  2  0  0  0
 13 30  1  0  0  0
 14 15  1  0  0  0
 16 31  1  0  0  0
 16 32  1  0  0  0
 16 33  1  0  0  0
 17 18  2  0  0  0
 17 21  1  0  0  0
 18 19  1  0  0  0
 19 20  2  0  0  0
 19 22  1  0  0  0
 20 21  1  0  0  0
 20 34  1  0  0  0
 22 35  1  0  0  0
 22 36  1  0  0  0
 22 37  1  0  0  0
 23 24  2  0  0  0
 23 25  1  0  0  0
M  CHG  2  23   1  25  -1
M  END
> <s_m_entry_id>
5389

> <s_m_entry_name>
dock_pv.57

> <s_m_Source_Path>
/home/csk/Desktop/cluster/DUD-E-result/hxk4

> <s_m_Source_File>
dock_pv.maegz

> <i_m_Source_File_Index>
57

> <chembl_id>
CHEMBL491496

> <chembl_pref_name>
None

> <i_lp_mmshare_version>
53161

> <r_lp_tautomer_probability>
0.999000488399163

> <s_lp_Force_Field>
OPLS_2005

> <r_lp_Energy>
16.694054

> <b_lp_Chiralities_Consistent>
1

> <s_lp_Variant>
CHEMBL3820_lig163-1

> <s_i_glide_gridfile>
glide-grid_3f9m

> <i_i_glide_lignum>
180

> <i_i_glide_rotatable_bonds>
6

> <r_i_docking_score>
-7.32463838834809

> <r_i_glide_ligand_efficiency>
-0.292985535533924

> <r_i_glide_ligand_efficiency_sa>
-0.85669490202179

> <r_i_glide_ligand_efficiency_ln>
-1.7361587997383

> <r_i_glide_gscore>
-7.32463838834809

> <r_i_glide_lipo>
-2.26797529833696

> <r_i_glide_hbond>
-0.32

> <r_i_glide_metal>
0

> <r_i_glide_rewards>
-3.10680461779142

> <r_i_glide_evdw>
-32.4355506896973

> <r_i_glide_ecoul>
-4.45183610916138

> <r_i_glide_erotb>
0.683097583352548

> <r_i_glide_esite>
-0.0234031047131963

> <r_i_glide_emodel>
-47.1010454599317

> <r_i_glide_energy>
-36.8873867988586

> <r_i_glide_einternal>
9.69951057434082

> <i_i_glide_confnum>
95

> <i_i_glide_posenum>
14

> <r_i_glide_eff_state_penalty>
0

> <s_user_duplicate_titles>
CHEMBL3820_lig163

> <i_f3d_flags>
0

> <s_m_subgroup_title>
dock_pv

> <s_m_subgroupid>
dock_pv

> <b_m_subgroup_collapsed>
0

$$$$
CHEMBL3820_lig959 
                    3D
 Schrodinger Suite 2021-1.
 40 41  0  0  1  0            999 V2000
   -7.5438   -3.3868   23.9315 C   0  0  0  0  0  0
   -7.1856   -2.1315   24.4507 C   0  0  0  0  0  0
   -7.4790   -0.9814   23.7087 C   0  0  0  0  0  0
   -8.0562   -1.1043   22.4488 C   0  0  0  0  0  0
   -8.3731   -2.3178   21.9171 N   0  0  0  0  0  0
   -8.1228   -3.4272   22.6571 C   0  0  0  0  0  0
   -7.2885   -4.6820   24.7062 C   0  0  0  0  0  0
   -6.5634   -2.0248   25.6751 O   0  0  0  0  0  0
   -5.4391   -1.2363   25.7475 C   0  0  0  0  0  0
   -5.4935    0.0343   26.3297 C   0  0  0  0  0  0
   -4.3478    0.8368   26.3429 C   0  0  0  0  0  0
   -3.1737    0.3257   25.7806 C   0  0  0  0  0  0
   -3.0985   -0.9065   25.2161 N   0  0  0  0  0  0
   -4.2233   -1.6662   25.2061 C   0  0  0  0  0  0
   -4.3907    2.2371   26.9227 C   0  0  0  0  0  0
   -8.3246    0.0957   21.7782 N   0  0  0  0  0  0
   -8.2884    0.3041   20.4535 C   0  0  0  0  0  0
   -8.0149   -0.5545   19.6188 O   0  0  0  0  0  0
   -8.5287    1.5858   20.1500 N   0  0  0  0  0  0
   -8.1598    2.1878   18.8746 C   0  0  0  0  0  0
   -8.5532   -5.4892   25.0752 C   0  0  0  0  0  0
   -9.4887   -4.6970   25.7809 O   0  0  0  0  0  0
   -7.2359   -0.0076   24.1070 H   0  0  0  0  0  0
   -8.4026   -4.3646   22.2007 H   0  0  0  0  0  0
   -6.6295   -5.3127   24.1076 H   0  0  0  0  0  0
   -6.7294   -4.4736   25.6193 H   0  0  0  0  0  0
   -6.4232    0.3965   26.7451 H   0  0  0  0  0  0
   -2.2619    0.9045   25.7678 H   0  0  0  0  0  0
   -4.1449   -2.6354   24.7361 H   0  0  0  0  0  0
   -3.5387    2.8360   26.5972 H   0  0  0  0  0  0
   -5.2910    2.7518   26.5858 H   0  0  0  0  0  0
   -4.4111    2.1987   28.0120 H   0  0  0  0  0  0
   -8.4355    0.9075   22.3702 H   0  0  0  0  0  0
   -8.9686    2.1825   20.8346 H   0  0  0  0  0  0
   -8.4049    3.2495   18.8720 H   0  0  0  0  0  0
   -8.6881    1.7048   18.0507 H   0  0  0  0  0  0
   -7.0888    2.0888   18.6963 H   0  0  0  0  0  0
   -9.0509   -5.8645   24.1809 H   0  0  0  0  0  0
   -8.2871   -6.3526   25.6869 H   0  0  0  0  0  0
  -10.0583   -4.2739   25.1193 H   0  0  0  0  0  0
  1  2  2  0  0  0
  1  6  1  0  0  0
  1  7  1  0  0  0
  2  3  1  0  0  0
  2  8  1  0  0  0
  3  4  2  0  0  0
  3 23  1  0  0  0
  4  5  1  0  0  0
  4 16  1  0  0  0
  5  6  2  0  0  0
  6 24  1  0  0  0
  7 21  1  0  0  0
  7 25  1  0  0  0
  7 26  1  0  0  0
  8  9  1  0  0  0
  9 10  2  0  0  0
  9 14  1  0  0  0
 10 11  1  0  0  0
 10 27  1  0  0  0
 11 12  2  0  0  0
 11 15  1  0  0  0
 12 13  1  0  0  0
 12 28  1  0  0  0
 13 14  2  0  0  0
 14 29  1  0  0  0
 15 30  1  0  0  0
 15 31  1  0  0  0
 15 32  1  0  0  0
 16 17  1  0  0  0
 16 33  1  0  0  0
 17 18  2  0  0  0
 17 19  1  0  0  0
 19 20  1  0  0  0
 19 34  1  0  0  0
 20 35  1  0  0  0
 20 36  1  0  0  0
 20 37  1  0  0  0
 21 22  1  0  0  0
 21 38  1  0  0  0
 21 39  1  0  0  0
 22 40  1  0  0  0
M  END
> <s_m_entry_id>
5390

> <s_m_entry_name>
dock_pv.58

> <s_m_Source_Path>
/home/csk/Desktop/cluster/DUD-E-result/hxk4

> <s_m_Source_File>
dock_pv.maegz

> <i_m_Source_File_Index>
58

> <chembl_id>
CHEMBL4453019

> <chembl_pref_name>
None

> <i_lp_mmshare_version>
53161

> <r_lp_tautomer_probability>
1

> <s_lp_Force_Field>
OPLS_2005

> <r_lp_Energy>
7.524974

> <b_lp_Chiralities_Consistent>
1

> <s_lp_Variant>
CHEMBL3820_lig959 -1

> <s_i_glide_gridfile>
glide-grid_3f9m

> <i_i_glide_lignum>
1271

> <i_i_glide_rotatable_bonds>
8

> <r_i_docking_score>
-7.27023880412962

> <r_i_glide_ligand_efficiency>
-0.33046540018771

> <r_i_glide_ligand_efficiency_sa>
-0.925977047792657

> <r_i_glide_ligand_efficiency_ln>
-1.77711155213301

> <r_i_glide_gscore>
-7.27023880412962

> <r_i_glide_lipo>
-1.94078304352771

> <r_i_glide_hbond>
-0.742472208873333

> <r_i_glide_metal>
0

> <r_i_glide_rewards>
-2.46682361570331

> <r_i_glide_evdw>
-35.9370498657227

> <r_i_glide_ecoul>
-10.2122535705566

> <r_i_glide_erotb>
1.20853059284436

> <r_i_glide_esite>
0

> <r_i_glide_emodel>
-62.7793469689721

> <r_i_glide_energy>
-46.1493034362793

> <r_i_glide_einternal>
7.38037824630737

> <i_i_glide_confnum>
13

> <i_i_glide_posenum>
309

> <r_i_glide_eff_state_penalty>
0

> <s_user_duplicate_titles>
CHEMBL3820_lig959 

> <i_f3d_flags>
0

> <s_m_subgroup_title>
dock_pv

> <s_m_subgroupid>
dock_pv

> <b_m_subgroup_collapsed>
0

$$$$
CHEMBL3820_lig145
                    3D
 Schrodinger Suite 2021-1.
 44 46  0  0  1  0            999 V2000
   -8.1161    0.6306   20.9663 C   0  0  0  0  0  0
   -7.5395    0.1351   19.7949 C   0  0  0  0  0  0
   -7.4891    0.9095   18.6432 C   0  0  0  0  0  0
   -8.0346    2.1856   18.6151 C   0  0  0  0  0  0
   -8.6890    2.7068   19.7490 C   0  0  0  0  0  0
   -8.6890    1.9022   20.8972 C   0  0  0  0  0  0
   -9.2958    4.1122   19.7812 C   0  0  0  0  0  0
  -10.1078    4.3726   20.8327 N   0  0  0  0  0  0
   -9.0482    4.9398   18.9002 O   0  0  0  0  0  0
  -10.8247    5.5395   21.0098 C   0  0  0  0  0  0
  -10.8516    6.1849   22.1489 N   0  0  0  0  0  0
  -11.6330    7.2486   22.0951 C   0  0  0  0  0  0
  -12.2888    7.4395   20.8811 C   0  0  0  0  0  0
  -11.8894    6.1613   19.7827 S   0  0  0  0  0  0
  -11.7092    8.1041   23.3382 C   0  0  0  0  0  0
   -8.0698   -0.0093   22.2050 O   0  0  0  0  0  0
   -7.8890    2.9046   17.4357 N   0  0  0  0  0  0
   -7.7873   -1.3550   22.3818 C   0  0  0  0  0  0
   -7.0633   -1.8328   23.5020 C   0  0  0  0  0  0
   -6.7372   -3.1900   23.6017 C   0  0  0  0  0  0
   -7.1151   -4.0823   22.6100 C   0  0  0  0  0  0
   -7.8673   -3.6251   21.5392 C   0  0  0  0  0  0
   -8.2453   -2.2946   21.4509 C   0  0  0  0  0  0
   -6.4855   -0.8233   24.8674 S   0  0  0  0  0  0
   -4.6351   -0.6950   24.5803 C   0  0  0  0  0  0
   -7.0889    0.5051   24.7681 O   0  0  0  0  0  0
   -6.6674   -1.6132   26.0883 O   0  0  0  0  0  0
   -7.0891   -0.8390   19.7699 H   0  0  0  0  0  0
   -6.9675    0.5248   17.7817 H   0  0  0  0  0  0
   -9.0879    2.3285   21.7810 H   0  0  0  0  0  0
  -10.0276    3.7738   21.6391 H   0  0  0  0  0  0
  -12.9629    8.2273   20.5826 H   0  0  0  0  0  0
  -12.2907    9.0109   23.1671 H   0  0  0  0  0  0
  -10.7228    8.4236   23.6772 H   0  0  0  0  0  0
  -12.1863    7.5775   24.1653 H   0  0  0  0  0  0
   -7.1133    2.6609   16.8365 H   0  0  0  0  0  0
   -8.1321    3.8875   17.5053 H   0  0  0  0  0  0
   -6.1725   -3.5597   24.4461 H   0  0  0  0  0  0
   -6.8335   -5.1227   22.6770 H   0  0  0  0  0  0
   -8.1430   -4.2950   20.7554 H   0  0  0  0  0  0
   -8.8583   -1.9890   20.6170 H   0  0  0  0  0  0
   -4.2128   -0.0335   25.3353 H   0  0  0  0  0  0
   -4.1962   -1.6881   24.6654 H   0  0  0  0  0  0
   -4.4607   -0.2959   23.5859 H   0  0  0  0  0  0
  1 16  1  0  0  0
  1  6  1  0  0  0
  1  2  2  0  0  0
  2  3  1  0  0  0
  2 28  1  0  0  0
  3  4  2  0  0  0
  3 29  1  0  0  0
  4 17  1  0  0  0
  4  5  1  0  0  0
  5  7  1  0  0  0
  5  6  2  0  0  0
  6 30  1  0  0  0
  7  8  1  0  0  0
  7  9  2  0  0  0
  8 10  1  0  0  0
  8 31  1  0  0  0
 10 14  1  0  0  0
 10 11  2  0  0  0
 11 12  1  0  0  0
 12 13  2  0  0  0
 12 15  1  0  0  0
 13 14  1  0  0  0
 13 32  1  0  0  0
 15 33  1  0  0  0
 15 34  1  0  0  0
 15 35  1  0  0  0
 16 18  1  0  0  0
 17 36  1  0  0  0
 17 37  1  0  0  0
 18 19  2  0  0  0
 18 23  1  0  0  0
 19 20  1  0  0  0
 19 24  1  0  0  0
 20 21  2  0  0  0
 20 38  1  0  0  0
 21 22  1  0  0  0
 21 39  1  0  0  0
 22 23  2  0  0  0
 22 40  1  0  0  0
 23 41  1  0  0  0
 24 25  1  0  0  0
 24 26  2  0  0  0
 24 27  2  0  0  0
 25 42  1  0  0  0
 25 43  1  0  0  0
 25 44  1  0  0  0
M  END
> <s_m_entry_id>
5391

> <s_m_entry_name>
dock_pv.59

> <s_m_Source_Path>
/home/csk/Desktop/cluster/DUD-E-result/hxk4

> <s_m_Source_File>
dock_pv.maegz

> <i_m_Source_File_Index>
59

> <chembl_id>
CHEMBL491329

> <chembl_pref_name>
None

> <i_lp_mmshare_version>
53161

> <r_lp_tautomer_probability>
0.999000488399163

> <s_lp_Force_Field>
OPLS_2005

> <r_lp_Energy>
21.797009

> <b_lp_Chiralities_Consistent>
1

> <s_lp_Variant>
CHEMBL3820_lig145-1

> <s_i_glide_gridfile>
glide-grid_3f9m

> <i_i_glide_lignum>
161

> <i_i_glide_rotatable_bonds>
6

> <r_i_docking_score>
-7.20290629645254

> <r_i_glide_ligand_efficiency>
-0.26677430727602

> <r_i_glide_ligand_efficiency_sa>
-0.800322920948816

> <r_i_glide_ligand_efficiency_ln>
-1.6767178366231

> <r_i_glide_gscore>
-7.20290629645254

> <r_i_glide_lipo>
-4.65197645266425

> <r_i_glide_hbond>
-0.0122679758444922

> <r_i_glide_metal>
0

> <r_i_glide_rewards>
-1.17030089885482

> <r_i_glide_evdw>
-32.5232048034668

> <r_i_glide_ecoul>
-2.28930592536926

> <r_i_glide_erotb>
0.603027512743112

> <r_i_glide_esite>
-0.00183235285336631

> <r_i_glide_emodel>
-45.6293493980644

> <r_i_glide_energy>
-34.8125107288361

> <r_i_glide_einternal>
6.09408950805664

> <i_i_glide_confnum>
18

> <i_i_glide_posenum>
178

> <r_i_glide_eff_state_penalty>
0

> <s_user_duplicate_titles>
CHEMBL3820_lig145,457800

> <i_f3d_flags>
0

> <s_m_subgroup_title>
dock_pv

> <s_m_subgroupid>
dock_pv

> <b_m_subgroup_collapsed>
0

$$$$
CHEMBL3820_lig706
                    3D
 Schrodinger Suite 2021-1.
 47 49  0  0  1  0            999 V2000
   -7.5429    0.6251   19.6959 C   0  0  0  0  0  0
   -8.2005    1.9994   19.5967 C   0  0  0  0  0  0
   -8.6889   -0.6951   20.1809 S   0  0  0  0  0  0
   -8.0035   -1.6876   21.4616 C   0  0  0  0  0  0
   -7.7179   -1.1598   22.7230 C   0  0  0  0  0  0
   -7.2816   -2.0167   23.7420 C   0  0  0  0  0  0
   -7.1789   -3.3942   23.4564 C   0  0  0  0  0  0
   -7.4239   -3.9033   22.2211 N   0  0  0  0  0  0
   -7.8333   -3.0539   21.2484 C   0  0  0  0  0  0
   -6.9595   -1.5007   24.9771 O   0  0  0  0  0  0
   -5.7332   -0.8871   25.1483 C   0  0  0  0  0  0
   -6.7583   -4.3240   24.4114 N   0  0  0  0  0  0
   -7.4813   -4.7216   25.4737 C   0  0  0  0  0  0
   -8.5971   -4.2948   25.7798 O   0  0  0  0  0  0
   -6.8460   -5.6858   26.1530 N   0  0  0  0  0  0
   -7.4801   -6.5115   27.1732 C   0  0  0  0  0  0
   -7.8177    2.8818   18.5809 C   0  0  0  0  0  0
   -8.2889    4.1946   18.5809 C   0  0  0  0  0  0
   -9.1503    4.6245   19.5867 C   0  0  0  0  0  0
   -9.5694    3.7422   20.5810 C   0  0  0  0  0  0
   -9.0938    2.4332   20.5809 C   0  0  0  0  0  0
   -4.5506   -1.3896   24.5812 C   0  0  0  0  0  0
   -3.3348   -0.7416   24.8092 C   0  0  0  0  0  0
   -3.3289    0.3940   25.6188 C   0  0  0  0  0  0
   -4.4533    0.9039   26.1808 N   0  0  0  0  0  0
   -5.6300    0.2620   25.9468 C   0  0  0  0  0  0
   -6.8541    0.8951   26.5795 C   0  0  0  0  0  0
   -6.7413    0.6899   20.4213 H   0  0  0  0  0  0
   -7.0892    0.3522   18.7432 H   0  0  0  0  0  0
   -7.8422   -0.1042   22.9184 H   0  0  0  0  0  0
   -8.0486   -3.4952   20.2864 H   0  0  0  0  0  0
   -5.9143   -4.8302   24.1952 H   0  0  0  0  0  0
   -5.8935   -5.9159   25.9134 H   0  0  0  0  0  0
   -6.7536   -7.2031   27.6034 H   0  0  0  0  0  0
   -7.8907   -5.8982   27.9776 H   0  0  0  0  0  0
   -8.2893   -7.0978   26.7354 H   0  0  0  0  0  0
   -7.1225    2.5709   17.8142 H   0  0  0  0  0  0
   -7.9738    4.8813   17.8088 H   0  0  0  0  0  0
   -9.5022    5.6464   19.5893 H   0  0  0  0  0  0
  -10.2426    4.0727   21.3587 H   0  0  0  0  0  0
   -9.3934    1.7693   21.3773 H   0  0  0  0  0  0
   -4.5717   -2.2757   23.9646 H   0  0  0  0  0  0
   -2.4189   -1.1104   24.3686 H   0  0  0  0  0  0
   -2.4066    0.9217   25.8165 H   0  0  0  0  0  0
   -7.4905    1.3050   25.7958 H   0  0  0  0  0  0
   -7.4270    0.1531   27.1363 H   0  0  0  0  0  0
   -6.5988    1.7045   27.2651 H   0  0  0  0  0  0
  1  2  1  0  0  0
  1  3  1  0  0  0
  1 28  1  0  0  0
  1 29  1  0  0  0
  2 17  2  0  0  0
  2 21  1  0  0  0
  3  4  1  0  0  0
  4  5  2  0  0  0
  4  9  1  0  0  0
  5  6  1  0  0  0
  5 30  1  0  0  0
  6  7  2  0  0  0
  6 10  1  0  0  0
  7  8  1  0  0  0
  7 12  1  0  0  0
  8  9  2  0  0  0
  9 31  1  0  0  0
 10 11  1  0  0  0
 11 22  2  0  0  0
 11 26  1  0  0  0
 12 13  1  0  0  0
 12 32  1  0  0  0
 13 14  2  0  0  0
 13 15  1  0  0  0
 15 16  1  0  0  0
 15 33  1  0  0  0
 16 34  1  0  0  0
 16 35  1  0  0  0
 16 36  1  0  0  0
 17 18  1  0  0  0
 17 37  1  0  0  0
 18 19  2  0  0  0
 18 38  1  0  0  0
 19 20  1  0  0  0
 19 39  1  0  0  0
 20 21  2  0  0  0
 20 40  1  0  0  0
 21 41  1  0  0  0
 22 23  1  0  0  0
 22 42  1  0  0  0
 23 24  2  0  0  0
 23 43  1  0  0  0
 24 25  1  0  0  0
 24 44  1  0  0  0
 25 26  2  0  0  0
 26 27  1  0  0  0
 27 45  1  0  0  0
 27 46  1  0  0  0
 27 47  1  0  0  0
M  END
> <s_m_entry_id>
5392

> <s_m_entry_name>
dock_pv.60

> <s_m_Source_Path>
/home/csk/Desktop/cluster/DUD-E-result/hxk4

> <s_m_Source_File>
dock_pv.maegz

> <i_m_Source_File_Index>
60

> <chembl_id>
CHEMBL3338074

> <chembl_pref_name>
None

> <i_lp_mmshare_version>
53161

> <r_lp_tautomer_probability>
1

> <s_lp_Force_Field>
OPLS_2005

> <r_lp_Energy>
17.531696

> <b_lp_Chiralities_Consistent>
1

> <s_lp_Variant>
CHEMBL3820_lig706-1

> <s_i_glide_gridfile>
glide-grid_3f9m

> <i_i_glide_lignum>
858

> <i_i_glide_rotatable_bonds>
8

> <r_i_docking_score>
-7.19274825494482

> <r_i_glide_ligand_efficiency>
-0.266398083516475

> <r_i_glide_ligand_efficiency_sa>
-0.799194249671419

> <r_i_glide_ligand_efficiency_ln>
-1.67435321202851

> <r_i_glide_gscore>
-7.19274825494482

> <r_i_glide_lipo>
-3.81064350027969

> <r_i_glide_hbond>
-0.0491905785779611

> <r_i_glide_metal>
0

> <r_i_glide_rewards>
-1.35937690083206

> <r_i_glide_evdw>
-41.5945510864258

> <r_i_glide_ecoul>
-5.31040000915527

> <r_i_glide_erotb>
0.938185862070146

> <r_i_glide_esite>
-0.0354355816306742

> <r_i_glide_emodel>
-57.9601921183799

> <r_i_glide_energy>
-46.9049510955811

> <r_i_glide_einternal>
15.7756004333496

> <i_i_glide_confnum>
56

> <i_i_glide_posenum>
359

> <r_i_glide_eff_state_penalty>
0

> <s_user_duplicate_titles>
CHEMBL3820_lig706

> <i_f3d_flags>
0

> <s_m_subgroup_title>
dock_pv

> <s_m_subgroupid>
dock_pv

> <b_m_subgroup_collapsed>
0

$$$$
CHEMBL3820_lig542
                    3D
 Schrodinger Suite 2021-1.
 50 53  0  0  1  0            999 V2000
   -7.3512   -2.6592   21.9671 C   0  0  0  0  0  0
   -7.4909   -1.5192   22.7911 C   0  0  0  0  0  0
   -7.8476   -0.3043   22.1589 C   0  0  0  0  0  0
   -8.0224   -0.2567   20.7644 C   0  0  0  0  0  0
   -7.8712   -1.4381   20.0620 C   0  0  0  0  0  0
   -7.5282   -2.6137   20.6277 N   0  0  0  0  0  0
   -6.8207   -3.8839   22.3926 N   0  0  0  0  0  0
   -6.0279   -5.9036   23.9167 S   0  0  0  0  0  0
   -7.1219   -4.6270   23.5030 C   0  0  0  0  0  0
   -8.1889   -4.5400   24.2623 N   0  0  0  0  0  0
   -8.2180   -5.4929   25.1807 C   0  0  0  0  0  0
   -7.1124   -6.3382   25.1953 C   0  0  0  0  0  0
   -9.4393   -5.5778   26.0668 C   0  0  0  0  0  0
   -8.3570    1.2361   19.8445 S   0  0  0  0  0  0
   -9.3451    2.2184   20.9852 C   0  0  0  0  0  0
   -9.8853    3.5744   20.5803 C   0  0  0  0  0  0
  -11.1136    3.9709   21.1201 C   0  0  0  0  0  0
  -11.6178    5.2395   20.8610 C   0  0  0  0  0  0
  -10.8801    6.1140   20.0737 C   0  0  0  0  0  0
   -9.6510    5.7313   19.5442 C   0  0  0  0  0  0
   -9.1527    4.4559   19.7810 C   0  0  0  0  0  0
   -7.2185   -1.6499   24.1448 O   0  0  0  0  0  0
   -6.7063   -0.5597   24.9221 C   0  0  0  0  0  0
   -5.1867   -0.5840   25.0555 C   0  0  0  0  0  0
   -4.4128   -1.6067   24.4958 C   0  0  0  0  0  0
   -3.0277   -1.5910   24.6378 C   0  0  0  0  0  0
   -2.4182   -0.5615   25.3522 C   0  0  0  0  0  0
   -3.1807    0.4525   25.9260 C   0  0  0  0  0  0
   -4.5656    0.4368   25.7834 C   0  0  0  0  0  0
   -7.8947    0.6065   22.7253 H   0  0  0  0  0  0
   -7.9214   -1.4447   18.9876 H   0  0  0  0  0  0
   -6.5799   -4.4161   21.5704 H   0  0  0  0  0  0
   -6.9292   -7.1951   25.8268 H   0  0  0  0  0  0
   -9.1838   -5.9150   27.0703 H   0  0  0  0  0  0
  -10.1566   -6.2902   25.6725 H   0  0  0  0  0  0
   -9.9673   -4.6368   26.1601 H   0  0  0  0  0  0
  -10.1394    1.5846   21.3802 H   0  0  0  0  0  0
   -8.6598    2.4579   21.7812 H   0  0  0  0  0  0
  -11.6758    3.3019   21.7557 H   0  0  0  0  0  0
  -12.5653    5.5486   21.2774 H   0  0  0  0  0  0
  -11.2569    7.1090   19.8851 H   0  0  0  0  0  0
   -9.0742    6.4433   18.9780 H   0  0  0  0  0  0
   -8.1920    4.1725   19.3773 H   0  0  0  0  0  0
   -7.0509    0.4239   24.6051 H   0  0  0  0  0  0
   -7.0775   -0.6980   25.9361 H   0  0  0  0  0  0
   -4.8730   -2.4104   23.9398 H   0  0  0  0  0  0
   -2.4294   -2.3717   24.1916 H   0  0  0  0  0  0
   -1.3425   -0.5410   25.4521 H   0  0  0  0  0  0
   -2.6977    1.2493   26.4737 H   0  0  0  0  0  0
   -5.1529    1.2267   26.2290 H   0  0  0  0  0  0
  1  2  1  0  0  0
  1  6  2  0  0  0
  1  7  1  0  0  0
  2  3  2  0  0  0
  2 22  1  0  0  0
  3  4  1  0  0  0
  3 30  1  0  0  0
  4  5  2  0  0  0
  4 14  1  0  0  0
  5  6  1  0  0  0
  5 31  1  0  0  0
  7  9  1  0  0  0
  7 32  1  0  0  0
  8  9  1  0  0  0
  8 12  1  0  0  0
  9 10  2  0  0  0
 10 11  1  0  0  0
 11 12  2  0  0  0
 11 13  1  0  0  0
 12 33  1  0  0  0
 13 34  1  0  0  0
 13 35  1  0  0  0
 13 36  1  0  0  0
 14 15  1  0  0  0
 15 16  1  0  0  0
 15 37  1  0  0  0
 15 38  1  0  0  0
 16 17  1  0  0  0
 16 21  2  0  0  0
 17 18  2  0  0  0
 17 39  1  0  0  0
 18 19  1  0  0  0
 18 40  1  0  0  0
 19 20  2  0  0  0
 19 41  1  0  0  0
 20 21  1  0  0  0
 20 42  1  0  0  0
 21 43  1  0  0  0
 22 23  1  0  0  0
 23 24  1  0  0  0
 23 44  1  0  0  0
 23 45  1  0  0  0
 24 25  1  0  0  0
 24 29  2  0  0  0
 25 26  2  0  0  0
 25 46  1  0  0  0
 26 27  1  0  0  0
 26 47  1  0  0  0
 27 28  2  0  0  0
 27 48  1  0  0  0
 28 29  1  0  0  0
 28 49  1  0  0  0
 29 50  1  0  0  0
M  END
> <s_m_entry_id>
5393

> <s_m_entry_name>
dock_pv.61

> <s_m_Source_Path>
/home/csk/Desktop/cluster/DUD-E-result/hxk4

> <s_m_Source_File>
dock_pv.maegz

> <i_m_Source_File_Index>
61

> <chembl_id>
CHEMBL2430859

> <chembl_pref_name>
None

> <i_lp_mmshare_version>
53161

> <r_lp_tautomer_probability>
0.999999404453161

> <s_lp_Force_Field>
OPLS_2005

> <r_lp_Energy>
20.420054

> <b_lp_Chiralities_Consistent>
1

> <s_lp_Variant>
CHEMBL3820_lig542-1

> <s_i_glide_gridfile>
glide-grid_3f9m

> <i_i_glide_lignum>
676

> <i_i_glide_rotatable_bonds>
8

> <r_i_docking_score>
-7.10142561825796

> <r_i_glide_ligand_efficiency>
-0.244876745457171

> <r_i_glide_ligand_efficiency_sa>
-0.752338944442808

> <r_i_glide_ligand_efficiency_ln>
-1.62604638996483

> <r_i_glide_gscore>
-7.10142561825796

> <r_i_glide_lipo>
-4.36307758328008

> <r_i_glide_hbond>
0

> <r_i_glide_metal>
0

> <r_i_glide_rewards>
-0.967270259010686

> <r_i_glide_evdw>
-48.425724029541

> <r_i_glide_ecoul>
-1.65941751003265

> <r_i_glide_erotb>
0.89912105201475

> <r_i_glide_esite>
0

> <r_i_glide_emodel>
-59.6102046475231

> <r_i_glide_energy>
-50.0851415395737

> <r_i_glide_einternal>
17.6381816864014

> <i_i_glide_confnum>
41

> <i_i_glide_posenum>
53

> <r_i_glide_eff_state_penalty>
0

> <s_user_duplicate_titles>
CHEMBL3820_lig542

> <i_f3d_flags>
0

> <s_m_subgroup_title>
dock_pv

> <s_m_subgroupid>
dock_pv

> <b_m_subgroup_collapsed>
0

$$$$
CHEMBL3820_lig535
                    3D
 Schrodinger Suite 2021-1.
 37 39  0  0  1  0            999 V2000
   -9.7964    4.3358   20.4858 C   0  0  0  0  0  0
   -9.4890    2.9789   20.5943 C   0  0  0  0  0  0
   -8.5845    2.3816   19.7102 C   0  0  0  0  0  0
   -8.0016    3.1554   18.6952 C   0  0  0  0  0  0
   -8.3198    4.5109   18.5810 C   0  0  0  0  0  0
   -9.2111    5.1020   19.4769 C   0  0  0  0  0  0
  -10.6742    4.9127   21.3629 O   0  0  0  0  0  0
   -8.2516    0.9058   19.8223 C   0  0  0  0  0  0
   -8.0235    0.5214   21.1838 O   0  0  0  0  0  0
   -7.6726   -1.2613   22.7931 C   0  0  0  0  0  0
   -7.8890   -0.8298   21.4714 C   0  0  0  0  0  0
   -7.8891   -1.8176   20.4823 C   0  0  0  0  0  0
   -7.8264   -3.1585   20.8269 C   0  0  0  0  0  0
   -7.6933   -3.5057   22.1658 C   0  0  0  0  0  0
   -7.5951   -2.5748   23.1418 N   0  0  0  0  0  0
   -7.4889   -0.2933   23.7810 N   0  0  0  0  0  0
   -5.4671   -1.5088   25.2292 S   0  0  0  0  0  0
   -6.6733   -0.2948   24.8941 C   0  0  0  0  0  0
   -6.6875    0.6913   25.7563 N   0  0  0  0  0  0
   -5.7946    0.5499   26.7176 C   0  0  0  0  0  0
   -5.0100   -0.5956   26.6345 C   0  0  0  0  0  0
   -5.7477    1.6444   27.7571 C   0  0  0  0  0  0
   -9.9470    2.3954   21.3805 H   0  0  0  0  0  0
   -7.3105    2.7146   17.9904 H   0  0  0  0  0  0
   -7.8889    5.1064   17.7904 H   0  0  0  0  0  0
   -9.4429    6.1534   19.3803 H   0  0  0  0  0  0
  -10.7911    5.8496   21.1893 H   0  0  0  0  0  0
   -7.3624    0.6785   19.2310 H   0  0  0  0  0  0
   -9.0889    0.3570   19.3890 H   0  0  0  0  0  0
   -7.9415   -1.5643   19.4358 H   0  0  0  0  0  0
   -7.8890   -3.8951   20.0485 H   0  0  0  0  0  0
   -7.6445   -4.5411   22.4717 H   0  0  0  0  0  0
   -7.7971    0.6079   23.4352 H   0  0  0  0  0  0
   -4.2181   -0.9248   27.2906 H   0  0  0  0  0  0
   -4.9887    1.4530   28.5154 H   0  0  0  0  0  0
   -6.7009    1.7487   28.2768 H   0  0  0  0  0  0
   -5.5181    2.6136   27.3128 H   0  0  0  0  0  0
  1  2  1  0  0  0
  1  6  2  0  0  0
  1  7  1  0  0  0
  2  3  2  0  0  0
  2 23  1  0  0  0
  3  4  1  0  0  0
  3  8  1  0  0  0
  4  5  2  0  0  0
  4 24  1  0  0  0
  5  6  1  0  0  0
  5 25  1  0  0  0
  6 26  1  0  0  0
  7 27  1  0  0  0
  8  9  1  0  0  0
  8 28  1  0  0  0
  8 29  1  0  0  0
  9 11  1  0  0  0
 10 11  1  0  0  0
 10 15  2  0  0  0
 10 16  1  0  0  0
 11 12  2  0  0  0
 12 13  1  0  0  0
 12 30  1  0  0  0
 13 14  2  0  0  0
 13 31  1  0  0  0
 14 15  1  0  0  0
 14 32  1  0  0  0
 16 18  1  0  0  0
 16 33  1  0  0  0
 17 18  1  0  0  0
 17 21  1  0  0  0
 18 19  2  0  0  0
 19 20  1  0  0  0
 20 21  2  0  0  0
 20 22  1  0  0  0
 21 34  1  0  0  0
 22 35  1  0  0  0
 22 36  1  0  0  0
 22 37  1  0  0  0
M  END
> <s_m_entry_id>
5394

> <s_m_entry_name>
dock_pv.62

> <s_m_Source_Path>
/home/csk/Desktop/cluster/DUD-E-result/hxk4

> <s_m_Source_File>
dock_pv.maegz

> <i_m_Source_File_Index>
62

> <chembl_id>
CHEMBL2430866

> <chembl_pref_name>
None

> <i_lp_mmshare_version>
53161

> <r_lp_tautomer_probability>
0.999999404450526

> <s_lp_Force_Field>
OPLS_2005

> <r_lp_Energy>
16.539129

> <b_lp_Chiralities_Consistent>
1

> <s_lp_Variant>
CHEMBL3820_lig535-1

> <s_i_glide_gridfile>
glide-grid_3f9m

> <i_i_glide_lignum>
669

> <i_i_glide_rotatable_bonds>
6

> <r_i_docking_score>
-7.00947925130703

> <r_i_glide_ligand_efficiency>
-0.318612693241229

> <r_i_glide_ligand_efficiency_sa>
-0.892765296788105

> <r_i_glide_ligand_efficiency_ln>
-1.71337240598738

> <r_i_glide_gscore>
-7.00947925130703

> <r_i_glide_lipo>
-3.8508929880167

> <r_i_glide_hbond>
-0.144633133248151

> <r_i_glide_metal>
0

> <r_i_glide_rewards>
-1.71410848484848

> <r_i_glide_evdw>
-36.6260414123535

> <r_i_glide_ecoul>
-2.76123476028442

> <r_i_glide_erotb>
0.945642639466643

> <r_i_glide_esite>
0

> <r_i_glide_emodel>
-55.448797276485

> <r_i_glide_energy>
-39.3872761726379

> <r_i_glide_einternal>
2.05684542655945

> <i_i_glide_confnum>
82

> <i_i_glide_posenum>
373

> <r_i_glide_eff_state_penalty>
0

> <s_user_duplicate_titles>
CHEMBL3820_lig535

> <i_f3d_flags>
0

> <s_m_subgroup_title>
dock_pv

> <s_m_subgroupid>
dock_pv

> <b_m_subgroup_collapsed>
0

$$$$
CHEMBL3820_lig958 
                    3D
 Schrodinger Suite 2021-1.
 43 44  0  0  1  0            999 V2000
   -7.3923   -3.1365   22.8187 C   0  0  0  0  0  0
   -7.2900   -1.9871   23.6122 C   0  0  0  0  0  0
   -7.6949   -0.7596   23.0826 C   0  0  0  0  0  0
   -8.1196   -0.6826   21.7563 C   0  0  0  0  0  0
   -8.1906   -1.7881   20.9664 N   0  0  0  0  0  0
   -7.8355   -2.9850   21.5000 C   0  0  0  0  0  0
   -6.7908   -2.0510   24.8935 O   0  0  0  0  0  0
   -5.6699   -1.3014   25.1661 C   0  0  0  0  0  0
   -4.4342   -1.6061   24.5813 C   0  0  0  0  0  0
   -3.3256   -0.7956   24.8433 C   0  0  0  0  0  0
   -3.4889    0.2882   25.7103 C   0  0  0  0  0  0
   -4.6769    0.5984   26.2936 N   0  0  0  0  0  0
   -5.7435   -0.1985   26.0195 C   0  0  0  0  0  0
   -1.9769   -1.0990   24.2129 C   0  0  0  0  0  0
   -8.4884    0.5860   21.2834 N   0  0  0  0  0  0
   -8.2885    1.0902   20.0492 C   0  0  0  0  0  0
   -7.7519    0.4996   19.1181 O   0  0  0  0  0  0
   -8.6921    2.3624   19.9526 N   0  0  0  0  0  0
   -8.2830    3.2583   18.8706 C   0  0  0  0  0  0
   -7.0200   -4.5178   23.3510 C   0  0  0  0  0  0
   -8.1883   -5.2349   24.0653 C   0  0  0  0  0  0
   -8.4628   -4.7402   25.4969 C   0  0  0  0  0  0
   -9.4888   -5.4953   26.1116 O   0  0  0  0  0  0
   -7.6386    0.1121   23.7081 H   0  0  0  0  0  0
   -7.8965   -3.8354   20.8383 H   0  0  0  0  0  0
   -4.3480   -2.4554   23.9176 H   0  0  0  0  0  0
   -2.6583    0.9384   25.9412 H   0  0  0  0  0  0
   -6.6771    0.0715   26.4891 H   0  0  0  0  0  0
   -1.1605   -0.6804   24.8007 H   0  0  0  0  0  0
   -1.9226   -0.6949   23.2024 H   0  0  0  0  0  0
   -1.8103   -2.1749   24.1589 H   0  0  0  0  0  0
   -8.7711    1.2372   22.0044 H   0  0  0  0  0  0
   -9.2669    2.7559   20.6825 H   0  0  0  0  0  0
   -8.8989    4.1603   18.8678 H   0  0  0  0  0  0
   -7.2391    3.5593   18.9810 H   0  0  0  0  0  0
   -8.3688    2.7775   17.8927 H   0  0  0  0  0  0
   -6.6888   -5.1283   22.5098 H   0  0  0  0  0  0
   -6.1529   -4.4447   24.0100 H   0  0  0  0  0  0
   -9.0886   -5.1254   23.4634 H   0  0  0  0  0  0
   -7.9691   -6.3026   24.1046 H   0  0  0  0  0  0
   -7.5528   -4.8029   26.0942 H   0  0  0  0  0  0
   -8.7344   -3.6842   25.4917 H   0  0  0  0  0  0
   -9.3360   -6.4357   25.9347 H   0  0  0  0  0  0
  1  2  2  0  0  0
  1  6  1  0  0  0
  1 20  1  0  0  0
  2  3  1  0  0  0
  2  7  1  0  0  0
  3  4  2  0  0  0
  3 24  1  0  0  0
  4  5  1  0  0  0
  4 15  1  0  0  0
  5  6  2  0  0  0
  6 25  1  0  0  0
  7  8  1  0  0  0
  8  9  2  0  0  0
  8 13  1  0  0  0
  9 10  1  0  0  0
  9 26  1  0  0  0
 10 11  2  0  0  0
 10 14  1  0  0  0
 11 12  1  0  0  0
 11 27  1  0  0  0
 12 13  2  0  0  0
 13 28  1  0  0  0
 14 29  1  0  0  0
 14 30  1  0  0  0
 14 31  1  0  0  0
 15 16  1  0  0  0
 15 32  1  0  0  0
 16 17  2  0  0  0
 16 18  1  0  0  0
 18 19  1  0  0  0
 18 33  1  0  0  0
 19 34  1  0  0  0
 19 35  1  0  0  0
 19 36  1  0  0  0
 20 21  1  0  0  0
 20 37  1  0  0  0
 20 38  1  0  0  0
 21 22  1  0  0  0
 21 39  1  0  0  0
 21 40  1  0  0  0
 22 23  1  0  0  0
 22 41  1  0  0  0
 22 42  1  0  0  0
 23 43  1  0  0  0
M  END
> <s_m_entry_id>
5395

> <s_m_entry_name>
dock_pv.63

> <s_m_Source_Path>
/home/csk/Desktop/cluster/DUD-E-result/hxk4

> <s_m_Source_File>
dock_pv.maegz

> <i_m_Source_File_Index>
63

> <chembl_id>
CHEMBL4516141

> <chembl_pref_name>
None

> <i_lp_mmshare_version>
53161

> <r_lp_tautomer_probability>
1

> <s_lp_Force_Field>
OPLS_2005

> <r_lp_Energy>
11.586922

> <b_lp_Chiralities_Consistent>
1

> <s_lp_Variant>
CHEMBL3820_lig958 -1

> <s_i_glide_gridfile>
glide-grid_3f9m

> <i_i_glide_lignum>
1270

> <i_i_glide_rotatable_bonds>
9

> <r_i_docking_score>
-7.00347506202377

> <r_i_glide_ligand_efficiency>
-0.304498915740164

> <r_i_glide_ligand_efficiency_sa>
-0.865954410968991

> <r_i_glide_ligand_efficiency_ln>
-1.69350377399821

> <r_i_glide_gscore>
-7.00347506202377

> <r_i_glide_lipo>
-2.18038934684394

> <r_i_glide_hbond>
-0.514001603145191

> <r_i_glide_metal>
0

> <r_i_glide_rewards>
-2.34540872297804

> <r_i_glide_evdw>
-40.5148506164551

> <r_i_glide_ecoul>
-8.26651191711426

> <r_i_glide_erotb>
1.30204392933329

> <r_i_glide_esite>
0

> <r_i_glide_emodel>
-67.4507701029904

> <r_i_glide_energy>
-48.7813625335693

> <r_i_glide_einternal>
5.87478494644165

> <i_i_glide_confnum>
28

> <i_i_glide_posenum>
226

> <r_i_glide_eff_state_penalty>
0

> <s_user_duplicate_titles>
CHEMBL3820_lig958 

> <i_f3d_flags>
0

> <s_m_subgroup_title>
dock_pv

> <s_m_subgroupid>
dock_pv

> <b_m_subgroup_collapsed>
0

$$$$
CHEMBL3820_lig186
                    3D
 Schrodinger Suite 2021-1.
 51 53  0  0  1  0            999 V2000
   -7.9438   -3.5813   23.4907 C   0  0  0  0  0  0
   -7.2029   -3.0108   24.5323 C   0  0  0  0  0  0
   -6.7946   -1.6846   24.4628 C   0  0  0  0  0  0
   -7.1763   -0.9013   23.3810 C   0  0  0  0  0  0
   -7.9304   -1.4286   22.3274 C   0  0  0  0  0  0
   -8.2890   -2.7838   22.3915 C   0  0  0  0  0  0
   -5.9749   -1.1574   25.4289 O   0  0  0  0  0  0
   -4.6067   -1.3494   25.3595 C   0  0  0  0  0  0
   -3.8309   -0.6928   26.3143 C   0  0  0  0  0  0
   -2.4464   -0.8381   26.3207 C   0  0  0  0  0  0
   -1.8299   -1.6462   25.3645 C   0  0  0  0  0  0
   -2.5911   -2.3010   24.3964 C   0  0  0  0  0  0
   -3.9750   -2.1584   24.3994 C   0  0  0  0  0  0
   -0.0510   -1.8234   25.3808 S   0  0  0  0  0  0
    0.5223   -0.2950   24.4651 C   0  0  0  0  0  0
    0.3832   -1.7178   26.7777 O   0  0  0  0  0  0
    0.2923   -3.0038   24.5810 O   0  0  0  0  0  0
   -8.2560   -0.5840   21.1144 C   0  0  0  0  0  0
   -8.5251    0.7191   21.3477 N   0  0  0  0  0  0
   -8.2890   -1.0950   19.9989 O   0  0  0  0  0  0
   -8.6890    1.7237   20.3953 C   0  0  0  0  0  0
   -9.3029    2.8458   20.6885 N   0  0  0  0  0  0
   -9.0890    3.7826   19.7810 C   0  0  0  0  0  0
   -8.2890    3.4206   18.6967 C   0  0  0  0  0  0
   -7.8890    1.7342   18.8399 S   0  0  0  0  0  0
   -8.3573   -4.8972   23.4480 O   0  0  0  0  0  0
   -8.2589   -5.8074   24.5573 C   0  0  1  0  0  0
   -6.8249   -6.2717   24.9330 C   0  0  0  0  0  0
   -9.0890   -5.3533   25.7751 C   0  0  0  0  0  0
   -6.0682   -6.7334   23.7810 N   0  0  0  0  0  0
   -6.8910   -3.5763   25.3903 H   0  0  0  0  0  0
   -6.8137    0.1050   23.3479 H   0  0  0  0  0  0
   -8.8466   -3.2372   21.5835 H   0  0  0  0  0  0
   -4.3081   -0.0690   27.0555 H   0  0  0  0  0  0
   -1.8555   -0.3258   27.0671 H   0  0  0  0  0  0
   -2.1200   -2.9219   23.6466 H   0  0  0  0  0  0
   -4.5449   -2.6850   23.6484 H   0  0  0  0  0  0
    1.6094   -0.2506   24.4828 H   0  0  0  0  0  0
    0.1506   -0.3260   23.4415 H   0  0  0  0  0  0
    0.1110    0.5702   24.9810 H   0  0  0  0  0  0
   -8.7787    0.9903   22.2934 H   0  0  0  0  0  0
   -9.5156    4.7639   19.9338 H   0  0  0  0  0  0
   -7.9715    4.0093   17.8466 H   0  0  0  0  0  0
   -8.7634   -6.6950   24.1810 H   0  0  0  0  0  0
   -6.2506   -5.4968   25.4342 H   0  0  0  0  0  0
   -6.8956   -7.0962   25.6449 H   0  0  0  0  0  0
   -9.1206   -6.1388   26.5313 H   0  0  0  0  0  0
   -8.6890   -4.4593   26.2453 H   0  0  0  0  0  0
  -10.1157   -5.1407   25.4809 H   0  0  0  0  0  0
   -5.1752   -7.1065   24.0721 H   0  0  0  0  0  0
   -6.5588   -7.4999   23.3388 H   0  0  0  0  0  0
  1  6  1  0  0  0
  1 26  1  0  0  0
  1  2  2  0  0  0
  2  3  1  0  0  0
  2 31  1  0  0  0
  3  7  1  0  0  0
  3  4  2  0  0  0
  4  5  1  0  0  0
  4 32  1  0  0  0
  5 18  1  0  0  0
  5  6  2  0  0  0
  6 33  1  0  0  0
  7  8  1  0  0  0
  8  9  2  0  0  0
  8 13  1  0  0  0
  9 10  1  0  0  0
  9 34  1  0  0  0
 10 11  2  0  0  0
 10 35  1  0  0  0
 11 12  1  0  0  0
 11 14  1  0  0  0
 12 13  2  0  0  0
 12 36  1  0  0  0
 13 37  1  0  0  0
 14 15  1  0  0  0
 14 16  2  0  0  0
 14 17  2  0  0  0
 15 38  1  0  0  0
 15 39  1  0  0  0
 15 40  1  0  0  0
 18 19  1  0  0  0
 18 20  2  0  0  0
 19 21  1  0  0  0
 19 41  1  0  0  0
 21 22  2  0  0  0
 21 25  1  0  0  0
 22 23  1  0  0  0
 23 24  2  0  0  0
 23 42  1  0  0  0
 24 25  1  0  0  0
 24 43  1  0  0  0
 26 27  1  0  0  0
 27 28  1  0  0  0
 27 29  1  0  0  0
 27 44  1  0  0  0
 28 30  1  0  0  0
 28 45  1  0  0  0
 28 46  1  0  0  0
 29 47  1  0  0  0
 29 48  1  0  0  0
 29 49  1  0  0  0
 30 50  1  0  0  0
 30 51  1  0  0  0
M  END
> <s_m_entry_id>
5396

> <s_m_entry_name>
dock_pv.64

> <s_m_Source_Path>
/home/csk/Desktop/cluster/DUD-E-result/hxk4

> <s_m_Source_File>
dock_pv.maegz

> <i_m_Source_File_Index>
64

> <chembl_id>
CHEMBL561049

> <chembl_pref_name>
None

> <i_lp_mmshare_version>
53161

> <r_lp_tautomer_probability>
0.999000488399163

> <s_lp_Force_Field>
OPLS_2005

> <r_lp_Energy>
19.464101

> <b_lp_Chiralities_Consistent>
1

> <s_lp_Variant>
CHEMBL3820_lig186-2

> <s_i_glide_gridfile>
glide-grid_3f9m

> <i_i_glide_lignum>
205

> <i_i_glide_rotatable_bonds>
9

> <r_i_docking_score>
-6.98840439799831

> <r_i_glide_ligand_efficiency>
-0.23294681326661

> <r_i_glide_ligand_efficiency_sa>
-0.723819909519757

> <r_i_glide_ligand_efficiency_ln>
-1.58784162398985

> <r_i_glide_gscore>
-6.98840439799831

> <r_i_glide_lipo>
-2.13775440275237

> <r_i_glide_hbond>
-0.32

> <r_i_glide_metal>
0

> <r_i_glide_rewards>
-1.81871908795291

> <r_i_glide_evdw>
-41.3705177307129

> <r_i_glide_ecoul>
-8.95534896850586

> <r_i_glide_erotb>
0.6998973245185

> <r_i_glide_esite>
0

> <r_i_glide_emodel>
-66.2041908297119

> <r_i_glide_energy>
-50.3258666992188

> <r_i_glide_einternal>
6.40586757659912

> <i_i_glide_confnum>
14

> <i_i_glide_posenum>
2

> <r_i_glide_eff_state_penalty>
0

> <s_user_duplicate_titles>
CHEMBL3820_lig186

> <i_f3d_flags>
0

> <s_m_subgroup_title>
dock_pv

> <s_m_subgroupid>
dock_pv

> <b_m_subgroup_collapsed>
0

$$$$
CHEMBL3820_lig115
                    3D
 Schrodinger Suite 2021-1.
 35 37  0  0  1  0            999 V2000
   -6.8062   -3.3695   23.2750 C   0  0  0  0  0  0
   -6.6617   -2.6896   24.4857 C   0  0  0  0  0  0
   -7.0086   -1.3491   24.5731 C   0  0  0  0  0  0
   -7.4894   -0.6791   23.4524 C   0  0  0  0  0  0
   -7.6384   -1.3330   22.2164 C   0  0  0  0  0  0
   -7.2972   -2.6960   22.1496 C   0  0  0  0  0  0
   -8.0182   -0.5669   20.9602 C   0  0  0  0  0  0
   -8.4975    0.6814   21.1614 N   0  0  0  0  0  0
   -7.8890   -1.0861   19.8514 O   0  0  0  0  0  0
   -6.2906   -5.0567   23.1204 S   0  0  0  0  0  0
   -6.5418   -5.6861   24.7471 C   0  0  0  0  0  0
   -7.7624   -5.8952   25.3500 N   0  0  0  0  0  0
   -7.4368   -6.4063   26.5808 C   0  0  0  0  0  0
   -6.1415   -6.4962   26.7362 N   0  0  0  0  0  0
   -5.5678   -6.0353   25.5539 N   0  0  0  0  0  0
   -9.0890   -5.6254   24.8292 C   0  0  0  0  0  0
   -8.6890    1.7050   20.2436 C   0  0  0  0  0  0
   -9.3113    2.8000   20.6045 N   0  0  0  0  0  0
   -9.0890    3.8090   19.7810 C   0  0  0  0  0  0
   -8.2890    3.5063   18.6754 C   0  0  0  0  0  0
   -7.8890    1.8122   18.6978 S   0  0  0  0  0  0
   -9.7292    5.1314   20.1339 C   0  0  0  0  0  0
   -6.2581   -3.1816   25.3582 H   0  0  0  0  0  0
   -6.8821   -0.8204   25.5065 H   0  0  0  0  0  0
   -7.7156    0.3709   23.5686 H   0  0  0  0  0  0
   -7.3656   -3.2290   21.2105 H   0  0  0  0  0  0
   -8.8086    0.9123   22.0964 H   0  0  0  0  0  0
   -8.2051   -6.7117   27.2751 H   0  0  0  0  0  0
   -9.8076   -5.5619   25.6457 H   0  0  0  0  0  0
   -9.0890   -4.6956   24.2616 H   0  0  0  0  0  0
   -9.3790   -6.4489   24.1810 H   0  0  0  0  0  0
   -7.9707    4.1494   17.8667 H   0  0  0  0  0  0
   -9.3980    5.9333   19.4731 H   0  0  0  0  0  0
   -9.4894    5.4430   21.1503 H   0  0  0  0  0  0
  -10.8160    5.0866   20.0595 H   0  0  0  0  0  0
  1  6  1  0  0  0
  1  2  2  0  0  0
  1 10  1  0  0  0
  2  3  1  0  0  0
  2 23  1  0  0  0
  3  4  2  0  0  0
  3 24  1  0  0  0
  4  5  1  0  0  0
  4 25  1  0  0  0
  5  6  2  0  0  0
  5  7  1  0  0  0
  6 26  1  0  0  0
  7  8  1  0  0  0
  7  9  2  0  0  0
  8 17  1  0  0  0
  8 27  1  0  0  0
 10 11  1  0  0  0
 11 12  1  0  0  0
 11 15  2  0  0  0
 12 13  1  0  0  0
 12 16  1  0  0  0
 13 14  2  0  0  0
 13 28  1  0  0  0
 14 15  1  0  0  0
 16 29  1  0  0  0
 16 30  1  0  0  0
 16 31  1  0  0  0
 17 18  2  0  0  0
 17 21  1  0  0  0
 18 19  1  0  0  0
 19 20  2  0  0  0
 19 22  1  0  0  0
 20 21  1  0  0  0
 20 32  1  0  0  0
 22 33  1  0  0  0
 22 34  1  0  0  0
 22 35  1  0  0  0
M  END
> <s_m_entry_id>
5397

> <s_m_entry_name>
dock_pv.65

> <s_m_Source_Path>
/home/csk/Desktop/cluster/DUD-E-result/hxk4

> <s_m_Source_File>
dock_pv.maegz

> <i_m_Source_File_Index>
65

> <chembl_id>
CHEMBL491325

> <chembl_pref_name>
None

> <i_lp_mmshare_version>
53161

> <r_lp_tautomer_probability>
0.999000488399163

> <s_lp_Force_Field>
OPLS_2005

> <r_lp_Energy>
10.047698

> <b_lp_Chiralities_Consistent>
1

> <s_lp_Variant>
CHEMBL3820_lig115-1

> <s_i_glide_gridfile>
glide-grid_3f9m

> <i_i_glide_lignum>
131

> <i_i_glide_rotatable_bonds>
5

> <r_i_docking_score>
-6.98618318513257

> <r_i_glide_ligand_efficiency>
-0.317553781142389

> <r_i_glide_ligand_efficiency_sa>
-0.889798183442507

> <r_i_glide_ligand_efficiency_ln>
-1.70767799766968

> <r_i_glide_gscore>
-6.98618318513257

> <r_i_glide_lipo>
-2.45777401507491

> <r_i_glide_hbond>
-0.32

> <r_i_glide_metal>
0

> <r_i_glide_rewards>
-2.63088638435665

> <r_i_glide_evdw>
-34.7926635742188

> <r_i_glide_ecoul>
-3.7360258102417

> <r_i_glide_erotb>
0.856765402592604

> <r_i_glide_esite>
-0.134251138046418

> <r_i_glide_emodel>
-49.4330653618877

> <r_i_glide_energy>
-38.5286893844604

> <r_i_glide_einternal>
5.35132074356079

> <i_i_glide_confnum>
19

> <i_i_glide_posenum>
185

> <r_i_glide_eff_state_penalty>
0

> <s_user_duplicate_titles>
CHEMBL3820_lig115

> <i_f3d_flags>
0

> <s_m_subgroup_title>
dock_pv

> <s_m_subgroupid>
dock_pv

> <b_m_subgroup_collapsed>
0

$$$$
CHEMBL3820_lig409
                    3D
 Schrodinger Suite 2021-1.
 40 43  0  0  1  0            999 V2000
  -12.5377    6.7428   19.0607 Cl  0  0  0  0  0  0
   -8.2890    1.1294   19.6915 S   0  0  0  0  0  0
   -7.0903   -3.9269   22.3499 S   0  0  0  0  0  0
   -8.2160   -1.7453   20.5813 O   0  0  0  0  0  0
  -10.7921    5.2914   21.1245 N   0  0  0  0  0  0
  -11.3132    4.2424   21.7809 N   0  0  0  0  0  0
   -9.1506    5.6231   19.3371 N   0  0  0  0  0  0
   -8.0217    3.5676   18.6628 N   0  0  0  0  0  0
   -8.1563   -1.4072   22.8401 N   0  0  0  0  0  0
   -8.2266   -3.0735   24.5021 N   0  0  0  0  0  0
   -9.8329    4.8804   20.2135 C   0  0  0  0  0  0
   -9.6769    3.4859   20.4073 C   0  0  0  0  0  0
  -11.2150    6.5846   21.4553 C   0  0  0  0  0  0
   -8.6890    2.8547   19.6113 C   0  0  0  0  0  0
  -10.6891    3.1774   21.3671 C   0  0  0  0  0  0
  -11.9792    7.3584   20.5810 C   0  0  0  0  0  0
   -8.2889    4.8972   18.5811 C   0  0  0  0  0  0
  -10.8519    7.1003   22.7006 C   0  0  0  0  0  0
  -12.2890    8.6673   20.9522 C   0  0  0  0  0  0
   -8.6061    0.4845   21.3661 C   0  0  0  0  0  0
  -11.1834    8.3993   23.0700 C   0  0  0  0  0  0
   -8.2890   -1.0017   21.5579 C   0  0  0  0  0  0
   -7.9095   -2.7014   23.2855 C   0  0  0  0  0  0
  -11.8899    9.1957   22.1801 C   0  0  0  0  0  0
   -7.8890   -4.3290   24.7488 C   0  0  0  0  0  0
   -7.2295   -4.9862   23.7159 C   0  0  0  0  0  0
   -8.2722   -4.8951   26.0935 C   0  0  0  0  0  0
   -8.2879   -0.7161   23.5617 H   0  0  0  0  0  0
  -10.9747    2.2219   21.7734 H   0  0  0  0  0  0
   -7.7607    5.4488   17.8178 H   0  0  0  0  0  0
  -10.2893    6.4949   23.3811 H   0  0  0  0  0  0
  -12.8418    9.2895   20.2603 H   0  0  0  0  0  0
   -9.6448    0.6155   21.6447 H   0  0  0  0  0  0
   -7.9852    1.0711   22.0425 H   0  0  0  0  0  0
  -10.8855    8.7886   24.0320 H   0  0  0  0  0  0
  -12.1468   10.2120   22.4405 H   0  0  0  0  0  0
   -6.8618   -6.0019   23.6859 H   0  0  0  0  0  0
   -7.8844   -5.9057   26.2307 H   0  0  0  0  0  0
   -9.3552   -4.9671   26.1883 H   0  0  0  0  0  0
   -7.8892   -4.2954   26.9196 H   0  0  0  0  0  0
  1 16  1  0  0  0
  2 14  1  0  0  0
  2 20  1  0  0  0
  3 23  1  0  0  0
  3 26  1  0  0  0
  4 22  2  0  0  0
  5  6  1  0  0  0
  5 11  1  0  0  0
  5 13  1  0  0  0
  6 15  2  0  0  0
  7 11  1  0  0  0
  7 17  2  0  0  0
  8 14  2  0  0  0
  8 17  1  0  0  0
  9 22  1  0  0  0
  9 23  1  0  0  0
  9 28  1  0  0  0
 10 23  2  0  0  0
 10 25  1  0  0  0
 11 12  2  0  0  0
 12 14  1  0  0  0
 12 15  1  0  0  0
 13 16  1  0  0  0
 13 18  2  0  0  0
 15 29  1  0  0  0
 16 19  2  0  0  0
 17 30  1  0  0  0
 18 21  1  0  0  0
 18 31  1  0  0  0
 19 24  1  0  0  0
 19 32  1  0  0  0
 20 22  1  0  0  0
 20 33  1  0  0  0
 20 34  1  0  0  0
 21 24  2  0  0  0
 21 35  1  0  0  0
 24 36  1  0  0  0
 25 26  2  0  0  0
 25 27  1  0  0  0
 26 37  1  0  0  0
 27 38  1  0  0  0
 27 39  1  0  0  0
 27 40  1  0  0  0
M  END
> <s_m_entry_id>
5398

> <s_m_entry_name>
dock_pv.66

> <s_m_Source_Path>
/home/csk/Desktop/cluster/DUD-E-result/hxk4

> <s_m_Source_File>
dock_pv.maegz

> <i_m_Source_File_Index>
66

> <chembl_id>
CHEMBL1401244

> <chembl_pref_name>
None

> <i_lp_mmshare_version>
53161

> <r_lp_tautomer_probability>
0.999000488399163

> <s_lp_Force_Field>
OPLS_2005

> <r_lp_Energy>
9.754073

> <b_lp_Chiralities_Consistent>
1

> <s_lp_Variant>
CHEMBL3820_lig409-1

> <s_i_glide_gridfile>
glide-grid_3f9m

> <i_i_glide_lignum>
495

> <i_i_glide_rotatable_bonds>
6

> <r_i_docking_score>
-6.97794561322003

> <r_i_glide_ligand_efficiency>
-0.25844243011926

> <r_i_glide_ligand_efficiency_sa>
-0.775327289505998

> <r_i_glide_ligand_efficiency_ln>
-1.62435069833329

> <r_i_glide_gscore>
-6.97794561322003

> <r_i_glide_lipo>
-3.52422979728416

> <r_i_glide_hbond>
0

> <r_i_glide_metal>
0

> <r_i_glide_rewards>
-1.73390115802716

> <r_i_glide_evdw>
-47.0096969604492

> <r_i_glide_ecoul>
-0.343002885580063

> <r_i_glide_erotb>
0.68212062295075

> <r_i_glide_esite>
0

> <r_i_glide_emodel>
-61.2217271325169

> <r_i_glide_energy>
-47.3526998460293

> <r_i_glide_einternal>
5.04947137832642

> <i_i_glide_confnum>
19

> <i_i_glide_posenum>
16

> <r_i_glide_eff_state_penalty>
0

> <s_user_duplicate_titles>
CHEMBL3820_lig409

> <i_f3d_flags>
0

> <s_m_subgroup_title>
dock_pv

> <s_m_subgroupid>
dock_pv

> <b_m_subgroup_collapsed>
0

$$$$
CHEMBL3820_lig393
                    3D
 Schrodinger Suite 2021-1.
 47 49  0  0  1  0            999 V2000
   -8.3644   -5.0574   23.9563 N   0  0  0  0  0  0
   -8.2426   -3.9608   23.2435 C   0  0  0  0  0  0
   -7.6900   -2.8966   23.9289 N   0  0  0  0  0  0
   -7.4905   -3.4358   25.1759 C   0  0  0  0  0  0
   -7.9301   -4.7442   25.1642 C   0  0  0  0  0  0
   -8.0038   -5.7188   26.3213 C   0  0  0  0  0  0
   -7.4708   -6.8976   26.0090 F   0  0  0  0  0  0
   -7.3450   -5.2540   27.3848 F   0  0  0  0  0  0
   -9.2694   -5.8969   26.6995 F   0  0  0  0  0  0
   -7.4505   -1.4915   23.5168 C   0  0  2  0  0  0
   -7.7953   -1.1371   22.0342 C   0  0  0  0  0  0
   -5.9782   -1.0393   23.8417 C   0  0  0  0  0  0
   -5.5160   -0.8164   25.3093 C   0  0  0  0  0  0
   -4.0749   -0.2812   25.4255 C   0  0  0  0  0  0
   -4.0557    0.5307   26.7192 C   0  0  0  0  0  0
   -5.4304    1.1913   26.7566 C   0  0  0  0  0  0
   -6.3879    0.1918   26.0942 C   0  0  0  0  0  0
   -7.5305   -1.9322   21.1326 O   0  0  0  0  0  0
   -8.2890    0.1048   21.8096 N   0  0  0  0  0  0
   -8.3140    0.8681   20.6278 C   0  0  0  0  0  0
   -7.6099    0.5495   19.4619 C   0  0  0  0  0  0
   -7.4927    1.5112   18.4546 C   0  0  0  0  0  0
   -8.0710    2.7651   18.6285 C   0  0  0  0  0  0
   -8.8365    2.9975   19.7810 C   0  0  0  0  0  0
   -8.9655    2.0505   20.7487 N   0  0  0  0  0  0
   -9.4889    4.3349   20.0719 C   0  0  0  0  0  0
   -9.2197    5.3083   19.1569 O   0  0  0  0  0  0
  -10.1956    4.5354   21.0595 O   0  0  0  0  0  0
   -8.5516   -3.8613   22.2147 H   0  0  0  0  0  0
   -7.0887   -2.8693   25.9938 H   0  0  0  0  0  0
   -8.1285   -0.9031   24.1274 H   0  0  0  0  0  0
   -5.7987   -0.0809   23.3672 H   0  0  0  0  0  0
   -5.2875   -1.7438   23.3813 H   0  0  0  0  0  0
   -5.4715   -1.7632   25.8369 H   0  0  0  0  0  0
   -3.7965    0.3461   24.5812 H   0  0  0  0  0  0
   -3.3422   -1.0891   25.4637 H   0  0  0  0  0  0
   -3.2423    1.2578   26.7422 H   0  0  0  0  0  0
   -3.9326   -0.1317   27.5790 H   0  0  0  0  0  0
   -5.4053    2.1149   26.1806 H   0  0  0  0  0  0
   -5.7356    1.4529   27.7707 H   0  0  0  0  0  0
   -6.9812   -0.3271   26.8495 H   0  0  0  0  0  0
   -7.0886    0.7277   25.4524 H   0  0  0  0  0  0
   -8.5727    0.6498   22.6160 H   0  0  0  0  0  0
   -7.1002   -0.3872   19.3578 H   0  0  0  0  0  0
   -6.9312    1.3067   17.5582 H   0  0  0  0  0  0
   -7.9300    3.5242   17.8721 H   0  0  0  0  0  0
   -9.6133    6.1418   19.4260 H   0  0  0  0  0  0
  1  2  2  0  0  0
  1  5  1  0  0  0
  2  3  1  0  0  0
  2 29  1  0  0  0
  3  4  1  0  0  0
  3 10  1  0  0  0
  4  5  2  0  0  0
  4 30  1  0  0  0
  5  6  1  0  0  0
  6  7  1  0  0  0
  6  8  1  0  0  0
  6  9  1  0  0  0
 10 11  1  0  0  0
 10 12  1  0  0  0
 10 31  1  0  0  0
 11 18  2  0  0  0
 11 19  1  0  0  0
 12 13  1  0  0  0
 12 32  1  0  0  0
 12 33  1  0  0  0
 13 14  1  0  0  0
 13 17  1  0  0  0
 13 34  1  0  0  0
 14 15  1  0  0  0
 14 35  1  0  0  0
 14 36  1  0  0  0
 15 16  1  0  0  0
 15 37  1  0  0  0
 15 38  1  0  0  0
 16 17  1  0  0  0
 16 39  1  0  0  0
 16 40  1  0  0  0
 17 41  1  0  0  0
 17 42  1  0  0  0
 19 20  1  0  0  0
 19 43  1  0  0  0
 20 21  2  0  0  0
 20 25  1  0  0  0
 21 22  1  0  0  0
 21 44  1  0  0  0
 22 23  2  0  0  0
 22 45  1  0  0  0
 23 24  1  0  0  0
 23 46  1  0  0  0
 24 25  2  0  0  0
 24 26  1  0  0  0
 26 27  1  0  0  0
 26 28  2  0  0  0
 27 47  1  0  0  0
M  END
> <s_m_entry_id>
5399

> <s_m_entry_name>
dock_pv.67

> <s_m_Source_Path>
/home/csk/Desktop/cluster/DUD-E-result/hxk4

> <s_m_Source_File>
dock_pv.maegz

> <i_m_Source_File_Index>
67

> <chembl_id>
CHEMBL2165621

> <chembl_pref_name>
None

> <i_lp_mmshare_version>
53161

> <r_lp_tautomer_probability>
1

> <s_lp_Force_Field>
OPLS_2005

> <r_lp_Energy>
33.953914

> <b_lp_Chiralities_Consistent>
1

> <s_lp_Variant>
CHEMBL3820_lig393-1

> <s_i_glide_gridfile>
glide-grid_3f9m

> <i_i_glide_lignum>
471

> <i_i_glide_rotatable_bonds>
9

> <r_i_docking_score>
-6.96274222407623

> <r_i_glide_ligand_efficiency>
-0.248669365145579

> <r_i_glide_ligand_efficiency_sa>
-0.755106651005666

> <r_i_glide_ligand_efficiency_ln>
-1.60720534031175

> <r_i_glide_gscore>
-6.96274222407623

> <r_i_glide_lipo>
-2.37747222690089

> <r_i_glide_hbond>
-0.32

> <r_i_glide_metal>
0

> <r_i_glide_rewards>
-2.88874674320387

> <r_i_glide_evdw>
-32.9981651306152

> <r_i_glide_ecoul>
-2.50999093055725

> <r_i_glide_erotb>
0.871706528165772

> <r_i_glide_esite>
-0.221822886022886

> <r_i_glide_emodel>
-38.2569823056161

> <r_i_glide_energy>
-35.5081560611725

> <r_i_glide_einternal>
23.374662399292

> <i_i_glide_confnum>
37

> <i_i_glide_posenum>
142

> <r_i_glide_eff_state_penalty>
0

> <s_user_duplicate_titles>
CHEMBL3820_lig393

> <i_f3d_flags>
0

> <s_m_subgroup_title>
dock_pv

> <s_m_subgroupid>
dock_pv

> <b_m_subgroup_collapsed>
0

$$$$
CHEMBL3820_lig950 
                    3D
 Schrodinger Suite 2021-1.
 47 49  0  0  1  0            999 V2000
   -7.5725   -3.0046   22.8980 C   0  0  0  0  0  0
   -7.5273   -1.8189   23.6458 C   0  0  0  0  0  0
   -7.8734   -0.6189   23.0253 C   0  0  0  0  0  0
   -8.1721   -0.5948   21.6657 C   0  0  0  0  0  0
   -8.1634   -1.7270   20.9124 N   0  0  0  0  0  0
   -7.8743   -2.9009   21.5319 C   0  0  0  0  0  0
   -7.1510   -1.8014   24.9690 O   0  0  0  0  0  0
   -6.0374   -1.0567   25.2909 C   0  0  0  0  0  0
   -4.7786   -1.3564   24.7538 C   0  0  0  0  0  0
   -3.6739   -0.5672   25.0838 C   0  0  0  0  0  0
   -3.8685    0.5073   25.9574 C   0  0  0  0  0  0
   -5.0785    0.8163   26.4921 N   0  0  0  0  0  0
   -6.1381    0.0332   26.1608 C   0  0  0  0  0  0
   -2.3044   -0.8828   24.5128 C   0  0  0  0  0  0
   -8.5138    0.6567   21.1392 N   0  0  0  0  0  0
   -8.2895    1.1253   19.8990 C   0  0  0  0  0  0
   -7.7442    0.5047   18.9907 O   0  0  0  0  0  0
   -8.6893    2.3981   19.7841 N   0  0  0  0  0  0
   -8.2340    3.3073   18.7376 C   0  0  0  0  0  0
   -7.3654   -4.3846   23.5188 C   0  0  2  0  0  0
   -8.3545   -4.9266   24.5752 C   0  0  0  0  0  0
   -7.2158   -5.7897   25.1484 C   0  0  2  0  0  0
   -6.2685   -4.7237   24.5600 C   0  0  0  0  0  0
   -7.0890   -7.0802   24.5814 O   0  0  0  0  0  0
   -7.1939   -5.9024   26.6803 C   0  0  0  0  0  0
   -7.8873    0.2829   23.6131 H   0  0  0  0  0  0
   -7.8945   -3.7771   20.9018 H   0  0  0  0  0  0
   -4.6647   -2.1936   24.0808 H   0  0  0  0  0  0
   -3.0442    1.1457   26.2404 H   0  0  0  0  0  0
   -7.0868    0.3057   26.5986 H   0  0  0  0  0  0
   -1.5163   -0.2946   24.9854 H   0  0  0  0  0  0
   -2.0674   -1.9360   24.6659 H   0  0  0  0  0  0
   -2.2862   -0.6968   23.4385 H   0  0  0  0  0  0
   -8.8074    1.3266   21.8370 H   0  0  0  0  0  0
   -9.3026    2.7847   20.4856 H   0  0  0  0  0  0
   -8.8828    4.1804   18.6865 H   0  0  0  0  0  0
   -8.2307    2.8257   17.7586 H   0  0  0  0  0  0
   -7.2225    3.6504   18.9540 H   0  0  0  0  0  0
   -7.2739   -5.1073   22.7119 H   0  0  0  0  0  0
   -8.6966   -4.1329   25.2434 H   0  0  0  0  0  0
   -9.2241   -5.4527   24.1794 H   0  0  0  0  0  0
   -5.3281   -5.0822   24.1393 H   0  0  0  0  0  0
   -6.0574   -3.9102   25.2511 H   0  0  0  0  0  0
   -7.8285   -7.6268   24.8807 H   0  0  0  0  0  0
   -7.2887   -4.9275   27.1601 H   0  0  0  0  0  0
   -8.0125   -6.5270   27.0396 H   0  0  0  0  0  0
   -6.2609   -6.3488   27.0256 H   0  0  0  0  0  0
  1  2  2  0  0  0
  1  6  1  0  0  0
  1 20  1  0  0  0
  2  3  1  0  0  0
  2  7  1  0  0  0
  3  4  2  0  0  0
  3 26  1  0  0  0
  4  5  1  0  0  0
  4 15  1  0  0  0
  5  6  2  0  0  0
  6 27  1  0  0  0
  7  8  1  0  0  0
  8  9  2  0  0  0
  8 13  1  0  0  0
  9 10  1  0  0  0
  9 28  1  0  0  0
 10 11  2  0  0  0
 10 14  1  0  0  0
 11 12  1  0  0  0
 11 29  1  0  0  0
 12 13  2  0  0  0
 13 30  1  0  0  0
 14 31  1  0  0  0
 14 32  1  0  0  0
 14 33  1  0  0  0
 15 16  1  0  0  0
 15 34  1  0  0  0
 16 17  2  0  0  0
 16 18  1  0  0  0
 18 19  1  0  0  0
 18 35  1  0  0  0
 19 36  1  0  0  0
 19 37  1  0  0  0
 19 38  1  0  0  0
 20 21  1  0  0  0
 20 23  1  0  0  0
 20 39  1  0  0  0
 21 22  1  0  0  0
 21 40  1  0  0  0
 21 41  1  0  0  0
 22 23  1  0  0  0
 22 24  1  0  0  0
 22 25  1  0  0  0
 23 42  1  0  0  0
 23 43  1  0  0  0
 24 44  1  0  0  0
 25 45  1  0  0  0
 25 46  1  0  0  0
 25 47  1  0  0  0
M  END
> <s_m_entry_id>
5400

> <s_m_entry_name>
dock_pv.68

> <s_m_Source_Path>
/home/csk/Desktop/cluster/DUD-E-result/hxk4

> <s_m_Source_File>
dock_pv.maegz

> <i_m_Source_File_Index>
68

> <chembl_id>
CHEMBL4590983

> <chembl_pref_name>
None

> <i_lp_mmshare_version>
53161

> <r_lp_tautomer_probability>
1

> <s_lp_Force_Field>
OPLS_2005

> <r_lp_Energy>
16.921672

> <b_lp_Chiralities_Consistent>
1

> <s_lp_Variant>
CHEMBL3820_lig950 -1

> <s_i_glide_gridfile>
glide-grid_3f9m

> <i_i_glide_lignum>
1261

> <i_i_glide_rotatable_bonds>
7

> <r_i_docking_score>
-6.9442287178653

> <r_i_glide_ligand_efficiency>
-0.277769148714612

> <r_i_glide_ligand_efficiency_sa>
-0.812201917098353

> <r_i_glide_ligand_efficiency_ln>
-1.64599030787597

> <r_i_glide_gscore>
-6.9442287178653

> <r_i_glide_lipo>
-2.25824869850998

> <r_i_glide_hbond>
-0.420040042482538

> <r_i_glide_metal>
0

> <r_i_glide_rewards>
-2.19958396874912

> <r_i_glide_evdw>
-39.9091567993164

> <r_i_glide_ecoul>
-5.86420059204102

> <r_i_glide_erotb>
0.808731920648313

> <r_i_glide_esite>
0

> <r_i_glide_emodel>
-63.6302588071645

> <r_i_glide_energy>
-45.7733573913574

> <r_i_glide_einternal>
5.6021842956543

> <i_i_glide_confnum>
5

> <i_i_glide_posenum>
309

> <r_i_glide_eff_state_penalty>
0

> <s_user_duplicate_titles>
CHEMBL3820_lig950 

> <i_f3d_flags>
0

> <s_m_subgroup_title>
dock_pv

> <s_m_subgroupid>
dock_pv

> <b_m_subgroup_collapsed>
0

$$$$
CHEMBL3820_lig541
                    3D
 Schrodinger Suite 2021-1.
 49 52  0  0  1  0            999 V2000
   -7.4716   -2.3712   21.9027 C   0  0  0  0  0  0
   -7.5545   -1.2328   22.7296 C   0  0  0  0  0  0
   -7.8889   -0.0051   22.1132 C   0  0  0  0  0  0
   -8.1044    0.0582   20.7311 C   0  0  0  0  0  0
   -8.0187   -1.1170   20.0267 C   0  0  0  0  0  0
   -7.7045   -2.3110   20.5760 N   0  0  0  0  0  0
   -6.9083   -3.5919   22.2933 N   0  0  0  0  0  0
   -8.4559    1.5451   19.8234 S   0  0  0  0  0  0
   -9.4060    2.5025   21.0068 C   0  0  0  0  0  0
  -10.0550    3.7943   20.5810 C   0  0  0  0  0  0
  -11.3492    4.1059   21.0150 C   0  0  0  0  0  0
  -11.8890    5.3436   20.6684 C   0  0  0  0  0  0
  -11.1233    6.2328   19.9194 C   0  0  0  0  0  0
   -9.8389    5.8439   19.5335 C   0  0  0  0  0  0
   -9.2997    4.6433   19.8424 N   0  0  0  0  0  0
   -6.0802   -5.6331   23.7817 S   0  0  0  0  0  0
   -7.1830   -4.3531   23.3968 C   0  0  0  0  0  0
   -8.2391   -4.2789   24.1689 N   0  0  0  0  0  0
   -8.2624   -5.2556   25.0603 C   0  0  0  0  0  0
   -7.1622   -6.1057   25.0490 C   0  0  0  0  0  0
   -9.4722   -5.3560   25.9520 C   0  0  0  0  0  0
   -7.2373   -1.3570   24.0678 O   0  0  0  0  0  0
   -6.6881   -0.2344   24.7532 C   0  0  0  0  0  0
   -6.3034   -0.6193   26.1750 C   0  0  0  0  0  0
   -6.3754    0.3406   27.1892 C   0  0  0  0  0  0
   -6.0479   -0.0040   28.4977 C   0  0  0  0  0  0
   -5.6427   -1.3052   28.7881 C   0  0  0  0  0  0
   -5.5589   -2.2651   27.7817 C   0  0  0  0  0  0
   -5.8873   -1.9217   26.4730 C   0  0  0  0  0  0
   -7.8892    0.9048   22.6846 H   0  0  0  0  0  0
   -8.2282   -1.0960   18.9810 H   0  0  0  0  0  0
   -6.6829   -4.1087   21.4572 H   0  0  0  0  0  0
  -10.1713    1.8261   21.3810 H   0  0  0  0  0  0
   -8.6992    2.7742   21.7811 H   0  0  0  0  0  0
  -11.9210    3.4133   21.6158 H   0  0  0  0  0  0
  -12.8847    5.6180   20.9842 H   0  0  0  0  0  0
  -11.5134    7.2052   19.6572 H   0  0  0  0  0  0
   -9.1960    6.5051   18.9809 H   0  0  0  0  0  0
   -6.9740   -6.9744   25.6639 H   0  0  0  0  0  0
  -10.1954   -4.5579   25.7832 H   0  0  0  0  0  0
   -9.1784   -5.3560   26.9998 H   0  0  0  0  0  0
   -9.9954   -6.2948   25.7802 H   0  0  0  0  0  0
   -5.7881    0.1038   24.2404 H   0  0  0  0  0  0
   -7.4019    0.5905   24.7804 H   0  0  0  0  0  0
   -6.6927    1.3508   26.9702 H   0  0  0  0  0  0
   -6.1060    0.7352   29.2836 H   0  0  0  0  0  0
   -5.3869   -1.5715   29.8033 H   0  0  0  0  0  0
   -5.2407   -3.2711   28.0132 H   0  0  0  0  0  0
   -5.8257   -2.6699   25.6950 H   0  0  0  0  0  0
  1  2  1  0  0  0
  1  6  2  0  0  0
  1  7  1  0  0  0
  2  3  2  0  0  0
  2 22  1  0  0  0
  3  4  1  0  0  0
  3 30  1  0  0  0
  4  5  2  0  0  0
  4  8  1  0  0  0
  5  6  1  0  0  0
  5 31  1  0  0  0
  7 17  1  0  0  0
  7 32  1  0  0  0
  8  9  1  0  0  0
  9 10  1  0  0  0
  9 33  1  0  0  0
  9 34  1  0  0  0
 10 11  1  0  0  0
 10 15  2  0  0  0
 11 12  2  0  0  0
 11 35  1  0  0  0
 12 13  1  0  0  0
 12 36  1  0  0  0
 13 14  2  0  0  0
 13 37  1  0  0  0
 14 15  1  0  0  0
 14 38  1  0  0  0
 16 17  1  0  0  0
 16 20  1  0  0  0
 17 18  2  0  0  0
 18 19  1  0  0  0
 19 20  2  0  0  0
 19 21  1  0  0  0
 20 39  1  0  0  0
 21 40  1  0  0  0
 21 41  1  0  0  0
 21 42  1  0  0  0
 22 23  1  0  0  0
 23 24  1  0  0  0
 23 43  1  0  0  0
 23 44  1  0  0  0
 24 25  1  0  0  0
 24 29  2  0  0  0
 25 26  2  0  0  0
 25 45  1  0  0  0
 26 27  1  0  0  0
 26 46  1  0  0  0
 27 28  2  0  0  0
 27 47  1  0  0  0
 28 29  1  0  0  0
 28 48  1  0  0  0
 29 49  1  0  0  0
M  END
> <s_m_entry_id>
5401

> <s_m_entry_name>
dock_pv.69

> <s_m_Source_Path>
/home/csk/Desktop/cluster/DUD-E-result/hxk4

> <s_m_Source_File>
dock_pv.maegz

> <i_m_Source_File_Index>
69

> <chembl_id>
CHEMBL2430860

> <chembl_pref_name>
None

> <i_lp_mmshare_version>
53161

> <r_lp_tautomer_probability>
0.999999404453161

> <s_lp_Force_Field>
OPLS_2005

> <r_lp_Energy>
19.390598

> <b_lp_Chiralities_Consistent>
1

> <s_lp_Variant>
CHEMBL3820_lig541-1

> <s_i_glide_gridfile>
glide-grid_3f9m

> <i_i_glide_lignum>
675

> <i_i_glide_rotatable_bonds>
8

> <r_i_docking_score>
-6.83546085415041

> <r_i_glide_ligand_efficiency>
-0.235705546694842

> <r_i_glide_ligand_efficiency_sa>
-0.724162116205221

> <r_i_glide_ligand_efficiency_ln>
-1.56514720326871

> <r_i_glide_gscore>
-6.83546085415041

> <r_i_glide_lipo>
-4.09648893195902

> <r_i_glide_hbond>
0

> <r_i_glide_metal>
0

> <r_i_glide_rewards>
-0.925021515151515

> <r_i_glide_evdw>
-46.7235298156738

> <r_i_glide_ecoul>
-2.48719954490662

> <r_i_glide_erotb>
0.895306015479814

> <r_i_glide_esite>
0

> <r_i_glide_emodel>
-56.4703815073683

> <r_i_glide_energy>
-49.2107293605804

> <r_i_glide_einternal>
15.1137952804565

> <i_i_glide_confnum>
5

> <i_i_glide_posenum>
47

> <r_i_glide_eff_state_penalty>
0

> <s_user_duplicate_titles>
CHEMBL3820_lig541

> <i_f3d_flags>
0

> <s_m_subgroup_title>
dock_pv

> <s_m_subgroupid>
dock_pv

> <b_m_subgroup_collapsed>
0

$$$$
